data_PCOD8024774
_publ_section_title
;
Structure prediction by ZEFSAII (Michael W. Deem and Ramdas Pophale) SiO2 
 PCOD8024774
Probable space group: P -1
;
_chemical_formula_sum "Si O2"
_cell_formula_units_Z 16
_cell_length_a 17.827492
_cell_length_b 8.117722
_cell_length_c 6.527957
_cell_angle_alpha 91.259495
_cell_angle_beta 48.583521
_cell_angle_gamma 100.857920
_cell_volume 688.990488
_symmetry_space_group_name_H-M "P -1"
_symmetry_group_IT_number 2
_symmetry_cell_setting 'triclinic'
loop_
_space_group_symop_operation_xyz
x,y,z
-x,-y,-z
loop_
_atom_site_type_symbol
_atom_site_label
_atom_site_fract_x
_atom_site_fract_y
_atom_site_fract_z
Si Si1 0.359663 0.796888 0.785991
Si Si2 0.937702 0.599778 0.261956
Si Si3 0.990114 0.806068 0.563221
Si Si4 0.691358 0.007794 0.490928
Si Si5 0.815060 0.262487 0.598855
Si Si6 0.497560 0.745148 0.877268
Si Si7 0.182271 0.257620 0.818266
Si Si8 0.387252 0.530373 0.432512
O O1 0.440819 0.848362 0.826042
O O2 0.387976 0.628020 0.645459
O O3 0.364493 0.936460 0.605539
O O4 0.245076 0.764121 0.080014
O O5 0.003652 0.692307 0.337593
O O6 0.838255 0.460986 0.513149
O O7 0.899891 0.748192 0.215675
O O8 0.000000 0.500000 0.000000
O O9 0.078476 0.795433 0.566428
O O10 0.876914 0.730343 0.861253
O O11 0.000000 0.000000 0.500000
O O12 0.599692 0.879667 0.777793
O O13 0.776995 0.912394 0.257608
O O14 0.747796 0.162148 0.532976
O O15 0.532041 0.588003 0.703105
O O16 0.418696 0.670934 0.199573
O O17 0.271991 0.421310 0.613455
#
# Coordination Sequence:
#
# PCOD8024774 Si02
#       8
#     2   2   2   2   2   2   2   2
#     4  12  23  40  68  98 138 177 230 282 347 414
#     4  12  26  43  72  98 137 185 232 284 345 401
#     4  12  27  45  70 104 142 183 232 284 346 418
#     4  11  26  43  68 100 140 183 228 289 351 407
#     4  12  27  43  68 103 138 180 235 282 342 421
#     4  10  23  45  67 101 133 179 230 290 346 415
#     4  11  24  45  69  97 140 184 232 284 346 410
#     4  10  23  43  72  97 135 178 232 284 350 408
#
# _framework density 23.222382
#
# number of rings (size 3 to 8) (size 9 to 14) (size 15 to 20)
#    0.000    0.750    1.250    5.625    5.250    4.000 
#    0.000    6.250    0.000    0.000    0.000    0.000 
#    0.000    0.000    0.000    0.000    0.000    0.000 
#
# Total GULP energy -198372.554890 kJ/mol
# GULP energy per Si atom -12398.284681 kJ/mol
# Density = 2.316953 g / cm^3
# Si number density = 23.222382 Si / 1000 Ang^3
#
#
#
# Elastic Constant Matrix: (Units=GPa)
#
#
# Indices 1 2 3 4 5 6 
#
# 1 126.1116 47.8679 35.7839 -2.3932 1.5790 -14.2653
# 2 47.8679 106.1988 38.9566 -3.8945 4.6047 3.2551
# 3 35.7839 38.9566 140.1258 -4.4962 -14.4286 7.5929
# 4 -2.3932 -3.8945 -4.4962 37.6982 -2.0386 -0.9769
# 5 1.5790 4.6047 -14.4286 -2.0386 31.8088 -2.8593
# 6 -14.2653 3.2551 7.5929 -0.9769 -2.8593 40.3642
#
#
#
# Elastic Compliance Matrix: (Units=1/GPa)
#
#
# Indices 1 2 3 4 5 6 
#
# 1 0.010536 -0.004209 -0.001787 0.000117 -0.000323 0.004379
# 2 -0.004209 0.012464 -0.002555 0.000500 -0.002921 -0.002207
# 3 -0.001787 -0.002555 0.008878 0.000873 0.004383 -0.001764
# 4 0.000117 0.000500 0.000873 0.026819 0.002093 0.000634
# 5 -0.000323 -0.002921 0.004383 0.002093 0.034158 0.001767
# 6 0.004379 -0.002207 -0.001764 0.000634 0.001767 0.026972
#
#
# Mechanical properties :
#
#
# Convention : Reuss Voigt Hill
#
# Bulk Modulus (GPa) = 67.68493 68.62809 68.15651
# Shear Modulus (GPa) = 35.24722 38.62942 36.93832
#
# Velocity S-wave (km/s) = 3.90014 4.08297 3.99260
# Velocity P-wave (km/s) = 7.03499 7.20030 7.11813
#
# Compressibility (1/GPa) = 0.01477434
#
# Stress axis : x y z
#
# Youngs Moduli (GPa) = 94.91355 80.23403 112.63660
#
# Poissons Ratio (x) = 0.33773 0.20130
# Poissons Ratio (y) = 0.39952 0.28781
# Poissons Ratio (z) = 0.16962 0.20501
#
# Static dielectric constant tensor:
#      x y z
#    x 4.028020 -0.145340 -0.110950 
#    y -0.145340 4.157060 -0.057710 
#    z -0.110950 -0.057710 4.418230 
# 
# 
# High freq. dielectric constant tensor:
#      x y z
#    x 1.917250 -0.012280 -0.011760 
#    y -0.012280 1.920220 -0.002590 
#    z -0.011760 -0.002590 1.931770 
# 
# From -- ./inp_files/106852.got.cif
#   From: 2010.06.25/outbox.cif.g09.slc.cpg/sg2_54_cif.got.tgz:106852.got - 2010.06.27 13:26:56.
