data_PCOD8024707
_publ_section_title
;
Structure prediction by ZEFSAII (Michael W. Deem and Ramdas Pophale) SiO2 
 PCOD8024707
Probable space group: P -1
;
_chemical_formula_sum "Si O2"
_cell_formula_units_Z 16
_cell_length_a 7.938491
_cell_length_b 16.744470
_cell_length_c 8.646116
_cell_angle_alpha 94.495883
_cell_angle_beta 50.244611
_cell_angle_gamma 66.670370
_cell_volume 716.207051
_symmetry_space_group_name_H-M "P -1"
_symmetry_group_IT_number 2
_symmetry_cell_setting 'triclinic'
loop_
_space_group_symop_operation_xyz
x,y,z
-x,-y,-z
loop_
_atom_site_type_symbol
_atom_site_label
_atom_site_fract_x
_atom_site_fract_y
_atom_site_fract_z
Si Si1 0.405396 0.730116 0.024814
Si Si2 0.608494 0.559522 0.378471
Si Si3 0.249993 0.766704 0.775300
Si Si4 0.992109 0.432907 0.372805
Si Si5 0.289658 0.931886 0.662207
Si Si6 0.404422 0.582540 0.197358
Si Si7 0.365837 0.077183 0.820974
Si Si8 0.201791 0.947892 0.236450
O O1 0.326370 0.725531 0.896922
O O2 0.724119 0.666243 0.848328
O O3 0.286616 0.685570 0.197017
O O4 0.285451 0.838366 0.166753
O O5 0.500000 0.500000 0.500000
O O6 0.404151 0.675074 0.556101
O O7 0.894883 0.501694 0.287274
O O8 0.650839 0.550497 0.165719
O O9 0.355447 0.834070 0.690038
O O10 0.928510 0.825044 0.954432
O O11 0.815373 0.400510 0.547483
O O12 0.000000 0.500000 0.500000
O O13 0.489071 0.901794 0.395430
O O14 0.341548 0.990364 0.766695
O O15 0.969922 0.996036 0.810074
O O16 0.500000 0.500000 0.000000
O O17 0.542620 0.048722 0.872083
O O18 0.000000 0.000000 0.500000
#
# Coordination Sequence:
#
# PCOD8024707 Si02
#       8
#     2   2   2   2   2   2   2   2
#     4  12  25  44  69 101 143 185 232 295 349 422
#     4  10  24  44  68 101 141 176 232 290 338 428
#     4  12  24  44  71 102 140 184 236 287 356 422
#     4  11  22  47  67 103 139 177 237 285 353 422
#     4  10  23  47  67 101 144 180 232 294 344 422
#     4  11  24  45  69  96 142 186 226 291 353 413
#     4  10  23  43  70  98 139 185 229 289 357 408
#     4  10  24  45  67 103 143 181 241 291 345 434
#
# _framework density 22.339907
#
# number of rings (size 3 to 8) (size 9 to 14) (size 15 to 20)
#    0.000    1.250    3.750    1.125    7.000    2.000 
#    0.000    0.000    0.000    0.000    0.000    0.000 
#    0.000    0.000    0.000    0.000    0.000    0.000 
#
# Total GULP energy -198274.314941 kJ/mol
# GULP energy per Si atom -12392.144684 kJ/mol
# Density = 2.228906 g / cm^3
# Si number density = 22.339907 Si / 1000 Ang^3
#
#
#
# Elastic Constant Matrix: (Units=GPa)
#
#
# Indices 1 2 3 4 5 6 
#
# 1 150.9410 50.7254 24.2452 1.2695 16.4768 -13.9072
# 2 50.7254 144.9458 44.2696 -4.1044 13.6623 -8.8378
# 3 24.2452 44.2696 96.4773 11.0378 -0.1537 -3.1884
# 4 1.2695 -4.1044 11.0378 45.4979 1.3755 0.3129
# 5 16.4768 13.6623 -0.1537 1.3755 42.0257 7.1198
# 6 -13.9072 -8.8378 -3.1884 0.3129 7.1198 22.9135
#
#
#
# Elastic Compliance Matrix: (Units=1/GPa)
#
#
# Indices 1 2 3 4 5 6 
#
# 1 0.008311 -0.001950 -0.001016 -0.000091 -0.003514 0.005244
# 2 -0.001950 0.009247 -0.003886 0.001897 -0.002771 0.002677
# 3 -0.001016 -0.003886 0.012774 -0.003475 0.001975 -0.000904
# 4 -0.000091 0.001897 -0.003475 0.023036 -0.001401 0.000313
# 5 -0.003514 -0.002771 0.001975 -0.001401 0.028098 -0.011638
# 6 0.005244 0.002677 -0.000904 0.000313 -0.011638 0.051344
#
#
# Mechanical properties :
#
#
# Convention : Reuss Voigt Hill
#
# Bulk Modulus (GPa) = 60.13615 70.09384 65.11499
# Shear Modulus (GPa) = 32.88268 40.29568 36.58918
#
# Velocity S-wave (km/s) = 3.84073 4.25167 4.05141
# Velocity P-wave (km/s) = 6.82975 7.45295 7.14814
#
# Compressibility (1/GPa) = 0.01662893
#
# Stress axis : x y z
#
# Youngs Moduli (GPa) = 120.32189 108.14880 78.28273
#
# Poissons Ratio (x) = 0.21089 0.07951
# Poissons Ratio (y) = 0.23463 0.30419
# Poissons Ratio (z) = 0.12221 0.42024
#
# Static dielectric constant tensor:
#      x y z
#    x 4.997210 -0.521480 0.056830 
#    y -0.521480 4.262120 -0.024970 
#    z 0.056830 -0.024970 3.879510 
# 
# 
# High freq. dielectric constant tensor:
#      x y z
#    x 1.898090 -0.005590 0.008930 
#    y -0.005590 1.882840 -0.002890 
#    z 0.008930 -0.002890 1.879480 
# 
# From -- ./inp_files/217613.got.cif
#   From: 2010.06.25/outbox.cif.g09.slc.cpg/sg2_109_cif.got.tgz:217613.got - 2010.06.27 13:26:56.
