data_PCOD8024654
_publ_section_title
;
Structure prediction by ZEFSAII (Michael W. Deem and Ramdas Pophale) SiO2 
 PCOD8024654
Probable space group: P -1
;
_chemical_formula_sum "Si O2"
_cell_formula_units_Z 14
_cell_length_a 9.506706
_cell_length_b 10.565762
_cell_length_c 10.066279
_cell_angle_alpha 116.971247
_cell_angle_beta 135.980960
_cell_angle_gamma 79.910030
_cell_volume 607.313118
_symmetry_space_group_name_H-M "P -1"
_symmetry_group_IT_number 2
_symmetry_cell_setting 'triclinic'
loop_
_space_group_symop_operation_xyz
x,y,z
-x,-y,-z
loop_
_atom_site_type_symbol
_atom_site_label
_atom_site_fract_x
_atom_site_fract_y
_atom_site_fract_z
Si Si1 0.027968 0.899351 0.094480
Si Si2 0.432434 0.352935 0.970243
Si Si3 0.130918 0.656845 0.624285
Si Si4 0.710829 0.625124 0.837688
Si Si5 0.202164 0.173913 0.501338
Si Si6 0.588088 0.170309 0.619130
Si Si7 0.714838 0.363519 0.557193
O O1 0.194704 0.798992 0.133851
O O2 0.119226 0.000619 0.333091
O O3 0.811559 0.788007 0.929623
O O4 0.000000 0.000000 0.000000
O O5 0.637794 0.303944 0.137150
O O6 0.282994 0.381180 0.001425
O O7 0.500000 0.500000 0.000000
O O8 0.286640 0.215476 0.726950
O O9 0.132758 0.666989 0.469210
O O10 0.000000 0.500000 0.500000
O O11 0.996877 0.764300 0.642017
O O12 0.817249 0.500867 0.789462
O O13 0.469441 0.587441 0.619521
O O14 0.408516 0.247407 0.586236
O O15 0.639461 0.217456 0.524269
O O16 0.500000 0.000000 0.500000
#
# Coordination Sequence:
#
# PCOD8024654 Si02
#       7
#     2   2   2   2   2   2   2
#     4  11  26  44  72 100 135 188 239 282 355 418
#     4  11  23  42  68 105 142 179 231 287 356 404
#     4  11  25  42  71 106 141 186 228 292 350 411
#     4  10  23  43  70 102 135 184 234 289 339 418
#     4  11  25  45  68 100 145 179 232 287 349 411
#     4  10  23  44  70  99 136 181 227 286 342 417
#     4  10  23  44  71 101 140 176 239 289 342 411
#
# _framework density 23.052358999999999
#
# number of rings (size 3 to 8) (size 9 to 14) (size 15 to 20)
#    0.000    1.429    1.429    2.571   10.000    1.143 
#    2.571    1.429    0.000    0.000    0.000    0.000 
#    0.000    0.000    0.000    0.000    0.000    0.000 
#
# Total GULP energy -173456.851216 kJ/mol
# GULP energy per Si atom -12389.775087 kJ/mol
# Density = 2.299989 g / cm^3
# Si number density = 23.052359 Si / 1000 Ang^3
#
#
#
# Elastic Constant Matrix: (Units=GPa)
#
#
# Indices 1 2 3 4 5 6 
#
# 1 133.7883 58.4543 28.8756 -6.5263 -15.1646 7.5680
# 2 58.4543 101.1108 29.5331 -0.6264 -12.1172 14.6504
# 3 28.8756 29.5331 118.6873 5.3210 -8.0766 -2.3422
# 4 -6.5263 -0.6264 5.3210 42.1607 -0.1963 7.9442
# 5 -15.1646 -12.1172 -8.0766 -0.1963 32.0684 -12.4038
# 6 7.5680 14.6504 -2.3422 7.9442 -12.4038 52.7696
#
#
#
# Elastic Compliance Matrix: (Units=1/GPa)
#
#
# Indices 1 2 3 4 5 6 
#
# 1 0.010455 -0.005445 -0.001065 0.001614 0.002773 0.000374
# 2 -0.005445 0.014260 -0.002221 0.000231 0.001072 -0.003060
# 3 -0.001065 -0.002221 0.009471 -0.001736 0.001752 0.001863
# 4 0.001614 0.000231 -0.001736 0.025016 -0.001138 -0.004406
# 5 0.002773 0.001072 0.001752 -0.001138 0.036478 0.008128
# 6 0.000374 -0.003060 0.001863 -0.004406 0.008128 0.022403
#
#
# Mechanical properties :
#
#
# Convention : Reuss Voigt Hill
#
# Bulk Modulus (GPa) = 59.79647 65.25695 62.52671
# Shear Modulus (GPa) = 35.43050 41.18131 38.30591
#
# Velocity S-wave (km/s) = 3.92466 4.23120 4.08081
# Velocity P-wave (km/s) = 6.82151 7.22775 7.02756
#
# Compressibility (1/GPa) = 0.01672339
#
# Stress axis : x y z
#
# Youngs Moduli (GPa) = 95.64445 70.12542 105.58301
#
# Poissons Ratio (x) = 0.38185 0.11245
# Poissons Ratio (y) = 0.52081 0.23454
# Poissons Ratio (z) = 0.10187 0.15578
#
# Static dielectric constant tensor:
#      x y z
#    x 17.388470 -12.589550 3.540780 
#    y -12.589550 15.825450 -3.436910 
#    z 3.540780 -3.436910 5.466410 
# 
# 
# High freq. dielectric constant tensor:
#      x y z
#    x 1.921190 -0.007080 0.008010 
#    y -0.007080 1.899540 -0.008490 
#    z 0.008010 -0.008490 1.912670 
# 
# From -- ./inp_files/190524.got.cif
#   From: 2010.06.25/outbox.cif.g09.slc.cpg/sg2_96_cif.got.tgz:190524.got - 2010.06.27 13:26:56.
