data_PCOD8024453
_publ_section_title
;
Structure prediction by ZEFSAII (Michael W. Deem and Ramdas Pophale) SiO2 
 PCOD8024453
Probable space group: P -1
;
_chemical_formula_sum "Si O2"
_cell_formula_units_Z 16
_cell_length_a 9.596901
_cell_length_b 12.224134
_cell_length_c 8.732361
_cell_angle_alpha 120.522997
_cell_angle_beta 112.467414
_cell_angle_gamma 58.252851
_cell_volume 741.138255
_symmetry_space_group_name_H-M "P -1"
_symmetry_group_IT_number 2
_symmetry_cell_setting 'triclinic'
loop_
_space_group_symop_operation_xyz
x,y,z
-x,-y,-z
loop_
_atom_site_type_symbol
_atom_site_label
_atom_site_fract_x
_atom_site_fract_y
_atom_site_fract_z
Si Si1 0.214224 0.920080 0.842715
Si Si2 0.728748 0.863298 0.767651
Si Si3 0.608385 0.344355 0.761658
Si Si4 0.458089 0.663493 0.925077
Si Si5 0.083834 0.123336 0.419582
Si Si6 0.620847 0.090722 0.413021
Si Si7 0.218677 0.342000 0.088335
Si Si8 0.936659 0.336921 0.772716
O O1 0.300685 0.761991 0.830132
O O2 0.306688 0.938869 0.746626
O O3 0.023779 0.955349 0.748565
O O4 0.222449 0.025125 0.047869
O O5 0.856536 0.803251 0.637710
O O6 0.542109 0.940280 0.678251
O O7 0.738398 0.736179 0.787651
O O8 0.486026 0.504995 0.790075
O O9 0.568879 0.251638 0.553534
O O10 0.798563 0.323363 0.814090
O O11 0.576188 0.300209 0.884920
O O12 0.616447 0.691818 0.964302
O O13 0.966030 0.239641 0.568923
O O14 0.245900 0.007715 0.482013
O O15 0.119053 0.505586 0.197570
O O16 0.105798 0.285002 0.903201
#
# Coordination Sequence:
#
# PCOD8024453 Si02
#       8
#     2   2   2   2   2   2   2   2
#     4  12  25  44  67  96 128 173 215 270 322 378
#     4  12  27  43  67  96 132 171 216 268 320 383
#     4  10  23  43  68  96 130 171 215 263 321 386
#     4  10  23  43  68  96 130 171 215 263 321 386
#     4  12  27  43  67  96 132 171 216 268 320 383
#     4  12  25  44  67  96 128 173 215 270 322 378
#     4  10  23  43  67  96 132 172 212 263 325 383
#     4  10  23  43  67  96 132 172 212 263 325 383
#
# _framework density 21.588415000000001
#
# number of rings (size 3 to 8) (size 9 to 14) (size 15 to 20)
#    0.000    1.000    2.500    3.000    7.000    2.000 
#    0.000    0.000    0.000    0.000    0.000    0.000 
#    0.000    0.000    0.000    0.000    0.000    0.000 
#
# Total GULP energy -198515.293856 kJ/mol
# GULP energy per Si atom -12407.205866 kJ/mol
# Density = 2.153928 g / cm^3
# Si number density = 21.588415 Si / 1000 Ang^3
#
#
#
# Elastic Constant Matrix: (Units=GPa)
#
#
# Indices 1 2 3 4 5 6 
#
# 1 71.6821 27.5944 15.4773 -2.7394 -10.9438 2.2903
# 2 27.5944 88.8931 38.1599 -7.6399 -1.6334 -3.6860
# 3 15.4773 38.1599 71.6839 -0.6541 9.6669 -5.6240
# 4 -2.7394 -7.6399 -0.6541 23.8051 -1.1690 2.4740
# 5 -10.9438 -1.6334 9.6669 -1.1690 44.1172 -8.2840
# 6 2.2903 -3.6860 -5.6240 2.4740 -8.2840 30.2207
#
#
#
# Elastic Compliance Matrix: (Units=1/GPa)
#
#
# Indices 1 2 3 4 5 6 
#
# 1 0.016726 -0.004222 -0.002013 0.000834 0.004257 -0.001059
# 2 -0.004222 0.016423 -0.007933 0.004551 0.001591 0.000910
# 3 -0.002013 -0.007933 0.019362 -0.002657 -0.004788 0.001693
# 4 0.000834 0.004551 -0.002657 0.043896 0.001524 -0.003178
# 5 0.004257 0.001591 -0.004788 0.001524 0.025994 0.005981
# 6 -0.001059 0.000910 0.001693 -0.003178 0.005981 0.035496
#
#
# Mechanical properties :
#
#
# Convention : Reuss Voigt Hill
#
# Bulk Modulus (GPa) = 41.36429 43.85803 42.61116
# Shear Modulus (GPa) = 25.73431 29.69710 27.71571
#
# Velocity S-wave (km/s) = 3.45634 3.71294 3.58693
# Velocity P-wave (km/s) = 5.92709 6.22421 6.07747
#
# Compressibility (1/GPa) = 0.02417544
#
# Stress axis : x y z
#
# Youngs Moduli (GPa) = 59.78693 60.88840 51.64730
#
# Poissons Ratio (x) = 0.25706 0.10399
# Poissons Ratio (y) = 0.25241 0.40971
# Poissons Ratio (z) = 0.12038 0.48302
#
# Static dielectric constant tensor:
#      x y z
#    x 4.040130 -0.014060 -0.027070 
#    y -0.014060 3.945110 -0.057290 
#    z -0.027070 -0.057290 3.890100 
# 
# 
# High freq. dielectric constant tensor:
#      x y z
#    x 1.862690 0.000350 -0.002670 
#    y 0.000350 1.850400 -0.001780 
#    z -0.002670 -0.001780 1.849870 
# 
# From -- ./inp_files/185278.got.cif
#   From: 2010.06.25/outbox.cif.g09.slc.cpg/sg2_93_cif.got.tgz:185278.got - 2010.06.27 13:26:56.
