data_PCOD8024697
_publ_section_title
;
Structure prediction by ZEFSAII (Michael W. Deem and Ramdas Pophale) SiO2 
 PCOD8024697
Probable space group: P -1
;
_chemical_formula_sum "Si O2"
_cell_formula_units_Z 16
_cell_length_a 14.276972
_cell_length_b 14.930688
_cell_length_c 14.277722
_cell_angle_alpha 149.804734
_cell_angle_beta 142.059866
_cell_angle_gamma 28.025007
_cell_volume 714.962876
_symmetry_space_group_name_H-M "P -1"
_symmetry_group_IT_number 2
_symmetry_cell_setting 'triclinic'
loop_
_space_group_symop_operation_xyz
x,y,z
-x,-y,-z
loop_
_atom_site_type_symbol
_atom_site_label
_atom_site_fract_x
_atom_site_fract_y
_atom_site_fract_z
Si Si1 0.732113 0.492031 0.639517
Si Si2 0.727295 0.808236 0.477186
Si Si3 0.711288 0.168351 0.443151
Si Si4 0.426545 0.401351 0.918199
Si Si5 0.856013 0.734198 0.039433
Si Si6 0.088952 0.110630 0.464256
Si Si7 0.950292 0.226223 0.945938
Si Si8 0.136792 0.066623 0.140387
O O1 0.810903 0.274164 0.575673
O O2 0.522843 0.602391 0.526378
O O3 0.907848 0.373777 0.594229
O O4 0.692967 0.714564 0.856870
O O5 0.736235 0.592105 0.264415
O O6 0.763418 0.885126 0.478299
O O7 0.500000 0.000000 0.500000
O O8 0.875806 0.770277 0.641067
O O9 0.752297 0.970217 0.228466
O O10 0.786299 0.072206 0.518542
O O11 0.627300 0.153700 0.888564
O O12 0.500000 0.500000 0.000000
O O13 0.292793 0.574473 0.055638
O O14 0.981789 0.711298 0.031390
O O15 0.000000 0.500000 0.000000
O O16 0.994299 0.022714 0.249906
O O17 0.063674 0.203860 0.109023
O O18 0.000000 0.000000 0.000000
#
# Coordination Sequence:
#
# PCOD8024697 Si02
#       8
#     2   2   2   2   2   2   2   2
#     4  11  24  44  69 103 137 180 235 286 347 422
#     4  10  23  43  70  97 136 182 230 287 348 418
#     4  11  25  45  70 100 140 180 230 290 350 415
#     4  11  23  43  68 101 139 179 234 286 354 416
#     4  12  24  46  73  99 141 184 231 291 353 417
#     4  12  22  44  69  98 140 179 231 283 353 412
#     4  12  25  42  70 103 135 185 230 288 350 420
#     4  11  22  46  67  95 140 180 228 294 341 417
#
# _framework density 22.378785000000001
#
# number of rings (size 3 to 8) (size 9 to 14) (size 15 to 20)
#    0.000    0.750    5.000    3.000    0.000    3.500 
#    2.250    0.000    0.000    0.000    0.000    0.000 
#    0.000    0.000    0.000    0.000    0.000    0.000 
#
# Total GULP energy -198310.139899 kJ/mol
# GULP energy per Si atom -12394.383744 kJ/mol
# Density = 2.232785 g / cm^3
# Si number density = 22.378785 Si / 1000 Ang^3
#
#
#
# Elastic Constant Matrix: (Units=GPa)
#
#
# Indices 1 2 3 4 5 6 
#
# 1 152.7827 50.7934 48.4498 -4.7974 4.7959 12.1182
# 2 50.7934 84.3414 20.1893 -5.4678 -10.9748 -1.5105
# 3 48.4498 20.1893 140.4914 -3.1908 14.1656 3.0253
# 4 -4.7974 -5.4678 -3.1908 35.4210 -1.0431 0.4380
# 5 4.7959 -10.9748 14.1656 -1.0431 37.6742 0.4518
# 6 12.1182 -1.5105 3.0253 0.4380 0.4518 25.0208
#
#
#
# Elastic Compliance Matrix: (Units=1/GPa)
#
#
# Indices 1 2 3 4 5 6 
#
# 1 0.009512 -0.005525 -0.002186 0.000239 -0.001936 -0.004645
# 2 -0.005525 0.016393 -0.001082 0.001813 0.005892 0.003658
# 3 -0.002186 -0.001082 0.008351 0.000195 -0.003172 0.000037
# 4 0.000239 0.001813 0.000195 0.028605 0.001223 -0.000553
# 5 -0.001936 0.005892 -0.003172 0.001223 0.029719 0.001119
# 6 -0.004645 0.003658 0.000037 -0.000553 0.001119 0.042422
#
#
# Mechanical properties :
#
#
# Convention : Reuss Voigt Hill
#
# Bulk Modulus (GPa) = 59.98832 68.49783 64.24308
# Shear Modulus (GPa) = 31.61702 36.83540 34.22621
#
# Velocity S-wave (km/s) = 3.76282 4.06149 3.91500
# Velocity P-wave (km/s) = 6.76332 7.25735 7.01468
#
# Compressibility (1/GPa) = 0.01666991
#
# Stress axis : x y z
#
# Youngs Moduli (GPa) = 105.13236 61.00338 119.75258
#
# Poissons Ratio (x) = 0.33703 0.26173
# Poissons Ratio (y) = 0.58084 0.12958
# Poissons Ratio (z) = 0.22978 0.06601
#
# Static dielectric constant tensor:
#      x y z
#    x 4.208880 -0.174690 0.075590 
#    y -0.174690 2.957810 -0.754230 
#    z 0.075590 -0.754230 4.314220 
# 
# 
# High freq. dielectric constant tensor:
#      x y z
#    x 1.887720 -0.011650 0.002500 
#    y -0.011650 1.873380 0.001950 
#    z 0.002500 0.001950 1.900730 
# 
# From -- ./inp_files/533930.got.cif
#   From: 2010.06.25/outbox.cif.g09.slc.cpg/sg2_267_cif.got.tgz:533930.got - 2010.06.27 13:26:56.
