data_PCOD8024905
_publ_section_title
;
Structure prediction by ZEFSAII (Michael W. Deem and Ramdas Pophale) SiO2 
 PCOD8024905
Probable space group: P -1
;
_chemical_formula_sum "Si O2"
_cell_formula_units_Z 14
_cell_length_a 4.968600
_cell_length_b 7.749244
_cell_length_c 15.038379
_cell_angle_alpha 94.250152
_cell_angle_beta 68.890625
_cell_angle_gamma 104.078077
_cell_volume 523.883632
_symmetry_space_group_name_H-M "P -1"
_symmetry_group_IT_number 2
_symmetry_cell_setting 'triclinic'
loop_
_space_group_symop_operation_xyz
x,y,z
-x,-y,-z
loop_
_atom_site_type_symbol
_atom_site_label
_atom_site_fract_x
_atom_site_fract_y
_atom_site_fract_z
Si Si1 0.257605 0.665362 0.497292
Si Si2 0.116995 0.130525 0.301411
Si Si3 0.493829 0.904367 0.335214
Si Si4 0.933325 0.191564 0.995624
Si Si5 0.344028 0.305865 0.104457
Si Si6 0.671951 0.616720 0.187010
Si Si7 0.528308 0.413248 0.360167
O O1 0.266160 0.840992 0.443290
O O2 0.539356 0.593075 0.421719
O O3 0.316775 0.710367 0.598426
O O4 0.000000 0.500000 0.500000
O O5 0.140280 0.192876 0.199931
O O6 0.187699 0.301271 0.369281
O O7 0.392042 0.045670 0.290335
O O8 0.812303 0.986999 0.345217
O O9 0.488656 0.737957 0.264354
O O10 0.130837 0.325176 0.048427
O O11 0.590464 0.195705 0.045065
O O12 0.032177 0.259365 0.886218
O O13 0.000000 0.000000 0.000000
O O14 0.480678 0.507706 0.125746
O O15 0.722558 0.468426 0.248543
#
# Coordination Sequence:
#
# PCOD8024905 Si02
#       7
#     2   2   2   2   2   2   2
#     4  10  23  44  66  96 129 174 219 266 329 390
#     4  11  24  44  64 101 130 174 218 267 333 379
#     4  11  26  42  69  95 134 170 219 274 323 389
#     4  12  24  42  66  99 132 170 216 274 324 378
#     4  11  24  43  66  94 135 172 218 267 319 392
#     4  10  23  44  65  96 127 179 218 264 326 388
#     4   9  23  43  66  92 133 173 216 272 321 400
#
# _framework density 26.723492
#
# number of rings (size 3 to 8) (size 9 to 14) (size 15 to 20)
#    0.000    1.429    0.000    3.857    8.000    3.429 
#    7.714    0.000    0.000    0.000    0.000    0.000 
#    0.000    0.000    0.000    0.000    0.000    0.000 
#
# Total GULP energy -173549.192561 kJ/mol
# GULP energy per Si atom -12396.370897 kJ/mol
# Density = 2.666267 g / cm^3
# Si number density = 26.723492 Si / 1000 Ang^3
#
#
#
# Elastic Constant Matrix: (Units=GPa)
#
#
# Indices 1 2 3 4 5 6 
#
# 1 79.2512 1.3073 8.3733 -3.8493 13.8307 18.4630
# 2 1.3073 99.3596 31.6214 -6.4316 -4.4588 8.6395
# 3 8.3733 31.6214 123.4025 -21.5976 22.2841 17.6425
# 4 -3.8493 -6.4316 -21.5976 51.0362 -1.0594 -7.9435
# 5 13.8307 -4.4588 22.2841 -1.0594 30.4609 -3.3683
# 6 18.4630 8.6395 17.6425 -7.9435 -3.3683 35.3145
#
#
#
# Elastic Compliance Matrix: (Units=1/GPa)
#
#
# Indices 1 2 3 4 5 6 
#
# 1 0.016784 -0.000552 0.002564 0.000367 -0.010766 -0.010866
# 2 -0.000552 0.011478 -0.003724 -0.000113 0.004624 -0.000244
# 3 0.002564 -0.003724 0.012634 0.003739 -0.011597 -0.007006
# 4 0.000367 -0.000113 0.003739 0.021562 -0.001877 0.002639
# 5 -0.010766 0.004624 -0.011597 -0.001877 0.048414 0.014487
# 6 -0.010866 -0.000244 -0.007006 0.002639 0.014487 0.039533
#
#
# Mechanical properties :
#
#
# Convention : Reuss Voigt Hill
#
# Bulk Modulus (GPa) = 26.68471 42.73523 34.70997
# Shear Modulus (GPa) = 30.06276 40.74308 35.40292
#
# Velocity S-wave (km/s) = 3.35768 3.90887 3.64371
# Velocity P-wave (km/s) = 5.00391 6.03313 5.54247
#
# Compressibility (1/GPa) = 0.03747464
#
# Stress axis : x y z
#
# Youngs Moduli (GPa) = 59.57938 87.12190 79.15138
#
# Poissons Ratio (x) = 0.04805 -0.20297
# Poissons Ratio (y) = 0.03286 0.29473
# Poissons Ratio (z) = -0.15278 0.32441
#
# Static dielectric constant tensor:
#      x y z
#    x 4.628690 -0.267210 -0.019520 
#    y -0.267210 5.242560 0.309120 
#    z -0.019520 0.309120 5.689240 
# 
# 
# High freq. dielectric constant tensor:
#      x y z
#    x 2.057980 -0.001220 0.006460 
#    y -0.001220 2.085470 0.001230 
#    z 0.006460 0.001230 2.092410 
# 
# From -- ./inp_files/97949.got.cif
#   From: 2010.06.25/outbox.cif.g09.slc.cpg/sg2_49_cif.got.tgz:97949.got - 2010.06.27 13:26:56.
