data_PCOD8024895
_publ_section_title
;
Structure prediction by ZEFSAII (Michael W. Deem and Ramdas Pophale) SiO2 
 PCOD8024895
Probable space group: P -1
;
_chemical_formula_sum "Si O2"
_cell_formula_units_Z 14
_cell_length_a 21.874152
_cell_length_b 10.083849
_cell_length_c 18.365633
_cell_angle_alpha 132.367751
_cell_angle_beta 17.858096
_cell_angle_gamma 142.951048
_cell_volume 662.917003
_symmetry_space_group_name_H-M "P -1"
_symmetry_group_IT_number 2
_symmetry_cell_setting 'triclinic'
loop_
_space_group_symop_operation_xyz
x,y,z
-x,-y,-z
loop_
_atom_site_type_symbol
_atom_site_label
_atom_site_fract_x
_atom_site_fract_y
_atom_site_fract_z
Si Si1 0.940713 0.398244 0.305528
Si Si2 0.425061 0.515932 0.202260
Si Si3 0.867191 0.279068 0.923150
Si Si4 0.368108 0.143468 0.513083
Si Si5 0.118406 0.102125 0.284065
Si Si6 0.516108 0.653322 0.782001
Si Si7 0.300524 0.422390 0.593241
O O1 0.722244 0.381794 0.591828
O O2 0.952522 0.465635 0.232593
O O3 0.858570 0.138431 0.306743
O O4 0.246268 0.611827 0.073620
O O5 0.218128 0.242820 0.299838
O O6 0.498269 0.498880 0.193293
O O7 0.709006 0.702852 0.905057
O O8 0.016514 0.323716 0.846261
O O9 0.840343 0.086820 0.831341
O O10 0.569440 0.173625 0.238296
O O11 0.222062 0.218990 0.665527
O O12 0.534771 0.315628 0.457874
O O13 0.795152 0.946481 0.579662
O O14 0.511084 0.538350 0.670231
#
# Coordination Sequence:
#
# PCOD8024895 Si02
#       7
#     2   2   2   2   2   2   2
#     4  12  25  38  68  97 129 165 219 259 322 373
#     4  11  23  45  65  98 125 176 208 266 319 381
#     4  11  22  43  64  94 129 168 210 268 314 379
#     4  11  24  43  63  96 129 168 214 267 307 391
#     4  10  23  44  69  89 135 168 212 259 327 378
#     4  11  24  41  64  97 130 168 210 268 316 377
#     4  10  23  44  65  89 132 172 208 261 329 360
#
# _framework density 21.118780999999998
#
# number of rings (size 3 to 8) (size 9 to 14) (size 15 to 20)
#    0.000    1.143    5.714    0.857    4.000    1.714 
#    0.000    1.429    0.000    0.000    0.000    0.000 
#    0.000    0.000    0.000    0.000    0.000    0.000 
#
# Total GULP energy -173641.318658 kJ/mol
# GULP energy per Si atom -12402.951333 kJ/mol
# Density = 2.107071 g / cm^3
# Si number density = 21.118781 Si / 1000 Ang^3
#
#
#
# Elastic Constant Matrix: (Units=GPa)
#
#
# Indices 1 2 3 4 5 6 
#
# 1 81.7639 56.6275 13.6802 3.5675 -6.1491 -9.4236
# 2 56.6275 117.0403 20.2788 -17.4979 -4.5694 -5.8588
# 3 13.6802 20.2788 62.5785 -6.4272 -20.5276 -15.8807
# 4 3.5675 -17.4979 -6.4272 25.3704 -3.2880 6.8097
# 5 -6.1491 -4.5694 -20.5276 -3.2880 33.0056 0.9766
# 6 -9.4236 -5.8588 -15.8807 6.8097 0.9766 29.2116
#
#
#
# Elastic Compliance Matrix: (Units=1/GPa)
#
#
# Indices 1 2 3 4 5 6 
#
# 1 0.022472 -0.012508 0.000019 -0.013802 0.000857 0.007940
# 2 -0.012508 0.016908 -0.002691 0.014178 -0.000091 -0.005409
# 3 0.000019 -0.002691 0.025226 0.003322 0.015299 0.011895
# 4 -0.013802 0.014178 0.003322 0.056495 0.007477 -0.013223
# 5 0.000857 -0.000091 0.015299 0.007477 0.040543 0.005477
# 6 0.007940 -0.005409 0.011895 -0.013223 0.005477 0.045075
#
#
# Mechanical properties :
#
#
# Convention : Reuss Voigt Hill
#
# Bulk Modulus (GPa) = 29.20051 49.17284 39.18667
# Shear Modulus (GPa) = 20.12119 28.90393 24.51256
#
# Velocity S-wave (km/s) = 3.09003 3.70352 3.41060
# Velocity P-wave (km/s) = 5.15634 6.45156 5.83997
#
# Compressibility (1/GPa) = 0.03424598
#
# Stress axis : x y z
#
# Youngs Moduli (GPa) = 44.50008 59.14491 39.64168
#
# Poissons Ratio (x) = 0.73981 -0.00077
# Poissons Ratio (y) = 0.55663 0.10667
# Poissons Ratio (z) = -0.00086 0.15914
#
# Static dielectric constant tensor:
#      x y z
#    x 3.803410 -0.035810 -0.014230 
#    y -0.035810 3.786460 -0.019020 
#    z -0.014230 -0.019020 3.900480 
# 
# 
# High freq. dielectric constant tensor:
#      x y z
#    x 1.831320 -0.007020 0.004130 
#    y -0.007020 1.820420 -0.003270 
#    z 0.004130 -0.003270 1.829940 
# 
# From -- ./inp_files/313076.got.cif
#   From: 2010.06.25/outbox.cif.g09.slc.cpg/sg2_157_cif.got.tgz:313076.got - 2010.06.27 13:26:56.
