data_PCOD8024588
_publ_section_title
;
Structure prediction by ZEFSAII (Michael W. Deem and Ramdas Pophale) SiO2 
 PCOD8024588
Probable space group: P -1
;
_chemical_formula_sum "Si O2"
_cell_formula_units_Z 14
_cell_length_a 19.307356
_cell_length_b 8.961577
_cell_length_c 8.454852
_cell_angle_alpha 45.779227
_cell_angle_beta 147.713839
_cell_angle_gamma 123.500418
_cell_volume 557.282784
_symmetry_space_group_name_H-M "P -1"
_symmetry_group_IT_number 2
_symmetry_cell_setting 'triclinic'
loop_
_space_group_symop_operation_xyz
x,y,z
-x,-y,-z
loop_
_atom_site_type_symbol
_atom_site_label
_atom_site_fract_x
_atom_site_fract_y
_atom_site_fract_z
Si Si1 0.893621 0.016573 0.418599
Si Si2 0.554007 0.771275 0.825999
Si Si3 0.721223 0.285486 0.690381
Si Si4 0.958404 0.231599 0.680508
Si Si5 0.455563 0.216766 0.834361
Si Si6 0.294539 0.592006 0.767102
Si Si7 0.174632 0.348907 0.210297
O O1 0.935727 0.205928 0.469199
O O2 0.874857 0.817271 0.637463
O O3 0.755948 0.074166 0.016345
O O4 0.000000 0.000000 0.500000
O O5 0.432479 0.630761 0.656296
O O6 0.500000 0.000000 0.500000
O O7 0.582946 0.793581 0.048743
O O8 0.679206 0.650194 0.067422
O O9 0.743548 0.251959 0.570467
O O10 0.819617 0.443149 0.830037
O O11 0.824910 0.360889 0.382995
O O12 0.072510 0.374535 0.847301
O O13 0.000000 0.000000 0.000000
O O14 0.314303 0.295781 0.430335
O O15 0.573614 0.357138 0.926723
O O16 0.500000 0.000000 0.000000
#
# Coordination Sequence:
#
# PCOD8024588 Si02
#       7
#     2   2   2   2   2   2   2
#     4  11  25  43  66 100 138 183 233 281 354 424
#     4  11  23  44  67 101 143 184 232 285 343 419
#     4  11  22  42  70  99 135 180 232 285 344 413
#     4  10  23  43  69 102 139 180 230 290 350 415
#     4  11  21  41  69 100 134 180 227 283 350 412
#     4  11  22  44  70 101 141 184 230 282 352 422
#     4  11  22  44  68  99 139 178 229 286 346 411
#
# _framework density 25.121896
#
# number of rings (size 3 to 8) (size 9 to 14) (size 15 to 20)
#    0.000    1.143    2.857    5.143    0.000    4.000 
#    2.571    1.429    0.000    0.000    0.000    0.000 
#    0.000    0.000    0.000    0.000    0.000    0.000 
#
# Total GULP energy -173436.320863 kJ/mol
# GULP energy per Si atom -12388.308633 kJ/mol
# Density = 2.506472 g / cm^3
# Si number density = 25.121896 Si / 1000 Ang^3
#
#
#
# Elastic Constant Matrix: (Units=GPa)
#
#
# Indices 1 2 3 4 5 6 
#
# 1 111.6466 42.7314 57.0553 4.9568 34.0469 -31.6063
# 2 42.7314 95.0910 17.0225 11.1409 16.8532 -23.2009
# 3 57.0553 17.0225 127.0580 23.5122 24.1768 -18.5981
# 4 4.9568 11.1409 23.5122 47.9702 0.1056 6.2249
# 5 34.0469 16.8532 24.1768 0.1056 45.5633 -6.1744
# 6 -31.6063 -23.2009 -18.5981 6.2249 -6.1744 39.1155
#
#
#
# Elastic Compliance Matrix: (Units=1/GPa)
#
#
# Indices 1 2 3 4 5 6 
#
# 1 0.017628 -0.003556 -0.004651 0.000187 -0.008225 0.008595
# 2 -0.003556 0.014567 0.002166 -0.004997 -0.002902 0.007134
# 3 -0.004651 0.002166 0.012002 -0.006385 -0.003172 0.003749
# 4 0.000187 -0.004997 -0.006385 0.026335 0.003756 -0.009447
# 5 -0.008225 -0.002902 -0.003172 0.003756 0.030065 -0.005727
# 6 0.008595 0.007134 0.003749 -0.009447 -0.005727 0.039124
#
#
# Mechanical properties :
#
#
# Convention : Reuss Voigt Hill
#
# Bulk Modulus (GPa) = 31.13682 63.04598 47.09140
# Shear Modulus (GPa) = 30.76803 40.99557 35.88180
#
# Velocity S-wave (km/s) = 3.50344 4.04402 3.78340
# Velocity P-wave (km/s) = 5.36532 6.85244 6.15397
#
# Compressibility (1/GPa) = 0.03211632
#
# Stress axis : x y z
#
# Youngs Moduli (GPa) = 56.72929 68.64968 83.31617
#
# Poissons Ratio (x) = 0.24411 0.38747
# Poissons Ratio (y) = 0.20172 -0.18049
# Poissons Ratio (z) = 0.26383 -0.14872
#
# Static dielectric constant tensor:
#      x y z
#    x 4.209670 -0.040790 -0.130000 
#    y -0.040790 4.791360 0.528940 
#    z -0.130000 0.528940 5.003470 
# 
# 
# High freq. dielectric constant tensor:
#      x y z
#    x 1.975530 -0.010530 0.001990 
#    y -0.010530 2.015080 0.012660 
#    z 0.001990 0.012660 2.026830 
# 
# From -- ./inp_files/343360.got.cif
#   From: 2010.06.25/outbox.cif.g09.slc.cpg/sg2_172_cif.got.tgz:343360.got - 2010.06.27 13:26:56.
