data_PCOD8024717
_publ_section_title
;
Structure prediction by ZEFSAII (Michael W. Deem and Ramdas Pophale) SiO2 
 PCOD8024717
Probable space group: P -1
;
_chemical_formula_sum "Si O2"
_cell_formula_units_Z 14
_cell_length_a 9.027258
_cell_length_b 22.047165
_cell_length_c 9.187770
_cell_angle_alpha 44.669695
_cell_angle_beta 133.599415
_cell_angle_gamma 150.234089
_cell_volume 624.383180
_symmetry_space_group_name_H-M "P -1"
_symmetry_group_IT_number 2
_symmetry_cell_setting 'triclinic'
loop_
_space_group_symop_operation_xyz
x,y,z
-x,-y,-z
loop_
_atom_site_type_symbol
_atom_site_label
_atom_site_fract_x
_atom_site_fract_y
_atom_site_fract_z
Si Si1 0.295041 0.013735 0.024625
Si Si2 0.728800 0.807734 0.188559
Si Si3 0.178356 0.207632 0.413118
Si Si4 0.141596 0.377175 0.967384
Si Si5 0.896671 0.456985 0.840107
Si Si6 0.778008 0.316576 0.541547
Si Si7 0.328881 0.030382 0.677364
O O1 0.413380 0.144081 0.938533
O O2 0.263438 0.003673 0.848066
O O3 0.529319 0.011871 0.227706
O O4 0.962134 0.892034 0.071835
O O5 0.894492 0.814687 0.426677
O O6 0.468917 0.661713 0.206401
O O7 0.545334 0.312903 0.462195
O O8 0.056751 0.254915 0.171358
O O9 0.002128 0.068700 0.459907
O O10 0.021531 0.406689 0.951867
O O11 0.991242 0.342094 0.766551
O O12 0.500000 0.500000 0.000000
O O13 0.007956 0.571649 0.622429
O O14 0.000000 0.500000 0.000000
O O15 0.572659 0.181427 0.549853
#
# Coordination Sequence:
#
# PCOD8024717 Si02
#       7
#     2   2   2   2   2   2   2
#     4  10  23  43  71 100 145 175 233 282 339 415
#     4  11  24  44  67 103 142 184 221 290 349 405
#     4  12  24  42  76 103 137 183 232 279 350 408
#     4  12  24  45  74  97 136 189 233 276 341 415
#     4  12  27  45  69 102 141 179 230 291 348 400
#     4  12  25  46  71 105 142 178 231 288 334 423
#     4  11  23  42  71 107 132 184 232 280 339 410
#
# _framework density 22.422129000000002
#
# number of rings (size 3 to 8) (size 9 to 14) (size 15 to 20)
#    0.000    0.571    4.286    4.286    2.000    4.000 
#    0.000    2.143    0.000    0.000    0.000    0.000 
#    0.000    0.000    0.000    0.000    0.000    0.000 
#
# Total GULP energy -173636.354377 kJ/mol
# GULP energy per Si atom -12402.596741 kJ/mol
# Density = 2.237110 g / cm^3
# Si number density = 22.422129 Si / 1000 Ang^3
#
#
#
# Elastic Constant Matrix: (Units=GPa)
#
#
# Indices 1 2 3 4 5 6 
#
# 1 74.5790 36.3748 33.6703 -10.5372 -14.6338 0.4148
# 2 36.3748 182.7973 66.5756 -3.1773 -19.4971 -3.5262
# 3 33.6703 66.5756 129.3489 -19.8666 -4.0285 -4.0941
# 4 -10.5372 -3.1773 -19.8666 38.8182 2.5257 -1.4669
# 5 -14.6338 -19.4971 -4.0285 2.5257 26.2793 2.9416
# 6 0.4148 -3.5262 -4.0941 -1.4669 2.9416 23.5020
#
#
#
# Elastic Compliance Matrix: (Units=1/GPa)
#
#
# Indices 1 2 3 4 5 6 
#
# 1 0.017534 -0.001416 -0.003280 0.002357 0.008205 -0.001973
# 2 -0.001416 0.007525 -0.003670 -0.001941 0.004436 -0.000162
# 3 -0.003280 -0.003670 0.011177 0.004843 -0.003548 0.002201
# 4 0.002357 -0.001941 0.004843 0.028980 -0.002465 0.002628
# 5 0.008205 0.004436 -0.003548 -0.002465 0.046283 -0.006044
# 6 -0.001973 -0.000162 0.002201 0.002628 -0.006044 0.043864
#
#
# Mechanical properties :
#
#
# Convention : Reuss Voigt Hill
#
# Bulk Modulus (GPa) = 51.27270 73.32963 62.30116
# Shear Modulus (GPa) = 27.99599 34.39353 31.19476
#
# Velocity S-wave (km/s) = 3.53737 3.92077 3.73399
# Velocity P-wave (km/s) = 6.29290 7.29874 6.81441
#
# Compressibility (1/GPa) = 0.01950356
#
# Stress axis : x y z
#
# Youngs Moduli (GPa) = 57.03128 132.88643 89.47210
#
# Poissons Ratio (x) = 0.18823 0.29349
# Poissons Ratio (y) = 0.08078 0.32833
# Poissons Ratio (z) = 0.18707 0.48764
#
# Static dielectric constant tensor:
#      x y z
#    x 4.091300 0.085990 0.265430 
#    y 0.085990 5.122420 0.174480 
#    z 0.265430 0.174480 4.268470 
# 
# 
# High freq. dielectric constant tensor:
#      x y z
#    x 1.875220 0.005160 0.006580 
#    y 0.005160 1.908890 -0.004740 
#    z 0.006580 -0.004740 1.886530 
# 
# From -- ./inp_files/223294.got.cif
#   From: 2010.06.25/outbox.cif.g09.slc.cpg/sg2_112_cif.got.tgz:223294.got - 2010.06.27 13:26:56.
