data_PCOD8024967
_publ_section_title
;
Structure prediction by ZEFSAII (Michael W. Deem and Ramdas Pophale) SiO2 
 PCOD8024967
Probable space group: P -1
;
_chemical_formula_sum "Si O2"
_cell_formula_units_Z 16
_cell_length_a 12.193023
_cell_length_b 8.424681
_cell_length_c 9.850622
_cell_angle_alpha 100.981198
_cell_angle_beta 132.936371
_cell_angle_gamma 92.185500
_cell_volume 707.121553
_symmetry_space_group_name_H-M "P -1"
_symmetry_group_IT_number 2
_symmetry_cell_setting 'triclinic'
loop_
_space_group_symop_operation_xyz
x,y,z
-x,-y,-z
loop_
_atom_site_type_symbol
_atom_site_label
_atom_site_fract_x
_atom_site_fract_y
_atom_site_fract_z
Si Si1 0.419591 0.736856 0.046441
Si Si2 0.068501 0.907656 0.254395
Si Si3 0.931284 0.719378 0.368213
Si Si4 0.912870 0.777398 0.848962
Si Si5 0.413508 0.327889 0.332707
Si Si6 0.399138 0.371825 0.026581
Si Si7 0.944008 0.354425 0.277604
Si Si8 0.429850 0.960468 0.581326
O O1 0.470332 0.570886 0.113809
O O2 0.499598 0.897326 0.226876
O O3 0.481130 0.739397 0.941411
O O4 0.238353 0.721127 0.900123
O O5 0.249442 0.937220 0.422645
O O6 0.002427 0.862909 0.342814
O O7 0.018703 0.061335 0.162032
O O8 0.993798 0.764376 0.060654
O O9 0.987856 0.550181 0.372991
O O10 0.990860 0.764987 0.579733
O O11 0.747872 0.684367 0.204318
O O12 0.728591 0.754550 0.703116
O O13 0.964033 0.635506 0.784181
O O14 0.500000 0.500000 0.500000
O O15 0.342299 0.344110 0.128054
O O16 0.533065 0.215489 0.382800
O O17 0.500000 0.000000 0.500000
#
# Coordination Sequence:
#
# PCOD8024967 Si02
#       8
#     2   2   2   2   2   2   2   2
#     4  10  24  45  70  99 139 179 222 289 341 403
#     4  11  25  44  65  97 134 181 221 280 337 406
#     4  10  23  44  67 100 133 177 231 274 342 408
#     4  11  25  46  67  96 140 177 228 280 342 405
#     4  12  27  44  70 101 135 181 229 285 342 407
#     4  10  23  46  70  98 136 179 231 277 343 410
#     4  10  24  42  71 100 133 178 226 284 336 405
#     4  12  25  44  66 100 138 176 229 276 344 407
#
# _framework density 22.626944000000002
#
# number of rings (size 3 to 8) (size 9 to 14) (size 15 to 20)
#    0.000    1.250    2.500    1.500    7.000    4.500 
#    0.000    0.000    0.000    0.000    0.000    0.000 
#    0.000    0.000    0.000    0.000    0.000    0.000 
#
# Total GULP energy -198235.330639 kJ/mol
# GULP energy per Si atom -12389.708165 kJ/mol
# Density = 2.257544 g / cm^3
# Si number density = 22.626944 Si / 1000 Ang^3
#
#
#
# Elastic Constant Matrix: (Units=GPa)
#
#
# Indices 1 2 3 4 5 6 
#
# 1 107.0818 15.0427 30.2402 8.0501 -8.9203 2.8109
# 2 15.0427 73.4343 26.0884 10.9564 -3.4482 0.4972
# 3 30.2402 26.0884 110.6556 8.7158 -1.2779 -3.2874
# 4 8.0501 10.9564 8.7158 29.5278 1.2094 -4.1449
# 5 -8.9203 -3.4482 -1.2779 1.2094 41.6358 -0.0908
# 6 2.8109 0.4972 -3.2874 -4.1449 -0.0908 36.0923
#
#
#
# Elastic Compliance Matrix: (Units=1/GPa)
#
#
# Indices 1 2 3 4 5 6 
#
# 1 0.010542 -0.000839 -0.002532 -0.002083 0.002169 -0.001274
# 2 -0.000839 0.015677 -0.003100 -0.004860 0.001162 -0.000988
# 3 -0.002532 -0.003100 0.010574 -0.001112 -0.000440 0.001074
# 4 -0.002083 -0.004860 -0.001112 0.037264 -0.001956 0.004402
# 5 0.002169 0.001162 -0.000440 -0.001956 0.024621 -0.000388
# 6 -0.001274 -0.000988 0.001074 0.004402 -0.000388 0.028422
#
#
# Mechanical properties :
#
#
# Convention : Reuss Voigt Hill
#
# Bulk Modulus (GPa) = 41.92492 48.21270 45.06881
# Shear Modulus (GPa) = 33.78542 36.10454 34.94498
#
# Velocity S-wave (km/s) = 3.86832 3.99888 3.93414
# Velocity P-wave (km/s) = 6.20652 6.53264 6.37166
#
# Compressibility (1/GPa) = 0.02385217
#
# Stress axis : x y z
#
# Youngs Moduli (GPa) = 94.85620 63.78744 94.56922
#
# Poissons Ratio (x) = 0.05350 0.23945
# Poissons Ratio (y) = 0.07956 0.29317
# Poissons Ratio (z) = 0.24017 0.19774
#
# Static dielectric constant tensor:
#      x y z
#    x 4.008520 -0.025550 -0.255060 
#    y -0.025550 4.265000 -0.124140 
#    z -0.255060 -0.124140 4.282630 
# 
# 
# High freq. dielectric constant tensor:
#      x y z
#    x 1.905080 -0.002880 -0.008200 
#    y -0.002880 1.883530 0.001580 
#    z -0.008200 0.001580 1.899570 
# 
# From -- ./inp_files/244791.got.cif
#   From: 2010.06.25/outbox.cif.g09.slc.cpg/sg2_123_cif.got.tgz:244791.got - 2010.06.27 13:26:56.
