data_PCOD8024265
_publ_section_title
;
Structure prediction by ZEFSAII (Michael W. Deem and Ramdas Pophale) SiO2 
 PCOD8024265
Probable space group: P -1
;
_chemical_formula_sum "Si O2"
_cell_formula_units_Z 14
_cell_length_a 12.353801
_cell_length_b 11.652618
_cell_length_c 8.666567
_cell_angle_alpha 98.232551
_cell_angle_beta 144.348192
_cell_angle_gamma 64.761682
_cell_volume 606.895713
_symmetry_space_group_name_H-M "P -1"
_symmetry_group_IT_number 2
_symmetry_cell_setting 'triclinic'
loop_
_space_group_symop_operation_xyz
x,y,z
-x,-y,-z
loop_
_atom_site_type_symbol
_atom_site_label
_atom_site_fract_x
_atom_site_fract_y
_atom_site_fract_z
Si Si1 0.786147 0.229848 0.341304
Si Si2 0.464977 0.650797 0.490837
Si Si3 0.323687 0.410884 0.977107
Si Si4 0.141633 0.917374 0.310121
Si Si5 0.045716 0.307817 0.487154
Si Si6 0.676646 0.143144 0.885646
Si Si7 0.596237 0.956595 0.278868
O O1 0.885661 0.098350 0.541381
O O2 0.966618 0.271350 0.545066
O O3 0.559406 0.361056 0.166006
O O4 0.763988 0.186221 0.137148
O O5 0.500000 0.500000 0.500000
O O6 0.222026 0.769943 0.295898
O O7 0.490750 0.713543 0.372218
O O8 0.646199 0.637625 0.819706
O O9 0.218990 0.346661 0.740932
O O10 0.169710 0.574904 0.828577
O O11 0.342792 0.944191 0.543554
O O12 0.887334 0.040360 0.992988
O O13 0.167485 0.184051 0.484893
O O14 0.562159 0.063716 0.795937
O O15 0.500000 0.000000 0.000000
#
# Coordination Sequence:
#
# PCOD8024265 Si02
#       7
#     2   2   2   2   2   2   2
#     4  11  20  39  71 100 125 173 221 278 334 385
#     4  11  26  47  67  96 141 180 222 275 332 407
#     4  10  23  43  63  99 134 176 221 275 333 392
#     4  11  24  43  69  99 133 176 224 277 335 393
#     4  11  21  38  70  97 135 171 224 279 326 394
#     4  12  23  42  72 101 134 180 218 273 346 394
#     4  12  22  40  69 102 136 166 225 287 325 393
#
# _framework density 23.068213
#
# number of rings (size 3 to 8) (size 9 to 14) (size 15 to 20)
#    0.000    0.857    4.286    3.857    0.000    1.714 
#    0.000    3.571    0.000    0.000    0.000    0.000 
#    0.000    0.000    0.000    0.000    0.000    0.000 
#
# Total GULP energy -173497.204015 kJ/mol
# GULP energy per Si atom -12392.657430 kJ/mol
# Density = 2.301571 g / cm^3
# Si number density = 23.068213 Si / 1000 Ang^3
#
#
#
# Elastic Constant Matrix: (Units=GPa)
#
#
# Indices 1 2 3 4 5 6 
#
# 1 95.5036 41.4046 12.7684 -7.4161 16.3213 21.9540
# 2 41.4046 121.2850 36.3915 -28.2961 2.9376 -0.2546
# 3 12.7684 36.3915 62.0017 -24.4347 9.2653 3.8057
# 4 -7.4161 -28.2961 -24.4347 30.1294 2.2025 0.3232
# 5 16.3213 2.9376 9.2653 2.2025 36.6872 -6.0894
# 6 21.9540 -0.2546 3.8057 0.3232 -6.0894 41.2273
#
#
#
# Elastic Compliance Matrix: (Units=1/GPa)
#
#
# Indices 1 2 3 4 5 6 
#
# 1 0.016967 -0.006048 0.002776 0.001568 -0.009646 -0.010766
# 2 -0.006048 0.013226 -0.004429 0.007076 0.003006 0.004100
# 3 0.002776 -0.004429 0.027859 0.019914 -0.010061 -0.005719
# 4 0.001568 0.007076 0.019914 0.057189 -0.010495 -0.004628
# 5 -0.009646 0.003006 -0.010061 -0.010495 0.036395 0.011542
# 6 -0.010766 0.004100 -0.005719 -0.004628 0.011542 0.032283
#
#
# Mechanical properties :
#
#
# Convention : Reuss Voigt Hill
#
# Bulk Modulus (GPa) = 23.44730 51.10214 37.27472
# Shear Modulus (GPa) = 23.41513 34.15716 28.78614
#
# Velocity S-wave (km/s) = 3.18942 3.85216 3.53635
# Velocity P-wave (km/s) = 4.87336 6.47968 5.73306
#
# Compressibility (1/GPa) = 0.04264883
#
# Stress axis : x y z
#
# Youngs Moduli (GPa) = 58.93845 75.61134 35.89479
#
# Poissons Ratio (x) = 0.45732 -0.09965
# Poissons Ratio (y) = 0.35648 0.15898
# Poissons Ratio (z) = -0.16362 0.33490
#
# Static dielectric constant tensor:
#      x y z
#    x 4.284220 0.053570 -0.230690 
#    y 0.053570 4.364190 -0.309500 
#    z -0.230690 -0.309500 4.428950 
# 
# 
# High freq. dielectric constant tensor:
#      x y z
#    x 1.908830 0.000080 -0.012770 
#    y 0.000080 1.917710 -0.018190 
#    z -0.012770 -0.018190 1.919380 
# 
# From -- ./inp_files/258673.got.cif
#   From: 2010.06.25/outbox.cif.g09.slc.cpg/sg2_130_cif.got.tgz:258673.got - 2010.06.27 13:26:56.
