data_PCOD8024580
_publ_section_title
;
Structure prediction by ZEFSAII (Michael W. Deem and Ramdas Pophale) SiO2 
 PCOD8024580
Probable space group: P -1
;
_chemical_formula_sum "Si O2"
_cell_formula_units_Z 14
_cell_length_a 8.387945
_cell_length_b 17.660614
_cell_length_c 10.365764
_cell_angle_alpha 55.638224
_cell_angle_beta 117.075557
_cell_angle_gamma 150.364305
_cell_volume 624.432270
_symmetry_space_group_name_H-M "P -1"
_symmetry_group_IT_number 2
_symmetry_cell_setting 'triclinic'
loop_
_space_group_symop_operation_xyz
x,y,z
-x,-y,-z
loop_
_atom_site_type_symbol
_atom_site_label
_atom_site_fract_x
_atom_site_fract_y
_atom_site_fract_z
Si Si1 0.376366 0.934006 0.165501
Si Si2 0.958736 0.580496 0.339978
Si Si3 0.696819 0.492057 0.060171
Si Si4 0.348530 0.367884 0.470078
Si Si5 0.846475 0.842687 0.184876
Si Si6 0.384523 0.196679 0.104332
Si Si7 0.161178 0.770365 0.765931
O O1 0.245486 0.774241 0.294845
O O2 0.088858 0.878875 0.158936
O O3 0.687579 0.085939 0.225194
O O4 0.500000 0.000000 0.000000
O O5 0.939568 0.566760 0.191882
O O6 0.603421 0.465426 0.356118
O O7 0.000000 0.500000 0.500000
O O8 0.441458 0.300736 0.128675
O O9 0.500000 0.500000 0.000000
O O10 0.913015 0.597756 0.912676
O O11 0.500000 0.500000 0.500000
O O12 0.285925 0.249330 0.640049
O O13 0.007846 0.255955 0.394188
O O14 0.541191 0.734192 0.081233
O O15 0.008076 0.007761 0.131183
O O16 0.566896 0.182906 0.230155
#
# Coordination Sequence:
#
# PCOD8024580 Si02
#       7
#     2   2   2   2   2   2   2
#     4  11  23  46  73 100 141 182 232 284 346 411
#     4  12  28  43  68 106 139 182 224 289 352 402
#     4  12  23  44  66  98 138 177 232 278 342 413
#     4  12  25  45  69  97 144 177 225 283 351 407
#     4  10  23  43  69 101 138 181 224 287 349 405
#     4  10  24  41  70 101 131 177 237 283 334 415
#     4  11  25  42  73 100 128 188 233 281 339 412
#
# _framework density 22.420365
#
# number of rings (size 3 to 8) (size 9 to 14) (size 15 to 20)
#    0.000    0.857    4.286    2.143    4.000    4.571 
#    0.000    1.429    0.000    0.000    0.000    0.000 
#    0.000    0.000    0.000    0.000    0.000    0.000 
#
# Total GULP energy -173502.211364 kJ/mol
# GULP energy per Si atom -12393.015097 kJ/mol
# Density = 2.236934 g / cm^3
# Si number density = 22.420365 Si / 1000 Ang^3
#
#
#
# Elastic Constant Matrix: (Units=GPa)
#
#
# Indices 1 2 3 4 5 6 
#
# 1 50.1283 40.0375 7.8286 -2.5956 8.5749 -21.0824
# 2 40.0375 148.1602 44.8692 12.9547 13.7570 -42.8764
# 3 7.8286 44.8692 124.7300 6.8915 21.7389 -13.2057
# 4 -2.5956 12.9547 6.8915 48.5673 5.7896 1.2142
# 5 8.5749 13.7570 21.7389 5.7896 37.8383 -4.8517
# 6 -21.0824 -42.8764 -13.2057 1.2142 -4.8517 44.4248
#
#
#
# Elastic Compliance Matrix: (Units=1/GPa)
#
#
# Indices 1 2 3 4 5 6 
#
# 1 0.028643 -0.005836 0.001810 0.003217 -0.004892 0.007876
# 2 -0.005836 0.011720 -0.002882 -0.003250 0.000214 0.007797
# 3 0.001810 -0.002882 0.009853 0.000048 -0.004971 0.000462
# 4 0.003217 -0.003250 0.000048 0.022077 -0.003281 -0.002557
# 5 -0.004892 0.000214 -0.004971 -0.003281 0.030799 -0.000139
# 6 0.007876 0.007797 0.000462 -0.002557 -0.000139 0.033965
#
#
# Mechanical properties :
#
#
# Convention : Reuss Voigt Hill
#
# Bulk Modulus (GPa) = 27.47195 56.49879 41.98537
# Shear Modulus (GPa) = 30.67336 41.51831 36.09584
#
# Velocity S-wave (km/s) = 3.70280 4.30794 4.01678
# Velocity P-wave (km/s) = 5.52817 7.07099 6.34664
#
# Compressibility (1/GPa) = 0.03640076
#
# Stress axis : x y z
#
# Youngs Moduli (GPa) = 34.91210 85.32288 101.49024
#
# Poissons Ratio (x) = 0.49798 -0.18374
# Poissons Ratio (y) = 0.20376 0.29250
# Poissons Ratio (z) = -0.06321 0.24590
#
# Static dielectric constant tensor:
#      x y z
#    x 0.096710 -9.135510 14.250560 
#    y -9.135510 -17.640410 34.128100 
#    z 14.250560 34.128100 -47.563730 
# 
# 
# High freq. dielectric constant tensor:
#      x y z
#    x 1.865370 -0.009630 0.008290 
#    y -0.009630 1.899390 0.001310 
#    z 0.008290 0.001310 1.889020 
# 
# From -- ./inp_files/157717.got.cif
#   From: 2010.06.25/outbox.cif.g09.slc.cpg/sg2_79_cif.got.tgz:157717.got - 2010.06.27 13:26:56.
