data_PCOD8024043
_publ_section_title
;
Structure prediction by ZEFSAII (Michael W. Deem and Ramdas Pophale) SiO2 
 PCOD8024043
Probable space group: P -1
;
_chemical_formula_sum "Si O2"
_cell_formula_units_Z 16
_cell_length_a 12.443614
_cell_length_b 8.881959
_cell_length_c 8.477884
_cell_angle_alpha 127.799355
_cell_angle_beta 86.815343
_cell_angle_gamma 101.474973
_cell_volume 722.917591
_symmetry_space_group_name_H-M "P -1"
_symmetry_group_IT_number 2
_symmetry_cell_setting 'triclinic'
loop_
_space_group_symop_operation_xyz
x,y,z
-x,-y,-z
loop_
_atom_site_type_symbol
_atom_site_label
_atom_site_fract_x
_atom_site_fract_y
_atom_site_fract_z
Si Si1 0.339295 0.481143 0.856060
Si Si2 0.177539 0.415320 0.571624
Si Si3 0.239011 0.135975 0.153418
Si Si4 0.790216 0.157628 0.296835
Si Si5 0.584336 0.589155 0.867008
Si Si6 0.038212 0.804194 0.410748
Si Si7 0.774856 0.198917 0.820284
Si Si8 0.606759 0.153034 0.534948
O O1 0.281458 0.363389 0.631928
O O2 0.458870 0.616523 0.898547
O O3 0.354666 0.356618 0.932322
O O4 0.249559 0.610575 0.975249
O O5 0.165604 0.278913 0.327361
O O6 0.194605 0.640115 0.668823
O O7 0.066415 0.364423 0.649573
O O8 0.355511 0.270166 0.181679
O O9 0.259070 0.982013 0.179049
O O10 0.184966 0.015362 0.927907
O O11 0.878610 0.173245 0.436287
O O12 0.661610 0.109535 0.335701
O O13 0.580111 0.366568 0.676124
O O14 0.097905 0.751092 0.213102
O O15 0.000000 0.000000 0.500000
O O16 0.701613 0.136845 0.635795
O O17 0.500000 0.000000 0.500000
#
# Coordination Sequence:
#
# PCOD8024043 Si02
#       8
#     2   2   2   2   2   2   2   2
#     4  10  24  44  67  99 138 179 229 271 344 408
#     4  12  25  47  69  98 140 184 227 284 338 404
#     4  12  25  42  69 101 138 174 231 278 335 407
#     4  11  26  47  67 103 141 177 224 288 340 399
#     4  10  24  42  68 104 135 183 225 276 342 407
#     4  11  25  46  73 100 132 180 234 282 343 405
#     4  10  23  45  63 102 135 175 232 278 341 408
#     4  10  23  42  69  95 140 185 223 276 342 406
#
# _framework density 22.132535000000001
#
# number of rings (size 3 to 8) (size 9 to 14) (size 15 to 20)
#    0.000    1.250    3.750    0.375    8.750    3.000 
#    0.000    0.000    0.000    0.000    0.000    0.000 
#    0.000    0.000    0.000    0.000    0.000    0.000 
#
# Total GULP energy -198305.949997 kJ/mol
# GULP energy per Si atom -12394.121875 kJ/mol
# Density = 2.208216 g / cm^3
# Si number density = 22.132535 Si / 1000 Ang^3
#
#
#
# Elastic Constant Matrix: (Units=GPa)
#
#
# Indices 1 2 3 4 5 6 
#
# 1 126.2589 61.7474 40.2235 3.7168 -23.1619 17.7430
# 2 61.7474 126.1920 50.0870 9.2517 -29.6351 35.7332
# 3 40.2235 50.0870 43.0199 -60.5672 69.4441 4.7906
# 4 3.7168 9.2517 -60.5672 -46.1270 90.6874 2.1682
# 5 -23.1619 -29.6351 69.4441 90.6874 -80.7365 -7.8458
# 6 17.7430 35.7332 4.7906 2.1682 -7.8458 39.9353
#
#
#
# Elastic Compliance Matrix: (Units=1/GPa)
#
#
# Indices 1 2 3 4 5 6 
#
# 1 0.010717 -0.004604 -0.001484 0.002704 0.000427 -0.000527
# 2 -0.004604 0.013861 -0.003272 0.003918 -0.001169 -0.010407
# 3 -0.001484 -0.003272 0.011770 -0.005264 0.005493 0.003540
# 4 0.002704 0.003918 -0.005264 0.022159 0.018311 -0.001681
# 5 0.000427 -0.001169 0.005493 0.018311 0.013042 0.001765
# 6 -0.000527 -0.010407 0.003540 -0.001681 0.001765 0.034600
#
#
# Mechanical properties :
#
#
# Convention : Reuss Voigt Hill
#
# Bulk Modulus (GPa) = 56.72691 66.62072 61.67381
# Shear Modulus (GPa) = 38.24270 -7.82478 15.20896
#
# Velocity S-wave (km/s) = 4.16131 -1.88231 2.62425
# Velocity P-wave (km/s) = 6.98390 5.04401 6.09167
#
# Compressibility (1/GPa) = 0.01762832
#
# Stress axis : x y z
#
# Youngs Moduli (GPa) = 93.30633 72.14624 84.96536
#
# Poissons Ratio (x) = 0.33214 0.12612
# Poissons Ratio (y) = 0.42955 0.27798
# Poissons Ratio (z) = 0.13850 0.23604
#
# Static dielectric constant tensor:
#      x y z
#    x 3.699200 0.272510 -0.143550 
#    y 0.272510 4.290840 -0.356750 
#    z -0.143550 -0.356750 4.260770 
# 
# 
# High freq. dielectric constant tensor:
#      x y z
#    x 1.866960 0.009370 -0.014210 
#    y 0.009370 1.881820 -0.009490 
#    z -0.014210 -0.009490 1.872860 
# 
# From -- ./inp_files/217529.got.cif
#   From: 2010.06.25/outbox.cif.g09.slc.cpg/sg2_109_cif.got.tgz:217529.got - 2010.06.27 13:26:56.
