data_PCOD8024106
_publ_section_title
;
Structure prediction by ZEFSAII (Michael W. Deem and Ramdas Pophale) SiO2 
 PCOD8024106
Probable space group: P -1
;
_chemical_formula_sum "Si O2"
_cell_formula_units_Z 14
_cell_length_a 8.211796
_cell_length_b 17.422283
_cell_length_c 10.659154
_cell_angle_alpha 55.595210
_cell_angle_beta 136.026065
_cell_angle_gamma 144.661950
_cell_volume 611.513836
_symmetry_space_group_name_H-M "P -1"
_symmetry_group_IT_number 2
_symmetry_cell_setting 'triclinic'
loop_
_space_group_symop_operation_xyz
x,y,z
-x,-y,-z
loop_
_atom_site_type_symbol
_atom_site_label
_atom_site_fract_x
_atom_site_fract_y
_atom_site_fract_z
Si Si1 0.916824 0.173528 0.484604
Si Si2 0.000130 0.982177 0.681760
Si Si3 0.232095 0.292081 0.820835
Si Si4 0.245701 0.765939 0.183553
Si Si5 0.358362 0.432296 0.118289
Si Si6 0.389523 0.275597 0.445374
Si Si7 0.710031 0.874959 0.872953
O O1 0.580060 0.132981 0.305925
O O2 0.056526 0.237795 0.639376
O O3 0.185802 0.279492 0.429900
O O4 0.855279 0.045457 0.559117
O O5 0.835128 0.880587 0.567148
O O6 0.875528 0.889723 0.819659
O O7 0.402195 0.090398 0.796134
O O8 0.516769 0.452817 0.823291
O O9 0.946034 0.225774 0.828859
O O10 0.423520 0.252058 0.005917
O O11 0.283002 0.674461 0.353431
O O12 0.041050 0.691771 0.008424
O O13 0.492810 0.370337 0.299458
O O14 0.500000 0.500000 0.000000
O O15 0.000000 0.000000 0.000000
#
# Coordination Sequence:
#
# PCOD8024106 Si02
#       7
#     2   2   2   2   2   2   2
#     4  11  25  43  64 100 135 167 214 269 325 392
#     4  11  23  43  68  99 132 170 215 271 328 380
#     4  11  25  44  66  97 132 174 218 266 321 387
#     4  10  23  42  70  97 132 167 221 272 316 385
#     4  10  24  44  66  97 129 171 224 264 317 386
#     4  11  25  42  70  97 129 177 211 269 330 376
#     4  12  26  40  68  97 134 172 209 266 336 381
#
# _framework density 22.894003999999999
#
# number of rings (size 3 to 8) (size 9 to 14) (size 15 to 20)
#    0.000    1.143    1.429    4.714    6.000    5.143 
#    0.000    5.000    0.000    0.000    0.000    0.000 
#    0.000    0.000    0.000    0.000    0.000    0.000 
#
# Total GULP energy -173540.044297 kJ/mol
# GULP energy per Si atom -12395.717450 kJ/mol
# Density = 2.284190 g / cm^3
# Si number density = 22.894004 Si / 1000 Ang^3
#
#
#
# Elastic Constant Matrix: (Units=GPa)
#
#
# Indices 1 2 3 4 5 6 
#
# 1 99.8236 23.1306 40.2950 14.9811 -2.3595 -13.1836
# 2 23.1306 87.3848 36.5829 -8.5915 4.8830 -31.0012
# 3 40.2950 36.5829 139.2260 1.2311 -8.3272 -21.7301
# 4 14.9811 -8.5915 1.2311 38.3412 -0.4182 -7.9256
# 5 -2.3595 4.8830 -8.3272 -0.4182 20.8978 2.9676
# 6 -13.1836 -31.0012 -21.7301 -7.9256 2.9676 32.3084
#
#
#
# Elastic Compliance Matrix: (Units=1/GPa)
#
#
# Indices 1 2 3 4 5 6 
#
# 1 0.012675 -0.003323 -0.002913 -0.005908 0.001146 -0.001531
# 2 -0.003323 0.022970 -0.002185 0.011130 -0.009632 0.022830
# 3 -0.002913 -0.002185 0.009245 0.000980 0.003480 0.002853
# 4 -0.005908 0.011130 0.000980 0.034485 -0.004718 0.017821
# 5 0.001146 -0.009632 0.003480 -0.004718 0.053297 -0.012487
# 6 -0.001531 0.022830 0.002853 0.017821 -0.012487 0.059671
#
#
# Mechanical properties :
#
#
# Convention : Reuss Voigt Hill
#
# Bulk Modulus (GPa) = 35.65524 58.49461 47.07492
# Shear Modulus (GPa) = 22.87963 33.40456 28.14209
#
# Velocity S-wave (km/s) = 3.16471 3.82396 3.50985
# Velocity P-wave (km/s) = 5.38161 6.71584 6.08540
#
# Compressibility (1/GPa) = 0.02804637
#
# Stress axis : x y z
#
# Youngs Moduli (GPa) = 78.89372 43.53536 108.17064
#
# Poissons Ratio (x) = 0.14468 0.31514
# Poissons Ratio (y) = 0.26219 0.23635
# Poissons Ratio (z) = 0.22985 0.09512
#
# Static dielectric constant tensor:
#      x y z
#    x 4.190720 -0.050700 -0.283480 
#    y -0.050700 4.359950 -0.052810 
#    z -0.283480 -0.052810 4.802600 
# 
# 
# High freq. dielectric constant tensor:
#      x y z
#    x 1.895480 -0.002310 -0.014360 
#    y -0.002310 1.895820 -0.005720 
#    z -0.014360 -0.005720 1.927310 
# 
# From -- ./inp_files/278726.got.cif
#   From: 2010.06.25/outbox.cif.g09.slc.cpg/sg2_140_cif.got.tgz:278726.got - 2010.06.27 13:26:56.
