data_PCOD8024325
_publ_section_title
;
Structure prediction by ZEFSAII (Michael W. Deem and Ramdas Pophale) SiO2 
 PCOD8024325
Probable space group: P -1
;
_chemical_formula_sum "Si O2"
_cell_formula_units_Z 16
_cell_length_a 11.747548
_cell_length_b 13.705602
_cell_length_c 8.356870
_cell_angle_alpha 44.808940
_cell_angle_beta 128.725729
_cell_angle_gamma 109.439147
_cell_volume 724.532589
_symmetry_space_group_name_H-M "P -1"
_symmetry_group_IT_number 2
_symmetry_cell_setting 'triclinic'
loop_
_space_group_symop_operation_xyz
x,y,z
-x,-y,-z
loop_
_atom_site_type_symbol
_atom_site_label
_atom_site_fract_x
_atom_site_fract_y
_atom_site_fract_z
Si Si1 0.971887 0.507935 0.780868
Si Si2 0.718491 0.235552 0.212468
Si Si3 0.815759 0.933875 0.534439
Si Si4 0.729094 0.339027 0.742594
Si Si5 0.818231 0.680371 0.029344
Si Si6 0.030677 0.216861 0.675924
Si Si7 0.856758 0.041330 0.121494
Si Si8 0.561535 0.576054 0.108915
O O1 0.876294 0.397355 0.768681
O O2 0.895990 0.670473 0.490439
O O3 0.117261 0.462594 0.847008
O O4 0.000000 0.500000 0.000000
O O5 0.857452 0.247190 0.436066
O O6 0.721447 0.071833 0.375355
O O7 0.721553 0.317236 0.951964
O O8 0.564486 0.295084 0.094207
O O9 0.991761 0.917094 0.735065
O O10 0.793460 0.946211 0.309002
O O11 0.752697 0.800241 0.700774
O O12 0.596310 0.459895 0.417368
O O13 0.739504 0.190999 0.825705
O O14 0.943167 0.748714 0.155757
O O15 0.698821 0.643951 0.091392
O O16 0.114972 0.054520 0.902627
O O17 0.500000 0.500000 0.000000
#
# Coordination Sequence:
#
# PCOD8024325 Si02
#       8
#     2   2   2   2   2   2   2   2
#     4  12  22  38  67  99 125 165 221 278 319 373
#     4  10  23  43  65  93 131 179 219 257 321 393
#     4   9  19  38  64  93 131 170 214 267 320 385
#     4  11  22  43  70  92 130 173 225 268 315 389
#     4  12  25  40  65 102 135 166 214 277 333 385
#     4  11  22  38  68 103 129 165 212 275 333 381
#     4   9  19  39  66 100 128 163 219 275 324 375
#     4  12  28  43  61  93 138 178 214 265 335 393
#
# _framework density 22.083200999999999
#
# number of rings (size 3 to 8) (size 9 to 14) (size 15 to 20)
#    0.000    1.250    3.750    3.000    1.750    3.500 
#    0.000    0.000    0.000    3.000    0.000    0.000 
#    0.000    0.000    0.000    0.000    0.000    0.000 
#
# Total GULP energy -198265.819939 kJ/mol
# GULP energy per Si atom -12391.613746 kJ/mol
# Density = 2.203294 g / cm^3
# Si number density = 22.083201 Si / 1000 Ang^3
#
#
#
# Elastic Constant Matrix: (Units=GPa)
#
#
# Indices 1 2 3 4 5 6 
#
# 1 92.8914 23.5389 27.5486 -2.8212 10.8987 -13.2829
# 2 23.5389 80.9451 18.9338 -4.8958 13.7293 -13.1646
# 3 27.5486 18.9338 79.7413 -5.9567 1.3775 0.1914
# 4 -2.8212 -4.8958 -5.9567 33.7133 -1.4769 -3.1493
# 5 10.8987 13.7293 1.3775 -1.4769 30.5325 -13.4840
# 6 -13.2829 -13.1646 0.1914 -3.1493 -13.4840 29.3477
#
#
#
# Elastic Compliance Matrix: (Units=1/GPa)
#
#
# Indices 1 2 3 4 5 6 
#
# 1 0.013310 -0.001862 -0.004103 0.000460 -0.001733 0.004469
# 2 -0.001862 0.015012 -0.002730 0.001765 -0.003994 0.004263
# 3 -0.004103 -0.002730 0.014720 0.001666 0.000984 -0.002547
# 4 0.000460 0.001765 0.001666 0.030911 0.002966 0.005669
# 5 -0.001733 -0.003994 0.000984 0.002966 0.042988 0.017487
# 6 0.004469 0.004263 -0.002547 0.005669 0.017487 0.046669
#
#
# Mechanical properties :
#
#
# Convention : Reuss Voigt Hill
#
# Bulk Modulus (GPa) = 38.98480 43.73560 41.36020
# Shear Modulus (GPa) = 26.37821 30.95580 28.66701
#
# Velocity S-wave (km/s) = 3.45989 3.74810 3.60687
# Velocity P-wave (km/s) = 5.80113 6.21119 6.00966
#
# Compressibility (1/GPa) = 0.02565102
#
# Stress axis : x y z
#
# Youngs Moduli (GPa) = 75.13055 66.61398 67.93593
#
# Poissons Ratio (x) = 0.12407 0.27871
# Poissons Ratio (y) = 0.13993 0.18549
# Poissons Ratio (z) = 0.30823 0.18188
#
# Static dielectric constant tensor:
#      x y z
#    x 3.981680 -0.128390 -0.281490 
#    y -0.128390 3.951210 -0.165390 
#    z -0.281490 -0.165390 4.119070 
# 
# 
# High freq. dielectric constant tensor:
#      x y z
#    x 1.853560 -0.020600 -0.024630 
#    y -0.020600 1.864340 -0.024830 
#    z -0.024630 -0.024830 1.870760 
# 
# From -- ./inp_files/271646.got.cif
#   From: 2010.06.25/outbox.cif.g09.slc.cpg/sg2_136_cif.got.tgz:271646.got - 2010.06.27 13:26:56.
