data_PCOD8024302
_publ_section_title
;
Structure prediction by ZEFSAII (Michael W. Deem and Ramdas Pophale) SiO2 
 PCOD8024302
Probable space group: P -1
;
_chemical_formula_sum "Si O2"
_cell_formula_units_Z 16
_cell_length_a 12.992495
_cell_length_b 5.344939
_cell_length_c 15.823788
_cell_angle_alpha 98.089633
_cell_angle_beta 142.067828
_cell_angle_gamma 71.643218
_cell_volume 630.118385
_symmetry_space_group_name_H-M "P -1"
_symmetry_group_IT_number 2
_symmetry_cell_setting 'triclinic'
loop_
_space_group_symop_operation_xyz
x,y,z
-x,-y,-z
loop_
_atom_site_type_symbol
_atom_site_label
_atom_site_fract_x
_atom_site_fract_y
_atom_site_fract_z
Si Si1 0.537473 0.704826 0.471099
Si Si2 0.791863 0.984270 0.125687
Si Si3 0.089251 0.182190 0.492888
Si Si4 0.733389 0.986433 0.811193
Si Si5 0.720244 0.176986 0.268389
Si Si6 0.065933 0.784640 0.915991
Si Si7 0.890016 0.380690 0.599353
Si Si8 0.369330 0.262632 0.120267
O O1 0.500000 0.500000 0.500000
O O2 0.740460 0.560985 0.572726
O O3 0.500000 0.000000 0.500000
O O4 0.408649 0.744793 0.307181
O O5 0.924874 0.696611 0.232161
O O6 0.688876 0.155245 0.147247
O O7 0.914463 0.133012 0.164430
O O8 0.636773 0.967948 0.961373
O O9 0.119301 0.425157 0.475789
O O10 0.881510 0.292432 0.392092
O O11 0.212407 0.115448 0.654065
O O12 0.134004 0.901794 0.456181
O O13 0.618824 0.825476 0.777449
O O14 0.860891 0.824956 0.809658
O O15 0.859333 0.032566 0.967071
O O16 0.537084 0.352749 0.205448
O O17 0.179549 0.482292 0.993828
#
# Coordination Sequence:
#
# PCOD8024302 Si02
#       8
#     2   2   2   2   2   2   2   2
#     4  12  27  42  72 107 137 177 227 289 340 403
#     4  10  24  41  63  98 135 179 221 286 339 404
#     4  10  24  45  69  98 133 187 221 280 342 412
#     4  10  24  44  66  96 136 173 231 277 338 411
#     4  10  23  43  65 100 135 170 234 281 343 403
#     4  10  23  43  66  96 130 182 225 277 343 402
#     4  11  24  45  70  97 142 181 229 276 348 407
#     4  11  23  41  70  95 130 181 226 281 338 402
#
# _framework density 25.392053000000001
#
# number of rings (size 3 to 8) (size 9 to 14) (size 15 to 20)
#    0.000    1.500    0.000    3.000    8.750    5.000 
#    9.000    0.000    0.000    0.000    0.000    0.000 
#    0.000    0.000    0.000    0.000    0.000    0.000 
#
# Total GULP energy -198257.229994 kJ/mol
# GULP energy per Si atom -12391.076875 kJ/mol
# Density = 2.533426 g / cm^3
# Si number density = 25.392053 Si / 1000 Ang^3
#
#
#
# Elastic Constant Matrix: (Units=GPa)
#
#
# Indices 1 2 3 4 5 6 
#
# 1 187.2260 35.7734 27.1814 -8.5126 -16.5274 -0.5346
# 2 35.7734 100.0588 8.0964 -14.4313 -12.6644 0.1120
# 3 27.1814 8.0964 65.6749 -13.6928 -18.5169 0.0690
# 4 -8.5126 -14.4313 -13.6928 23.4496 9.9653 -5.0920
# 5 -16.5274 -12.6644 -18.5169 9.9653 45.2306 -21.6093
# 6 -0.5346 0.1120 0.0690 -5.0920 -21.6093 30.1464
#
#
#
# Elastic Compliance Matrix: (Units=1/GPa)
#
#
# Indices 1 2 3 4 5 6 
#
# 1 0.006107 -0.001903 -0.001962 -0.000512 0.001558 0.001150
# 2 -0.001903 0.011992 0.001783 0.006996 0.003614 0.003690
# 3 -0.001962 0.001783 0.020861 0.010104 0.010447 0.009106
# 4 -0.000512 0.006996 0.010104 0.055448 -0.002831 0.007278
# 5 0.001558 0.003614 0.010447 -0.002831 0.043127 0.030426
# 6 0.001150 0.003690 0.009106 0.007278 0.030426 0.056197
#
#
# Mechanical properties :
#
#
# Convention : Reuss Voigt Hill
#
# Bulk Modulus (GPa) = 28.73762 55.00692 41.87227
# Shear Modulus (GPa) = 23.86702 38.55923 31.21313
#
# Velocity S-wave (km/s) = 3.06917 3.90109 3.50987
# Velocity P-wave (km/s) = 4.88896 6.48085 5.74035
#
# Compressibility (1/GPa) = 0.03479759
#
# Stress axis : x y z
#
# Youngs Moduli (GPa) = 163.74644 83.38616 47.93588
#
# Poissons Ratio (x) = 0.15865 0.09403
# Poissons Ratio (y) = 0.31154 -0.08545
# Poissons Ratio (z) = 0.32121 -0.14865
#
# Static dielectric constant tensor:
#      x y z
#    x 5.034660 -0.112130 -0.219740 
#    y -0.112130 4.280970 -0.017770 
#    z -0.219740 -0.017770 4.774560 
# 
# 
# High freq. dielectric constant tensor:
#      x y z
#    x 2.032650 -0.006240 -0.016310 
#    y -0.006240 1.991120 -0.006640 
#    z -0.016310 -0.006640 2.018440 
# 
# From -- ./inp_files/511018.got.cif
#   From: 2010.06.25/outbox.cif.g09.slc.cpg/sg2_256_cif.got.tgz:511018.got - 2010.06.27 13:26:56.
