data_PCOD8024230
_publ_section_title
;
Structure prediction by ZEFSAII (Michael W. Deem and Ramdas Pophale) SiO2 
 PCOD8024230
Probable space group: P -1
;
_chemical_formula_sum "Si O2"
_cell_formula_units_Z 12
_cell_length_a 19.602904
_cell_length_b 17.973823
_cell_length_c 11.519805
_cell_angle_alpha 31.719698
_cell_angle_beta 20.524132
_cell_angle_gamma 22.066555
_cell_volume 529.989137
_symmetry_space_group_name_H-M "P -1"
_symmetry_group_IT_number 2
_symmetry_cell_setting 'triclinic'
loop_
_space_group_symop_operation_xyz
x,y,z
-x,-y,-z
loop_
_atom_site_type_symbol
_atom_site_label
_atom_site_fract_x
_atom_site_fract_y
_atom_site_fract_z
Si Si1 0.000700 0.345785 0.149143
Si Si2 0.974009 0.270601 0.839906
Si Si3 0.708179 0.522041 0.142305
Si Si4 0.516570 0.444528 0.915819
Si Si5 0.477970 0.910742 0.914305
Si Si6 0.659148 0.066069 0.142223
O O1 0.918800 0.398139 0.075980
O O2 0.803611 0.343082 0.537827
O O3 0.000000 0.500000 0.000000
O O4 0.306949 0.123715 0.965253
O O5 0.230765 0.182167 0.470556
O O6 0.057670 0.092585 0.024611
O O7 0.876586 0.442748 0.857155
O O8 0.726754 0.356533 0.033738
O O9 0.500000 0.500000 0.500000
O O10 0.537151 0.755364 0.117879
O O11 0.500000 0.500000 0.000000
O O12 0.487858 0.288916 0.164996
O O13 0.294617 0.940569 0.060724
O O14 0.500000 0.000000 0.500000
#
# Coordination Sequence:
#
# PCOD8024230 Si02
#       6
#     2   2   2   2   2   2
#     4  12  30  48  69 107 154 192 238 310 369 424
#     4  11  24  44  75 107 136 190 240 297 354 434
#     4  12  24  45  76 107 144 183 250 304 357 432
#     4  12  29  48  71 105 149 191 244 301 369 431
#     4  11  25  43  76 105 142 186 245 291 367 434
#     4  10  23  42  76 106 139 183 245 296 360 425
#
# _framework density 22.641973
#
# number of rings (size 3 to 8) (size 9 to 14) (size 15 to 20)
#    0.000    0.667    5.000    0.500   11.667    2.667 
#    0.000    0.000    0.000    0.000    0.000    0.000 
#    0.000    0.000    0.000    0.000    0.000    0.000 
#
# Total GULP energy -148791.178118 kJ/mol
# GULP energy per Si atom -12399.264843 kJ/mol
# Density = 2.259044 g / cm^3
# Si number density = 22.641973 Si / 1000 Ang^3
#
#
#
# Elastic Constant Matrix: (Units=GPa)
#
#
# Indices 1 2 3 4 5 6 
#
# 1 93.8665 23.5289 21.0931 15.9312 6.7955 4.8823
# 2 23.5289 156.4262 52.1227 13.5147 0.1955 3.9125
# 3 21.0931 52.1227 116.1239 14.4041 3.7712 11.7131
# 4 15.9312 13.5147 14.4041 35.1250 0.7120 0.3419
# 5 6.7955 0.1955 3.7712 0.7120 28.0481 -0.0443
# 6 4.8823 3.9125 11.7131 0.3419 -0.0443 44.0016
#
#
#
# Elastic Compliance Matrix: (Units=1/GPa)
#
#
# Indices 1 2 3 4 5 6 
#
# 1 0.012175 -0.001081 -0.000965 -0.004646 -0.002696 -0.000965
# 2 -0.001081 0.007705 -0.003165 -0.001193 0.000664 0.000287
# 3 -0.000965 -0.003165 0.010834 -0.002740 -0.001135 -0.002475
# 4 -0.004646 -0.001193 -0.002740 0.032135 0.000688 0.001102
# 5 -0.002696 0.000664 -0.001135 0.000688 0.036438 0.000574
# 6 -0.000965 0.000287 -0.002475 0.001102 0.000574 0.023459
#
#
# Mechanical properties :
#
#
# Convention : Reuss Voigt Hill
#
# Bulk Modulus (GPa) = 49.27929 62.21176 55.74553
# Shear Modulus (GPa) = 35.73189 39.41304 37.57247
#
# Velocity S-wave (km/s) = 3.97687 4.17670 4.07801
# Velocity P-wave (km/s) = 6.54975 7.12711 6.84452
#
# Compressibility (1/GPa) = 0.02029250
#
# Stress axis : x y z
#
# Youngs Moduli (GPa) = 82.13419 129.78768 92.30451
#
# Poissons Ratio (x) = 0.14027 0.08910
# Poissons Ratio (y) = 0.08877 0.29211
# Poissons Ratio (z) = 0.07928 0.41073
#
# Static dielectric constant tensor:
#      x y z
#    x 4.365600 -0.405510 0.100380 
#    y -0.405510 4.546440 0.077550 
#    z 0.100380 0.077550 3.873620 
# 
# 
# High freq. dielectric constant tensor:
#      x y z
#    x 1.887680 -0.020590 0.011270 
#    y -0.020590 1.909350 0.005830 
#    z 0.011270 0.005830 1.881140 
# 
# From -- ./inp_files/148759.got.cif
#   From: 2010.06.25/outbox.cif.g09.slc.cpg/sg2_75_cif.got.tgz:148759.got - 2010.06.27 13:26:56.
