data_PCOD8024258
_publ_section_title
;
Structure prediction by ZEFSAII (Michael W. Deem and Ramdas Pophale) SiO2 
 PCOD8024258
Probable space group: P -1
;
_chemical_formula_sum "Si O2"
_cell_formula_units_Z 16
_cell_length_a 10.624368
_cell_length_b 11.659135
_cell_length_c 13.406809
_cell_angle_alpha 149.222442
_cell_angle_beta 61.725965
_cell_angle_gamma 101.093147
_cell_volume 658.133633
_symmetry_space_group_name_H-M "P -1"
_symmetry_group_IT_number 2
_symmetry_cell_setting 'triclinic'
loop_
_space_group_symop_operation_xyz
x,y,z
-x,-y,-z
loop_
_atom_site_type_symbol
_atom_site_label
_atom_site_fract_x
_atom_site_fract_y
_atom_site_fract_z
Si Si1 0.144620 0.171546 0.342782
Si Si2 0.011186 0.875027 0.297183
Si Si3 0.580287 0.633481 0.969951
Si Si4 0.221597 0.914352 0.915229
Si Si5 0.365544 0.900456 0.424833
Si Si6 0.002225 0.299879 0.129508
Si Si7 0.201886 0.363546 0.944546
Si Si8 0.510018 0.965573 0.854170
O O1 0.006975 0.459765 0.627492
O O2 0.094610 0.970799 0.256176
O O3 0.300413 0.153889 0.332504
O O4 0.171180 0.122259 0.178210
O O5 0.125394 0.571515 0.041736
O O6 0.000000 0.000000 0.500000
O O7 0.831780 0.938163 0.378301
O O8 0.427578 0.855957 0.254335
O O9 0.741397 0.533425 0.903363
O O10 0.591764 0.759591 0.957048
O O11 0.561866 0.381875 0.763685
O O12 0.172745 0.697587 0.802137
O O13 0.416880 0.801004 0.738682
O O14 0.133276 0.043188 0.941838
O O15 0.374643 0.118858 0.656698
O O16 0.063959 0.295969 0.989977
O O17 0.500000 0.000000 0.000000
#
# Coordination Sequence:
#
# PCOD8024258 Si02
#       8
#     2   2   2   2   2   2   2   2
#     4  11  23  42  67  93 131 176 216 271 335 390
#     4  12  22  42  68  98 135 174 214 273 336 393
#     4  11  23  45  67  94 136 174 221 274 332 396
#     4  10  23  43  63  95 126 170 228 272 326 391
#     4  11  25  41  69  98 134 177 217 270 337 399
#     4  11  22  41  69  94 131 167 220 279 329 387
#     4  12  24  43  68 101 135 173 220 273 334 403
#     4  10  23  45  67  93 131 175 224 273 330 389
#
# _framework density 24.311171999999999
#
# number of rings (size 3 to 8) (size 9 to 14) (size 15 to 20)
#    0.000    1.000    3.750    2.625    1.750    0.500 
#    9.000    1.250    0.000    0.000    0.000    0.000 
#    0.000    0.000    0.000    0.000    0.000    0.000 
#
# Total GULP energy -198294.024533 kJ/mol
# GULP energy per Si atom -12393.376533 kJ/mol
# Density = 2.425584 g / cm^3
# Si number density = 24.311172 Si / 1000 Ang^3
#
#
#
# Elastic Constant Matrix: (Units=GPa)
#
#
# Indices 1 2 3 4 5 6 
#
# 1 40.5337 11.1882 -7.8920 11.6547 -4.3867 10.2477
# 2 11.1882 128.1244 24.9072 21.6806 -2.7432 9.0228
# 3 -7.8920 24.9072 98.1443 11.1247 16.0881 -0.1759
# 4 11.6547 21.6806 11.1247 26.9094 5.1284 -0.9150
# 5 -4.3867 -2.7432 16.0881 5.1284 37.9145 -2.4978
# 6 10.2477 9.0228 -0.1759 -0.9150 -2.4978 40.1745
#
#
#
# Elastic Compliance Matrix: (Units=1/GPa)
#
#
# Indices 1 2 3 4 5 6 
#
# 1 0.032851 -0.000113 0.003928 -0.016780 0.003837 -0.008481
# 2 -0.000113 0.009671 -0.002018 -0.007440 0.002406 -0.002172
# 3 0.003928 -0.002018 0.012219 -0.004327 -0.004348 -0.000864
# 4 -0.016780 -0.007440 -0.004327 0.053868 -0.007489 0.006694
# 5 0.003837 0.002406 -0.004348 -0.007489 0.029861 0.000148
# 6 -0.008481 -0.002172 -0.000864 0.006694 0.000148 0.027700
#
#
# Mechanical properties :
#
#
# Convention : Reuss Voigt Hill
#
# Bulk Modulus (GPa) = 17.14274 35.91214 26.52744
# Shear Modulus (GPa) = 27.46934 36.90629 32.18782
#
# Velocity S-wave (km/s) = 3.36505 3.90048 3.64262
# Velocity P-wave (km/s) = 4.70795 5.92359 5.35041
#
# Compressibility (1/GPa) = 0.05833374
#
# Stress axis : x y z
#
# Youngs Moduli (GPa) = 30.44035 103.40539 81.84072
#
# Poissons Ratio (x) = 0.01173 -0.32150
# Poissons Ratio (y) = 0.00345 0.16518
# Poissons Ratio (z) = -0.11958 0.20871
#
# Static dielectric constant tensor:
#      x y z
#    x 5.178170 0.341300 -0.100650 
#    y 0.341300 4.664340 -0.064290 
#    z -0.100650 -0.064290 4.172200 
# 
# 
# High freq. dielectric constant tensor:
#      x y z
#    x 1.990060 0.017780 -0.003920 
#    y 0.017780 1.969820 -0.005410 
#    z -0.003920 -0.005410 1.946940 
# 
# From -- ./inp_files/519947.got.cif
#   From: 2010.06.25/outbox.cif.g09.slc.cpg/sg2_260_cif.got.tgz:519947.got - 2010.06.27 13:26:56.
