data_PCOD8024560
_publ_section_title
;
Structure prediction by ZEFSAII (Michael W. Deem and Ramdas Pophale) SiO2 
 PCOD8024560
Probable space group: P -1
;
_chemical_formula_sum "Si O2"
_cell_formula_units_Z 14
_cell_length_a 9.582911
_cell_length_b 11.459808
_cell_length_c 9.012060
_cell_angle_alpha 63.422854
_cell_angle_beta 132.121601
_cell_angle_gamma 123.602785
_cell_volume 606.736881
_symmetry_space_group_name_H-M "P -1"
_symmetry_group_IT_number 2
_symmetry_cell_setting 'triclinic'
loop_
_space_group_symop_operation_xyz
x,y,z
-x,-y,-z
loop_
_atom_site_type_symbol
_atom_site_label
_atom_site_fract_x
_atom_site_fract_y
_atom_site_fract_z
Si Si1 0.835124 0.620547 0.337803
Si Si2 0.496648 0.139731 0.103216
Si Si3 0.021588 0.330574 0.053004
Si Si4 0.840613 0.430143 0.212605
Si Si5 0.460046 0.845485 0.206604
Si Si6 0.331709 0.353241 0.502709
Si Si7 0.123344 0.163005 0.973936
O O1 0.726710 0.507573 0.192469
O O2 0.679195 0.649921 0.322528
O O3 0.966418 0.767849 0.261835
O O4 0.957348 0.553205 0.564996
O O5 0.715850 0.265416 0.194536
O O6 0.495820 0.988412 0.244260
O O7 0.431274 0.113165 0.899828
O O8 0.351677 0.187390 0.075646
O O9 0.115163 0.333863 0.282928
O O10 0.095126 0.490332 0.946650
O O11 0.123058 0.241666 0.081382
O O12 0.778699 0.252547 0.922229
O O13 0.584303 0.764666 0.425322
O O14 0.500000 0.500000 0.500000
O O15 0.000000 0.000000 0.000000
#
# Coordination Sequence:
#
# PCOD8024560 Si02
#       7
#     2   2   2   2   2   2   2
#     4  10  23  43  68  99 138 180 230 281 345 406
#     4  11  23  43  70  96 139 177 231 281 342 406
#     4  11  25  44  72 101 143 177 229 286 345 400
#     4  10  23  44  72  99 134 183 228 287 340 404
#     4  11  24  45  67 105 138 180 223 285 344 410
#     4  12  25  41  71 106 138 179 231 280 341 417
#     4  11  23  45  68  98 138 184 226 285 342 407
#
# _framework density 23.074252000000001
#
# number of rings (size 3 to 8) (size 9 to 14) (size 15 to 20)
#    0.000    1.143    2.857    2.571    2.000    4.000 
#    0.000    4.286    0.000    0.000    0.000    0.000 
#    0.000    0.000    0.000    0.000    0.000    0.000 
#
# Total GULP energy -173520.292566 kJ/mol
# GULP energy per Si atom -12394.306612 kJ/mol
# Density = 2.302173 g / cm^3
# Si number density = 23.074252 Si / 1000 Ang^3
#
#
#
# Elastic Constant Matrix: (Units=GPa)
#
#
# Indices 1 2 3 4 5 6 
#
# 1 90.0725 14.7318 16.7256 -4.9600 -10.5801 1.7972
# 2 14.7318 149.2259 38.5046 -22.1331 0.7817 13.9158
# 3 16.7256 38.5046 85.6328 -18.4039 -3.1519 -2.1162
# 4 -4.9600 -22.1331 -18.4039 33.7333 -3.3143 5.1050
# 5 -10.5801 0.7817 -3.1519 -3.3143 41.9970 -2.4619
# 6 1.7972 13.9158 -2.1162 5.1050 -2.4619 31.6084
#
#
#
# Elastic Compliance Matrix: (Units=1/GPa)
#
#
# Indices 1 2 3 4 5 6 
#
# 1 0.011925 -0.000573 -0.001816 0.000739 0.002911 -0.000440
# 2 -0.000573 0.008648 -0.002903 0.004683 -0.000433 -0.004759
# 3 -0.001816 -0.002903 0.014648 0.005709 0.001236 0.001537
# 4 0.000739 0.004683 0.005709 0.037377 0.003036 -0.007522
# 5 0.002911 -0.000433 0.001236 0.003036 0.024977 0.001563
# 6 -0.000440 -0.004759 0.001537 -0.007522 0.001563 0.035197
#
#
# Mechanical properties :
#
#
# Convention : Reuss Voigt Hill
#
# Bulk Modulus (GPa) = 40.59295 51.65059 46.12177
# Shear Modulus (GPa) = 32.98839 38.46569 35.72704
#
# Velocity S-wave (km/s) = 3.78519 4.08737 3.93918
# Velocity P-wave (km/s) = 6.06086 6.68645 6.38132
#
# Compressibility (1/GPa) = 0.02463482
#
# Stress axis : x y z
#
# Youngs Moduli (GPa) = 83.86041 115.63750 68.26674
#
# Poissons Ratio (x) = 0.06628 0.12399
# Poissons Ratio (y) = 0.04807 0.19821
# Poissons Ratio (z) = 0.15231 0.33575
#
# Static dielectric constant tensor:
#      x y z
#    x 4.469700 -0.099980 -0.064750 
#    y -0.099980 3.889740 -0.572640 
#    z -0.064750 -0.572640 4.050330 
# 
# 
# High freq. dielectric constant tensor:
#      x y z
#    x 1.933780 -0.021460 -0.005860 
#    y -0.021460 1.915860 -0.030260 
#    z -0.005860 -0.030260 1.890240 
# 
# From -- ./inp_files/185559.got.cif
#   From: 2010.06.25/outbox.cif.g09.slc.cpg/sg2_93_cif.got.tgz:185559.got - 2010.06.27 13:26:56.
