data_PCOD8024745
_publ_section_title
;
Structure prediction by ZEFSAII (Michael W. Deem and Ramdas Pophale) SiO2 
 PCOD8024745
Probable space group: P -1
;
_chemical_formula_sum "Si O2"
_cell_formula_units_Z 16
_cell_length_a 8.216202
_cell_length_b 11.075343
_cell_length_c 13.307521
_cell_angle_alpha 129.888525
_cell_angle_beta 125.331597
_cell_angle_gamma 54.942428
_cell_volume 716.832035
_symmetry_space_group_name_H-M "P -1"
_symmetry_group_IT_number 2
_symmetry_cell_setting 'triclinic'
loop_
_space_group_symop_operation_xyz
x,y,z
-x,-y,-z
loop_
_atom_site_type_symbol
_atom_site_label
_atom_site_fract_x
_atom_site_fract_y
_atom_site_fract_z
Si Si1 0.915333 0.735391 0.781217
Si Si2 0.298483 0.315212 0.961127
Si Si3 0.209417 0.851467 0.486802
Si Si4 0.734849 0.442631 0.516379
Si Si5 0.528019 0.023947 0.736276
Si Si6 0.344315 0.591033 0.757190
Si Si7 0.946958 0.321881 0.982791
Si Si8 0.597684 0.231033 0.706245
O O1 0.838621 0.587015 0.633088
O O2 0.768771 0.915466 0.787318
O O3 0.153085 0.706088 0.815644
O O4 0.915893 0.744352 0.905566
O O5 0.168624 0.480228 0.941978
O O6 0.437478 0.176374 0.861586
O O7 0.449757 0.354838 0.120609
O O8 0.117869 0.260864 0.922241
O O9 0.150208 0.704783 0.444162
O O10 0.396087 0.897289 0.633490
O O11 0.274381 0.812881 0.374351
O O12 0.000000 0.000000 0.500000
O O13 0.500000 0.500000 0.500000
O O14 0.734680 0.379116 0.369176
O O15 0.510172 0.091794 0.650313
O O16 0.400681 0.397939 0.706663
O O17 0.760107 0.246122 0.858312
#
# Coordination Sequence:
#
# PCOD8024745 Si02
#       8
#     2   2   2   2   2   2   2   2
#     4  12  26  42  69  99 135 177 216 274 332 387
#     4  10  23  43  71  98 132 171 225 272 324 395
#     4  12  28  44  70 100 130 176 220 277 332 385
#     4  12  24  47  69  95 133 173 229 269 324 397
#     4  12  26  44  65 102 139 171 215 277 335 387
#     4  11  24  44  71  97 130 182 219 269 326 393
#     4  10  23  43  72  98 127 179 223 267 329 391
#     4  11  24  45  68  97 137 174 222 268 327 398
#
# _framework density 22.320430999999999
#
# number of rings (size 3 to 8) (size 9 to 14) (size 15 to 20)
#    0.000    0.750    2.500    3.750    8.750    4.500 
#    0.000    0.000    0.000    0.000    0.000    0.000 
#    0.000    0.000    0.000    0.000    0.000    0.000 
#
# Total GULP energy -198409.064425 kJ/mol
# GULP energy per Si atom -12400.566527 kJ/mol
# Density = 2.226963 g / cm^3
# Si number density = 22.320431 Si / 1000 Ang^3
#
#
#
# Elastic Constant Matrix: (Units=GPa)
#
#
# Indices 1 2 3 4 5 6 
#
# 1 81.0563 45.5869 9.1140 4.2312 -11.0384 -9.6015
# 2 45.5869 143.5872 29.9620 3.8362 -27.4781 -13.4966
# 3 9.1140 29.9620 86.3069 -10.1278 -19.3819 5.9516
# 4 4.2312 3.8362 -10.1278 28.3193 -3.1577 -4.6779
# 5 -11.0384 -27.4781 -19.3819 -3.1577 34.6969 0.1521
# 6 -9.6015 -13.4966 5.9516 -4.6779 0.1521 44.5985
#
#
#
# Elastic Compliance Matrix: (Units=1/GPa)
#
#
# Indices 1 2 3 4 5 6 
#
# 1 0.015264 -0.004390 -0.000095 -0.001283 0.001202 0.001832
# 2 -0.004390 0.010036 -0.002026 -0.000450 0.005369 0.002297
# 3 -0.000095 -0.002026 0.014755 0.006035 0.007165 -0.001994
# 4 -0.001283 -0.000450 0.006035 0.038875 0.006132 0.002839
# 5 0.001202 0.005369 0.007165 0.006132 0.038009 0.001441
# 6 0.001832 0.002297 -0.001994 0.002839 0.001441 0.024071
#
#
# Mechanical properties :
#
#
# Convention : Reuss Voigt Hill
#
# Bulk Modulus (GPa) = 36.99150 53.36402 45.17776
# Shear Modulus (GPa) = 30.66658 36.60878 33.63768
#
# Velocity S-wave (km/s) = 3.71067 4.05427 3.88627
# Velocity P-wave (km/s) = 5.91335 6.77319 6.35782
#
# Compressibility (1/GPa) = 0.02703324
#
# Stress axis : x y z
#
# Youngs Moduli (GPa) = 65.51208 99.63833 67.77474
#
# Poissons Ratio (x) = 0.43741 0.00644
# Poissons Ratio (y) = 0.28760 0.13732
# Poissons Ratio (z) = 0.00622 0.20188
#
# Static dielectric constant tensor:
#      x y z
#    x 3.937330 -0.164330 0.154940 
#    y -0.164330 3.649960 0.414830 
#    z 0.154940 0.414830 3.593710 
# 
# 
# High freq. dielectric constant tensor:
#      x y z
#    x 1.888900 -0.007020 -0.001390 
#    y -0.007020 1.884070 -0.005060 
#    z -0.001390 -0.005060 1.880890 
# 
# From -- ./inp_files/343675.got.cif
#   From: 2010.06.25/outbox.cif.g09.slc.cpg/sg2_172_cif.got.tgz:343675.got - 2010.06.27 13:26:56.
