data_PCOD8024644
_publ_section_title
;
Structure prediction by ZEFSAII (Michael W. Deem and Ramdas Pophale) SiO2 
 PCOD8024644
Probable space group: P -1
;
_chemical_formula_sum "Si O2"
_cell_formula_units_Z 16
_cell_length_a 9.820181
_cell_length_b 11.228123
_cell_length_c 16.195576
_cell_angle_alpha 147.868034
_cell_angle_beta 131.811719
_cell_angle_gamma 51.968454
_cell_volume 701.913105
_symmetry_space_group_name_H-M "P -1"
_symmetry_group_IT_number 2
_symmetry_cell_setting 'triclinic'
loop_
_space_group_symop_operation_xyz
x,y,z
-x,-y,-z
loop_
_atom_site_type_symbol
_atom_site_label
_atom_site_fract_x
_atom_site_fract_y
_atom_site_fract_z
Si Si1 0.067868 0.815014 0.855983
Si Si2 0.809718 0.265251 0.444667
Si Si3 0.369571 0.104486 0.767584
Si Si4 0.214870 0.419963 0.042894
Si Si5 0.509207 0.746173 0.387487
Si Si6 0.204966 0.353106 0.687088
Si Si7 0.321426 0.246098 0.364002
Si Si8 0.711600 0.014274 0.096322
O O1 0.133485 0.612967 0.827800
O O2 0.887675 0.778609 0.706625
O O3 0.228428 0.884262 0.904862
O O4 0.000000 0.000000 0.000000
O O5 0.703562 0.520557 0.562734
O O6 0.030059 0.228580 0.522085
O O7 0.745001 0.107221 0.397281
O O8 0.762632 0.177961 0.284829
O O9 0.326789 0.234238 0.740313
O O10 0.582831 0.977437 0.779629
O O11 0.313911 0.283338 0.923730
O O12 0.322491 0.633674 0.230495
O O13 0.207166 0.246411 0.013098
O O14 0.000000 0.500000 0.000000
O O15 0.676755 0.615206 0.328299
O O16 0.550374 0.730899 0.491838
O O17 0.500000 0.000000 0.500000
O O18 0.500000 0.000000 0.000000
#
# Coordination Sequence:
#
# PCOD8024644 Si02
#       8
#     2   2   2   2   2   2   2   2
#     4  11  27  43  72 103 144 184 241 299 362 419
#     4  10  23  43  70 100 140 186 241 287 356 425
#     4  11  25  43  71 103 146 183 234 298 357 423
#     4  11  29  46  72 102 141 190 240 290 359 426
#     4  12  26  45  74 105 142 187 237 292 361 429
#     4  11  24  44  68 104 140 184 237 296 359 422
#     4  11  24  45  71 105 140 187 237 299 355 425
#     4  11  24  46  71  97 139 191 243 287 353 435
#
# _framework density 22.794844999999999
#
# number of rings (size 3 to 8) (size 9 to 14) (size 15 to 20)
#    0.000    1.000    1.250    3.750   12.250    3.500 
#    2.250    0.000    0.000    0.000    0.000    0.000 
#    0.000    0.000    0.000    0.000    0.000    0.000 
#
# Total GULP energy -198225.799691 kJ/mol
# GULP energy per Si atom -12389.112481 kJ/mol
# Density = 2.274296 g / cm^3
# Si number density = 22.794845 Si / 1000 Ang^3
#
#
#
# Elastic Constant Matrix: (Units=GPa)
#
#
# Indices 1 2 3 4 5 6 
#
# 1 113.2759 36.2956 29.8694 9.7110 16.5842 -1.5301
# 2 36.2956 133.0446 45.9746 24.6726 14.3981 -5.3014
# 3 29.8694 45.9746 100.4717 21.5612 14.5457 0.3889
# 4 9.7110 24.6726 21.5612 32.1055 -1.8662 -0.7129
# 5 16.5842 14.3981 14.5457 -1.8662 42.2783 -0.9983
# 6 -1.5301 -5.3014 0.3889 -0.7129 -0.9983 38.7125
#
#
#
# Elastic Compliance Matrix: (Units=1/GPa)
#
#
# Indices 1 2 3 4 5 6 
#
# 1 0.010332 -0.001775 -0.001665 -0.000810 -0.002909 0.000092
# 2 -0.001775 0.010237 -0.002645 -0.005650 -0.002101 0.001200
# 3 -0.001665 -0.002645 0.013628 -0.006834 -0.003455 -0.000780
# 4 -0.000810 -0.005650 -0.006834 0.040699 0.006394 0.000177
# 5 -0.002909 -0.002101 -0.003455 0.006394 0.026991 0.000446
# 6 0.000092 0.001200 -0.000780 0.000177 0.000446 0.026022
#
#
# Mechanical properties :
#
#
# Convention : Reuss Voigt Hill
#
# Bulk Modulus (GPa) = 45.39481 63.45241 54.42361
# Shear Modulus (GPa) = 33.91622 38.26277 36.08950
#
# Velocity S-wave (km/s) = 3.86150 4.10148 3.98330
# Velocity P-wave (km/s) = 6.31184 7.09410 6.71437
#
# Compressibility (1/GPa) = 0.02202895
#
# Stress axis : x y z
#
# Youngs Moduli (GPa) = 96.78381 97.68193 73.37769
#
# Poissons Ratio (x) = 0.17335 0.12217
# Poissons Ratio (y) = 0.17175 0.19408
# Poissons Ratio (z) = 0.16114 0.25836
#
# Static dielectric constant tensor:
#      x y z
#    x 4.238710 -0.239690 0.004720 
#    y -0.239690 4.918750 -0.012730 
#    z 0.004720 -0.012730 4.347160 
# 
# 
# High freq. dielectric constant tensor:
#      x y z
#    x 1.903230 -0.010130 0.012580 
#    y -0.010130 1.916500 0.015120 
#    z 0.012580 0.015120 1.905660 
# 
# From -- ./inp_files/560197.got.cif
#   From: 2010.06.25/outbox.cif.g09.slc.cpg/sg2_281_cif.got.tgz:560197.got - 2010.06.27 13:26:56.
