data_PCOD8024311
_publ_section_title
;
Structure prediction by ZEFSAII (Michael W. Deem and Ramdas Pophale) SiO2 
 PCOD8024311
Probable space group: P -1
;
_chemical_formula_sum "Si O2"
_cell_formula_units_Z 16
_cell_length_a 8.847961
_cell_length_b 14.386941
_cell_length_c 10.935331
_cell_angle_alpha 31.336533
_cell_angle_beta 99.641801
_cell_angle_gamma 90.490154
_cell_volume 688.714383
_symmetry_space_group_name_H-M "P -1"
_symmetry_group_IT_number 2
_symmetry_cell_setting 'triclinic'
loop_
_space_group_symop_operation_xyz
x,y,z
-x,-y,-z
loop_
_atom_site_type_symbol
_atom_site_label
_atom_site_fract_x
_atom_site_fract_y
_atom_site_fract_z
Si Si1 0.455625 0.040683 0.088975
Si Si2 0.451271 0.439267 0.691728
Si Si3 0.180623 0.935252 0.553496
Si Si4 0.092576 0.180688 0.920184
Si Si5 0.102807 0.543384 0.603580
Si Si6 0.614216 0.470475 0.929226
Si Si7 0.715864 0.818924 0.537119
Si Si8 0.021759 0.867244 0.386058
O O1 0.504773 0.218567 0.946266
O O2 0.270592 0.059195 0.059614
O O3 0.500000 0.000000 0.000000
O O4 0.552786 0.878907 0.371759
O O5 0.500000 0.500000 0.500000
O O6 0.262268 0.518110 0.576988
O O7 0.520116 0.513233 0.739171
O O8 0.158583 0.930120 0.410770
O O9 0.284164 0.075724 0.451223
O O10 0.271150 0.732880 0.839692
O O11 0.000000 0.000000 0.500000
O O12 0.072336 0.338993 0.847872
O O13 0.040011 0.308307 0.650615
O O14 0.987518 0.031904 0.093841
O O15 0.107519 0.652805 0.606703
O O16 0.732567 0.604075 0.808424
O O17 0.500000 0.500000 0.000000
O O18 0.857345 0.867175 0.426728
#
# Coordination Sequence:
#
# PCOD8024311 Si02
#       8
#     2   2   2   2   2   2   2   2
#     4  11  23  42  68 105 142 187 235 296 363 431
#     4  11  25  42  72 109 146 187 241 301 365 433
#     4  10  25  46  69 102 139 187 242 298 362 429
#     4  10  24  41  68  98 141 181 235 295 367 428
#     4  10  23  43  65 105 142 187 237 298 363 441
#     4  12  27  48  74 106 150 197 242 302 370 440
#     4  11  26  45  71 102 143 187 246 297 361 436
#     4  11  24  42  72  99 137 189 239 298 367 428
#
# _framework density 23.231691000000001
#
# number of rings (size 3 to 8) (size 9 to 14) (size 15 to 20)
#    0.000    1.250    1.250    2.625    7.000    9.500 
#    0.000    0.000    0.000    0.000    0.000    0.000 
#    0.000    0.000    0.000    0.000    0.000    0.000 
#
# Total GULP energy -198244.212846 kJ/mol
# GULP energy per Si atom -12390.263303 kJ/mol
# Density = 2.317881 g / cm^3
# Si number density = 23.231691 Si / 1000 Ang^3
#
#
#
# Elastic Constant Matrix: (Units=GPa)
#
#
# Indices 1 2 3 4 5 6 
#
# 1 105.9223 32.8859 41.9130 -9.8610 -2.9109 1.6768
# 2 32.8859 137.3747 23.9153 -14.3230 2.9871 3.0625
# 3 41.9130 23.9153 72.4333 -19.1727 1.1405 3.4056
# 4 -9.8610 -14.3230 -19.1727 51.8281 6.9715 -2.3886
# 5 -2.9109 2.9871 1.1405 6.9715 41.0781 -3.7231
# 6 1.6768 3.0625 3.4056 -2.3886 -3.7231 32.7146
#
#
#
# Elastic Compliance Matrix: (Units=1/GPa)
#
#
# Indices 1 2 3 4 5 6 
#
# 1 0.012781 -0.001969 -0.007019 -0.000884 0.001426 0.000358
# 2 -0.001969 0.008140 -0.001087 0.001585 -0.001020 -0.000548
# 3 -0.007019 -0.001087 0.019899 0.005944 -0.002108 -0.001416
# 4 -0.000884 0.001585 0.005944 0.022334 -0.004093 0.000443
# 5 0.001426 -0.001020 -0.002108 -0.004093 0.025530 0.002848
# 6 0.000358 -0.000548 -0.001416 0.000443 0.002848 0.031104
#
#
# Mechanical properties :
#
#
# Convention : Reuss Voigt Hill
#
# Bulk Modulus (GPa) = 48.37846 57.01761 52.69803
# Shear Modulus (GPa) = 34.05372 39.59189 36.82281
#
# Velocity S-wave (km/s) = 3.83277 4.13270 3.98556
# Velocity P-wave (km/s) = 6.36053 6.88248 6.62665
#
# Compressibility (1/GPa) = 0.02067036
#
# Stress axis : x y z
#
# Youngs Moduli (GPa) = 78.24343 122.85759 50.25379
#
# Poissons Ratio (x) = 0.24189 0.35271
# Poissons Ratio (y) = 0.15405 0.05462
# Poissons Ratio (z) = 0.54916 0.13353
#
# Static dielectric constant tensor:
#      x y z
#    x 3.958330 0.140150 0.169060 
#    y 0.140150 5.038110 -0.486030 
#    z 0.169060 -0.486030 4.511270 
# 
# 
# High freq. dielectric constant tensor:
#      x y z
#    x 1.905520 0.009600 0.009930 
#    y 0.009600 1.944720 -0.015890 
#    z 0.009930 -0.015890 1.920480 
# 
# From -- ./inp_files/398255.got.cif
#   From: 2010.06.25/outbox.cif.g09.slc.cpg/sg2_200_cif.got.tgz:398255.got - 2010.06.27 13:26:56.
