data_PCOD8024546
_publ_section_title
;
Structure prediction by ZEFSAII (Michael W. Deem and Ramdas Pophale) SiO2 
 PCOD8024546
Probable space group: P -1
;
_chemical_formula_sum "Si O2"
_cell_formula_units_Z 16
_cell_length_a 8.867715
_cell_length_b 14.735469
_cell_length_c 15.028537
_cell_angle_alpha 28.058284
_cell_angle_beta 52.431615
_cell_angle_gamma 53.790960
_cell_volume 724.802962
_symmetry_space_group_name_H-M "P -1"
_symmetry_group_IT_number 2
_symmetry_cell_setting 'triclinic'
loop_
_space_group_symop_operation_xyz
x,y,z
-x,-y,-z
loop_
_atom_site_type_symbol
_atom_site_label
_atom_site_fract_x
_atom_site_fract_y
_atom_site_fract_z
Si Si1 0.292563 0.574944 0.825037
Si Si2 0.581505 0.271875 0.669223
Si Si3 0.996584 0.219583 0.498876
Si Si4 0.962985 0.085982 0.119105
Si Si5 0.691384 0.028697 0.012478
Si Si6 0.577602 0.224502 0.066374
Si Si7 0.649159 0.000493 0.528806
Si Si8 0.980775 0.573364 0.088061
O O1 0.348840 0.788587 0.611876
O O2 0.196780 0.504621 0.830524
O O3 0.495918 0.442413 0.880783
O O4 0.160806 0.556390 0.973309
O O5 0.500000 0.500000 0.500000
O O6 0.628733 0.199575 0.815684
O O7 0.765818 0.220136 0.582369
O O8 0.420381 0.155077 0.791872
O O9 0.034494 0.438502 0.273367
O O10 0.068388 0.129239 0.647255
O O11 0.127054 0.078297 0.504951
O O12 0.759547 0.223118 0.066758
O O13 0.085040 0.057497 0.009707
O O14 0.076684 0.203580 0.049959
O O15 0.666211 0.106383 0.052587
O O16 0.410734 0.129188 0.257021
O O17 0.500000 0.000000 0.500000
#
# Coordination Sequence:
#
# PCOD8024546 Si02
#       8
#     2   2   2   2   2   2   2   2
#     4  11  27  40  65 104 139 175 226 281 340 406
#     4  10  23  43  68  98 134 177 225 285 338 397
#     4  11  23  40  70  95 134 178 224 272 345 401
#     4  11  24  46  69  95 135 184 228 277 341 405
#     4  10  25  43  67  98 133 180 235 277 338 399
#     4  12  26  42  70  99 144 178 226 285 333 414
#     4  12  25  45  66 102 144 183 223 274 350 414
#     4  11  24  42  67  98 137 174 226 280 339 403
#
# _framework density 22.074966
#
# number of rings (size 3 to 8) (size 9 to 14) (size 15 to 20)
#    0.000    1.000    3.750    1.125   10.500    1.500 
#    0.000    0.000    0.000    6.000    0.000    0.000 
#    0.000    0.000    0.000    0.000    0.000    0.000 
#
# Total GULP energy -198273.338058 kJ/mol
# GULP energy per Si atom -12392.083629 kJ/mol
# Density = 2.202472 g / cm^3
# Si number density = 22.074966 Si / 1000 Ang^3
#
#
#
# Elastic Constant Matrix: (Units=GPa)
#
#
# Indices 1 2 3 4 5 6 
#
# 1 51.4706 28.1121 25.5865 -5.6257 -1.3556 -11.6229
# 2 28.1121 133.4573 52.1857 11.7861 0.1300 -22.6414
# 3 25.5865 52.1857 109.3033 -9.1017 -4.6469 -5.4031
# 4 -5.6257 11.7861 -9.1017 41.9921 -6.0587 4.9403
# 5 -1.3556 0.1300 -4.6469 -6.0587 21.7871 -0.5779
# 6 -11.6229 -22.6414 -5.4031 4.9403 -0.5779 42.8425
#
#
#
# Elastic Compliance Matrix: (Units=1/GPa)
#
#
# Indices 1 2 3 4 5 6 
#
# 1 0.024329 -0.003329 -0.003564 0.003201 0.001771 0.004046
# 2 -0.003329 0.011592 -0.005104 -0.005830 -0.002848 0.005213
# 3 -0.003564 -0.005104 0.012836 0.004575 0.003752 -0.002522
# 4 0.003201 -0.005830 0.004575 0.028749 0.009076 -0.004828
# 5 0.001771 -0.002848 0.003752 0.009076 0.049326 -0.000933
# 6 0.004046 0.005213 -0.002522 -0.004828 -0.000933 0.027420
#
#
# Mechanical properties :
#
#
# Convention : Reuss Voigt Hill
#
# Bulk Modulus (GPa) = 40.38337 56.22220 48.30278
# Shear Modulus (GPa) = 26.80975 33.88079 30.34527
#
# Velocity S-wave (km/s) = 3.48873 3.92191 3.71164
# Velocity P-wave (km/s) = 5.87893 6.78473 6.34800
#
# Compressibility (1/GPa) = 0.02476267
#
# Stress axis : x y z
#
# Youngs Moduli (GPa) = 41.10387 86.26430 77.90695
#
# Poissons Ratio (x) = 0.28718 0.27764
# Poissons Ratio (y) = 0.13684 0.39765
# Poissons Ratio (z) = 0.14648 0.44031
#
# Static dielectric constant tensor:
#      x y z
#    x 4.029160 -0.200760 0.018920 
#    y -0.200760 4.084340 0.087830 
#    z 0.018920 0.087830 4.234980 
# 
# 
# High freq. dielectric constant tensor:
#      x y z
#    x 1.844850 -0.019590 0.003020 
#    y -0.019590 1.879570 0.007270 
#    z 0.003020 0.007270 1.885460 
# 
# From -- ./inp_files/504883.got.cif
#   From: 2010.06.25/outbox.cif.g09.slc.cpg/sg2_253_cif.got.tgz:504883.got - 2010.06.27 13:26:56.
