data_PCOD8024749
_publ_section_title
;
Structure prediction by ZEFSAII (Michael W. Deem and Ramdas Pophale) SiO2 
 PCOD8024749
Probable space group: P -1
;
_chemical_formula_sum "Si O2"
_cell_formula_units_Z 16
_cell_length_a 5.285637
_cell_length_b 17.695373
_cell_length_c 9.755820
_cell_angle_alpha 49.096043
_cell_angle_beta 103.259275
_cell_angle_gamma 103.203522
_cell_volume 667.465070
_symmetry_space_group_name_H-M "P -1"
_symmetry_group_IT_number 2
_symmetry_cell_setting 'triclinic'
loop_
_space_group_symop_operation_xyz
x,y,z
-x,-y,-z
loop_
_atom_site_type_symbol
_atom_site_label
_atom_site_fract_x
_atom_site_fract_y
_atom_site_fract_z
Si Si1 0.795504 0.704873 0.487869
Si Si2 0.235059 0.433762 0.095328
Si Si3 0.219524 0.971423 0.367185
Si Si4 0.110904 0.873578 0.951991
Si Si5 0.691435 0.170361 0.673652
Si Si6 0.613700 0.147962 0.250760
Si Si7 0.275493 0.305325 0.006199
Si Si8 0.753186 0.563616 0.402037
O O1 0.732405 0.615644 0.694333
O O2 0.562863 0.775168 0.389817
O O3 0.808987 0.659581 0.391667
O O4 0.082316 0.765664 0.465020
O O5 0.500000 0.500000 0.000000
O O6 0.150172 0.344082 0.083286
O O7 0.000000 0.500000 0.000000
O O8 0.386845 0.925793 0.319587
O O9 0.154784 0.884864 0.581311
O O10 0.367673 0.067134 0.350506
O O11 0.968574 0.013639 0.216736
O O12 0.349965 0.860699 0.897004
O O13 0.190191 0.864884 0.128546
O O14 0.895641 0.783235 0.989046
O O15 0.545878 0.261458 0.137132
O O16 0.322098 0.401289 0.799696
O O17 0.500000 0.500000 0.500000
O O18 0.000000 0.500000 0.500000
#
# Coordination Sequence:
#
# PCOD8024749 Si02
#       8
#     2   2   2   2   2   2   2   2
#     4  12  26  46  68 105 137 181 232 281 347 411
#     4  12  27  47  72 102 138 178 232 290 353 413
#     4  10  24  43  66 106 134 189 227 283 340 403
#     4  11  24  42  70 100 139 182 233 281 337 418
#     4  12  26  44  71 101 146 182 229 279 339 413
#     4  10  23  43  71  98 141 177 238 278 343 410
#     4  11  25  43  69 103 133 183 227 287 346 406
#     4  12  25  44  71  98 136 176 227 284 342 409
#
# _framework density 23.97129
#
# number of rings (size 3 to 8) (size 9 to 14) (size 15 to 20)
#    0.000    0.750    1.250    5.250    8.750    0.500 
#    0.000    0.000    0.000    0.000    0.000    0.000 
#    0.000    0.000    0.000    0.000    0.000    0.000 
#
# Total GULP energy -198293.426185 kJ/mol
# GULP energy per Si atom -12393.339137 kJ/mol
# Density = 2.391673 g / cm^3
# Si number density = 23.971290 Si / 1000 Ang^3
#
#
#
# Elastic Constant Matrix: (Units=GPa)
#
#
# Indices 1 2 3 4 5 6 
#
# 1 130.1397 31.2269 35.7014 -22.9542 8.2260 -33.2271
# 2 31.2269 101.8903 26.2983 2.6565 13.9226 -39.1447
# 3 35.7014 26.2983 148.7068 -9.2302 9.6318 -17.9769
# 4 -22.9542 2.6565 -9.2302 36.3644 -13.6551 4.4538
# 5 8.2260 13.9226 9.6318 -13.6551 36.7207 -6.4558
# 6 -33.2271 -39.1447 -17.9769 4.4538 -6.4558 42.4005
#
#
#
# Elastic Compliance Matrix: (Units=1/GPa)
#
#
# Indices 1 2 3 4 5 6 
#
# 1 0.011063 -0.000781 -0.001391 0.006523 0.001831 0.006952
# 2 -0.000781 0.016635 -0.001055 -0.005775 -0.005531 0.014064
# 3 -0.001391 -0.001055 0.007449 0.000665 -0.000837 0.000897
# 4 0.006523 -0.005775 0.000665 0.037790 0.014303 -0.001729
# 5 0.001831 -0.005531 -0.000837 0.014303 0.034407 -0.000290
# 6 0.006952 0.014064 0.000897 -0.001729 -0.000290 0.042534
#
#
# Mechanical properties :
#
#
# Convention : Reuss Voigt Hill
#
# Bulk Modulus (GPa) = 34.84981 63.02111 48.93546
# Shear Modulus (GPa) = 30.13935 42.26447 36.20191
#
# Velocity S-wave (km/s) = 3.54970 4.20352 3.89037
# Velocity P-wave (km/s) = 5.60091 7.06447 6.37483
#
# Compressibility (1/GPa) = 0.02869456
#
# Stress axis : x y z
#
# Youngs Moduli (GPa) = 90.39207 60.11346 134.24436
#
# Poissons Ratio (x) = 0.04693 0.18675
# Poissons Ratio (y) = 0.07056 0.14157
# Poissons Ratio (z) = 0.12575 0.06339
#
# Static dielectric constant tensor:
#      x y z
#    x 4.246920 -0.090330 0.111430 
#    y -0.090330 4.798920 0.051600 
#    z 0.111430 0.051600 4.890290 
# 
# 
# High freq. dielectric constant tensor:
#      x y z
#    x 1.940900 -0.017330 0.003950 
#    y -0.017330 1.960500 -0.001360 
#    z 0.003950 -0.001360 1.972830 
# 
# From -- ./inp_files/48942.got.cif
#   From: 2010.06.25/outbox.cif.g09.slc.cpg/sg2_25_cif.got.tgz:48942.got - 2010.06.27 13:26:56.
