data_PCOD8024863
_publ_section_title
;
Structure prediction by ZEFSAII (Michael W. Deem and Ramdas Pophale) SiO2 
 PCOD8024863
Probable space group: P -1
;
_chemical_formula_sum "Si O2"
_cell_formula_units_Z 16
_cell_length_a 20.583931
_cell_length_b 21.111357
_cell_length_c 9.312755
_cell_angle_alpha 142.591886
_cell_angle_beta 134.055897
_cell_angle_gamma 18.581580
_cell_volume 747.960305
_symmetry_space_group_name_H-M "P -1"
_symmetry_group_IT_number 2
_symmetry_cell_setting 'triclinic'
loop_
_space_group_symop_operation_xyz
x,y,z
-x,-y,-z
loop_
_atom_site_type_symbol
_atom_site_label
_atom_site_fract_x
_atom_site_fract_y
_atom_site_fract_z
Si Si1 0.944993 0.305058 0.350085
Si Si2 0.543814 0.209499 0.074752
Si Si3 0.114075 0.158698 0.645702
Si Si4 0.880262 0.027322 0.191480
Si Si5 0.866243 0.709735 0.556988
Si Si6 0.106920 0.756898 0.347335
Si Si7 0.186653 0.354119 0.927921
Si Si8 0.471771 0.199180 0.240468
O O1 0.706485 0.561507 0.503778
O O2 0.116916 0.133286 0.434385
O O3 0.975241 0.366313 0.391870
O O4 0.982688 0.154513 0.062167
O O5 0.670090 0.177313 0.153499
O O6 0.304976 0.470682 0.117677
O O7 0.529966 0.221414 0.246601
O O8 0.657013 0.981867 0.794313
O O9 0.091847 0.078863 0.565966
O O10 0.312677 0.029981 0.746126
O O11 0.895626 0.444259 0.870480
O O12 0.817084 0.214140 0.409612
O O13 0.029430 0.858637 0.253080
O O14 0.775249 0.742425 0.337864
O O15 0.000000 0.500000 0.500000
O O16 0.404048 0.154087 0.993485
O O17 0.000000 0.500000 0.000000
#
# Coordination Sequence:
#
# PCOD8024863 Si02
#       8
#     2   2   2   2   2   2   2   2
#     4  10  23  44  63  97 134 166 225 273 323 394
#     4  11  22  43  69  98 132 173 222 271 330 394
#     4  11  22  42  66  92 137 177 213 273 327 393
#     4  10  24  42  70 103 130 173 221 277 332 389
#     4  11  24  43  68 100 135 171 220 278 329 393
#     4  11  22  44  72  95 136 176 218 273 336 391
#     4  11  22  44  63  94 131 171 224 264 327 392
#     4  11  22  41  67  91 131 177 214 268 333 380
#
# _framework density 21.391508999999999
#
# number of rings (size 3 to 8) (size 9 to 14) (size 15 to 20)
#    0.000    1.250    6.250    1.125    1.750    3.500 
#    2.250    1.875    0.000    0.000    0.000    0.000 
#    0.000    0.000    0.000    0.000    0.000    0.000 
#
# Total GULP energy -198265.611471 kJ/mol
# GULP energy per Si atom -12391.600717 kJ/mol
# Density = 2.134282 g / cm^3
# Si number density = 21.391509 Si / 1000 Ang^3
#
#
#
# Elastic Constant Matrix: (Units=GPa)
#
#
# Indices 1 2 3 4 5 6 
#
# 1 93.1098 26.0801 48.6868 -0.1525 -4.0081 -11.6517
# 2 26.0801 101.6269 51.3311 -10.7429 1.3553 0.3668
# 3 48.6868 51.3311 136.0303 -2.7776 -8.7581 0.7096
# 4 -0.1525 -10.7429 -2.7776 31.4964 -5.0968 3.1161
# 5 -4.0081 1.3553 -8.7581 -5.0968 31.9679 -3.3691
# 6 -11.6517 0.3668 0.7096 3.1161 -3.3691 29.8589
#
#
#
# Elastic Compliance Matrix: (Units=1/GPa)
#
#
# Indices 1 2 3 4 5 6 
#
# 1 0.014338 -0.001561 -0.004532 -0.001285 0.001047 0.005974
# 2 -0.001561 0.012844 -0.004294 0.003885 -0.001427 -0.001232
# 3 -0.004532 -0.004294 0.010756 0.000016 0.002384 -0.001704
# 4 -0.001285 0.003885 0.000016 0.034194 0.004753 -0.003582
# 5 0.001047 -0.001427 0.002384 0.004753 0.033266 0.003627
# 6 0.005974 -0.001232 -0.001704 -0.003582 0.003627 0.036661
#
#
# Mechanical properties :
#
#
# Convention : Reuss Voigt Hill
#
# Bulk Modulus (GPa) = 58.26631 64.77364 61.51998
# Shear Modulus (GPa) = 29.66392 32.30925 30.98658
#
# Velocity S-wave (km/s) = 3.72790 3.89057 3.81011
# Velocity P-wave (km/s) = 6.76955 7.10830 6.94099
#
# Compressibility (1/GPa) = 0.01716258
#
# Stress axis : x y z
#
# Youngs Moduli (GPa) = 69.74485 77.85991 92.96716
#
# Poissons Ratio (x) = 0.12158 0.42137
# Poissons Ratio (y) = 0.10890 0.39918
# Poissons Ratio (z) = 0.31612 0.33431
#
# Static dielectric constant tensor:
#      x y z
#    x 4.020620 0.027830 0.116640 
#    y 0.027830 3.855290 -0.041410 
#    z 0.116640 -0.041410 4.133600 
# 
# 
# High freq. dielectric constant tensor:
#      x y z
#    x 1.851900 -0.003680 -0.005400 
#    y -0.003680 1.833850 -0.007110 
#    z -0.005400 -0.007110 1.830710 
# 
# From -- ./inp_files/349604.got.cif
#   From: 2010.06.25/outbox.cif.g09.slc.cpg/sg2_175_cif.got.tgz:349604.got - 2010.06.27 13:26:56.
