data_PCOD8024075
_publ_section_title
;
Structure prediction by ZEFSAII (Michael W. Deem and Ramdas Pophale) SiO2 
 PCOD8024075
Probable space group: P -1
;
_chemical_formula_sum "Si O2"
_cell_formula_units_Z 16
_cell_length_a 8.206509
_cell_length_b 18.371544
_cell_length_c 11.472517
_cell_angle_alpha 147.692543
_cell_angle_beta 124.981277
_cell_angle_gamma 56.165470
_cell_volume 747.054696
_symmetry_space_group_name_H-M "P -1"
_symmetry_group_IT_number 2
_symmetry_cell_setting 'triclinic'
loop_
_space_group_symop_operation_xyz
x,y,z
-x,-y,-z
loop_
_atom_site_type_symbol
_atom_site_label
_atom_site_fract_x
_atom_site_fract_y
_atom_site_fract_z
Si Si1 0.267936 0.843369 0.860616
Si Si2 0.315754 0.604693 0.120146
Si Si3 0.193276 0.389717 0.400629
Si Si4 0.417479 0.162176 0.816455
Si Si5 0.183086 0.158601 0.268444
Si Si6 0.627512 0.399778 0.592835
Si Si7 0.874841 0.616153 0.891297
Si Si8 0.485690 0.846232 0.416391
O O1 0.347686 0.754187 0.659625
O O2 0.053427 0.806913 0.759598
O O3 0.416520 0.805669 0.979800
O O4 0.248599 0.004206 0.036128
O O5 0.297405 0.601736 0.246893
O O6 0.333045 0.759196 0.296756
O O7 0.500000 0.500000 0.000000
O O8 0.110892 0.561177 0.930229
O O9 0.240650 0.265702 0.343732
O O10 0.390249 0.464755 0.581388
O O11 0.161265 0.325720 0.175186
O O12 0.000000 0.500000 0.500000
O O13 0.484093 0.202645 0.770498
O O14 0.380965 0.005172 0.593816
O O15 0.204233 0.258181 0.884196
O O16 0.298844 0.175953 0.460150
O O17 0.753227 0.490262 0.689013
#
# Coordination Sequence:
#
# PCOD8024075 Si02
#       8
#     2   2   2   2   2   2   2   2
#     4  10  23  42  70 100 132 171 218 267 332 393
#     4  12  27  45  66  96 130 176 223 274 327 393
#     4  12  25  42  68  96 133 171 215 274 328 384
#     4  10  23  44  68  99 133 172 216 270 329 394
#     4  10  23  43  69 100 131 174 216 267 331 394
#     4  12  25  45  68  96 133 174 218 276 326 387
#     4  12  27  42  66  98 132 174 220 274 329 387
#     4  10  23  45  69  94 135 175 216 267 329 393
#
# _framework density 21.417442999999999
#
# number of rings (size 3 to 8) (size 9 to 14) (size 15 to 20)
#    0.000    1.000    2.500    3.000    7.000    2.000 
#    0.000    0.000    0.000    0.000    0.000    0.000 
#    0.000    0.000    0.000    0.000    0.000    0.000 
#
# Total GULP energy -198486.330450 kJ/mol
# GULP energy per Si atom -12405.395653 kJ/mol
# Density = 2.136870 g / cm^3
# Si number density = 21.417443 Si / 1000 Ang^3
#
#
#
# Elastic Constant Matrix: (Units=GPa)
#
#
# Indices 1 2 3 4 5 6 
#
# 1 101.1642 46.9571 43.0240 3.9094 10.1628 -15.9593
# 2 46.9571 107.4369 40.4554 -8.9980 -2.9336 0.9904
# 3 43.0240 40.4554 87.3609 -1.2282 -1.0445 1.7161
# 4 3.9094 -8.9980 -1.2282 37.0206 -3.3836 -2.7713
# 5 10.1628 -2.9336 -1.0445 -3.3836 38.0301 -13.4303
# 6 -15.9593 0.9904 1.7161 -2.7713 -13.4303 40.6410
#
#
#
# Elastic Compliance Matrix: (Units=1/GPa)
#
#
# Indices 1 2 3 4 5 6 
#
# 1 0.016019 -0.005272 -0.005635 -0.003050 -0.003211 0.005388
# 2 -0.005272 0.013305 -0.003460 0.003786 0.002235 -0.001252
# 3 -0.005635 -0.003460 0.015886 0.000165 0.000798 -0.002524
# 4 -0.003050 0.003786 0.000165 0.028824 0.004429 0.002132
# 5 -0.003211 0.002235 0.000798 0.004429 0.030988 0.009193
# 6 0.005388 -0.001252 -0.002524 0.002132 0.009193 0.030042
#
#
# Mechanical properties :
#
#
# Convention : Reuss Voigt Hill
#
# Bulk Modulus (GPa) = 60.69829 61.87055 61.28442
# Shear Modulus (GPa) = 29.53521 34.17338 31.85429
#
# Velocity S-wave (km/s) = 3.71755 3.99881 3.86074
# Velocity P-wave (km/s) = 6.84317 7.09023 6.96780
#
# Compressibility (1/GPa) = 0.01647493
#
# Stress axis : x y z
#
# Youngs Moduli (GPa) = 62.42613 75.16107 62.95047
#
# Poissons Ratio (x) = 0.39628 0.35470
# Poissons Ratio (y) = 0.32914 0.21781
# Poissons Ratio (z) = 0.35175 0.26006
#
# Static dielectric constant tensor:
#      x y z
#    x 3.911680 0.026460 -0.008500 
#    y 0.026460 4.007490 -0.039660 
#    z -0.008500 -0.039660 3.925140 
# 
# 
# High freq. dielectric constant tensor:
#      x y z
#    x 1.843750 0.000480 -0.002790 
#    y 0.000480 1.851330 -0.004500 
#    z -0.002790 -0.004500 1.848000 
# 
# From -- ./inp_files/403622.got.cif
#   From: 2010.06.25/outbox.cif.g09.slc.cpg/sg2_202_cif.got.tgz:403622.got - 2010.06.27 13:26:56.
