data_PCOD8024064
_publ_section_title
;
Structure prediction by ZEFSAII (Michael W. Deem and Ramdas Pophale) SiO2 
 PCOD8024064
Probable space group: P -1
;
_chemical_formula_sum "Si O2"
_cell_formula_units_Z 16
_cell_length_a 12.238755
_cell_length_b 14.136599
_cell_length_c 5.504597
_cell_angle_alpha 105.209857
_cell_angle_beta 84.239123
_cell_angle_gamma 53.315655
_cell_volume 695.126027
_symmetry_space_group_name_H-M "P -1"
_symmetry_group_IT_number 2
_symmetry_cell_setting 'triclinic'
loop_
_space_group_symop_operation_xyz
x,y,z
-x,-y,-z
loop_
_atom_site_type_symbol
_atom_site_label
_atom_site_fract_x
_atom_site_fract_y
_atom_site_fract_z
Si Si1 0.847285 0.937167 0.631601
Si Si2 0.591023 0.946724 0.691929
Si Si3 0.770633 0.199374 0.896803
Si Si4 0.532970 0.630388 0.676908
Si Si5 0.999191 0.203771 0.001729
Si Si6 0.995785 0.579627 0.844998
Si Si7 0.393325 0.604232 0.291359
Si Si8 0.752518 0.672545 0.642976
O O1 0.684996 0.990604 0.694916
O O2 0.915171 0.883395 0.313704
O O3 0.850937 0.050706 0.751663
O O4 0.921058 0.843597 0.787102
O O5 0.695334 0.790327 0.554069
O O6 0.500000 0.000000 0.500000
O O7 0.500000 0.000000 0.000000
O O8 0.759731 0.266776 0.690653
O O9 0.858441 0.216533 0.076733
O O10 0.604634 0.281831 0.059441
O O11 0.470571 0.652923 0.435145
O O12 0.634321 0.474660 0.584809
O O13 0.618375 0.680734 0.740261
O O14 0.957111 0.339055 0.033086
O O15 0.118421 0.472608 0.564074
O O16 0.828455 0.682497 0.860580
O O17 0.000000 0.500000 0.000000
O O18 0.500000 0.500000 0.000000
#
# Coordination Sequence:
#
# PCOD8024064 Si02
#       8
#     2   2   2   2   2   2   2   2
#     4  12  27  50  71 107 146 191 249 299 363 440
#     4  12  27  48  77 108 150 195 243 305 364 437
#     4  11  26  42  72 103 138 194 236 297 371 428
#     4  10  23  42  69  98 148 174 245 297 372 429
#     4  12  28  48  75 104 148 190 246 302 360 438
#     4  11  27  46  74 103 146 194 249 307 364 442
#     4   9  22  40  60 102 135 183 228 293 359 432
#     4  11  26  46  72 109 140 197 247 304 371 437
#
# _framework density 23.017406000000001
#
# number of rings (size 3 to 8) (size 9 to 14) (size 15 to 20)
#    0.000    1.000    1.250    3.000   15.750    1.000 
#    0.000    0.000    0.000    0.000    0.000    0.000 
#    0.000    0.000    0.000    0.000    0.000    0.000 
#
# Total GULP energy -198242.694583 kJ/mol
# GULP energy per Si atom -12390.168411 kJ/mol
# Density = 2.296502 g / cm^3
# Si number density = 23.017406 Si / 1000 Ang^3
#
#
#
# Elastic Constant Matrix: (Units=GPa)
#
#
# Indices 1 2 3 4 5 6 
#
# 1 147.1791 39.3157 14.7659 -1.6996 15.9704 2.7316
# 2 39.3157 138.9323 22.0352 -9.6890 16.9695 4.8747
# 3 14.7659 22.0352 71.9129 -11.5942 8.7484 -1.7982
# 4 -1.6996 -9.6890 -11.5942 39.9775 2.2831 12.5063
# 5 15.9704 16.9695 8.7484 2.2831 31.7562 2.6486
# 6 2.7316 4.8747 -1.7982 12.5063 2.6486 39.3293
#
#
#
# Elastic Compliance Matrix: (Units=1/GPa)
#
#
# Indices 1 2 3 4 5 6 
#
# 1 0.007619 -0.001714 -0.000732 -0.000108 -0.002695 -0.000135
# 2 -0.001714 0.008538 -0.001544 0.002203 -0.003310 -0.001487
# 3 -0.000732 -0.001544 0.015648 0.004393 -0.003416 -0.000209
# 4 -0.000108 0.002203 0.004393 0.029951 -0.003708 -0.009339
# 5 -0.002695 -0.003310 -0.003416 -0.003708 0.035888 -0.000797
# 6 -0.000135 -0.001487 -0.000209 -0.009339 -0.000797 0.028634
#
#
# Mechanical properties :
#
#
# Convention : Reuss Voigt Hill
#
# Bulk Modulus (GPa) = 41.97133 56.69532 49.33333
# Shear Modulus (GPa) = 35.16221 41.00644 38.08433
#
# Velocity S-wave (km/s) = 3.91274 4.22541 4.07208
# Velocity P-wave (km/s) = 6.21988 6.96351 6.60217
#
# Compressibility (1/GPa) = 0.02382579
#
# Stress axis : x y z
#
# Youngs Moduli (GPa) = 131.24401 117.12975 63.90710
#
# Poissons Ratio (x) = 0.20071 0.04680
# Poissons Ratio (y) = 0.22490 0.09865
# Poissons Ratio (z) = 0.09610 0.18080
#
# Static dielectric constant tensor:
#      x y z
#    x 4.402320 0.202860 0.278080 
#    y 0.202860 4.947080 0.116100 
#    z 0.278080 0.116100 4.391660 
# 
# 
# High freq. dielectric constant tensor:
#      x y z
#    x 1.918410 0.002230 0.010510 
#    y 0.002230 1.922650 -0.001250 
#    z 0.010510 -0.001250 1.905150 
# 
# From -- ./inp_files/78360.got.cif
#   From: 2010.06.25/outbox.cif.g09.slc.cpg/sg2_40_cif.got.tgz:78360.got - 2010.06.27 13:26:56.
