data_PCOD8024007
_publ_section_title
;
Structure prediction by ZEFSAII (Michael W. Deem and Ramdas Pophale) SiO2 
 PCOD8024007
Probable space group: P -1
;
_chemical_formula_sum "Si O2"
_cell_formula_units_Z 14
_cell_length_a 16.805062
_cell_length_b 5.365032
_cell_length_c 9.161148
_cell_angle_alpha 54.892461
_cell_angle_beta 52.290023
_cell_angle_gamma 83.584105
_cell_volume 496.434393
_symmetry_space_group_name_H-M "P -1"
_symmetry_group_IT_number 2
_symmetry_cell_setting 'triclinic'
loop_
_space_group_symop_operation_xyz
x,y,z
-x,-y,-z
loop_
_atom_site_type_symbol
_atom_site_label
_atom_site_fract_x
_atom_site_fract_y
_atom_site_fract_z
Si Si1 0.916398 0.819561 0.778286
Si Si2 0.067991 0.014307 0.779017
Si Si3 0.187575 0.682529 0.310868
Si Si4 0.335107 0.807453 0.359080
Si Si5 0.744183 0.157306 0.255599
Si Si6 0.390745 0.930666 0.827487
Si Si7 0.486809 0.407564 0.825196
O O1 0.851277 0.052797 0.814105
O O2 0.824686 0.466206 0.966063
O O3 0.000000 0.000000 0.500000
O O4 0.986141 0.736976 0.858401
O O5 0.088066 0.337240 0.547820
O O6 0.186017 0.033435 0.686824
O O7 0.000000 0.000000 0.000000
O O8 0.226751 0.780683 0.402142
O O9 0.289157 0.662239 0.114532
O O10 0.310589 0.733425 0.582662
O O11 0.385986 0.544927 0.327659
O O12 0.426824 0.170251 0.107364
O O13 0.652150 0.948708 0.313181
O O14 0.472032 0.753102 0.744190
O O15 0.443050 0.240775 0.771762
#
# Coordination Sequence:
#
# PCOD8024007 Si02
#       7
#     2   2   2   2   2   2   2
#     4  12  24  43  66  95 138 185 229 281 349 417
#     4  12  24  39  63  97 134 177 233 292 343 405
#     4  11  23  43  69  97 137 186 232 282 348 422
#     4  10  23  42  69 100 137 179 232 286 345 411
#     4  12  24  41  67 101 139 179 232 292 344 408
#     4  11  24  44  70 100 141 184 230 280 351 419
#     4  10  24  46  70 101 140 187 228 282 351 425
#
# _framework density 28.201108000000001
#
# number of rings (size 3 to 8) (size 9 to 14) (size 15 to 20)
#    0.000    0.857    0.000    7.714    0.000    8.571 
#    0.000    0.000    0.000    0.000    0.000    0.000 
#    0.000    0.000    0.000    0.000    0.000    0.000 
#
# Total GULP energy -173544.125184 kJ/mol
# GULP energy per Si atom -12396.008942 kJ/mol
# Density = 2.813692 g / cm^3
# Si number density = 28.201108 Si / 1000 Ang^3
#
#
#
# Elastic Constant Matrix: (Units=GPa)
#
#
# Indices 1 2 3 4 5 6 
#
# 1 167.2160 23.9187 13.5518 18.7043 11.8180 1.7909
# 2 23.9187 76.6937 5.1071 17.7667 3.4932 -14.9905
# 3 13.5518 5.1071 97.9510 17.2536 3.1488 -6.4847
# 4 18.7043 17.7667 17.2536 38.9029 -4.2312 10.0649
# 5 11.8180 3.4932 3.1488 -4.2312 44.2002 5.9909
# 6 1.7909 -14.9905 -6.4847 10.0649 5.9909 50.0835
#
#
#
# Elastic Compliance Matrix: (Units=1/GPa)
#
#
# Indices 1 2 3 4 5 6 
#
# 1 0.006628 -0.001320 -0.000308 -0.002681 -0.001916 0.000096
# 2 -0.001320 0.017500 0.001769 -0.010573 -0.003256 0.008028
# 3 -0.000308 0.001769 0.011713 -0.007042 -0.002070 0.003720
# 4 -0.002681 -0.010573 -0.007042 0.039056 0.007518 -0.012729
# 5 -0.001916 -0.003256 -0.002070 0.007518 0.025031 -0.005679
# 6 0.000096 0.008028 0.003720 -0.012729 -0.005679 0.026085
#
#
# Mechanical properties :
#
#
# Convention : Reuss Voigt Hill
#
# Bulk Modulus (GPa) = 27.68350 47.44620 37.56485
# Shear Modulus (GPa) = 36.29191 46.58955 41.44073
#
# Velocity S-wave (km/s) = 3.59123 4.06895 3.83753
# Velocity P-wave (km/s) = 5.19939 6.23986 5.74324
#
# Compressibility (1/GPa) = 0.03612260
#
# Stress axis : x y z
#
# Youngs Moduli (GPa) = 150.86989 57.14430 85.37686
#
# Poissons Ratio (x) = 0.07541 0.02631
# Poissons Ratio (y) = 0.19909 -0.15101
# Poissons Ratio (z) = 0.04648 -0.10108
#
# Static dielectric constant tensor:
#      x y z
#    x 4.673680 0.125100 0.174750 
#    y 0.125100 4.716500 0.054840 
#    z 0.174750 0.054840 5.185130 
# 
# 
# High freq. dielectric constant tensor:
#      x y z
#    x 2.164950 0.001280 -0.000060 
#    y 0.001280 2.111520 0.002690 
#    z -0.000060 0.002690 2.164190 
# 
# From -- ./inp_files/55243.got.cif
#   From: 2010.06.25/outbox.cif.g09.slc.cpg/sg2_28_cif.got.tgz:55243.got - 2010.06.27 13:26:56.
