data_PCOD8024250
_publ_section_title
;
Structure prediction by ZEFSAII (Michael W. Deem and Ramdas Pophale) SiO2 
 PCOD8024250
Probable space group: P -1
;
_chemical_formula_sum "Si O2"
_cell_formula_units_Z 12
_cell_length_a 16.024364
_cell_length_b 20.093950
_cell_length_c 9.328068
_cell_angle_alpha 138.248205
_cell_angle_beta 39.503784
_cell_angle_gamma 163.214650
_cell_volume 551.334219
_symmetry_space_group_name_H-M "P -1"
_symmetry_group_IT_number 2
_symmetry_cell_setting 'triclinic'
loop_
_space_group_symop_operation_xyz
x,y,z
-x,-y,-z
loop_
_atom_site_type_symbol
_atom_site_label
_atom_site_fract_x
_atom_site_fract_y
_atom_site_fract_z
Si Si1 0.753433 0.260070 0.754789
Si Si2 0.159587 0.014997 0.646651
Si Si3 0.370186 0.041596 0.657377
Si Si4 0.193754 0.263330 0.947147
Si Si5 0.400782 0.703814 0.735038
Si Si6 0.443520 0.509355 0.437411
O O1 0.636580 0.066307 0.595244
O O2 0.112309 0.514309 0.708023
O O3 0.662762 0.249933 0.707638
O O4 0.586523 0.199198 0.010765
O O5 0.382390 0.139823 0.683927
O O6 0.854535 0.743587 0.643958
O O7 0.084071 0.079880 0.853018
O O8 0.304407 0.084156 0.413913
O O9 0.071271 0.840954 0.833035
O O10 0.263343 0.310692 0.761112
O O11 0.500000 0.500000 0.000000
O O12 0.393925 0.594059 0.652571
O O13 0.500000 0.500000 0.500000
#
# Coordination Sequence:
#
# PCOD8024250 Si02
#       6
#     2   2   2   2   2   2
#     4  10  23  43  63  90 133 169 212 262 301 385
#     4  11  23  41  69  93 126 167 211 266 323 369
#     4  11  22  41  66  95 127 170 212 253 326 373
#     4  11  23  41  66  95 131 159 207 273 318 373
#     4  10  23  45  65  92 130 165 216 264 310 374
#     4  11  25  41  66  98 125 163 215 263 323 374
#
# _framework density 21.765383
#
# number of rings (size 3 to 8) (size 9 to 14) (size 15 to 20)
#    0.000    1.333    3.333    1.500    4.667    2.667 
#    0.000    0.000    0.000    0.000    0.000    0.000 
#    0.000    0.000    0.000    0.000    0.000    0.000 
#
# Total GULP energy -148835.937294 kJ/mol
# GULP energy per Si atom -12402.994774 kJ/mol
# Density = 2.171584 g / cm^3
# Si number density = 21.765383 Si / 1000 Ang^3
#
#
#
# Elastic Constant Matrix: (Units=GPa)
#
#
# Indices 1 2 3 4 5 6 
#
# 1 156.0955 30.8792 43.2227 0.8410 5.4639 -6.1307
# 2 30.8792 62.7227 36.8102 1.9351 -5.4741 -11.6616
# 3 43.2227 36.8102 139.2876 2.4109 -4.9495 -0.8273
# 4 0.8410 1.9351 2.4109 20.2965 7.5062 6.7521
# 5 5.4639 -5.4741 -4.9495 7.5062 26.4972 1.1217
# 6 -6.1307 -11.6616 -0.8273 6.7521 1.1217 33.0101
#
#
#
# Elastic Compliance Matrix: (Units=1/GPa)
#
#
# Indices 1 2 3 4 5 6 
#
# 1 0.007561 -0.002991 -0.001675 0.001161 -0.002826 0.000164
# 2 -0.002991 0.022386 -0.004620 -0.006397 0.005837 0.008347
# 3 -0.001675 -0.004620 0.008964 -0.000470 0.001269 -0.001666
# 4 0.001161 -0.006397 -0.000470 0.061357 -0.018439 -0.013980
# 5 -0.002826 0.005837 0.001269 -0.018439 0.044827 0.003817
# 6 0.000164 0.008347 -0.001666 -0.013980 0.003817 0.035961
#
#
# Mechanical properties :
#
#
# Convention : Reuss Voigt Hill
#
# Bulk Modulus (GPa) = 49.17058 64.43667 56.80362
# Shear Modulus (GPa) = 24.22381 32.44035 28.33208
#
# Velocity S-wave (km/s) = 3.33971 3.86483 3.61183
# Velocity P-wave (km/s) = 6.12469 7.04168 6.59913
#
# Compressibility (1/GPa) = 0.02033737
#
# Stress axis : x y z
#
# Youngs Moduli (GPa) = 132.25653 44.67080 111.56253
#
# Poissons Ratio (x) = 0.13362 0.18691
# Poissons Ratio (y) = 0.39560 0.51543
# Poissons Ratio (z) = 0.22158 0.20638
#
# Static dielectric constant tensor:
#      x y z
#    x 4.082460 0.138870 -0.164650 
#    y 0.138870 3.775890 -0.195500 
#    z -0.164650 -0.195500 4.621020 
# 
# 
# High freq. dielectric constant tensor:
#      x y z
#    x 1.862900 0.005130 0.002580 
#    y 0.005130 1.835710 -0.005370 
#    z 0.002580 -0.005370 1.871110 
# 
# From -- ./inp_files/20306.got.cif
#   From: 2010.06.25/outbox.cif.g09.slc.cpg/sg2_11_cif.got.tgz:20306.got - 2010.06.27 13:26:56.
