data_PCOD8024852
_publ_section_title
;
Structure prediction by ZEFSAII (Michael W. Deem and Ramdas Pophale) SiO2 
 PCOD8024852
Probable space group: P -1
;
_chemical_formula_sum "Si O2"
_cell_formula_units_Z 14
_cell_length_a 11.561399
_cell_length_b 10.826111
_cell_length_c 8.547009
_cell_angle_alpha 139.759635
_cell_angle_beta 98.512412
_cell_angle_gamma 97.634282
_cell_volume 630.836903
_symmetry_space_group_name_H-M "P -1"
_symmetry_group_IT_number 2
_symmetry_cell_setting 'triclinic'
loop_
_space_group_symop_operation_xyz
x,y,z
-x,-y,-z
loop_
_atom_site_type_symbol
_atom_site_label
_atom_site_fract_x
_atom_site_fract_y
_atom_site_fract_z
Si Si1 0.999580 0.757151 0.619107
Si Si2 0.630888 0.548822 0.159271
Si Si3 0.840709 0.942640 0.560043
Si Si4 0.546840 0.596403 0.766139
Si Si5 0.737099 0.427274 0.781222
Si Si6 0.010349 0.337171 0.130999
Si Si7 0.762288 0.018224 0.293263
O O1 0.928001 0.836960 0.554072
O O2 0.965613 0.774219 0.812565
O O3 0.964779 0.517046 0.343785
O O4 0.148606 0.887814 0.747297
O O5 0.697572 0.797943 0.443352
O O6 0.585352 0.429727 0.198367
O O7 0.500000 0.500000 0.000000
O O8 0.730602 0.478537 0.014684
O O9 0.836735 0.939634 0.365051
O O10 0.891291 0.178126 0.857224
O O11 0.500000 0.500000 0.500000
O O12 0.616544 0.454056 0.708955
O O13 0.639640 0.836118 0.023649
O O14 0.865687 0.585211 0.878483
O O15 0.721123 0.190716 0.532120
#
# Coordination Sequence:
#
# PCOD8024852 Si02
#       7
#     2   2   2   2   2   2   2
#     4  10  24  42  62  98 133 160 212 255 323 382
#     4  10  23  44  61  94 127 164 216 260 311 373
#     4  12  23  38  68  93 125 172 209 257 319 372
#     4  11  25  45  65  92 129 170 214 265 313 374
#     4  10  23  44  65  93 133 159 216 264 312 383
#     4  10  24  41  64  97 130 167 202 265 319 379
#     4  11  24  41  68  97 124 170 212 262 319 372
#
# _framework density 22.192743
#
# number of rings (size 3 to 8) (size 9 to 14) (size 15 to 20)
#    0.000    1.429    2.857    1.714    8.000    2.286 
#    0.000    0.000    0.000    0.000    0.000    0.000 
#    0.000    0.000    0.000    0.000    0.000    0.000 
#
# Total GULP energy -173454.917790 kJ/mol
# GULP energy per Si atom -12389.636985 kJ/mol
# Density = 2.214223 g / cm^3
# Si number density = 22.192743 Si / 1000 Ang^3
#
#
#
# Elastic Constant Matrix: (Units=GPa)
#
#
# Indices 1 2 3 4 5 6 
#
# 1 80.6143 41.6561 55.0746 -1.2856 -2.0441 29.8973
# 2 41.6561 91.9728 77.1288 15.1448 -0.1358 33.1590
# 3 55.0746 77.1288 176.0067 1.7667 22.2296 34.4249
# 4 -1.2856 15.1448 1.7667 29.7296 7.1439 -6.1746
# 5 -2.0441 -0.1358 22.2296 7.1439 30.5970 1.3538
# 6 29.8973 33.1590 34.4249 -6.1746 1.3538 42.3519
#
#
#
# Elastic Compliance Matrix: (Units=1/GPa)
#
#
# Indices 1 2 3 4 5 6 
#
# 1 0.019840 -0.001924 -0.004135 -0.001079 0.004992 -0.009455
# 2 -0.001924 0.031202 -0.011168 -0.022389 0.014135 -0.017709
# 3 -0.004135 -0.011168 0.012679 0.008142 -0.011567 0.002914
# 4 -0.001079 -0.022389 0.008142 0.053349 -0.019431 0.020072
# 5 0.004992 0.014135 -0.011567 -0.019431 0.046440 -0.009506
# 6 -0.009455 -0.017709 0.002914 0.020072 -0.009506 0.045013
#
#
# Mechanical properties :
#
#
# Convention : Reuss Voigt Hill
#
# Bulk Modulus (GPa) = 34.16930 77.36809 55.76869
# Shear Modulus (GPa) = 19.78367 32.18465 25.98416
#
# Velocity S-wave (km/s) = 2.98895 3.81232 3.42547
# Velocity P-wave (km/s) = 5.22894 7.36994 6.38975
#
# Compressibility (1/GPa) = 0.02926604
#
# Stress axis : x y z
#
# Youngs Moduli (GPa) = 50.40305 32.04926 78.87208
#
# Poissons Ratio (x) = 0.06167 0.32617
# Poissons Ratio (y) = 0.09699 0.88083
# Poissons Ratio (z) = 0.20844 0.35792
#
# Static dielectric constant tensor:
#      x y z
#    x 3.631050 -0.003920 -0.155060 
#    y -0.003920 4.018900 -0.059720 
#    z -0.155060 -0.059720 4.357410 
# 
# 
# High freq. dielectric constant tensor:
#      x y z
#    x 1.855690 0.018240 0.003410 
#    y 0.018240 1.880740 0.006410 
#    z 0.003410 0.006410 1.889010 
# 
# From -- ./inp_files/261113.got.cif
#   From: 2010.06.25/outbox.cif.g09.slc.cpg/sg2_131_cif.got.tgz:261113.got - 2010.06.27 13:26:56.
