data_PCOD8024200
_publ_section_title
;
Structure prediction by ZEFSAII (Michael W. Deem and Ramdas Pophale) SiO2 
 PCOD8024200
Probable space group: P -1
;
_chemical_formula_sum "Si O2"
_cell_formula_units_Z 16
_cell_length_a 14.544361
_cell_length_b 8.291483
_cell_length_c 12.422657
_cell_angle_alpha 47.797245
_cell_angle_beta 118.246573
_cell_angle_gamma 82.422452
_cell_volume 708.280446
_symmetry_space_group_name_H-M "P -1"
_symmetry_group_IT_number 2
_symmetry_cell_setting 'triclinic'
loop_
_space_group_symop_operation_xyz
x,y,z
-x,-y,-z
loop_
_atom_site_type_symbol
_atom_site_label
_atom_site_fract_x
_atom_site_fract_y
_atom_site_fract_z
Si Si1 0.914522 0.577018 0.159434
Si Si2 0.236568 0.707789 0.499738
Si Si3 0.842232 0.641755 0.320155
Si Si4 0.807376 0.648796 0.644534
Si Si5 0.682338 0.299720 0.914867
Si Si6 0.913852 0.329620 0.058274
Si Si7 0.744086 0.256944 0.738503
Si Si8 0.562508 0.323117 0.225223
O O1 0.848878 0.557879 0.236760
O O2 0.866065 0.495369 0.071520
O O3 0.088391 0.346848 0.370785
O O4 0.863799 0.898930 0.975261
O O5 0.212955 0.481820 0.585807
O O6 0.319212 0.659964 0.455840
O O7 0.334630 0.639606 0.684435
O O8 0.082975 0.043390 0.274052
O O9 0.000000 0.500000 0.500000
O O10 0.720798 0.000561 0.106504
O O11 0.816711 0.389182 0.725791
O O12 0.647142 0.977106 0.404472
O O13 0.870152 0.569971 0.836462
O O14 0.634346 0.383485 0.722907
O O15 0.559259 0.566000 0.805350
O O16 0.827458 0.231016 0.037204
O O17 0.500000 0.500000 0.000000
#
# Coordination Sequence:
#
# PCOD8024200 Si02
#       8
#     2   2   2   2   2   2   2   2
#     4  11  21  38  69 107 132 169 228 292 341 395
#     4  12  24  44  73 106 133 186 231 283 346 405
#     4  11  24  40  70 104 141 176 226 293 345 401
#     4  11  22  42  71 101 139 180 222 292 343 403
#     4  10  26  47  65 102 143 184 224 283 345 414
#     4  11  22  40  77 105 133 169 243 292 338 398
#     4  10  23  42  73 103 134 170 234 292 343 396
#     4  12  30  47  66  97 150 190 226 271 351 424
#
# _framework density 22.589922999999999
#
# number of rings (size 3 to 8) (size 9 to 14) (size 15 to 20)
#    0.000    1.000    3.750    2.250    7.000    3.500 
#    0.000    0.000    0.000    0.000    0.000    0.000 
#    0.000    0.000    0.000    0.000    0.000    0.000 
#
# Total GULP energy -198370.948898 kJ/mol
# GULP energy per Si atom -12398.184306 kJ/mol
# Density = 2.253851 g / cm^3
# Si number density = 22.589923 Si / 1000 Ang^3
#
#
#
# Elastic Constant Matrix: (Units=GPa)
#
#
# Indices 1 2 3 4 5 6 
#
# 1 86.0536 28.6561 38.0321 -0.7494 -7.2369 -15.3495
# 2 28.6561 119.0843 44.1668 3.2144 -10.5718 -15.8989
# 3 38.0321 44.1668 110.8504 6.4433 -11.9229 -11.5263
# 4 -0.7494 3.2144 6.4433 35.1582 0.0535 -1.2261
# 5 -7.2369 -10.5718 -11.9229 0.0535 29.0540 0.7067
# 6 -15.3495 -15.8989 -11.5263 -1.2261 0.7067 41.2084
#
#
#
# Elastic Compliance Matrix: (Units=1/GPa)
#
#
# Indices 1 2 3 4 5 6 
#
# 1 0.014674 -0.001457 -0.003984 0.001307 0.001395 0.003804
# 2 -0.001457 0.010454 -0.003156 -0.000322 0.002084 0.002563
# 3 -0.003984 -0.003156 0.012127 -0.002003 0.002825 0.000582
# 4 0.001307 -0.000322 -0.002003 0.028892 -0.000683 0.000674
# 5 0.001395 0.002084 0.002825 -0.000683 0.036649 0.001465
# 6 0.003804 0.002563 0.000582 0.000674 0.001465 0.026830
#
#
# Mechanical properties :
#
#
# Convention : Reuss Voigt Hill
#
# Bulk Modulus (GPa) = 49.85061 59.74426 54.79743
# Shear Modulus (GPa) = 32.57155 34.75967 33.66561
#
# Velocity S-wave (km/s) = 3.80131 3.92691 3.86462
# Velocity P-wave (km/s) = 6.43289 6.86044 6.65010
#
# Compressibility (1/GPa) = 0.02005994
#
# Stress axis : x y z
#
# Youngs Moduli (GPa) = 68.14769 95.65302 82.46380
#
# Poissons Ratio (x) = 0.13935 0.32857
# Poissons Ratio (y) = 0.09928 0.26027
# Poissons Ratio (z) = 0.27153 0.30190
#
# Static dielectric constant tensor:
#      x y z
#    x 3.895330 -0.263780 -0.238240 
#    y -0.263780 4.471950 0.172710 
#    z -0.238240 0.172710 3.957150 
# 
# 
# High freq. dielectric constant tensor:
#      x y z
#    x 1.879980 -0.007820 -0.016870 
#    y -0.007820 1.913410 0.003120 
#    z -0.016870 0.003120 1.875920 
# 
# From -- ./inp_files/206967.got.cif
#   From: 2010.06.25/outbox.cif.g09.slc.cpg/sg2_104_cif.got.tgz:206967.got - 2010.06.27 13:26:56.
