data_PCOD8024577
_publ_section_title
;
Structure prediction by ZEFSAII (Michael W. Deem and Ramdas Pophale) SiO2 
 PCOD8024577
Probable space group: P -1
;
_chemical_formula_sum "Si O2"
_cell_formula_units_Z 14
_cell_length_a 8.164505
_cell_length_b 7.766773
_cell_length_c 13.695083
_cell_angle_alpha 111.426588
_cell_angle_beta 134.889189
_cell_angle_gamma 76.668755
_cell_volume 572.248407
_symmetry_space_group_name_H-M "P -1"
_symmetry_group_IT_number 2
_symmetry_cell_setting 'triclinic'
loop_
_space_group_symop_operation_xyz
x,y,z
-x,-y,-z
loop_
_atom_site_type_symbol
_atom_site_label
_atom_site_fract_x
_atom_site_fract_y
_atom_site_fract_z
Si Si1 0.596119 0.973872 0.203404
Si Si2 0.551592 0.646433 0.416054
Si Si3 0.097093 0.986025 0.929858
Si Si4 0.390691 0.756635 0.572111
Si Si5 0.906858 0.639648 0.284278
Si Si6 0.954651 0.260803 0.312646
Si Si7 0.073765 0.645441 0.142403
O O1 0.524756 0.059981 0.295430
O O2 0.778527 0.119888 0.262354
O O3 0.689962 0.769409 0.213301
O O4 0.369620 0.950239 0.037091
O O5 0.498263 0.769727 0.513383
O O6 0.526314 0.427438 0.378479
O O7 0.817638 0.707671 0.515117
O O8 0.353752 0.686476 0.261173
O O9 0.063736 0.172406 0.895582
O O10 0.973824 0.821481 0.780350
O O11 0.000000 0.000000 0.000000
O O12 0.112691 0.754128 0.448772
O O13 0.839454 0.457370 0.282876
O O14 0.998647 0.572943 0.203164
O O15 0.000000 0.500000 0.000000
#
# Coordination Sequence:
#
# PCOD8024577 Si02
#       7
#     2   2   2   2   2   2   2
#     4  12  24  45  69  98 141 178 223 285 343 400
#     4   9  20  41  70 100 132 179 228 282 331 400
#     4  12  26  46  66  98 135 185 229 279 340 406
#     4   9  19  41  68  99 136 174 222 277 334 403
#     4  10  23  43  69 101 136 178 223 277 345 400
#     4  11  24  44  70 100 140 173 226 283 339 405
#     4  11  22  43  71 101 135 182 233 275 334 404
#
# _framework density 24.464901000000001
#
# number of rings (size 3 to 8) (size 9 to 14) (size 15 to 20)
#    0.000    1.429    1.429    4.286    0.000    3.429 
#   10.286    0.000    0.000    0.000    0.000    0.000 
#    0.000    0.000    0.000    0.000    0.000    0.000 
#
# Total GULP energy -173595.707718 kJ/mol
# GULP energy per Si atom -12399.693408 kJ/mol
# Density = 2.440922 g / cm^3
# Si number density = 24.464901 Si / 1000 Ang^3
#
#
#
# Elastic Constant Matrix: (Units=GPa)
#
#
# Indices 1 2 3 4 5 6 
#
# 1 51.7979 18.4867 8.8992 -0.6075 8.9974 -9.0576
# 2 18.4867 134.2654 53.0924 -14.1964 18.0808 -20.8853
# 3 8.8992 53.0924 143.7059 -6.4087 17.9166 -25.8150
# 4 -0.6075 -14.1964 -6.4087 43.7274 -15.0820 3.6480
# 5 8.9974 18.0808 17.9166 -15.0820 38.6775 1.0634
# 6 -9.0576 -20.8853 -25.8150 3.6480 1.0634 30.5767
#
#
#
# Elastic Compliance Matrix: (Units=1/GPa)
#
#
# Indices 1 2 3 4 5 6 
#
# 1 0.021985 -0.001932 0.001192 -0.002792 -0.006037 0.006742
# 2 -0.001932 0.009788 -0.002398 0.001605 -0.002499 0.003985
# 3 0.001192 -0.002398 0.009516 -0.001448 -0.004323 0.007072
# 4 -0.002792 0.001605 -0.001448 0.027458 0.011404 -0.004626
# 5 -0.006037 -0.002499 -0.004323 0.011404 0.035145 -0.009729
# 6 0.006742 0.003985 0.007072 -0.004626 -0.009729 0.044285
#
#
# Mechanical properties :
#
#
# Convention : Reuss Voigt Hill
#
# Bulk Modulus (GPa) = 28.56038 54.52511 41.54275
# Shear Modulus (GPa) = 30.09801 39.21572 34.65686
#
# Velocity S-wave (km/s) = 3.51130 4.00801 3.76785
# Velocity P-wave (km/s) = 5.30456 6.61471 5.99553
#
# Compressibility (1/GPa) = 0.03501353
#
# Stress axis : x y z
#
# Youngs Moduli (GPa) = 45.48466 102.16468 105.09137
#
# Poissons Ratio (x) = 0.19735 -0.12522
# Poissons Ratio (y) = 0.08786 0.25197
# Poissons Ratio (z) = -0.05420 0.24495
#
# Static dielectric constant tensor:
#      x y z
#    x 4.550240 -0.605430 -0.370740 
#    y -0.605430 4.808910 0.235050 
#    z -0.370740 0.235050 5.014120 
# 
# 
# High freq. dielectric constant tensor:
#      x y z
#    x 1.961230 -0.017440 -0.002710 
#    y -0.017440 1.971600 -0.003660 
#    z -0.002710 -0.003660 1.985310 
# 
# From -- ./inp_files/260631.got.cif
#   From: 2010.06.25/outbox.cif.g09.slc.cpg/sg2_131_cif.got.tgz:260631.got - 2010.06.27 13:26:56.
