data_PCOD8024353
_publ_section_title
;
Structure prediction by ZEFSAII (Michael W. Deem and Ramdas Pophale) SiO2 
 PCOD8024353
Probable space group: P -1
;
_chemical_formula_sum "Si O2"
_cell_formula_units_Z 14
_cell_length_a 12.308282
_cell_length_b 6.268447
_cell_length_c 11.439767
_cell_angle_alpha 132.635715
_cell_angle_beta 70.056547
_cell_angle_gamma 114.686357
_cell_volume 587.738776
_symmetry_space_group_name_H-M "P -1"
_symmetry_group_IT_number 2
_symmetry_cell_setting 'triclinic'
loop_
_space_group_symop_operation_xyz
x,y,z
-x,-y,-z
loop_
_atom_site_type_symbol
_atom_site_label
_atom_site_fract_x
_atom_site_fract_y
_atom_site_fract_z
Si Si1 0.328432 0.876943 0.760381
Si Si2 0.944132 0.375318 0.660053
Si Si3 0.424581 0.359909 0.586547
Si Si4 0.854586 0.199576 0.387113
Si Si5 0.971732 0.185562 0.827283
Si Si6 0.564149 0.257665 0.713675
Si Si7 0.788290 0.778986 0.897174
O O1 0.325099 0.550620 0.699280
O O2 0.279725 0.856575 0.636603
O O3 0.462353 0.103428 0.790497
O O4 0.233085 0.997621 0.913120
O O5 0.846165 0.222154 0.539731
O O6 0.966309 0.171301 0.682234
O O7 0.892851 0.625580 0.839064
O O8 0.067825 0.491580 0.586277
O O9 0.500000 0.500000 0.500000
O O10 0.506101 0.415456 0.692374
O O11 0.375160 0.999584 0.451978
O O12 0.916833 0.943910 0.229329
O O13 0.841057 0.975599 0.836080
O O14 0.000000 0.500000 0.000000
O O15 0.663849 0.528091 0.832999
#
# Coordination Sequence:
#
# PCOD8024353 Si02
#       7
#     2   2   2   2   2   2   2
#     4  11  23  42  69  98 132 178 219 272 333 393
#     4  10  23  43  65  98 133 171 218 280 325 392
#     4   9  22  41  65  94 128 179 218 270 326 394
#     4  10  23  43  67  97 132 169 227 268 330 398
#     4  11  23  43  69  97 134 176 219 275 338 388
#     4  10  23  44  64  97 137 173 222 270 334 389
#     4  11  25  42  65 102 134 171 221 280 324 399
#
# _framework density 23.820108999999999
#
# number of rings (size 3 to 8) (size 9 to 14) (size 15 to 20)
#    0.000    1.714    0.000    2.571    6.000    8.571 
#    5.143    0.000    0.000    0.000    0.000    0.000 
#    0.000    0.000    0.000    0.000    0.000    0.000 
#
# Total GULP energy -173487.105389 kJ/mol
# GULP energy per Si atom -12391.936099 kJ/mol
# Density = 2.376589 g / cm^3
# Si number density = 23.820109 Si / 1000 Ang^3
#
#
#
# Elastic Constant Matrix: (Units=GPa)
#
#
# Indices 1 2 3 4 5 6 
#
# 1 94.1700 46.8354 18.3600 11.1461 -0.0482 -9.1002
# 2 46.8354 109.4858 21.2574 -5.9004 4.2250 -8.9715
# 3 18.3600 21.2574 75.3904 8.0273 -11.5597 -13.7291
# 4 11.1461 -5.9004 8.0273 36.2352 -5.2467 -3.9194
# 5 -0.0482 4.2250 -11.5597 -5.2467 36.7464 0.0703
# 6 -9.1002 -8.9715 -13.7291 -3.9194 0.0703 43.5433
#
#
#
# Elastic Compliance Matrix: (Units=1/GPa)
#
#
# Indices 1 2 3 4 5 6 
#
# 1 0.014652 -0.006236 -0.001138 -0.005221 -0.000369 0.000949
# 2 -0.006236 0.012685 -0.002623 0.004420 -0.001662 0.000884
# 3 -0.001138 -0.002623 0.016046 -0.002472 0.004987 0.004051
# 4 -0.005221 0.004420 -0.002472 0.031125 0.003148 0.001837
# 5 -0.000369 -0.001662 0.004987 0.003148 0.029420 0.001389
# 6 0.000949 0.000884 0.004051 0.001837 0.001389 0.024786
#
#
# Mechanical properties :
#
#
# Convention : Reuss Voigt Hill
#
# Bulk Modulus (GPa) = 42.75201 50.21687 46.48444
# Shear Modulus (GPa) = 31.94783 36.14454 34.04618
#
# Velocity S-wave (km/s) = 3.66623 3.89960 3.78472
# Velocity P-wave (km/s) = 5.99237 6.43454 6.21739
#
# Compressibility (1/GPa) = 0.02339071
#
# Stress axis : x y z
#
# Youngs Moduli (GPa) = 68.24996 78.83148 62.31945
#
# Poissons Ratio (x) = 0.49161 0.07090
# Poissons Ratio (y) = 0.42562 0.16344
# Poissons Ratio (z) = 0.07764 0.20674
#
# Static dielectric constant tensor:
#      x y z
#    x 4.391030 -0.484430 -0.497180 
#    y -0.484430 4.796360 0.376980 
#    z -0.497180 0.376980 4.492400 
# 
# 
# High freq. dielectric constant tensor:
#      x y z
#    x 1.936810 -0.001960 -0.016170 
#    y -0.001960 1.952870 -0.001130 
#    z -0.016170 -0.001130 1.945050 
# 
# From -- ./inp_files/68178.got.cif
#   From: 2010.06.25/outbox.cif.g09.slc.cpg/sg2_35_cif.got.tgz:68178.got - 2010.06.27 13:26:56.
