data_PCOD8024116
_publ_section_title
;
Structure prediction by ZEFSAII (Michael W. Deem and Ramdas Pophale) SiO2 
 PCOD8024116
Probable space group: P -1
;
_chemical_formula_sum "Si O2"
_cell_formula_units_Z 14
_cell_length_a 8.898349
_cell_length_b 19.642481
_cell_length_c 9.979320
_cell_angle_alpha 46.850827
_cell_angle_beta 132.980292
_cell_angle_gamma 149.199093
_cell_volume 630.515485
_symmetry_space_group_name_H-M "P -1"
_symmetry_group_IT_number 2
_symmetry_cell_setting 'triclinic'
loop_
_space_group_symop_operation_xyz
x,y,z
-x,-y,-z
loop_
_atom_site_type_symbol
_atom_site_label
_atom_site_fract_x
_atom_site_fract_y
_atom_site_fract_z
Si Si1 0.294669 0.688382 0.122479
Si Si2 0.217736 0.868881 0.758288
Si Si3 0.923752 0.857860 0.845158
Si Si4 0.904064 0.890586 0.348609
Si Si5 0.616588 0.457232 0.036845
Si Si6 0.874548 0.115736 0.777576
Si Si7 0.447581 0.410305 0.706969
O O1 0.538644 0.783216 0.262918
O O2 0.410079 0.643895 0.158577
O O3 0.962666 0.549765 0.163165
O O4 0.266837 0.774236 0.903989
O O5 0.129241 0.864352 0.862897
O O6 0.955189 0.814200 0.570306
O O7 0.520057 0.023218 0.683205
O O8 0.583584 0.703094 0.851294
O O9 0.934081 0.970421 0.658644
O O10 0.071692 0.913815 0.006463
O O11 0.043351 0.927095 0.235429
O O12 0.500000 0.500000 0.000000
O O13 0.594464 0.491703 0.826247
O O14 0.082655 0.278009 0.676460
O O15 0.500000 0.500000 0.500000
#
# Coordination Sequence:
#
# PCOD8024116 Si02
#       7
#     2   2   2   2   2   2   2
#     4  11  25  44  72  95 143 178 218 285 344 386
#     4  12  24  42  71 100 138 175 224 279 342 393
#     4  11  23  44  69  98 138 175 228 274 338 402
#     4  11  25  43  69 102 132 177 233 276 330 408
#     4  11  24  44  70  99 135 185 221 277 342 400
#     4  10  23  42  70  99 136 175 222 285 335 393
#     4  10  25  45  70 101 134 178 235 270 334 414
#
# _framework density 22.204053999999999
#
# number of rings (size 3 to 8) (size 9 to 14) (size 15 to 20)
#    0.000    1.143    2.857    2.143    8.000    1.143 
#    0.000    2.857    0.000    0.000    0.000    0.000 
#    0.000    0.000    0.000    0.000    0.000    0.000 
#
# Total GULP energy -173570.487835 kJ/mol
# GULP energy per Si atom -12397.891988 kJ/mol
# Density = 2.215352 g / cm^3
# Si number density = 22.204054 Si / 1000 Ang^3
#
#
#
# Elastic Constant Matrix: (Units=GPa)
#
#
# Indices 1 2 3 4 5 6 
#
# 1 110.5042 48.1412 65.7175 -1.1913 -9.4167 -3.3628
# 2 48.1412 159.9809 53.5161 8.7069 11.1999 21.7575
# 3 65.7175 53.5161 125.3813 -0.0759 15.1443 -7.6916
# 4 -1.1913 8.7069 -0.0759 24.1113 1.3256 2.5004
# 5 -9.4167 11.1999 15.1443 1.3256 32.3607 0.6049
# 6 -3.3628 21.7575 -7.6916 2.5004 0.6049 41.6953
#
#
#
# Elastic Compliance Matrix: (Units=1/GPa)
#
#
# Indices 1 2 3 4 5 6 
#
# 1 0.016110 -0.002969 -0.008256 0.001204 0.009509 0.001115
# 2 -0.002969 0.008925 -0.002243 -0.002698 -0.002697 -0.005109
# 3 -0.008256 -0.002243 0.014486 0.000576 -0.008490 0.003265
# 4 0.001204 -0.002698 0.000576 0.042646 -0.000715 -0.000936
# 5 0.009509 -0.002697 -0.008490 -0.000715 0.038603 0.000091
# 6 0.001115 -0.005109 0.003265 -0.000936 0.000091 0.027397
#
#
# Mechanical properties :
#
#
# Convention : Reuss Voigt Hill
#
# Bulk Modulus (GPa) = 79.45218 81.17955 80.31586
# Shear Modulus (GPa) = 27.88653 34.86626 31.37640
#
# Velocity S-wave (km/s) = 3.54774 3.96696 3.76319
# Velocity P-wave (km/s) = 7.25551 7.59094 7.42512
#
# Compressibility (1/GPa) = 0.01258619
#
# Stress axis : x y z
#
# Youngs Moduli (GPa) = 62.07313 112.04647 69.03030
#
# Poissons Ratio (x) = 0.33266 0.56992
# Poissons Ratio (y) = 0.18429 0.15480
# Poissons Ratio (z) = 0.51248 0.25127
#
# Static dielectric constant tensor:
#      x y z
#    x 3.965000 0.139980 -0.064500 
#    y 0.139980 4.578810 0.064950 
#    z -0.064500 0.064950 3.749440 
# 
# 
# High freq. dielectric constant tensor:
#      x y z
#    x 1.871150 0.000130 -0.005570 
#    y 0.000130 1.892820 0.001350 
#    z -0.005570 0.001350 1.855690 
# 
# From -- ./inp_files/223295.got.cif
#   From: 2010.06.25/outbox.cif.g09.slc.cpg/sg2_112_cif.got.tgz:223295.got - 2010.06.27 13:26:56.
