data_PCOD8024631
_publ_section_title
;
Structure prediction by ZEFSAII (Michael W. Deem and Ramdas Pophale) SiO2 
 PCOD8024631
Probable space group: P -1
;
_chemical_formula_sum "Si O2"
_cell_formula_units_Z 14
_cell_length_a 20.798832
_cell_length_b 8.148120
_cell_length_c 7.837598
_cell_angle_alpha 66.535139
_cell_angle_beta 116.261585
_cell_angle_gamma 147.037147
_cell_volume 647.110708
_symmetry_space_group_name_H-M "P -1"
_symmetry_group_IT_number 2
_symmetry_cell_setting 'triclinic'
loop_
_space_group_symop_operation_xyz
x,y,z
-x,-y,-z
loop_
_atom_site_type_symbol
_atom_site_label
_atom_site_fract_x
_atom_site_fract_y
_atom_site_fract_z
Si Si1 0.754140 0.418245 0.972177
Si Si2 0.202390 0.272871 0.427253
Si Si3 0.462367 0.227616 0.119933
Si Si4 0.824178 0.146795 0.554452
Si Si5 0.590840 0.831938 0.534312
Si Si6 0.341869 0.674438 0.749037
Si Si7 0.031379 0.316042 0.735215
O O1 0.727690 0.472572 0.092450
O O2 0.894812 0.636831 0.049330
O O3 0.732402 0.501358 0.750074
O O4 0.665550 0.070320 0.996629
O O5 0.243821 0.445280 0.579516
O O6 0.238454 0.133754 0.521398
O O7 0.055826 0.993138 0.347453
O O8 0.451115 0.182211 0.327363
O O9 0.559461 0.281821 0.144405
O O10 0.500000 0.500000 0.000000
O O11 0.865126 0.396134 0.385268
O O12 0.944314 0.297973 0.720453
O O13 0.726751 0.021706 0.628285
O O14 0.500000 0.500000 0.500000
O O15 0.591366 0.001217 0.335720
#
# Coordination Sequence:
#
# PCOD8024631 Si02
#       7
#     2   2   2   2   2   2   2
#     4  12  24  44  68 101 140 175 233 280 342 404
#     4  10  23  43  69  98 137 175 233 274 341 400
#     4  12  29  43  67 103 137 180 234 286 341 408
#     4   9  21  42  70  98 133 184 224 276 346 399
#     4  12  24  44  72  97 136 182 227 280 347 403
#     4  12  26  45  69 100 140 181 228 285 340 409
#     4   9  21  42  70  98 141 180 222 286 335 407
#
# _framework density 21.634626999999998
#
# number of rings (size 3 to 8) (size 9 to 14) (size 15 to 20)
#    0.857    0.286    2.857    3.000    6.000    0.571 
#    0.000    0.714    0.000    0.000    0.000    0.000 
#    0.000    0.000    0.000    0.000    0.000    0.000 
#
# Total GULP energy -173547.294806 kJ/mol
# GULP energy per Si atom -12396.235343 kJ/mol
# Density = 2.158539 g / cm^3
# Si number density = 21.634627 Si / 1000 Ang^3
#
#
#
# Elastic Constant Matrix: (Units=GPa)
#
#
# Indices 1 2 3 4 5 6 
#
# 1 95.1634 29.3567 32.0443 -1.1366 3.7497 5.3374
# 2 29.3567 140.3597 44.6625 -4.3586 7.8430 -12.3050
# 3 32.0443 44.6625 73.4898 0.4423 -10.1719 -4.4916
# 4 -1.1366 -4.3586 0.4423 38.7690 2.5464 2.2389
# 5 3.7497 7.8430 -10.1719 2.5464 36.3896 5.4000
# 6 5.3374 -12.3050 -4.4916 2.2389 5.4000 35.9301
#
#
#
# Elastic Compliance Matrix: (Units=1/GPa)
#
#
# Indices 1 2 3 4 5 6 
#
# 1 0.012924 -0.001044 -0.005484 0.000628 -0.002289 -0.002658
# 2 -0.001044 0.009778 -0.005876 0.001221 -0.004222 0.003328
# 3 -0.005484 -0.005876 0.020661 -0.001580 0.007668 0.000331
# 4 0.000628 0.001221 -0.001580 0.026193 -0.002433 -0.001139
# 5 -0.002289 -0.004222 0.007668 -0.002433 0.031645 -0.004752
# 6 -0.002658 0.003328 0.000331 -0.001139 -0.004752 0.030193
#
#
# Mechanical properties :
#
#
# Convention : Reuss Voigt Hill
#
# Bulk Modulus (GPa) = 53.89230 57.90444 55.89837
# Shear Modulus (GPa) = 30.79108 35.74770 33.26939
#
# Velocity S-wave (km/s) = 3.77667 4.06930 3.92571
# Velocity P-wave (km/s) = 6.63188 6.99298 6.81483
#
# Compressibility (1/GPa) = 0.01855553
#
# Stress axis : x y z
#
# Youngs Moduli (GPa) = 77.37803 102.27043 48.40138
#
# Poissons Ratio (x) = 0.10673 0.26543
# Poissons Ratio (y) = 0.08075 0.28439
# Poissons Ratio (z) = 0.42434 0.60091
#
# Static dielectric constant tensor:
#      x y z
#    x 3.812790 0.029840 0.107720 
#    y 0.029840 4.146860 -0.059580 
#    z 0.107720 -0.059580 3.746010 
# 
# 
# High freq. dielectric constant tensor:
#      x y z
#    x 1.840760 0.007260 0.014000 
#    y 0.007260 1.866530 -0.010390 
#    z 0.014000 -0.010390 1.836180 
# 
# From -- ./inp_files/352044.got.cif
#   From: 2010.06.25/outbox.cif.g09.slc.cpg/sg2_177_cif.got.tgz:352044.got - 2010.06.27 13:26:56.
