data_PCOD8024778
_publ_section_title
;
Structure prediction by ZEFSAII (Michael W. Deem and Ramdas Pophale) SiO2 
 PCOD8024778
Probable space group: P -1
;
_chemical_formula_sum "Si O2"
_cell_formula_units_Z 12
_cell_length_a 13.886489
_cell_length_b 4.966024
_cell_length_c 11.381665
_cell_angle_alpha 120.969425
_cell_angle_beta 138.669359
_cell_angle_gamma 57.067486
_cell_volume 426.967752
_symmetry_space_group_name_H-M "P -1"
_symmetry_group_IT_number 2
_symmetry_cell_setting 'triclinic'
loop_
_space_group_symop_operation_xyz
x,y,z
-x,-y,-z
loop_
_atom_site_type_symbol
_atom_site_label
_atom_site_fract_x
_atom_site_fract_y
_atom_site_fract_z
Si Si1 0.148893 0.626471 0.370623
Si Si2 0.897989 0.264537 0.392914
Si Si3 0.142257 0.101311 0.951675
Si Si4 0.343172 0.961723 0.486007
Si Si5 0.446983 0.448404 0.811065
Si Si6 0.325387 0.579839 0.169323
O O1 0.051467 0.861215 0.445518
O O2 0.287619 0.763062 0.493448
O O3 0.034511 0.678625 0.165393
O O4 0.199645 0.247842 0.367166
O O5 0.735006 0.453397 0.347311
O O6 0.000000 0.500000 0.500000
O O7 0.828165 0.105394 0.187642
O O8 0.255994 0.321581 0.110495
O O9 0.183658 0.848973 0.040430
O O10 0.408514 0.729618 0.382497
O O11 0.478919 0.078315 0.701128
O O12 0.547384 0.605706 0.851548
O O13 0.500000 0.500000 0.000000
#
# Coordination Sequence:
#
# PCOD8024778 Si02
#       6
#     2   2   2   2   2   2
#     4  10  23  43  72  99 142 186 236 290 349 413
#     4   9  21  43  70 102 137 179 237 293 343 407
#     4  11  24  42  70 106 139 186 234 291 350 418
#     4  11  25  45  67 103 140 187 233 289 350 417
#     4  11  24  46  73 102 141 188 236 289 352 423
#     4  12  26  42  69 103 146 180 233 289 354 423
#
# _framework density 28.105167999999999
#
# number of rings (size 3 to 8) (size 9 to 14) (size 15 to 20)
#    0.000    1.333    1.667    2.500    2.333    7.333 
#    0.000   12.500    0.000    0.000    0.000    0.000 
#    0.000    0.000    0.000    0.000    0.000    0.000 
#
# Total GULP energy -148662.570414 kJ/mol
# GULP energy per Si atom -12388.547535 kJ/mol
# Density = 2.804120 g / cm^3
# Si number density = 28.105168 Si / 1000 Ang^3
#
#
#
# Elastic Constant Matrix: (Units=GPa)
#
#
# Indices 1 2 3 4 5 6 
#
# 1 106.6493 26.7170 5.8936 -6.6427 -11.7741 0.0799
# 2 26.7170 84.0636 37.5089 -6.9702 4.3686 22.2238
# 3 5.8936 37.5089 150.2514 1.5466 -26.0254 -15.5322
# 4 -6.6427 -6.9702 1.5466 49.8803 -9.5717 -3.4637
# 5 -11.7741 4.3686 -26.0254 -9.5717 56.1609 2.6657
# 6 0.0799 22.2238 -15.5322 -3.4637 2.6657 28.5834
#
#
#
# Elastic Compliance Matrix: (Units=1/GPa)
#
#
# Indices 1 2 3 4 5 6 
#
# 1 0.011395 -0.006406 0.002467 0.001746 0.004037 0.006125
# 2 -0.006406 0.024856 -0.009562 -0.000004 -0.006574 -0.023891
# 3 0.002467 -0.009562 0.011335 0.000705 0.006012 0.013112
# 4 0.001746 -0.000004 0.000705 0.021240 0.004191 0.002564
# 5 0.004037 -0.006574 0.006012 0.004191 0.022342 0.006791
# 6 0.006125 -0.023891 0.013112 0.002564 0.006791 0.060346
#
#
# Mechanical properties :
#
#
# Convention : Reuss Voigt Hill
#
# Bulk Modulus (GPa) = 48.58495 53.46704 51.02600
# Shear Modulus (GPa) = 26.97175 44.98123 35.97649
#
# Velocity S-wave (km/s) = 3.10122 4.00492 3.58168
# Velocity P-wave (km/s) = 5.49070 6.36011 5.94133
#
# Compressibility (1/GPa) = 0.02058250
#
# Stress axis : x y z
#
# Youngs Moduli (GPa) = 87.75804 40.23195 88.21932
#
# Poissons Ratio (x) = 0.25774 -0.21762
# Poissons Ratio (y) = 0.56222 0.84357
# Poissons Ratio (z) = -0.21648 0.38471
#
# Static dielectric constant tensor:
#      x y z
#    x 5.579760 -0.556370 -0.283890 
#    y -0.556370 5.519870 -0.276900 
#    z -0.283890 -0.276900 5.378760 
# 
# 
# High freq. dielectric constant tensor:
#      x y z
#    x 2.159530 -0.021140 -0.019580 
#    y -0.021140 2.147040 -0.018980 
#    z -0.019580 -0.018980 2.173960 
# 
# From -- ./inp_files/440169.got.cif
#   From: 2010.06.25/outbox.cif.g09.slc.cpg/sg2_221_cif.got.tgz:440169.got - 2010.06.27 13:26:56.
