data_PCOD8024558
_publ_section_title
;
Structure prediction by ZEFSAII (Michael W. Deem and Ramdas Pophale) SiO2 
 PCOD8024558
Probable space group: P -1
;
_chemical_formula_sum "Si O2"
_cell_formula_units_Z 12
_cell_length_a 13.063149
_cell_length_b 8.749856
_cell_length_c 11.801565
_cell_angle_alpha 41.551181
_cell_angle_beta 127.186686
_cell_angle_gamma 146.878641
_cell_volume 487.961515
_symmetry_space_group_name_H-M "P -1"
_symmetry_group_IT_number 2
_symmetry_cell_setting 'triclinic'
loop_
_space_group_symop_operation_xyz
x,y,z
-x,-y,-z
loop_
_atom_site_type_symbol
_atom_site_label
_atom_site_fract_x
_atom_site_fract_y
_atom_site_fract_z
Si Si1 0.755795 0.097467 0.863454
Si Si2 0.487999 0.057413 0.832138
Si Si3 0.788430 0.241452 0.544534
Si Si4 0.157093 0.176489 0.765118
Si Si5 0.874660 0.162807 0.280757
Si Si6 0.775890 0.823831 0.625333
O O1 0.560519 0.950434 0.857706
O O2 0.763390 0.111427 0.725945
O O3 0.926472 0.468445 0.825750
O O4 0.774146 0.860105 0.053906
O O5 0.611122 0.446672 0.682164
O O6 0.272790 0.831654 0.783773
O O7 0.500000 0.000000 0.000000
O O8 0.728176 0.430507 0.386644
O O9 0.000000 0.500000 0.500000
O O10 0.678105 0.920611 0.565354
O O11 0.210886 0.088949 0.742098
O O12 0.929861 0.912191 0.764428
O O13 0.903486 0.045981 0.476891
#
# Coordination Sequence:
#
# PCOD8024558 Si02
#       6
#     2   2   2   2   2   2
#     4  12  23  45  73 100 133 179 223 278 337 392
#     4  12  25  43  67 104 134 170 233 278 330 396
#     4  10  23  43  68  99 137 180 223 267 337 410
#     4  11  21  40  70  99 133 173 223 276 332 394
#     4  12  22  43  71 100 132 175 226 284 331 389
#     4  11  23  43  67 101 135 177 225 274 337 400
#
# _framework density 24.592103000000002
#
# number of rings (size 3 to 8) (size 9 to 14) (size 15 to 20)
#    0.000    0.667    6.667    3.500    0.000    2.667 
#    3.000    4.167    0.000    0.000    0.000    0.000 
#    0.000    0.000    0.000    0.000    0.000    0.000 
#
# Total GULP energy -148813.069461 kJ/mol
# GULP energy per Si atom -12401.089122 kJ/mol
# Density = 2.453613 g / cm^3
# Si number density = 24.592103 Si / 1000 Ang^3
#
#
#
# Elastic Constant Matrix: (Units=GPa)
#
#
# Indices 1 2 3 4 5 6 
#
# 1 128.8417 5.1858 47.5195 4.7569 -11.3535 -1.4257
# 2 5.1858 14.8725 3.0483 -4.1941 4.4256 -0.1651
# 3 47.5195 3.0483 159.4799 10.9148 -1.1394 -20.6307
# 4 4.7569 -4.1941 10.9148 9.8152 -11.1645 -3.8686
# 5 -11.3535 4.4256 -1.1394 -11.1645 40.2615 4.2417
# 6 -1.4257 -0.1651 -20.6307 -3.8686 4.2417 40.7901
#
#
#
# Elastic Compliance Matrix: (Units=1/GPa)
#
#
# Indices 1 2 3 4 5 6 
#
# 1 0.009206 -0.003518 -0.002851 0.000163 0.003099 -0.001441
# 2 -0.003518 0.080577 -0.003047 0.042232 0.001511 0.002511
# 3 -0.002851 -0.003047 0.008452 -0.012637 -0.004091 0.003390
# 4 0.000163 0.042232 -0.012637 0.190141 0.047042 0.006927
# 5 0.003099 0.001511 -0.004091 0.047042 0.038633 -0.001511
# 6 -0.001441 0.002511 0.003390 0.006927 -0.001511 0.027004
#
#
# Mechanical properties :
#
#
# Convention : Reuss Voigt Hill
#
# Bulk Modulus (GPa) = 12.59387 46.07792 29.33590
# Shear Modulus (GPa) = 12.52150 34.66941 23.59546
#
# Velocity S-wave (km/s) = 2.25892 3.75877 3.10090
# Velocity P-wave (km/s) = 3.45483 6.13314 4.97751
#
# Compressibility (1/GPa) = 0.07940373
#
# Stress axis : x y z
#
# Youngs Moduli (GPa) = 108.62772 12.41045 118.31025
#
# Poissons Ratio (x) = 0.04366 0.33733
# Poissons Ratio (y) = 0.38213 0.36047
# Poissons Ratio (z) = 0.30972 0.03781
#
# Static dielectric constant tensor:
#      x y z
#    x 4.590030 0.289920 -0.088580 
#    y 0.289920 4.463060 0.243260 
#    z -0.088580 0.243260 4.208900 
# 
# 
# High freq. dielectric constant tensor:
#      x y z
#    x 1.988770 -0.003070 0.002670 
#    y -0.003070 1.947300 0.003260 
#    z 0.002670 0.003260 1.986240 
# 
# From -- ./inp_files/154970.got.cif
#   From: 2010.06.25/outbox.cif.g09.slc.cpg/sg2_78_cif.got.tgz:154970.got - 2010.06.27 13:26:56.
