data_PCOD8024776
_publ_section_title
;
Structure prediction by ZEFSAII (Michael W. Deem and Ramdas Pophale) SiO2 
 PCOD8024776
Probable space group: P -1
;
_chemical_formula_sum "Si O2"
_cell_formula_units_Z 16
_cell_length_a 14.992475
_cell_length_b 13.771583
_cell_length_c 14.616411
_cell_angle_alpha 134.794397
_cell_angle_beta 19.500559
_cell_angle_gamma 133.061513
_cell_volume 712.681234
_symmetry_space_group_name_H-M "P -1"
_symmetry_group_IT_number 2
_symmetry_cell_setting 'triclinic'
loop_
_space_group_symop_operation_xyz
x,y,z
-x,-y,-z
loop_
_atom_site_type_symbol
_atom_site_label
_atom_site_fract_x
_atom_site_fract_y
_atom_site_fract_z
Si Si1 0.676979 0.259984 0.299716
Si Si2 0.338558 0.656677 0.834629
Si Si3 0.208719 0.330769 0.210021
Si Si4 0.686083 0.958098 0.040420
Si Si5 0.236406 0.543807 0.173270
Si Si6 0.875200 0.795675 0.463629
Si Si7 0.225652 0.412420 0.903725
Si Si8 0.148805 0.944211 0.450345
O O1 0.600774 0.324498 0.318649
O O2 0.486963 0.326864 0.601840
O O3 0.620868 0.094631 0.248853
O O4 0.979651 0.299068 0.060883
O O5 0.230442 0.503303 0.866570
O O6 0.617012 0.686923 0.641559
O O7 0.112485 0.757584 0.142961
O O8 0.157693 0.401982 0.209839
O O9 0.952771 0.340454 0.531088
O O10 0.248063 0.170664 0.045211
O O11 0.457354 0.407134 0.072770
O O12 0.427975 0.902865 0.194092
O O13 0.948725 0.000927 0.755375
O O14 0.196769 0.513811 0.084399
O O15 0.995210 0.812555 0.461322
O O16 0.771844 0.938048 0.622430
#
# Coordination Sequence:
#
# PCOD8024776 Si02
#       8
#     2   2   2   2   2   2   2   2
#     4  12  24  44  58  92 131 175 221 257 299 372
#     4  12  23  40  61  88 126 174 220 262 312 358
#     4  10  23  43  72  99 127 158 199 271 340 380
#     4  12  23  40  66  92 128 172 204 261 325 383
#     4  10  23  46  68  99 130 155 209 268 321 388
#     4  11  22  37  57  90 127 167 208 273 310 371
#     4  12  26  41  66  89 126 180 218 258 308 374
#     4  11  22  37  57  91 132 165 208 256 325 382
#
# _framework density 22.450430000000001
#
# number of rings (size 3 to 8) (size 9 to 14) (size 15 to 20)
#    0.000    0.750    2.500    5.250    5.250    2.000 
#    0.000    1.250    0.000    0.000    0.000    0.000 
#    0.000    0.000    0.000    0.000    0.000    0.000 
#
# Total GULP energy -198463.805827 kJ/mol
# GULP energy per Si atom -12403.987864 kJ/mol
# Density = 2.239933 g / cm^3
# Si number density = 22.450430 Si / 1000 Ang^3
#
#
#
# Elastic Constant Matrix: (Units=GPa)
#
#
# Indices 1 2 3 4 5 6 
#
# 1 38.5452 24.8774 18.4262 4.6327 -6.1102 0.7748
# 2 24.8774 73.7849 22.6172 7.2415 1.0406 -3.5680
# 3 18.4262 22.6172 111.8532 -0.6476 -4.9372 2.7655
# 4 4.6327 7.2415 -0.6476 41.5906 11.1502 -8.2407
# 5 -6.1102 1.0406 -4.9372 11.1502 26.0391 -2.8431
# 6 0.7748 -3.5680 2.7655 -8.2407 -2.8431 27.5053
#
#
#
# Elastic Compliance Matrix: (Units=1/GPa)
#
#
# Indices 1 2 3 4 5 6 
#
# 1 0.037237 -0.011257 -0.003351 -0.005647 0.010669 -0.002761
# 2 -0.011257 0.018190 -0.002028 -0.000609 -0.003234 0.002364
# 3 -0.003351 -0.002028 0.009968 0.000458 0.000886 -0.000942
# 4 -0.005647 -0.000609 0.000458 0.029820 -0.013152 0.007609
# 5 0.010669 -0.003234 0.000886 -0.013152 0.046847 0.000093
# 6 -0.002761 0.002364 -0.000942 0.007609 0.000093 0.039125
#
#
# Mechanical properties :
#
#
# Convention : Reuss Voigt Hill
#
# Bulk Modulus (GPa) = 31.13309 39.55832 35.34571
# Shear Modulus (GPa) = 22.20581 29.57783 25.89182
#
# Velocity S-wave (km/s) = 3.14841 3.63364 3.39969
# Velocity P-wave (km/s) = 5.20714 5.93826 5.58468
#
# Compressibility (1/GPa) = 0.03212016
#
# Stress axis : x y z
#
# Youngs Moduli (GPa) = 26.85524 54.97568 100.32541
#
# Poissons Ratio (x) = 0.61887 0.33623
# Poissons Ratio (y) = 0.30232 0.20349
# Poissons Ratio (z) = 0.09000 0.11151
#
# Static dielectric constant tensor:
#      x y z
#    x 3.750210 -0.007410 -0.100740 
#    y -0.007410 3.993640 -0.007350 
#    z -0.100740 -0.007350 4.128970 
# 
# 
# High freq. dielectric constant tensor:
#      x y z
#    x 1.847890 -0.002440 -0.014600 
#    y -0.002440 1.888330 -0.001050 
#    z -0.014600 -0.001050 1.904190 
# 
# From -- ./inp_files/534270.got.cif
#   From: 2010.06.25/outbox.cif.g09.slc.cpg/sg2_268_cif.got.tgz:534270.got - 2010.06.27 13:26:56.
