data_PCOD8024425
_publ_section_title
;
Structure prediction by ZEFSAII (Michael W. Deem and Ramdas Pophale) SiO2 
 PCOD8024425
Probable space group: P -1
;
_chemical_formula_sum "Si O2"
_cell_formula_units_Z 14
_cell_length_a 9.092642
_cell_length_b 9.640880
_cell_length_c 11.974835
_cell_angle_alpha 60.452223
_cell_angle_beta 104.913564
_cell_angle_gamma 135.164758
_cell_volume 636.533989
_symmetry_space_group_name_H-M "P -1"
_symmetry_group_IT_number 2
_symmetry_cell_setting 'triclinic'
loop_
_space_group_symop_operation_xyz
x,y,z
-x,-y,-z
loop_
_atom_site_type_symbol
_atom_site_label
_atom_site_fract_x
_atom_site_fract_y
_atom_site_fract_z
Si Si1 0.878986 0.053706 0.742736
Si Si2 0.577699 0.437412 0.792233
Si Si3 0.435161 0.082749 0.732214
Si Si4 0.760810 0.276674 0.533386
Si Si5 0.717883 0.487025 0.262648
Si Si6 0.536526 0.262049 0.092743
Si Si7 0.998063 0.106080 0.348535
O O1 0.756254 0.080917 0.619490
O O2 0.052473 0.275265 0.759791
O O3 0.701533 0.860633 0.869815
O O4 0.982975 0.985348 0.723489
O O5 0.451952 0.216355 0.784774
O O6 0.460990 0.521724 0.727105
O O7 0.811885 0.629526 0.712580
O O8 0.594186 0.394321 0.939575
O O9 0.626543 0.254949 0.616537
O O10 0.444056 0.912597 0.852219
O O11 0.216855 0.950476 0.676803
O O12 0.674899 0.285873 0.396348
O O13 0.000000 0.500000 0.500000
O O14 0.703438 0.443369 0.145782
O O15 0.000000 0.000000 0.500000
#
# Coordination Sequence:
#
# PCOD8024425 Si02
#       7
#     2   2   2   2   2   2   2
#     4  10  23  43  67 102 133 176 224 279 332 401
#     4  12  26  45  68  99 140 177 228 275 329 400
#     4  11  26  45  69  99 138 178 219 284 338 388
#     4   9  22  41  69  97 130 172 223 270 338 393
#     4  11  22  41  71  98 134 176 223 278 331 390
#     4  11  26  45  68  99 133 184 230 269 326 405
#     4  12  27  41  70 104 137 174 224 277 344 398
#
# _framework density 21.994112000000001
#
# number of rings (size 3 to 8) (size 9 to 14) (size 15 to 20)
#    0.000    1.143    2.857    1.714    6.000    6.857 
#    0.000    0.000    0.000    0.000    0.000    0.000 
#    0.000    0.000    0.000    0.000    0.000    0.000 
#
# Total GULP energy -173645.879304 kJ/mol
# GULP energy per Si atom -12403.277093 kJ/mol
# Density = 2.194405 g / cm^3
# Si number density = 21.994112 Si / 1000 Ang^3
#
#
#
# Elastic Constant Matrix: (Units=GPa)
#
#
# Indices 1 2 3 4 5 6 
#
# 1 114.0282 20.3959 38.7318 -3.6697 4.1453 14.8803
# 2 20.3959 92.2860 20.7063 2.5074 -0.4175 14.3387
# 3 38.7318 20.7063 113.3052 -4.6321 -2.6428 24.5235
# 4 -3.6697 2.5074 -4.6321 28.8595 3.9460 -0.8890
# 5 4.1453 -0.4175 -2.6428 3.9460 25.8775 -1.2766
# 6 14.8803 14.3387 24.5235 -0.8890 -1.2766 38.0773
#
#
#
# Elastic Compliance Matrix: (Units=1/GPa)
#
#
# Indices 1 2 3 4 5 6 
#
# 1 0.010355 -0.001416 -0.002920 0.001227 -0.002250 -0.001680
# 2 -0.001416 0.011937 -0.001038 -0.001538 0.000385 -0.003296
# 3 -0.002920 -0.001038 0.011322 0.001204 0.001143 -0.005693
# 4 0.001227 -0.001538 0.001204 0.035895 -0.005573 -0.000025
# 5 -0.002250 0.000385 0.001143 -0.005573 0.040036 0.001210
# 6 -0.001680 -0.003296 -0.005693 -0.000025 0.001210 0.031867
#
#
# Mechanical properties :
#
#
# Convention : Reuss Voigt Hill
#
# Bulk Modulus (GPa) = 43.73125 53.25415 48.49270
# Shear Modulus (GPa) = 31.29260 34.54856 32.92058
#
# Velocity S-wave (km/s) = 3.77606 3.96764 3.87303
# Velocity P-wave (km/s) = 6.24002 6.72719 6.48818
#
# Compressibility (1/GPa) = 0.02286694
#
# Stress axis : x y z
#
# Youngs Moduli (GPa) = 96.56908 83.77031 88.32659
#
# Poissons Ratio (x) = 0.11862 0.25789
# Poissons Ratio (y) = 0.13674 0.09168
# Poissons Ratio (z) = 0.28196 0.08695
#
# Static dielectric constant tensor:
#      x y z
#    x 4.204870 0.103260 0.165540 
#    y 0.103260 3.956690 -0.129730 
#    z 0.165540 -0.129730 4.155620 
# 
# 
# High freq. dielectric constant tensor:
#      x y z
#    x 1.875050 0.006570 0.006370 
#    y 0.006570 1.870410 -0.004730 
#    z 0.006370 -0.004730 1.864910 
# 
# From -- ./inp_files/185550.got.cif
#   From: 2010.06.25/outbox.cif.g09.slc.cpg/sg2_93_cif.got.tgz:185550.got - 2010.06.27 13:26:56.
