data_PCOD8024535
_publ_section_title
;
Structure prediction by ZEFSAII (Michael W. Deem and Ramdas Pophale) SiO2 
 PCOD8024535
Probable space group: P -1
;
_chemical_formula_sum "Si O2"
_cell_formula_units_Z 16
_cell_length_a 11.250014
_cell_length_b 6.800585
_cell_length_c 16.141470
_cell_angle_alpha 58.246077
_cell_angle_beta 124.931028
_cell_angle_gamma 88.149454
_cell_volume 755.908105
_symmetry_space_group_name_H-M "P -1"
_symmetry_group_IT_number 2
_symmetry_cell_setting 'triclinic'
loop_
_space_group_symop_operation_xyz
x,y,z
-x,-y,-z
loop_
_atom_site_type_symbol
_atom_site_label
_atom_site_fract_x
_atom_site_fract_y
_atom_site_fract_z
Si Si1 0.819694 0.244751 0.118532
Si Si2 0.073477 0.585046 0.586857
Si Si3 0.614117 0.955988 0.132435
Si Si4 0.021849 0.097987 0.897746
Si Si5 0.698487 0.837240 0.935360
Si Si6 0.085577 0.069399 0.407502
Si Si7 0.327284 0.738674 0.295024
Si Si8 0.415437 0.822467 0.494192
O O1 0.937816 0.175224 0.259838
O O2 0.683061 0.162546 0.108843
O O3 0.918320 0.117208 0.102707
O O4 0.729748 0.548823 0.990134
O O5 0.238499 0.339074 0.739670
O O6 0.000000 0.500000 0.500000
O O7 0.947748 0.700342 0.589480
O O8 0.112012 0.811658 0.523331
O O9 0.492705 0.005175 0.149860
O O10 0.500000 0.000000 0.000000
O O11 0.833873 0.308094 0.750492
O O12 0.157836 0.200322 0.932209
O O13 0.000000 0.000000 0.000000
O O14 0.717999 0.995775 0.831835
O O15 0.253954 0.979765 0.448089
O O16 0.380503 0.794502 0.391701
O O17 0.467772 0.479404 0.362235
O O18 0.500000 0.000000 0.500000
#
# Coordination Sequence:
#
# PCOD8024535 Si02
#       8
#     2   2   2   2   2   2   2   2
#     4  12  24  43  71 102 135 183 231 285 344 421
#     4  11  25  47  71  99 140 181 229 286 346 416
#     4  12  24  45  70 102 142 182 228 289 351 405
#     4  10  23  43  68  96 136 181 222 278 348 407
#     4  11  25  42  68 100 136 177 222 287 342 409
#     4  11  25  45  71 101 131 184 233 279 350 412
#     4  10  24  45  65  99 136 178 224 283 345 398
#     4  11  25  43  69  97 132 178 231 282 334 412
#
# _framework density 21.166592000000001
#
# number of rings (size 3 to 8) (size 9 to 14) (size 15 to 20)
#    0.000    1.000    3.750    1.875    1.750    7.000 
#    2.250    0.000    0.000    0.000    0.000    0.000 
#    0.000    0.000    0.000    0.000    0.000    0.000 
#
# Total GULP energy -198282.597791 kJ/mol
# GULP energy per Si atom -12392.662362 kJ/mol
# Density = 2.111842 g / cm^3
# Si number density = 21.166592 Si / 1000 Ang^3
#
#
#
# Elastic Constant Matrix: (Units=GPa)
#
#
# Indices 1 2 3 4 5 6 
#
# 1 117.4631 66.9131 45.7459 -3.7517 21.2959 5.3548
# 2 66.9131 141.0093 68.6609 0.1942 13.7279 -11.9763
# 3 45.7459 68.6609 133.2494 -11.8776 13.2389 6.7962
# 4 -3.7517 0.1942 -11.8776 38.8406 3.1402 -4.3272
# 5 21.2959 13.7279 13.2389 3.1402 39.1656 2.6243
# 6 5.3548 -11.9763 6.7962 -4.3272 2.6243 29.9384
#
#
#
# Elastic Compliance Matrix: (Units=1/GPa)
#
#
# Indices 1 2 3 4 5 6 
#
# 1 0.013147 -0.005719 -0.000813 0.000994 -0.004688 -0.003900
# 2 -0.005719 0.012953 -0.005198 -0.001403 -0.000042 0.007186
# 3 -0.000813 -0.005198 0.011075 0.003020 -0.001461 -0.003884
# 4 0.000994 -0.001403 0.003020 0.027368 -0.003454 0.002834
# 5 -0.004688 -0.000042 -0.001461 -0.003454 0.028994 -0.001888
# 6 -0.003900 0.007186 -0.003884 0.002834 -0.001888 0.038431
#
#
# Mechanical properties :
#
#
# Convention : Reuss Voigt Hill
#
# Bulk Modulus (GPa) = 72.91938 83.81796 78.36867
# Shear Modulus (GPa) = 31.24989 35.61570 33.43280
#
# Velocity S-wave (km/s) = 3.84653 4.10645 3.97861
# Velocity P-wave (km/s) = 7.36565 7.88473 7.62961
#
# Compressibility (1/GPa) = 0.01371378
#
# Stress axis : x y z
#
# Youngs Moduli (GPa) = 76.06109 77.20125 90.29267
#
# Poissons Ratio (x) = 0.44151 0.07345
# Poissons Ratio (y) = 0.43499 0.46939
# Poissons Ratio (z) = 0.06187 0.40133
#
# Static dielectric constant tensor:
#      x y z
#    x 4.203090 0.012750 0.340340 
#    y 0.012750 3.984640 0.073370 
#    z 0.340340 0.073370 4.070320 
# 
# 
# High freq. dielectric constant tensor:
#      x y z
#    x 1.842070 -0.004020 0.008660 
#    y -0.004020 1.835720 0.001730 
#    z 0.008660 0.001730 1.842170 
# 
# From -- ./inp_files/549458.got.cif
#   From: 2010.06.25/outbox.cif.g09.slc.cpg/sg2_275_cif.got.tgz:549458.got - 2010.06.27 13:26:56.
