data_PCOD8024752
_publ_section_title
;
Structure prediction by ZEFSAII (Michael W. Deem and Ramdas Pophale) SiO2 
 PCOD8024752
Probable space group: P -1
;
_chemical_formula_sum "Si O2"
_cell_formula_units_Z 14
_cell_length_a 17.463298
_cell_length_b 9.350781
_cell_length_c 9.348464
_cell_angle_alpha 99.502889
_cell_angle_beta 52.227678
_cell_angle_gamma 56.718416
_cell_volume 657.375182
_symmetry_space_group_name_H-M "P -1"
_symmetry_group_IT_number 2
_symmetry_cell_setting 'triclinic'
loop_
_space_group_symop_operation_xyz
x,y,z
-x,-y,-z
loop_
_atom_site_type_symbol
_atom_site_label
_atom_site_fract_x
_atom_site_fract_y
_atom_site_fract_z
Si Si1 0.146801 0.719605 0.202970
Si Si2 0.413009 0.726941 0.035787
Si Si3 0.917846 0.788895 0.334700
Si Si4 0.404794 0.251056 0.034140
Si Si5 0.968106 0.868627 0.993149
Si Si6 0.762596 0.681379 0.516080
Si Si7 0.676871 0.267615 0.171237
O O1 0.305846 0.486458 0.086590
O O2 0.091903 0.633042 0.185391
O O3 0.230643 0.697079 0.969116
O O4 0.000000 0.000000 0.500000
O O5 0.515817 0.750184 0.928861
O O6 0.383369 0.735120 0.904613
O O7 0.500000 0.500000 0.000000
O O8 0.223467 0.974447 0.358057
O O9 0.890326 0.893391 0.228387
O O10 0.907011 0.627738 0.316254
O O11 0.272007 0.304179 0.271923
O O12 0.570751 0.966025 0.717100
O O13 0.827191 0.003646 0.052506
O O14 0.156845 0.561921 0.689531
O O15 0.000000 0.000000 0.000000
O O16 0.500000 0.500000 0.500000
#
# Coordination Sequence:
#
# PCOD8024752 Si02
#       7
#     2   2   2   2   2   2   2
#     4  12  22  42  71 109 137 181 236 286 339 416
#     4  11  21  40  69  98 136 180 226 285 338 410
#     4  11  24  43  69  98 135 187 230 283 351 407
#     4  10  23  43  71  99 142 180 232 287 348 414
#     4  12  26  45  71  98 141 181 231 292 346 414
#     4  10  25  46  67 100 139 186 231 283 359 412
#     4  12  26  40  66 111 140 173 233 290 350 400
#
# _framework density 21.29682
#
# number of rings (size 3 to 8) (size 9 to 14) (size 15 to 20)
#    0.000    0.857    4.286    2.143    6.000    0.571 
#    5.143    0.714    0.000    0.000    0.000    0.000 
#    0.000    0.000    0.000    0.000    0.000    0.000 
#
# Total GULP energy -173436.361143 kJ/mol
# GULP energy per Si atom -12388.311510 kJ/mol
# Density = 2.124835 g / cm^3
# Si number density = 21.296820 Si / 1000 Ang^3
#
#
#
# Elastic Constant Matrix: (Units=GPa)
#
#
# Indices 1 2 3 4 5 6 
#
# 1 119.3514 55.9313 44.7108 -2.1670 1.3806 -5.9084
# 2 55.9313 101.8484 68.8789 6.3165 6.5880 1.7050
# 3 44.7108 68.8789 143.8406 -3.6165 5.6513 1.1493
# 4 -2.1670 6.3165 -3.6165 49.9267 5.2310 -3.7344
# 5 1.3806 6.5880 5.6513 5.2310 31.3623 -8.4497
# 6 -5.9084 1.7050 1.1493 -3.7344 -8.4497 46.8215
#
#
#
# Elastic Compliance Matrix: (Units=1/GPa)
#
#
# Indices 1 2 3 4 5 6 
#
# 1 0.011606 -0.006066 -0.000736 0.001240 0.001235 0.002025
# 2 -0.006066 0.018069 -0.006733 -0.002935 -0.002342 -0.001915
# 3 -0.000736 -0.006733 0.010477 0.001649 -0.000745 -0.000108
# 4 0.001240 -0.002935 0.001649 0.020977 -0.002862 0.001379
# 5 0.001235 -0.002342 -0.000745 -0.002862 0.034627 0.006280
# 6 0.002025 -0.001915 -0.000108 0.001379 0.006280 0.022929
#
#
# Mechanical properties :
#
#
# Convention : Reuss Voigt Hill
#
# Bulk Modulus (GPa) = 76.45175 78.23139 77.34157
# Shear Modulus (GPa) = 33.30761 38.65673 35.98217
#
# Velocity S-wave (km/s) = 3.95900 4.26507 4.11488
# Velocity P-wave (km/s) = 7.54151 7.81460 7.67927
#
# Compressibility (1/GPa) = 0.01308014
#
# Stress axis : x y z
#
# Youngs Moduli (GPa) = 86.16472 55.34305 95.44838
#
# Poissons Ratio (x) = 0.33572 0.07026
# Poissons Ratio (y) = 0.52270 0.64269
# Poissons Ratio (z) = 0.06343 0.37265
#
# Static dielectric constant tensor:
#      x y z
#    x 4.279770 0.049910 -0.028180 
#    y 0.049910 3.987960 -0.079830 
#    z -0.028180 -0.079830 4.066620 
# 
# 
# High freq. dielectric constant tensor:
#      x y z
#    x 1.829840 0.004740 -0.013390 
#    y 0.004740 1.844050 -0.008810 
#    z -0.013390 -0.008810 1.842460 
# 
# From -- ./inp_files/208759.got.cif
#   From: 2010.06.25/outbox.cif.g09.slc.cpg/sg2_105_cif.got.tgz:208759.got - 2010.06.27 13:26:56.
