data_PCOD8024690
_publ_section_title
;
Structure prediction by ZEFSAII (Michael W. Deem and Ramdas Pophale) SiO2 
 PCOD8024690
Probable space group: P -1
;
_chemical_formula_sum "Si O2"
_cell_formula_units_Z 16
_cell_length_a 8.568427
_cell_length_b 14.918943
_cell_length_c 8.876424
_cell_angle_alpha 44.828232
_cell_angle_beta 73.649126
_cell_angle_gamma 97.081430
_cell_volume 674.471064
_symmetry_space_group_name_H-M "P -1"
_symmetry_group_IT_number 2
_symmetry_cell_setting 'triclinic'
loop_
_space_group_symop_operation_xyz
x,y,z
-x,-y,-z
loop_
_atom_site_type_symbol
_atom_site_label
_atom_site_fract_x
_atom_site_fract_y
_atom_site_fract_z
Si Si1 0.600995 0.394538 0.674260
Si Si2 0.705567 0.314940 0.026674
Si Si3 0.755209 0.624340 0.129911
Si Si4 0.847357 0.626880 0.764077
Si Si5 0.814182 0.157698 0.765376
Si Si6 0.912212 0.149917 0.085955
Si Si7 0.652259 0.817460 0.538318
Si Si8 0.564538 0.845511 0.197701
O O1 0.763045 0.516825 0.383423
O O2 0.465225 0.431573 0.769820
O O3 0.435881 0.283823 0.740951
O O4 0.707738 0.336904 0.820016
O O5 0.814694 0.223698 0.127089
O O6 0.493945 0.216733 0.249228
O O7 0.790432 0.469148 0.902329
O O8 0.840641 0.610939 0.964718
O O9 0.882853 0.784329 0.975842
O O10 0.720974 0.697298 0.657871
O O11 0.054961 0.733992 0.525944
O O12 0.620182 0.158970 0.815949
O O13 0.915195 0.192191 0.858995
O O14 0.754589 0.991215 0.937358
O O15 0.818480 0.977207 0.336122
O O16 0.547187 0.812770 0.418553
#
# Coordination Sequence:
#
# PCOD8024690 Si02
#       8
#     2   2   2   2   2   2   2   2
#     4  11  24  44  72  94 139 179 229 275 338 404
#     4  12  25  46  71  98 139 179 227 280 337 401
#     4  11  27  43  67 104 133 181 224 282 336 400
#     4  12  27  44  70 103 139 175 228 282 336 396
#     4  10  24  44  67 102 135 180 222 282 332 406
#     4  11  26  46  69 101 136 179 229 274 337 403
#     4  11  26  45  70 101 140 177 222 281 343 398
#     4  10  23  43  70  96 138 180 225 269 346 399
#
# _framework density 23.722294000000002
#
# number of rings (size 3 to 8) (size 9 to 14) (size 15 to 20)
#    0.000    1.000    2.500    2.250   10.500    4.000 
#    0.000    0.000    0.000    0.000    0.000    0.000 
#    0.000    0.000    0.000    0.000    0.000    0.000 
#
# Total GULP energy -198265.706564 kJ/mol
# GULP energy per Si atom -12391.606660 kJ/mol
# Density = 2.366830 g / cm^3
# Si number density = 23.722294 Si / 1000 Ang^3
#
#
#
# Elastic Constant Matrix: (Units=GPa)
#
#
# Indices 1 2 3 4 5 6 
#
# 1 32.1608 -2.4204 3.9912 -3.6783 -0.1470 7.4097
# 2 -2.4204 110.7485 38.5259 -8.0287 -4.2011 19.2353
# 3 3.9912 38.5259 132.5614 11.9809 -15.4824 11.9525
# 4 -3.6783 -8.0287 11.9809 30.8084 -0.1174 3.6671
# 5 -0.1470 -4.2011 -15.4824 -0.1174 35.0057 1.2955
# 6 7.4097 19.2353 11.9525 3.6671 1.2955 40.1346
#
#
#
# Elastic Compliance Matrix: (Units=1/GPa)
#
#
# Indices 1 2 3 4 5 6 
#
# 1 0.034142 0.003241 -0.001848 0.006581 0.000030 -0.007908
# 2 0.003241 0.011690 -0.003464 0.005456 0.000113 -0.005672
# 3 -0.001848 -0.003464 0.009526 -0.004751 0.003793 -0.000524
# 4 0.006581 0.005456 -0.004751 0.037197 -0.001080 -0.005779
# 5 0.000030 0.000113 0.003793 -0.001080 0.030331 -0.002070
# 6 -0.007908 -0.005672 -0.000524 -0.005779 -0.002070 0.029845
#
#
# Mechanical properties :
#
#
# Convention : Reuss Voigt Hill
#
# Bulk Modulus (GPa) = 19.52520 39.51822 29.52171
# Shear Modulus (GPa) = 28.74480 36.88136 32.81308
#
# Velocity S-wave (km/s) = 3.48475 3.94726 3.72320
# Velocity P-wave (km/s) = 4.94368 6.12122 5.56369
#
# Compressibility (1/GPa) = 0.05121587
#
# Stress axis : x y z
#
# Youngs Moduli (GPa) = 29.28957 85.54301 104.98102
#
# Poissons Ratio (x) = -0.27723 0.19401
# Poissons Ratio (y) = -0.09492 0.36360
# Poissons Ratio (z) = 0.05413 0.29628
#
# Static dielectric constant tensor:
#      x y z
#    x 4.021930 -0.043280 0.094760 
#    y -0.043280 4.426230 -0.176470 
#    z 0.094760 -0.176470 4.395510 
# 
# 
# High freq. dielectric constant tensor:
#      x y z
#    x 1.933770 0.002780 -0.001890 
#    y 0.002780 1.949320 -0.005280 
#    z -0.001890 -0.005280 1.948320 
# 
# From -- ./inp_files/205533.got.cif
#   From: 2010.06.25/outbox.cif.g09.slc.cpg/sg2_103_cif.got.tgz:205533.got - 2010.06.27 13:26:56.
