data_PCOD8024223
_publ_section_title
;
Structure prediction by ZEFSAII (Michael W. Deem and Ramdas Pophale) SiO2 
 PCOD8024223
Probable space group: P -1
;
_chemical_formula_sum "Si O2"
_cell_formula_units_Z 16
_cell_length_a 11.604599
_cell_length_b 17.324648
_cell_length_c 9.104427
_cell_angle_alpha 133.687102
_cell_angle_beta 58.444715
_cell_angle_gamma 147.229302
_cell_volume 708.676157
_symmetry_space_group_name_H-M "P -1"
_symmetry_group_IT_number 2
_symmetry_cell_setting 'triclinic'
loop_
_space_group_symop_operation_xyz
x,y,z
-x,-y,-z
loop_
_atom_site_type_symbol
_atom_site_label
_atom_site_fract_x
_atom_site_fract_y
_atom_site_fract_z
Si Si1 0.656801 0.510756 0.344502
Si Si2 0.329281 0.708690 0.463947
Si Si3 0.005409 0.174450 0.984361
Si Si4 0.970070 0.183219 0.683788
Si Si5 0.359146 0.132927 0.989085
Si Si6 0.274888 0.140519 0.746411
Si Si7 0.579676 0.058004 0.689964
Si Si8 0.090775 0.425451 0.471411
O O1 0.500000 0.500000 0.500000
O O2 0.785074 0.647001 0.306277
O O3 0.824720 0.570124 0.428897
O O4 0.504071 0.325891 0.142590
O O5 0.470570 0.718110 0.276085
O O6 0.277738 0.611515 0.517728
O O7 0.109977 0.618963 0.417640
O O8 0.472707 0.900405 0.656055
O O9 0.953526 0.185107 0.871847
O O10 0.220236 0.232904 0.912610
O O11 0.025686 0.288490 0.227215
O O12 0.813612 0.979341 0.912411
O O13 0.833930 0.194694 0.712591
O O14 0.880959 0.012260 0.469196
O O15 0.230103 0.053652 0.816855
O O16 0.521775 0.134711 0.898452
O O17 0.500000 0.000000 0.500000
#
# Coordination Sequence:
#
# PCOD8024223 Si02
#       8
#     2   2   2   2   2   2   2   2
#     4  12  28  46  68 102 144 180 229 285 347 409
#     4  10  23  42  74  98 131 186 225 285 343 399
#     4  12  26  43  73 105 136 180 235 282 340 416
#     4  11  26  43  72 101 141 178 230 285 344 407
#     4  12  25  43  74 102 135 187 230 278 350 409
#     4  11  24  46  73  95 143 182 233 275 352 407
#     4  11  21  44  73  98 137 181 233 278 343 411
#     4  11  25  46  71  97 146 177 231 284 349 401
#
# _framework density 22.577307999999999
#
# number of rings (size 3 to 8) (size 9 to 14) (size 15 to 20)
#    0.000    0.750    3.750    3.750    7.000    3.500 
#    0.000    0.000    0.000    0.000    0.000    0.000 
#    0.000    0.000    0.000    0.000    0.000    0.000 
#
# Total GULP energy -198406.127627 kJ/mol
# GULP energy per Si atom -12400.382977 kJ/mol
# Density = 2.252592 g / cm^3
# Si number density = 22.577308 Si / 1000 Ang^3
#
#
#
# Elastic Constant Matrix: (Units=GPa)
#
#
# Indices 1 2 3 4 5 6 
#
# 1 105.0825 27.5419 21.0759 -17.0763 -14.8388 12.9356
# 2 27.5419 141.7400 29.1756 -10.4092 -5.3355 -0.5989
# 3 21.0759 29.1756 72.1751 -4.3533 -8.6103 1.7675
# 4 -17.0763 -10.4092 -4.3533 32.9876 -1.5176 -5.6942
# 5 -14.8388 -5.3355 -8.6103 -1.5176 45.3085 -13.4138
# 6 12.9356 -0.5989 1.7675 -5.6942 -13.4138 34.6044
#
#
#
# Elastic Compliance Matrix: (Units=1/GPa)
#
#
# Indices 1 2 3 4 5 6 
#
# 1 0.011837 -0.001378 -0.002204 0.005109 0.002747 -0.002431
# 2 -0.001378 0.008028 -0.002724 0.001690 0.000396 0.001225
# 3 -0.002204 -0.002724 0.015867 0.000352 0.002250 0.000896
# 4 0.005109 0.001690 0.000352 0.034738 0.004781 0.005671
# 5 0.002747 0.000396 0.002250 0.004781 0.026549 0.009943
# 6 -0.002431 0.001225 0.000896 0.005671 0.009943 0.034569
#
#
# Mechanical properties :
#
#
# Convention : Reuss Voigt Hill
#
# Bulk Modulus (GPa) = 43.25133 52.73161 47.99147
# Shear Modulus (GPa) = 32.91512 38.66036 35.78774
#
# Velocity S-wave (km/s) = 3.82237 4.14255 3.98568
# Velocity P-wave (km/s) = 6.21926 6.80351 6.51793
#
# Compressibility (1/GPa) = 0.02312068
#
# Stress axis : x y z
#
# Youngs Moduli (GPa) = 84.48187 124.56827 63.02214
#
# Poissons Ratio (x) = 0.17166 0.13891
# Poissons Ratio (y) = 0.11642 0.17164
# Poissons Ratio (z) = 0.18620 0.33927
#
# Static dielectric constant tensor:
#      x y z
#    x 4.273910 0.025680 -0.232610 
#    y 0.025680 4.295300 -0.048110 
#    z -0.232610 -0.048110 3.866220 
# 
# 
# High freq. dielectric constant tensor:
#      x y z
#    x 1.903300 0.001220 -0.013650 
#    y 0.001220 1.901140 -0.011290 
#    z -0.013650 -0.011290 1.872610 
# 
# From -- ./inp_files/279107.got.cif
#   From: 2010.06.25/outbox.cif.g09.slc.cpg/sg2_140_cif.got.tgz:279107.got - 2010.06.27 13:26:56.
