data_PCOD8024085
_publ_section_title
;
Structure prediction by ZEFSAII (Michael W. Deem and Ramdas Pophale) SiO2 
 PCOD8024085
Probable space group: P -1
;
_chemical_formula_sum "Si O2"
_cell_formula_units_Z 16
_cell_length_a 26.385262
_cell_length_b 16.300927
_cell_length_c 10.997364
_cell_angle_alpha 34.701999
_cell_angle_beta 23.182785
_cell_angle_gamma 23.291898
_cell_volume 728.746479
_symmetry_space_group_name_H-M "P -1"
_symmetry_group_IT_number 2
_symmetry_cell_setting 'triclinic'
loop_
_space_group_symop_operation_xyz
x,y,z
-x,-y,-z
loop_
_atom_site_type_symbol
_atom_site_label
_atom_site_fract_x
_atom_site_fract_y
_atom_site_fract_z
Si Si1 0.410748 0.655478 0.739631
Si Si2 0.662925 0.586308 0.900413
Si Si3 0.041531 0.628836 0.860488
Si Si4 0.062876 0.890034 0.366978
Si Si5 0.314183 0.238244 0.584998
Si Si6 0.835248 0.303325 0.258601
Si Si7 0.401316 0.934557 0.252183
Si Si8 0.014055 0.642090 0.358611
O O1 0.617214 0.461968 0.570580
O O2 0.395927 0.824232 0.506995
O O3 0.355525 0.572431 0.869074
O O4 0.275358 0.763023 0.023928
O O5 0.628991 0.674732 0.732386
O O6 0.868723 0.460757 0.649901
O O7 0.507041 0.781417 0.092248
O O8 0.046819 0.731224 0.606454
O O9 0.204398 0.379293 0.777264
O O10 0.077499 0.669263 0.861997
O O11 0.831527 0.739234 0.198101
O O12 0.000000 0.000000 0.500000
O O13 0.928289 0.068269 0.343483
O O14 0.500000 0.000000 0.500000
O O15 0.873963 0.340510 0.997382
O O16 0.191418 0.135997 0.426268
O O17 0.500000 0.000000 0.000000
O O18 0.000000 0.500000 0.500000
#
# Coordination Sequence:
#
# PCOD8024085 Si02
#       8
#     2   2   2   2   2   2   2   2
#     4  12  25  46  71 108 147 182 242 292 357 423
#     4  12  27  46  71 108 145 184 239 297 355 429
#     4  10  24  45  67 105 136 182 239 286 350 425
#     4  10  23  42  70 103 137 183 231 287 347 422
#     4  11  26  45  71  99 141 185 234 291 358 418
#     4  11  24  42  74  99 141 185 231 291 352 421
#     4  12  26  44  73 105 140 191 237 285 357 428
#     4  12  24  45  71 102 143 187 235 293 353 419
#
# _framework density 21.95551
#
# number of rings (size 3 to 8) (size 9 to 14) (size 15 to 20)
#    0.000    0.750    5.000    1.125    1.750    9.500 
#    0.000    0.000    0.000    0.000    0.000    0.000 
#    0.000    0.000    0.000    0.000    0.000    0.000 
#
# Total GULP energy -198425.779995 kJ/mol
# GULP energy per Si atom -12401.611250 kJ/mol
# Density = 2.190554 g / cm^3
# Si number density = 21.955510 Si / 1000 Ang^3
#
#
#
# Elastic Constant Matrix: (Units=GPa)
#
#
# Indices 1 2 3 4 5 6 
#
# 1 77.4655 32.8511 21.1678 6.1247 -9.5689 4.7668
# 2 32.8511 141.8549 54.0417 21.6028 -10.7495 -7.9560
# 3 21.1678 54.0417 119.7038 14.4598 -0.0443 1.6177
# 4 6.1247 21.6028 14.4598 58.7338 -1.5611 -1.5604
# 5 -9.5689 -10.7495 -0.0443 -1.5611 38.7515 0.6322
# 6 4.7668 -7.9560 1.6177 -1.5604 0.6322 39.8549
#
#
#
# Elastic Compliance Matrix: (Units=1/GPa)
#
#
# Indices 1 2 3 4 5 6 
#
# 1 0.015001 -0.002859 -0.001308 -0.000175 0.002941 -0.002365
# 2 -0.002859 0.009712 -0.003636 -0.002268 0.001855 0.002310
# 3 -0.001308 -0.003636 0.010378 -0.001144 -0.001349 -0.001014
# 4 -0.000175 -0.002268 -0.001144 0.018170 0.000053 0.000325
# 5 0.002941 0.001855 -0.001349 0.000053 0.027053 -0.000354
# 6 -0.002365 0.002310 -0.001014 0.000325 -0.000354 0.025895
#
#
# Mechanical properties :
#
#
# Convention : Reuss Voigt Hill
#
# Bulk Modulus (GPa) = 51.31659 61.68282 56.49971
# Shear Modulus (GPa) = 38.96828 42.86561 40.91695
#
# Velocity S-wave (km/s) = 4.21750 4.42337 4.32166
# Velocity P-wave (km/s) = 6.86587 7.36504 7.11983
#
# Compressibility (1/GPa) = 0.01948687
#
# Stress axis : x y z
#
# Youngs Moduli (GPa) = 66.66009 102.96396 96.35772
#
# Poissons Ratio (x) = 0.29436 0.12602
# Poissons Ratio (y) = 0.19057 0.35032
# Poissons Ratio (z) = 0.08718 0.37434
#
# Static dielectric constant tensor:
#      x y z
#    x 3.701020 0.032670 -0.042150 
#    y 0.032670 5.645580 -0.948810 
#    z -0.042150 -0.948810 4.859650 
# 
# 
# High freq. dielectric constant tensor:
#      x y z
#    x 1.843760 0.002440 0.003460 
#    y 0.002440 1.886190 0.001840 
#    z 0.003460 0.001840 1.880910 
# 
# From -- ./inp_files/477715.got.cif
#   From: 2010.06.25/outbox.cif.g09.slc.cpg/sg2_239_cif.got.tgz:477715.got - 2010.06.27 13:26:56.
