data_PCOD8024689
_publ_section_title
;
Structure prediction by ZEFSAII (Michael W. Deem and Ramdas Pophale) SiO2 
 PCOD8024689
Probable space group: P -1
;
_chemical_formula_sum "Si O2"
_cell_formula_units_Z 14
_cell_length_a 8.597980
_cell_length_b 5.042236
_cell_length_c 21.475000
_cell_angle_alpha 121.734553
_cell_angle_beta 49.412447
_cell_angle_gamma 123.909849
_cell_volume 566.798074
_symmetry_space_group_name_H-M "P -1"
_symmetry_group_IT_number 2
_symmetry_cell_setting 'triclinic'
loop_
_space_group_symop_operation_xyz
x,y,z
-x,-y,-z
loop_
_atom_site_type_symbol
_atom_site_label
_atom_site_fract_x
_atom_site_fract_y
_atom_site_fract_z
Si Si1 0.988686 0.723593 0.788233
Si Si2 0.479454 0.353639 0.055050
Si Si3 0.265554 0.226871 0.525747
Si Si4 0.176613 0.168335 0.679037
Si Si5 0.349271 0.216102 0.829375
Si Si6 0.467789 0.344659 0.276709
Si Si7 0.099568 0.605618 0.421022
O O1 0.739604 0.686586 0.855139
O O2 0.004246 0.361278 0.746672
O O3 0.089974 0.869169 0.713208
O O4 0.116684 0.952718 0.840217
O O5 0.667899 0.614928 0.079177
O O6 0.500000 0.500000 0.000000
O O7 0.500000 0.000000 0.000000
O O8 0.500000 0.500000 0.500000
O O9 0.210220 0.040876 0.584955
O O10 0.079907 0.393023 0.583012
O O11 0.265164 0.980285 0.437828
O O12 0.412470 0.421257 0.668523
O O13 0.409050 0.513209 0.801349
O O14 0.530022 0.028100 0.759942
O O15 0.222493 0.353613 0.335792
O O16 0.000000 0.500000 0.500000
#
# Coordination Sequence:
#
# PCOD8024689 Si02
#       7
#     2   2   2   2   2   2   2
#     4  10  24  45  68 103 133 181 232 273 346 415
#     4  12  26  44  71 107 139 175 224 278 347 425
#     4  11  27  44  66 101 144 190 240 301 357 404
#     4  10  23  43  71  97 137 187 236 286 338 415
#     4  10  24  45  69  99 135 179 217 287 336 410
#     4  10  23  43  70  96 137 178 238 280 346 405
#     4  11  27  42  65 100 137 190 239 295 359 413
#
# _framework density 24.700153
#
# number of rings (size 3 to 8) (size 9 to 14) (size 15 to 20)
#    0.000    1.429    0.000    2.571   14.000    2.286 
#    0.000    0.000    0.000    0.000    0.000    0.000 
#    0.000    0.000    0.000    0.000    0.000    0.000 
#
# Total GULP energy -173633.404941 kJ/mol
# GULP energy per Si atom -12402.386067 kJ/mol
# Density = 2.464393 g / cm^3
# Si number density = 24.700153 Si / 1000 Ang^3
#
#
#
# Elastic Constant Matrix: (Units=GPa)
#
#
# Indices 1 2 3 4 5 6 
#
# 1 115.2110 30.4773 31.2600 12.5851 11.7020 -6.9759
# 2 30.4773 80.4315 22.6444 12.2372 7.1444 -4.0422
# 3 31.2600 22.6444 85.0779 17.3675 21.9775 7.0854
# 4 12.5851 12.2372 17.3675 44.6296 -1.5012 0.9364
# 5 11.7020 7.1444 21.9775 -1.5012 55.3518 1.7579
# 6 -6.9759 -4.0422 7.0854 0.9364 1.7579 41.8373
#
#
#
# Elastic Compliance Matrix: (Units=1/GPa)
#
#
# Indices 1 2 3 4 5 6 
#
# 1 0.010533 -0.002842 -0.002830 -0.001160 -0.000832 0.002022
# 2 -0.002842 0.014646 -0.002378 -0.002334 -0.000453 0.001415
# 3 -0.002830 -0.002378 0.016123 -0.004945 -0.005532 -0.003089
# 4 -0.001160 -0.002334 -0.004945 0.025412 0.003208 -0.000285
# 5 -0.000832 -0.000453 -0.005532 0.003208 0.020590 -0.000183
# 6 0.002022 0.001415 -0.003089 -0.000285 -0.000183 0.024913
#
#
# Mechanical properties :
#
#
# Convention : Reuss Voigt Hill
#
# Bulk Modulus (GPa) = 39.68242 49.94266 44.81254
# Shear Modulus (GPa) = 36.57136 41.45299 39.01218
#
# Velocity S-wave (km/s) = 3.85205 4.10109 3.97852
# Velocity P-wave (km/s) = 5.99040 6.53366 6.26792
#
# Compressibility (1/GPa) = 0.02520008
#
# Stress axis : x y z
#
# Youngs Moduli (GPa) = 94.93759 68.27801 62.02431
#
# Poissons Ratio (x) = 0.19408 0.17555
# Poissons Ratio (y) = 0.26986 0.14750
# Poissons Ratio (z) = 0.26871 0.16237
#
# Static dielectric constant tensor:
#      x y z
#    x 4.008810 1.513640 1.956940 
#    y 1.513640 2.827000 -2.126410 
#    z 1.956940 -2.126410 1.098330 
# 
# 
# High freq. dielectric constant tensor:
#      x y z
#    x 2.000690 -0.001660 0.018530 
#    y -0.001660 1.996650 0.017060 
#    z 0.018530 0.017060 1.964030 
# 
# From -- ./inp_files/585908.got.cif
#   From: 2010.06.25/outbox.cif.g09.slc.cpg/sg2_293_cif.got.tgz:585908.got - 2010.06.27 13:26:56.
