data_PCOD8024027
_publ_section_title
;
Structure prediction by ZEFSAII (Michael W. Deem and Ramdas Pophale) SiO2 
 PCOD8024027
Probable space group: P -1
;
_chemical_formula_sum "Si O2"
_cell_formula_units_Z 16
_cell_length_a 18.809253
_cell_length_b 9.366056
_cell_length_c 7.884037
_cell_angle_alpha 62.846362
_cell_angle_beta 48.064494
_cell_angle_gamma 43.513119
_cell_volume 710.303672
_symmetry_space_group_name_H-M "P -1"
_symmetry_group_IT_number 2
_symmetry_cell_setting 'triclinic'
loop_
_space_group_symop_operation_xyz
x,y,z
-x,-y,-z
loop_
_atom_site_type_symbol
_atom_site_label
_atom_site_fract_x
_atom_site_fract_y
_atom_site_fract_z
Si Si1 0.654734 0.099406 0.783944
Si Si2 0.404320 0.421004 0.133587
Si Si3 0.478170 0.205771 0.476803
Si Si4 0.850890 0.299988 0.007050
Si Si5 0.369022 0.723225 0.624720
Si Si6 0.345010 0.273015 0.996262
Si Si7 0.810244 0.112728 0.764349
Si Si8 0.023096 0.906092 0.752122
O O1 0.677627 0.122074 0.542899
O O2 0.776496 0.005231 0.750583
O O3 0.545517 0.326309 0.919291
O O4 0.626959 0.943163 0.933374
O O5 0.393440 0.376249 0.371498
O O6 0.308536 0.661050 0.101734
O O7 0.392127 0.285881 0.094819
O O8 0.605433 0.175910 0.315099
O O9 0.411821 0.285656 0.721819
O O10 0.500000 0.000000 0.500000
O O11 0.740236 0.287295 0.161480
O O12 0.799905 0.526212 0.902104
O O13 0.895807 0.276321 0.141650
O O14 0.971694 0.125649 0.799661
O O15 0.500000 0.500000 0.500000
O O16 0.889882 0.159650 0.510999
O O17 0.897115 0.949429 0.865324
#
# Coordination Sequence:
#
# PCOD8024027 Si02
#       8
#     2   2   2   2   2   2   2   2
#     4  12  24  41  67 103 142 167 214 283 342 403
#     4  12  23  41  70  98 136 178 213 273 339 402
#     4  12  24  39  62  99 145 174 206 264 338 409
#     4  11  22  44  70  94 128 181 224 277 328 393
#     4  12  23  41  69 102 132 173 225 271 330 407
#     4  12  24  45  64 102 142 178 211 270 353 403
#     4  11  23  42  65 101 123 174 234 277 321 395
#     4  10  23  42  69  90 128 174 238 278 317 379
#
# _framework density 22.525575
#
# number of rings (size 3 to 8) (size 9 to 14) (size 15 to 20)
#    0.000    0.500    6.250    3.000    1.750    0.000 
#    0.000    1.250    0.000    0.000    0.000    0.000 
#    0.000    0.000    0.000    0.000    0.000    0.000 
#
# Total GULP energy -198256.222849 kJ/mol
# GULP energy per Si atom -12391.013928 kJ/mol
# Density = 2.247431 g / cm^3
# Si number density = 22.525575 Si / 1000 Ang^3
#
#
#
# Elastic Constant Matrix: (Units=GPa)
#
#
# Indices 1 2 3 4 5 6 
#
# 1 183.8643 29.2206 20.1091 -5.7355 9.9598 -10.8354
# 2 29.2206 65.1666 14.4076 1.0450 -8.3508 -8.5735
# 3 20.1091 14.4076 46.5510 -2.0184 11.9511 0.7410
# 4 -5.7355 1.0450 -2.0184 26.3130 -3.4122 0.6413
# 5 9.9598 -8.3508 11.9511 -3.4122 35.9314 -0.7373
# 6 -10.8354 -8.5735 0.7410 0.6413 -0.7373 30.4345
#
#
#
# Elastic Compliance Matrix: (Units=1/GPa)
#
#
# Indices 1 2 3 4 5 6 
#
# 1 0.006207 -0.002502 -0.001451 0.001086 -0.001686 0.001477
# 2 -0.002502 0.019695 -0.007100 -0.001004 0.007640 0.005036
# 3 -0.001451 -0.007100 0.027022 0.000796 -0.010231 -0.003439
# 4 0.001086 -0.001004 0.000796 0.038729 0.002865 -0.000662
# 5 -0.001686 0.007640 -0.010231 0.002865 0.033801 0.002560
# 6 0.001477 0.005036 -0.003439 -0.000662 0.002560 0.034962
#
#
# Mechanical properties :
#
#
# Convention : Reuss Voigt Hill
#
# Bulk Modulus (GPa) = 32.44782 47.00630 39.72706
# Shear Modulus (GPa) = 25.93448 33.99210 29.96329
#
# Velocity S-wave (km/s) = 3.39681 3.88886 3.65113
# Velocity P-wave (km/s) = 5.46083 6.40918 5.95391
#
# Compressibility (1/GPa) = 0.03081871
#
# Stress axis : x y z
#
# Youngs Moduli (GPa) = 161.10056 50.77544 37.00737
#
# Poissons Ratio (x) = 0.12703 0.05368
# Poissons Ratio (y) = 0.40304 0.26275
# Poissons Ratio (z) = 0.23370 0.36050
#
# Static dielectric constant tensor:
#      x y z
#    x 4.869260 -0.441680 0.170760 
#    y -0.441680 4.052910 0.150130 
#    z 0.170760 0.150130 4.011820 
# 
# 
# High freq. dielectric constant tensor:
#      x y z
#    x 1.917820 -0.016770 0.025500 
#    y -0.016770 1.867290 0.010620 
#    z 0.025500 0.010620 1.872340 
# 
# From -- ./inp_files/327406.got.cif
#   From: 2010.06.25/outbox.cif.g09.slc.cpg/sg2_164_cif.got.tgz:327406.got - 2010.06.27 13:26:56.
