data_PCOD8024231
_publ_section_title
;
Structure prediction by ZEFSAII (Michael W. Deem and Ramdas Pophale) SiO2 
 PCOD8024231
Probable space group: P -1
;
_chemical_formula_sum "Si O2"
_cell_formula_units_Z 12
_cell_length_a 18.494528
_cell_length_b 17.188820
_cell_length_c 6.304389
_cell_angle_alpha 50.699252
_cell_angle_beta 128.087945
_cell_angle_gamma 157.686238
_cell_volume 585.569241
_symmetry_space_group_name_H-M "P -1"
_symmetry_group_IT_number 2
_symmetry_cell_setting 'triclinic'
loop_
_space_group_symop_operation_xyz
x,y,z
-x,-y,-z
loop_
_atom_site_type_symbol
_atom_site_label
_atom_site_fract_x
_atom_site_fract_y
_atom_site_fract_z
Si Si1 0.515820 0.702102 0.002028
Si Si2 0.208388 0.682766 0.976842
Si Si3 0.673530 0.407631 0.747923
Si Si4 0.892504 0.950362 0.197432
Si Si5 0.537647 0.906010 0.412284
Si Si6 0.201906 0.318115 0.813178
O O1 0.537023 0.840186 0.738987
O O2 0.406739 0.526736 0.939328
O O3 0.386165 0.578548 0.191340
O O4 0.724405 0.856229 0.156557
O O5 0.216998 0.592032 0.995493
O O6 0.350953 0.800182 0.234246
O O7 0.000000 0.500000 0.000000
O O8 0.272275 0.843616 0.686333
O O9 0.477057 0.189207 0.643319
O O10 0.820548 0.609660 0.512719
O O11 0.799999 0.784988 0.148233
O O12 0.000000 0.000000 0.500000
O O13 0.035486 0.159808 0.962780
#
# Coordination Sequence:
#
# PCOD8024231 Si02
#       6
#     2   2   2   2   2   2
#     4  11  22  40  64  90 124 160 202 253 296 362
#     4   9  18  39  61  84 123 159 193 246 300 358
#     4   9  20  38  61  90 118 157 202 244 300 355
#     4  11  25  41  62  91 122 161 208 247 304 359
#     4   8  20  37  57  88 120 159 196 239 307 354
#     4  10  23  43  60  88 125 159 205 247 307 359
#
# _framework density 20.49288
#
# number of rings (size 3 to 8) (size 9 to 14) (size 15 to 20)
#    1.000    1.333    0.000    1.500    2.333    8.667 
#    3.000    0.833    0.000    0.000    0.000    0.000 
#    0.000    0.000    0.000    0.000    0.000    0.000 
#
# Total GULP energy -148674.204383 kJ/mol
# GULP energy per Si atom -12389.517032 kJ/mol
# Density = 2.044624 g / cm^3
# Si number density = 20.492880 Si / 1000 Ang^3
#
#
#
# Elastic Constant Matrix: (Units=GPa)
#
#
# Indices 1 2 3 4 5 6 
#
# 1 110.9187 48.5868 46.2907 -6.4656 -5.2562 20.7287
# 2 48.5868 109.6218 59.6948 -26.3988 4.5231 17.2957
# 3 46.2907 59.6948 116.7599 -22.0840 -4.6383 6.6766
# 4 -6.4656 -26.3988 -22.0840 35.2072 0.1081 4.0462
# 5 -5.2562 4.5231 -4.6383 0.1081 24.7427 -0.5398
# 6 20.7287 17.2957 6.6766 4.0462 -0.5398 29.0536
#
#
#
# Elastic Compliance Matrix: (Units=1/GPa)
#
#
# Indices 1 2 3 4 5 6 
#
# 1 0.013122 -0.003580 -0.003207 -0.001579 0.002712 -0.006224
# 2 -0.003580 0.017587 -0.005402 0.010097 -0.005211 -0.008177
# 3 -0.003207 -0.005402 0.013241 0.003423 0.002818 0.002037
# 4 -0.001579 0.010097 0.003423 0.039119 -0.001954 -0.011155
# 5 0.002712 -0.005211 0.002818 -0.001954 0.042516 0.001582
# 6 -0.006224 -0.008177 0.002037 -0.011155 0.001582 0.044842
#
#
# Mechanical properties :
#
#
# Convention : Reuss Voigt Hill
#
# Bulk Modulus (GPa) = 51.09326 71.82720 61.46023
# Shear Modulus (GPa) = 24.83493 29.98258 27.40875
#
# Velocity S-wave (km/s) = 3.48498 3.82916 3.66112
# Velocity P-wave (km/s) = 6.41715 7.39432 6.92300
#
# Compressibility (1/GPa) = 0.01957205
#
# Stress axis : x y z
#
# Youngs Moduli (GPa) = 76.21020 56.85910 75.52323
#
# Poissons Ratio (x) = 0.20353 0.24222
# Poissons Ratio (y) = 0.27280 0.40799
# Poissons Ratio (z) = 0.24442 0.30716
#
# Static dielectric constant tensor:
#      x y z
#    x 3.370080 -0.142180 0.036080 
#    y -0.142180 3.690650 -0.275500 
#    z 0.036080 -0.275500 3.788960 
# 
# 
# High freq. dielectric constant tensor:
#      x y z
#    x 1.777350 -0.007790 0.005080 
#    y -0.007790 1.799450 -0.024900 
#    z 0.005080 -0.024900 1.795920 
# 
# From -- ./inp_files/6254.got.cif
#   From: 2010.06.25/outbox.cif.g09.slc.cpg/sg2_4_cif.got.tgz:6254.got - 2010.06.27 13:26:56.
