data_PCOD8024382
_publ_section_title
;
Structure prediction by ZEFSAII (Michael W. Deem and Ramdas Pophale) SiO2 
 PCOD8024382
Probable space group: P -1
;
_chemical_formula_sum "Si O2"
_cell_formula_units_Z 12
_cell_length_a 8.486899
_cell_length_b 12.168778
_cell_length_c 12.243335
_cell_angle_alpha 148.060206
_cell_angle_beta 85.926459
_cell_angle_gamma 113.360623
_cell_volume 514.243830
_symmetry_space_group_name_H-M "P -1"
_symmetry_group_IT_number 2
_symmetry_cell_setting 'triclinic'
loop_
_space_group_symop_operation_xyz
x,y,z
-x,-y,-z
loop_
_atom_site_type_symbol
_atom_site_label
_atom_site_fract_x
_atom_site_fract_y
_atom_site_fract_z
Si Si1 0.663037 0.493387 0.201031
Si Si2 0.587633 0.794406 0.313687
Si Si3 0.760210 0.278884 0.842618
Si Si4 0.017131 0.370550 0.284478
Si Si5 0.921470 0.158579 0.424106
Si Si6 0.746749 0.831747 0.937138
O O1 0.583761 0.550867 0.144793
O O2 0.872118 0.763792 0.467753
O O3 0.701749 0.296264 0.983560
O O4 0.494420 0.344660 0.178854
O O5 0.357034 0.680407 0.209166
O O6 0.685098 0.982241 0.575748
O O7 0.727876 0.956668 0.339308
O O8 0.000000 0.500000 0.000000
O O9 0.040270 0.558592 0.345616
O O10 0.000000 0.500000 0.500000
O O11 0.814808 0.050745 0.022577
O O12 0.209153 0.370016 0.270345
O O13 0.880815 0.007862 0.185243
#
# Coordination Sequence:
#
# PCOD8024382 Si02
#       6
#     2   2   2   2   2   2
#     4  12  25  38  63  96 129 168 208 251 310 373
#     4  11  25  39  60  95 132 165 211 253 302 375
#     4  11  24  40  61  90 131 175 204 250 305 366
#     4   9  22  45  67  88 121 162 212 264 315 368
#     4  11  23  40  64  94 126 166 210 255 309 372
#     4  10  23  43  66  89 123 165 208 267 312 360
#
# _framework density 23.335232999999999
#
# number of rings (size 3 to 8) (size 9 to 14) (size 15 to 20)
#    0.000    1.333    3.333    1.000    4.667    2.000 
#    0.000    7.500    0.000    0.000    0.000    0.000 
#    0.000    0.000    0.000    0.000    0.000    0.000 
#
# Total GULP energy -148711.017667 kJ/mol
# GULP energy per Si atom -12392.584806 kJ/mol
# Density = 2.328212 g / cm^3
# Si number density = 23.335233 Si / 1000 Ang^3
#
#
#
# Elastic Constant Matrix: (Units=GPa)
#
#
# Indices 1 2 3 4 5 6 
#
# 1 118.1473 47.1446 52.2853 17.3109 3.9595 26.7270
# 2 47.1446 85.9203 30.7745 28.3690 -6.5278 20.3001
# 3 52.2853 30.7745 93.6528 -0.3408 1.5591 18.2992
# 4 17.3109 28.3690 -0.3408 41.6729 6.9554 -6.1779
# 5 3.9595 -6.5278 1.5591 6.9554 54.0899 1.4433
# 6 26.7270 20.3001 18.2992 -6.1779 1.4433 51.0006
#
#
#
# Elastic Compliance Matrix: (Units=1/GPa)
#
#
# Indices 1 2 3 4 5 6 
#
# 1 0.013989 -0.003121 -0.005917 -0.004304 -0.000557 -0.004471
# 2 -0.003121 0.022444 -0.004241 -0.016075 0.005337 -0.007874
# 3 -0.005917 -0.004241 0.015420 0.005677 -0.001253 -0.000021
# 4 -0.004304 -0.016075 0.005677 0.039700 -0.007204 0.011630
# 5 -0.000557 0.005337 -0.001253 -0.007204 0.020210 -0.002827
# 6 -0.004471 -0.007874 -0.000021 0.011630 -0.002827 0.026581
#
#
# Mechanical properties :
#
#
# Convention : Reuss Voigt Hill
#
# Bulk Modulus (GPa) = 39.53476 62.01435 50.77455
# Shear Modulus (GPa) = 28.84586 40.52043 34.68314
#
# Velocity S-wave (km/s) = 3.51971 4.17159 3.85944
# Velocity P-wave (km/s) = 5.78763 7.05946 6.45495
#
# Compressibility (1/GPa) = 0.02529420
#
# Stress axis : x y z
#
# Youngs Moduli (GPa) = 71.48613 44.55568 64.84922
#
# Poissons Ratio (x) = 0.13906 0.38371
# Poissons Ratio (y) = 0.22311 0.27505
# Poissons Ratio (z) = 0.42298 0.18898
#
# Static dielectric constant tensor:
#      x y z
#    x 4.348650 0.071260 -0.371680 
#    y 0.071260 4.217810 0.057730 
#    z -0.371680 0.057730 4.502440 
# 
# 
# High freq. dielectric constant tensor:
#      x y z
#    x 1.920570 0.021920 -0.013830 
#    y 0.021920 1.912390 0.000960 
#    z -0.013830 0.000960 1.932270 
# 
# From -- ./inp_files/504635.got.cif
#   From: 2010.06.25/outbox.cif.g09.slc.cpg/sg2_253_cif.got.tgz:504635.got - 2010.06.27 13:26:56.
