data_PCOD8024139
_publ_section_title
;
Structure prediction by ZEFSAII (Michael W. Deem and Ramdas Pophale) SiO2 
 PCOD8024139
Probable space group: P -1
;
_chemical_formula_sum "Si O2"
_cell_formula_units_Z 16
_cell_length_a 14.886708
_cell_length_b 8.782467
_cell_length_c 8.802876
_cell_angle_alpha 70.960645
_cell_angle_beta 78.562859
_cell_angle_gamma 130.210078
_cell_volume 684.717171
_symmetry_space_group_name_H-M "P -1"
_symmetry_group_IT_number 2
_symmetry_cell_setting 'triclinic'
loop_
_space_group_symop_operation_xyz
x,y,z
-x,-y,-z
loop_
_atom_site_type_symbol
_atom_site_label
_atom_site_fract_x
_atom_site_fract_y
_atom_site_fract_z
Si Si1 0.292062 0.218203 0.001598
Si Si2 0.013523 0.859174 0.639895
Si Si3 0.536723 0.396566 0.704438
Si Si4 0.718168 0.313684 0.421166
Si Si5 0.700076 0.466059 0.891034
Si Si6 0.593629 0.053865 0.255421
Si Si7 0.144720 0.777789 0.410360
Si Si8 0.209992 0.236325 0.710250
O O1 0.459809 0.422448 0.831634
O O2 0.201270 0.144502 0.908343
O O3 0.285420 0.348994 0.083743
O O4 0.224597 0.966555 0.179529
O O5 0.114994 0.867418 0.522287
O O6 0.851907 0.576656 0.802079
O O7 0.079305 0.989378 0.738798
O O8 0.000000 0.000000 0.500000
O O9 0.646628 0.431778 0.750456
O O10 0.636500 0.605637 0.470118
O O11 0.401095 0.109486 0.781425
O O12 0.724183 0.249168 0.268159
O O13 0.754739 0.226179 0.557555
O O14 0.814263 0.603069 0.316155
O O15 0.557975 0.159782 0.541807
O O16 0.589477 0.197622 0.094561
O O17 0.000000 0.500000 0.500000
#
# Coordination Sequence:
#
# PCOD8024139 Si02
#       8
#     2   2   2   2   2   2   2   2
#     4  12  26  44  70 109 134 180 235 285 346 407
#     4  12  25  47  70  98 138 186 230 280 348 400
#     4  11  24  41  73 103 144 175 227 289 347 406
#     4  10  23  46  71 101 142 182 225 285 350 403
#     4  12  24  45  70 101 140 184 231 283 342 416
#     4  10  23  42  71 104 138 181 228 285 346 411
#     4  12  28  46  72  98 143 185 233 284 340 414
#     4  11  24  47  74 101 143 182 225 285 342 417
#
# _framework density 23.367311999999998
#
# number of rings (size 3 to 8) (size 9 to 14) (size 15 to 20)
#    0.000    0.750    3.750    2.625    5.250    2.500 
#    0.000    1.250    0.000    0.000    0.000    0.000 
#    0.000    0.000    0.000    0.000    0.000    0.000 
#
# Total GULP energy -198424.149778 kJ/mol
# GULP energy per Si atom -12401.509361 kJ/mol
# Density = 2.331413 g / cm^3
# Si number density = 23.367312 Si / 1000 Ang^3
#
#
#
# Elastic Constant Matrix: (Units=GPa)
#
#
# Indices 1 2 3 4 5 6 
#
# 1 84.2421 11.7378 25.5382 4.9268 11.2333 -5.0502
# 2 11.7378 98.4585 21.5278 10.6605 6.9356 8.1913
# 3 25.5382 21.5278 89.0361 8.3000 16.2446 -3.2559
# 4 4.9268 10.6605 8.3000 29.6997 3.1776 2.6564
# 5 11.2333 6.9356 16.2446 3.1776 43.2886 0.2276
# 6 -5.0502 8.1913 -3.2559 2.6564 0.2276 24.8521
#
#
#
# Elastic Compliance Matrix: (Units=1/GPa)
#
#
# Indices 1 2 3 4 5 6 
#
# 1 0.013432 -0.000899 -0.003045 -0.001073 -0.002135 0.002761
# 2 -0.000899 0.011443 -0.002289 -0.002912 -0.000507 -0.003938
# 3 -0.003045 -0.002289 0.013646 -0.002276 -0.003808 0.002202
# 4 -0.001073 -0.002912 -0.002276 0.035942 -0.001021 -0.003389
# 5 -0.002135 -0.000507 -0.003808 -0.001021 0.025245 -0.000888
# 6 0.002761 -0.003938 0.002202 -0.003389 -0.000888 0.042756
#
#
# Mechanical properties :
#
#
# Convention : Reuss Voigt Hill
#
# Bulk Modulus (GPa) = 38.38013 43.26047 40.82030
# Shear Modulus (GPa) = 30.55985 33.76361 32.16173
#
# Velocity S-wave (km/s) = 3.62028 3.80532 3.71395
# Velocity P-wave (km/s) = 5.82543 6.15310 5.99151
#
# Compressibility (1/GPa) = 0.02605515
#
# Stress axis : x y z
#
# Youngs Moduli (GPa) = 74.45043 87.39091 73.28283
#
# Poissons Ratio (x) = 0.07853 0.22314
# Poissons Ratio (y) = 0.06691 0.16775
# Poissons Ratio (z) = 0.22669 0.20004
#
# Static dielectric constant tensor:
#      x y z
#    x 4.334700 -0.083840 -0.188960 
#    y -0.083840 4.660210 0.211830 
#    z -0.188960 0.211830 4.433750 
# 
# 
# High freq. dielectric constant tensor:
#      x y z
#    x 1.913360 -0.001170 0.006410 
#    y -0.001170 1.936320 0.011830 
#    z 0.006410 0.011830 1.925170 
# 
# From -- ./inp_files/297890.got.cif
#   From: 2010.06.25/outbox.cif.g09.slc.cpg/sg2_149_cif.got.tgz:297890.got - 2010.06.27 13:26:56.
