data_PCOD8024951
_publ_section_title
;
Structure prediction by ZEFSAII (Michael W. Deem and Ramdas Pophale) SiO2 
 PCOD8024951
Probable space group: P -1
;
_chemical_formula_sum "Si O2"
_cell_formula_units_Z 16
_cell_length_a 9.204024
_cell_length_b 17.983282
_cell_length_c 7.000653
_cell_angle_alpha 121.231712
_cell_angle_beta 129.363928
_cell_angle_gamma 58.380488
_cell_volume 731.795158
_symmetry_space_group_name_H-M "P -1"
_symmetry_group_IT_number 2
_symmetry_cell_setting 'triclinic'
loop_
_space_group_symop_operation_xyz
x,y,z
-x,-y,-z
loop_
_atom_site_type_symbol
_atom_site_label
_atom_site_fract_x
_atom_site_fract_y
_atom_site_fract_z
Si Si1 0.033557 0.825477 0.025506
Si Si2 0.183145 0.037996 0.683771
Si Si3 0.841755 0.653847 0.105483
Si Si4 0.561750 0.132578 0.487040
Si Si5 0.773717 0.845119 0.483079
Si Si6 0.418138 0.321685 0.444483
Si Si7 0.194833 0.466664 0.741178
Si Si8 0.192129 0.646946 0.143108
O O1 0.235784 0.853190 0.242068
O O2 0.065507 0.724538 0.998720
O O3 0.844307 0.892634 0.069402
O O4 0.965415 0.825618 0.751587
O O5 0.184616 0.089640 0.555694
O O6 0.380178 0.951017 0.729299
O O7 0.000000 0.000000 0.500000
O O8 0.753007 0.751980 0.255983
O O9 0.845166 0.573734 0.145501
O O10 0.064376 0.636307 0.202867
O O11 0.716942 0.644526 0.804061
O O12 0.433088 0.109054 0.520018
O O13 0.423584 0.220622 0.380191
O O14 0.355956 0.390020 0.660680
O O15 0.636563 0.321399 0.573301
O O16 0.000000 0.500000 0.500000
O O17 0.270809 0.553470 0.964983
#
# Coordination Sequence:
#
# PCOD8024951 Si02
#       8
#     2   2   2   2   2   2   2   2
#     4  10  23  45  66  95 135 171 217 271 324 386
#     4  10  23  44  66  99 131 171 223 266 328 391
#     4  12  25  44  67  99 131 174 219 267 329 390
#     4  10  23  44  66  97 131 169 220 273 322 386
#     4  12  23  42  69  95 133 176 218 267 331 385
#     4  11  25  46  65  97 135 168 222 273 319 393
#     4  12  24  45  70  96 135 172 218 273 324 387
#     4  11  23  44  69  96 134 177 214 271 329 377
#
# _framework density 21.864041
#
# number of rings (size 3 to 8) (size 9 to 14) (size 15 to 20)
#    0.000    1.000    3.750    2.625    0.000    4.000 
#    4.500    0.000    0.000    0.000    0.000    0.000 
#    0.000    0.000    0.000    0.000    0.000    0.000 
#
# Total GULP energy -198415.047381 kJ/mol
# GULP energy per Si atom -12400.940461 kJ/mol
# Density = 2.181428 g / cm^3
# Si number density = 21.864041 Si / 1000 Ang^3
#
#
#
# Elastic Constant Matrix: (Units=GPa)
#
#
# Indices 1 2 3 4 5 6 
#
# 1 96.6822 42.3271 44.4111 -4.2799 -10.6629 0.2229
# 2 42.3271 119.1195 1.9535 17.4948 -15.9047 9.2524
# 3 44.4111 1.9535 38.8518 4.9870 -16.6441 18.1182
# 4 -4.2799 17.4948 4.9870 30.8597 -0.3241 -5.4223
# 5 -10.6629 -15.9047 -16.6441 -0.3241 24.3013 1.6320
# 6 0.2229 9.2524 18.1182 -5.4223 1.6320 37.1188
#
#
#
# Elastic Compliance Matrix: (Units=1/GPa)
#
#
# Indices 1 2 3 4 5 6 
#
# 1 -0.010046 0.011910 0.038942 -0.018681 0.031558 -0.026033
# 2 0.011910 0.000006 -0.028873 0.008965 -0.015501 0.016011
# 3 0.038942 -0.028873 -0.065459 0.040077 -0.049261 0.046935
# 4 -0.018681 0.008965 0.040077 0.014901 0.026707 -0.020682
# 5 0.031558 -0.015501 -0.049261 0.026707 0.009374 0.031208
# 6 -0.026033 0.016011 0.046935 -0.020682 0.031208 -0.004197
#
#
# Mechanical properties :
#
#
# Convention : Reuss Voigt Hill
#
# Bulk Modulus (GPa) = -31.70671 48.00413 8.14871
# Shear Modulus (GPa) = -45.49851 29.52008 -7.98921
#
# Velocity S-wave (km/s) = -4.56672 3.67845 -1.91363
# Velocity P-wave (km/s) = 6.50690 6.32809 1.07124
#
# Compressibility (1/GPa) = -0.03153906
#
# Stress axis : x y z
#
# Youngs Moduli (GPa) = -99.54299 156744.35663 -15.27665
#
# Poissons Ratio (x) = -1866.88966 0.59491
# Poissons Ratio (y) = 1.18560 -0.44108
# Poissons Ratio (z) = 3.87644 4525.66128
#
# Static dielectric constant tensor:
#      x y z
#    x 4.158950 -0.126520 -0.107020 
#    y -0.126520 4.312920 0.290690 
#    z -0.107020 0.290690 3.824260 
# 
# 
# High freq. dielectric constant tensor:
#      x y z
#    x 1.872300 -0.001810 0.001160 
#    y -0.001810 1.876530 0.013220 
#    z 0.001160 0.013220 1.850390 
# 
# From -- ./inp_files/48751.got.cif
#   From: 2010.06.25/outbox.cif.g09.slc.cpg/sg2_25_cif.got.tgz:48751.got - 2010.06.27 13:26:56.
