data_PCOD8024341
_publ_section_title
;
Structure prediction by ZEFSAII (Michael W. Deem and Ramdas Pophale) SiO2 
 PCOD8024341
Probable space group: P -1
;
_chemical_formula_sum "Si O2"
_cell_formula_units_Z 16
_cell_length_a 7.989176
_cell_length_b 8.674386
_cell_length_c 15.848544
_cell_angle_alpha 74.293356
_cell_angle_beta 109.489195
_cell_angle_gamma 142.265563
_cell_volume 633.618918
_symmetry_space_group_name_H-M "P -1"
_symmetry_group_IT_number 2
_symmetry_cell_setting 'triclinic'
loop_
_space_group_symop_operation_xyz
x,y,z
-x,-y,-z
loop_
_atom_site_type_symbol
_atom_site_label
_atom_site_fract_x
_atom_site_fract_y
_atom_site_fract_z
Si Si1 0.457920 0.094524 0.596196
Si Si2 0.185680 0.676973 0.724270
Si Si3 0.725281 0.017711 0.029457
Si Si4 0.851763 0.933121 0.572525
Si Si5 0.354496 0.475456 0.121964
Si Si6 0.312332 0.090119 0.144035
Si Si7 0.025552 0.772801 0.303337
Si Si8 0.650009 0.476048 0.696552
O O1 0.402431 0.122543 0.488129
O O2 0.742411 0.195394 0.633632
O O3 0.434921 0.228383 0.638688
O O4 0.206852 0.805370 0.626983
O O5 0.441420 0.868991 0.804364
O O6 0.222570 0.518093 0.721933
O O7 0.906496 0.530827 0.747439
O O8 0.554927 0.741128 0.069904
O O9 0.829957 0.063772 0.944009
O O10 0.014108 0.263114 0.090609
O O11 0.500000 0.000000 0.000000
O O12 0.729996 0.691944 0.629490
O O13 0.047901 0.162985 0.639732
O O14 0.000000 0.000000 0.500000
O O15 0.421309 0.347455 0.114633
O O16 0.462565 0.558266 0.225001
O O17 0.101956 0.934281 0.211288
#
# Coordination Sequence:
#
# PCOD8024341 Si02
#       8
#     2   2   2   2   2   2   2   2
#     4  10  23  43  65  95 139 189 235 295 357 431
#     4  10  23  43  70  97 142 187 238 289 362 432
#     4  12  29  48  77 112 146 188 240 300 358 439
#     4  12  23  43  67 101 138 181 245 299 359 426
#     4  12  28  47  77 108 149 188 243 295 367 431
#     4  11  25  46  71 104 143 189 234 295 361 431
#     4  10  24  43  69  98 141 189 235 292 364 427
#     4  11  24  44  68 102 140 190 234 305 362 432
#
# _framework density 25.251771000000002
#
# number of rings (size 3 to 8) (size 9 to 14) (size 15 to 20)
#    0.000    1.000    2.500    2.625   10.500    1.500 
#    4.500    0.000    0.000    0.000    0.000    0.000 
#    0.000    0.000    0.000    0.000    0.000    0.000 
#
# Total GULP energy -198294.849404 kJ/mol
# GULP energy per Si atom -12393.428088 kJ/mol
# Density = 2.519430 g / cm^3
# Si number density = 25.251771 Si / 1000 Ang^3
#
#
#
# Elastic Constant Matrix: (Units=GPa)
#
#
# Indices 1 2 3 4 5 6 
#
# 1 47.5407 -9.0402 21.9950 -12.3699 -7.1181 -16.9669
# 2 -9.0402 111.4090 45.7531 -9.8136 -4.1373 -22.2775
# 3 21.9950 45.7531 147.0283 -2.8986 -14.0724 -16.0360
# 4 -12.3699 -9.8136 -2.8986 34.8706 -6.0815 4.3981
# 5 -7.1181 -4.1373 -14.0724 -6.0815 46.9602 6.6955
# 6 -16.9669 -22.2775 -16.0360 4.3981 6.6955 38.9587
#
#
#
# Elastic Compliance Matrix: (Units=1/GPa)
#
#
# Indices 1 2 3 4 5 6 
#
# 1 0.035803 0.010054 -0.006027 0.013608 0.003894 0.016655
# 2 0.010054 0.014229 -0.004672 0.006085 0.000772 0.009773
# 3 -0.006027 -0.004672 0.009071 -0.002276 0.001317 -0.001532
# 4 0.013608 0.006085 -0.002276 0.035653 0.006048 0.003404
# 5 0.003894 0.000772 0.001317 0.006048 0.023420 -0.002028
# 6 0.016655 0.009773 -0.001532 0.003404 -0.002028 0.037844
#
#
# Mechanical properties :
#
#
# Convention : Reuss Voigt Hill
#
# Bulk Modulus (GPa) = 17.29727 47.04375 32.17051
# Shear Modulus (GPa) = 28.31550 40.64259 34.47904
#
# Velocity S-wave (km/s) = 3.35226 4.01620 3.69916
# Velocity P-wave (km/s) = 4.67421 6.33852 5.56889
#
# Compressibility (1/GPa) = 0.05781258
#
# Stress axis : x y z
#
# Youngs Moduli (GPa) = 27.93072 70.27709 110.24065
#
# Poissons Ratio (x) = -0.70657 0.66444
# Poissons Ratio (y) = -0.28082 0.51508
# Poissons Ratio (z) = 0.16834 0.32836
#
# Static dielectric constant tensor:
#      x y z
#    x 4.628320 -0.221120 0.228780 
#    y -0.221120 4.666720 0.213620 
#    z 0.228780 0.213620 5.008790 
# 
# 
# High freq. dielectric constant tensor:
#      x y z
#    x 2.017900 -0.014120 0.019580 
#    y -0.014120 2.005720 0.007380 
#    z 0.019580 0.007380 2.016290 
# 
# From -- ./inp_files/53569.got.cif
#   From: 2010.06.25/outbox.cif.g09.slc.cpg/sg2_27_cif.got.tgz:53569.got - 2010.06.27 13:26:56.
