data_PCOD8024109
_publ_section_title
;
Structure prediction by ZEFSAII (Michael W. Deem and Ramdas Pophale) SiO2 
 PCOD8024109
Probable space group: P -1
;
_chemical_formula_sum "Si O2"
_cell_formula_units_Z 12
_cell_length_a 15.182848
_cell_length_b 14.837688
_cell_length_c 8.932600
_cell_angle_alpha 144.444106
_cell_angle_beta 41.652768
_cell_angle_gamma 152.274398
_cell_volume 541.674778
_symmetry_space_group_name_H-M "P -1"
_symmetry_group_IT_number 2
_symmetry_cell_setting 'triclinic'
loop_
_space_group_symop_operation_xyz
x,y,z
-x,-y,-z
loop_
_atom_site_type_symbol
_atom_site_label
_atom_site_fract_x
_atom_site_fract_y
_atom_site_fract_z
Si Si1 0.494647 0.177006 0.274216
Si Si2 0.372891 0.700526 0.402298
Si Si3 0.138141 0.974442 0.269849
Si Si4 0.906262 0.585769 0.227143
Si Si5 0.027184 0.207345 0.265244
Si Si6 0.288195 0.969349 0.785322
O O1 0.500810 0.212952 0.492111
O O2 0.679258 0.398578 0.254922
O O3 0.312343 0.112445 0.352778
O O4 0.500000 0.000000 0.000000
O O5 0.214119 0.431775 0.244778
O O6 0.504594 0.798688 0.220125
O O7 0.285698 0.800865 0.643727
O O8 0.991915 0.713160 0.133677
O O9 0.000000 0.000000 0.500000
O O10 0.217501 0.036876 0.085529
O O11 0.971236 0.749018 0.503268
O O12 0.000000 0.500000 0.000000
O O13 0.850108 0.149996 0.341923
O O14 0.000000 0.000000 0.000000
#
# Coordination Sequence:
#
# PCOD8024109 Si02
#       6
#     2   2   2   2   2   2
#     4  11  21  43  71  97 131 179 235 281 335 407
#     4  10  23  42  70  98 127 180 236 282 333 415
#     4  12  25  42  65 103 140 175 226 288 347 405
#     4  11  23  42  74  98 129 187 239 275 335 419
#     4  11  24  43  65  99 141 178 217 284 356 408
#     4  11  23  41  67 101 136 173 232 286 343 402
#
# _framework density 22.153514999999999
#
# number of rings (size 3 to 8) (size 9 to 14) (size 15 to 20)
#    0.000    1.000    3.333    3.500    0.000    2.667 
#    0.000    3.333    0.000    0.000    0.000    0.000 
#    0.000    0.000    0.000    0.000    0.000    0.000 
#
# Total GULP energy -148733.835875 kJ/mol
# GULP energy per Si atom -12394.486323 kJ/mol
# Density = 2.210309 g / cm^3
# Si number density = 22.153515 Si / 1000 Ang^3
#
#
#
# Elastic Constant Matrix: (Units=GPa)
#
#
# Indices 1 2 3 4 5 6 
#
# 1 94.3105 47.8982 21.5675 -1.9870 -18.8626 25.4825
# 2 47.8982 162.2486 56.7916 -4.2593 -6.7852 -6.3887
# 3 21.5675 56.7916 115.5062 -7.4865 -14.4253 2.6641
# 4 -1.9870 -4.2593 -7.4865 42.3772 0.6271 -0.6187
# 5 -18.8626 -6.7852 -14.4253 0.6271 31.0190 -5.1365
# 6 25.4825 -6.3887 2.6641 -0.6187 -5.1365 41.4899
#
#
#
# Elastic Compliance Matrix: (Units=1/GPa)
#
#
# Indices 1 2 3 4 5 6 
#
# 1 0.017856 -0.005598 0.000695 0.000118 0.008156 -0.010862
# 2 -0.005598 0.009281 -0.003924 0.000083 -0.002402 0.004823
# 3 0.000695 -0.003924 0.011148 0.001524 0.004525 -0.001164
# 4 0.000118 0.000083 0.001524 0.023879 0.000356 0.000243
# 5 0.008156 -0.002402 0.004525 0.000356 0.038623 -0.000883
# 6 -0.010862 0.004823 -0.001164 0.000243 -0.000883 0.031485
#
#
# Mechanical properties :
#
#
# Convention : Reuss Voigt Hill
#
# Bulk Modulus (GPa) = 48.47027 69.39776 58.93402
# Shear Modulus (GPa) = 31.88696 39.36443 35.62569
#
# Velocity S-wave (km/s) = 3.79801 4.21989 4.01450
# Velocity P-wave (km/s) = 6.41560 7.42544 6.93892
#
# Compressibility (1/GPa) = 0.02063120
#
# Stress axis : x y z
#
# Youngs Moduli (GPa) = 56.00300 107.74484 89.70438
#
# Poissons Ratio (x) = 0.60318 -0.06236
# Poissons Ratio (y) = 0.31352 0.35199
# Poissons Ratio (z) = -0.03893 0.42277
#
# Static dielectric constant tensor:
#      x y z
#    x 4.458520 0.110130 0.065060 
#    y 0.110130 4.382870 -0.119970 
#    z 0.065060 -0.119970 3.840940 
# 
# 
# High freq. dielectric constant tensor:
#      x y z
#    x 1.878810 -0.003920 -0.002400 
#    y -0.003920 1.895310 -0.009040 
#    z -0.002400 -0.009040 1.856220 
# 
# From -- ./inp_files/156428.got.cif
#   From: 2010.06.25/outbox.cif.g09.slc.cpg/sg2_79_cif.got.tgz:156428.got - 2010.06.27 13:26:56.
