data_PCOD8024836
_publ_section_title
;
Structure prediction by ZEFSAII (Michael W. Deem and Ramdas Pophale) SiO2 
 PCOD8024836
Probable space group: P -1
;
_chemical_formula_sum "Si O2"
_cell_formula_units_Z 16
_cell_length_a 9.398576
_cell_length_b 11.463776
_cell_length_c 11.402494
_cell_angle_alpha 44.697499
_cell_angle_beta 65.092782
_cell_angle_gamma 50.891532
_cell_volume 669.674348
_symmetry_space_group_name_H-M "P -1"
_symmetry_group_IT_number 2
_symmetry_cell_setting 'triclinic'
loop_
_space_group_symop_operation_xyz
x,y,z
-x,-y,-z
loop_
_atom_site_type_symbol
_atom_site_label
_atom_site_fract_x
_atom_site_fract_y
_atom_site_fract_z
Si Si1 0.333422 0.269204 0.310558
Si Si2 0.696317 0.279786 0.145041
Si Si3 0.404097 0.702775 0.454336
Si Si4 0.973490 0.571765 0.090014
Si Si5 0.704412 0.152338 0.992525
Si Si6 0.086353 0.011371 0.186504
Si Si7 0.413916 0.093730 0.652018
Si Si8 0.334476 0.482092 0.812313
O O1 0.506373 0.300839 0.232921
O O2 0.299274 0.217633 0.489912
O O3 0.143872 0.452996 0.202923
O O4 0.392347 0.091010 0.327482
O O5 0.703924 0.299974 0.985360
O O6 0.720010 0.448760 0.079856
O O7 0.880654 0.070406 0.256090
O O8 0.500000 0.500000 0.500000
O O9 0.543337 0.778646 0.366771
O O10 0.351643 0.660132 0.630557
O O11 0.221879 0.860291 0.340812
O O12 0.806542 0.540003 0.205558
O O13 0.898483 0.798720 0.959141
O O14 0.000000 0.500000 0.000000
O O15 0.705193 0.975279 0.185948
O O16 0.520474 0.273216 0.892362
O O17 0.873046 0.076251 0.897451
#
# Coordination Sequence:
#
# PCOD8024836 Si02
#       8
#     2   2   2   2   2   2   2   2
#     4  10  23  46  74 104 145 181 244 298 355 414
#     4  11  24  45  75 106 136 191 240 301 348 429
#     4  12  26  46  69 104 148 189 235 297 366 425
#     4  12  25  45  71 112 142 188 237 297 354 431
#     4  11  25  46  70 106 149 188 237 298 366 423
#     4  12  27  44  72 107 149 189 241 293 363 434
#     4  10  23  43  75  98 137 197 234 288 362 422
#     4  12  25  44  76 103 142 191 244 297 358 423
#
# _framework density 23.892209999999999
#
# number of rings (size 3 to 8) (size 9 to 14) (size 15 to 20)
#    0.000    0.750    3.750    3.750    3.500    4.500 
#    2.250    0.625    0.000    0.000    0.000    0.000 
#    0.000    0.000    0.000    0.000    0.000    0.000 
#
# Total GULP energy -198308.907445 kJ/mol
# GULP energy per Si atom -12394.306715 kJ/mol
# Density = 2.383783 g / cm^3
# Si number density = 23.892210 Si / 1000 Ang^3
#
#
#
# Elastic Constant Matrix: (Units=GPa)
#
#
# Indices 1 2 3 4 5 6 
#
# 1 146.9743 40.4020 33.6823 -22.2738 8.3106 4.3127
# 2 40.4020 94.7438 23.6237 -18.4721 8.3836 1.3556
# 3 33.6823 23.6237 85.2380 -24.5069 17.5372 1.5032
# 4 -22.2738 -18.4721 -24.5069 36.5661 -6.1995 6.7567
# 5 8.3106 8.3836 17.5372 -6.1995 30.0972 -8.3360
# 6 4.3127 1.3556 1.5032 6.7567 -8.3360 36.8297
#
#
#
# Elastic Compliance Matrix: (Units=1/GPa)
#
#
# Indices 1 2 3 4 5 6 
#
# 1 0.008390 -0.002536 -0.001657 0.002912 -0.000448 -0.001457
# 2 -0.002536 0.012885 -0.000941 0.004270 -0.001831 -0.001337
# 3 -0.001657 -0.000941 0.017148 0.009327 -0.008487 -0.004103
# 4 0.002912 0.004270 0.009327 0.038781 -0.001764 -0.008393
# 5 -0.000448 -0.001831 -0.008487 -0.001764 0.041246 0.010126
# 6 -0.001457 -0.001337 -0.004103 -0.008393 0.010126 0.031371
#
#
# Mechanical properties :
#
#
# Convention : Reuss Voigt Hill
#
# Bulk Modulus (GPa) = 35.51923 58.04135 46.78029
# Shear Modulus (GPa) = 29.50298 35.98182 32.74240
#
# Velocity S-wave (km/s) = 3.51784 3.88494 3.70594
# Velocity P-wave (km/s) = 5.60348 6.66854 6.15907
#
# Compressibility (1/GPa) = 0.02815376
#
# Stress axis : x y z
#
# Youngs Moduli (GPa) = 119.18385 77.61189 58.31689
#
# Poissons Ratio (x) = 0.19686 0.09665
# Poissons Ratio (y) = 0.30230 0.05486
# Poissons Ratio (z) = 0.19753 0.07301
#
# Static dielectric constant tensor:
#      x y z
#    x 5.083630 0.001080 -0.065090 
#    y 0.001080 4.335530 0.038590 
#    z -0.065090 0.038590 4.664500 
# 
# 
# High freq. dielectric constant tensor:
#      x y z
#    x 1.956760 0.008030 0.010600 
#    y 0.008030 1.945020 -0.002600 
#    z 0.010600 -0.002600 1.946510 
# 
# From -- ./inp_files/392051.got.cif
#   From: 2010.06.25/outbox.cif.g09.slc.cpg/sg2_197_cif.got.tgz:392051.got - 2010.06.27 13:26:56.
