data_PCOD8024360
_publ_section_title
;
Structure prediction by ZEFSAII (Michael W. Deem and Ramdas Pophale) SiO2 
 PCOD8024360
Probable space group: P -1
;
_chemical_formula_sum "Si O2"
_cell_formula_units_Z 16
_cell_length_a 11.972658
_cell_length_b 12.043610
_cell_length_c 15.913901
_cell_angle_alpha 44.854383
_cell_angle_beta 38.815472
_cell_angle_gamma 31.746379
_cell_volume 749.302082
_symmetry_space_group_name_H-M "P -1"
_symmetry_group_IT_number 2
_symmetry_cell_setting 'triclinic'
loop_
_space_group_symop_operation_xyz
x,y,z
-x,-y,-z
loop_
_atom_site_type_symbol
_atom_site_label
_atom_site_fract_x
_atom_site_fract_y
_atom_site_fract_z
Si Si1 0.031706 0.106451 0.192273
Si Si2 0.789486 0.792994 0.831720
Si Si3 0.806966 0.278771 0.785561
Si Si4 0.277077 0.526905 0.588899
Si Si5 0.961787 0.839677 0.115008
Si Si6 0.271898 0.531516 0.949745
Si Si7 0.504728 0.054409 0.697307
Si Si8 0.025585 0.173336 0.545969
O O1 0.822889 0.339369 0.151134
O O2 0.227369 0.099616 0.128669
O O3 0.149720 0.936322 0.137279
O O4 0.932015 0.041237 0.355150
O O5 0.069330 0.634637 0.723314
O O6 0.609506 0.978205 0.770664
O O7 0.701157 0.670433 0.969547
O O8 0.520839 0.471994 0.856448
O O9 0.922240 0.302644 0.625449
O O10 0.933462 0.276505 0.794198
O O11 0.500000 0.500000 0.500000
O O12 0.369064 0.299293 0.633711
O O13 0.171984 0.674783 0.489729
O O14 0.677776 0.976931 0.201047
O O15 0.093084 0.663175 0.061111
O O16 0.000000 0.000000 0.000000
O O17 0.719322 0.902070 0.586302
#
# Coordination Sequence:
#
# PCOD8024360 Si02
#       8
#     2   2   2   2   2   2   2   2
#     4  10  23  43  65  99 138 175 214 273 337 393
#     4  11  24  40  66 106 133 173 225 270 337 400
#     4  10  25  42  66  94 132 175 222 274 321 396
#     4  11  22  40  70  96 137 180 216 276 326 402
#     4  12  23  48  70  93 131 182 227 275 335 380
#     4  12  24  43  68  99 133 177 226 273 336 392
#     4  11  24  42  71  97 137 173 222 282 319 406
#     4   9  23  43  63 103 128 173 225 259 346 385
#
# _framework density 21.353204000000002
#
# number of rings (size 3 to 8) (size 9 to 14) (size 15 to 20)
#    0.750    0.500    2.500    3.000    3.500    3.000 
#    0.000    0.625    0.000    0.000    0.000    0.000 
#    0.000    0.000    0.000    0.000    0.000    0.000 
#
# Total GULP energy -198385.261515 kJ/mol
# GULP energy per Si atom -12399.078845 kJ/mol
# Density = 2.130460 g / cm^3
# Si number density = 21.353204 Si / 1000 Ang^3
#
#
#
# Elastic Constant Matrix: (Units=GPa)
#
#
# Indices 1 2 3 4 5 6 
#
# 1 138.1771 37.8524 53.1762 7.3958 -9.0521 -26.2640
# 2 37.8524 69.9337 46.3053 -3.9049 0.7721 -19.4115
# 3 53.1762 46.3053 87.6586 4.7656 -11.6308 -18.6295
# 4 7.3958 -3.9049 4.7656 34.1178 -10.4090 -6.4720
# 5 -9.0521 0.7721 -11.6308 -10.4090 38.4167 -2.5149
# 6 -26.2640 -19.4115 -18.6295 -6.4720 -2.5149 36.4197
#
#
#
# Elastic Compliance Matrix: (Units=1/GPa)
#
#
# Indices 1 2 3 4 5 6 
#
# 1 0.010250 -0.001560 -0.004265 -0.000586 0.001282 0.004364
# 2 -0.001560 0.024963 -0.011320 0.005422 -0.002357 0.007191
# 3 -0.004265 -0.011320 0.021154 -0.001332 0.005387 0.001847
# 4 -0.000586 0.005422 -0.001332 0.034718 0.009320 0.008599
# 5 0.001282 -0.002357 0.005387 0.009320 0.030943 0.006217
# 6 0.004364 0.007191 0.001847 0.008599 0.006217 0.037340
#
#
# Mechanical properties :
#
#
# Convention : Reuss Voigt Hill
#
# Bulk Modulus (GPa) = 45.29118 63.38189 54.33654
# Shear Modulus (GPa) = 24.87335 32.35319 28.61327
#
# Velocity S-wave (km/s) = 3.41670 3.89671 3.66457
# Velocity P-wave (km/s) = 6.06808 7.07056 6.58842
#
# Compressibility (1/GPa) = 0.02207935
#
# Stress axis : x y z
#
# Youngs Moduli (GPa) = 97.55644 40.05849 47.27131
#
# Poissons Ratio (x) = 0.06249 0.20160
# Poissons Ratio (y) = 0.15219 0.53510
# Poissons Ratio (z) = 0.41606 0.45345
#
# Static dielectric constant tensor:
#      x y z
#    x 3.965770 -0.142120 0.048020 
#    y -0.142120 3.844000 -0.008960 
#    z 0.048020 -0.008960 3.853540 
# 
# 
# High freq. dielectric constant tensor:
#      x y z
#    x 1.839050 -0.013950 0.002950 
#    y -0.013950 1.835290 -0.000220 
#    z 0.002950 -0.000220 1.840220 
# 
# From -- ./inp_files/442252.got.cif
#   From: 2010.06.25/outbox.cif.g09.slc.cpg/sg2_222_cif.got.tgz:442252.got - 2010.06.27 13:26:56.
