data_PCOD8024601
_publ_section_title
;
Structure prediction by ZEFSAII (Michael W. Deem and Ramdas Pophale) SiO2 
 PCOD8024601
Probable space group: P -1
;
_chemical_formula_sum "Si O2"
_cell_formula_units_Z 16
_cell_length_a 8.079337
_cell_length_b 8.459165
_cell_length_c 12.128777
_cell_angle_alpha 122.471507
_cell_angle_beta 90.141056
_cell_angle_gamma 92.986784
_cell_volume 697.931830
_symmetry_space_group_name_H-M "P -1"
_symmetry_group_IT_number 2
_symmetry_cell_setting 'triclinic'
loop_
_space_group_symop_operation_xyz
x,y,z
-x,-y,-z
loop_
_atom_site_type_symbol
_atom_site_label
_atom_site_fract_x
_atom_site_fract_y
_atom_site_fract_z
Si Si1 0.957909 0.359449 0.850895
Si Si2 0.684309 0.204916 0.507375
Si Si3 0.871861 0.970289 0.796771
Si Si4 0.266659 0.442753 0.725033
Si Si5 0.675858 0.925654 0.988693
Si Si6 0.313312 0.105748 0.446758
Si Si7 0.636175 0.485342 0.787768
Si Si8 0.191704 0.809002 0.739782
O O1 0.764727 0.377838 0.822922
O O2 0.096717 0.406018 0.776707
O O3 0.976838 0.150080 0.815270
O O4 0.000000 0.500000 0.000000
O O5 0.509836 0.098727 0.438939
O O6 0.667056 0.414675 0.635408
O O7 0.787923 0.213006 0.399117
O O8 0.766296 0.074286 0.551630
O O9 0.792633 0.026237 0.933370
O O10 0.735773 0.896443 0.681455
O O11 0.994192 0.803341 0.755252
O O12 0.256094 0.294111 0.571400
O O13 0.438799 0.431329 0.792706
O O14 0.275200 0.647452 0.746685
O O15 0.677860 0.704226 0.886771
O O16 0.500000 0.000000 0.000000
O O17 0.736691 0.990056 0.134810
#
# Coordination Sequence:
#
# PCOD8024601 Si02
#       8
#     2   2   2   2   2   2   2   2
#     4  12  26  47  71 103 147 185 244 296 350 426
#     4  10  23  45  71 104 140 185 238 295 351 424
#     4  12  26  44  73 104 142 186 234 299 358 420
#     4  11  26  45  69 108 143 188 238 292 356 426
#     4  12  25  47  71 102 142 187 237 287 355 429
#     4  10  23  43  69 104 141 182 239 290 356 423
#     4  11  25  47  75 103 146 187 238 297 355 424
#     4  12  25  44  72 104 144 186 235 293 358 424
#
# _framework density 22.924873999999999
#
# number of rings (size 3 to 8) (size 9 to 14) (size 15 to 20)
#    0.000    0.750    2.500    4.125    3.500    3.000 
#    2.250    0.000    0.000    0.000    0.000    0.000 
#    0.000    0.000    0.000    0.000    0.000    0.000 
#
# Total GULP energy -198347.115967 kJ/mol
# GULP energy per Si atom -12396.694748 kJ/mol
# Density = 2.287270 g / cm^3
# Si number density = 22.924874 Si / 1000 Ang^3
#
#
#
# Elastic Constant Matrix: (Units=GPa)
#
#
# Indices 1 2 3 4 5 6 
#
# 1 99.3142 20.4046 5.3065 -0.1766 -16.8118 -22.3287
# 2 20.4046 65.4964 18.4691 17.8788 -10.6388 -3.1672
# 3 5.3065 18.4691 105.9036 21.1024 -9.0016 -6.2069
# 4 -0.1766 17.8788 21.1024 34.8214 4.9459 2.2548
# 5 -16.8118 -10.6388 -9.0016 4.9459 39.5324 -4.4223
# 6 -22.3287 -3.1672 -6.2069 2.2548 -4.4223 34.0944
#
#
#
# Elastic Compliance Matrix: (Units=1/GPa)
#
#
# Indices 1 2 3 4 5 6 
#
# 1 0.013971 -0.002921 0.001090 -0.000674 0.006604 0.009978
# 2 -0.002921 0.020317 -0.000671 -0.010917 0.005584 0.001299
# 3 0.001090 -0.000671 0.011595 -0.007534 0.004293 0.003817
# 4 -0.000674 -0.010917 -0.007534 0.040873 -0.010829 -0.006935
# 5 0.006604 0.005584 0.004293 -0.010829 0.033129 0.010639
# 6 0.009978 0.001299 0.003817 -0.006935 0.010639 0.038519
#
#
# Mechanical properties :
#
#
# Convention : Reuss Voigt Hill
#
# Bulk Modulus (GPa) = 24.46214 39.89718 32.17966
# Shear Modulus (GPa) = 28.24332 36.79190 32.51761
#
# Velocity S-wave (km/s) = 3.51379 4.01045 3.77031
# Velocity P-wave (km/s) = 5.21114 6.23588 5.74640
#
# Compressibility (1/GPa) = 0.04087950
#
# Stress axis : x y z
#
# Youngs Moduli (GPa) = 71.57712 49.22000 86.24682
#
# Poissons Ratio (x) = 0.14375 -0.09399
# Poissons Ratio (y) = 0.20904 0.05785
# Poissons Ratio (z) = -0.07800 0.03301
#
# Static dielectric constant tensor:
#      x y z
#    x 4.181770 0.040820 0.105480 
#    y 0.040820 4.851490 0.168210 
#    z 0.105480 0.168210 4.595210 
# 
# 
# High freq. dielectric constant tensor:
#      x y z
#    x 1.915170 -0.014710 0.002090 
#    y -0.014710 1.889420 0.012450 
#    z 0.002090 0.012450 1.925260 
# 
# From -- ./inp_files/383544.got.cif
#   From: 2010.06.25/outbox.cif.g09.slc.cpg/sg2_192_cif.got.tgz:383544.got - 2010.06.27 13:26:56.
