data_PCOD8024172
_publ_section_title
;
Structure prediction by ZEFSAII (Michael W. Deem and Ramdas Pophale) SiO2 
 PCOD8024172
Probable space group: P -1
;
_chemical_formula_sum "Si O2"
_cell_formula_units_Z 14
_cell_length_a 21.918348
_cell_length_b 8.713961
_cell_length_c 11.456514
_cell_angle_alpha 40.276287
_cell_angle_beta 30.708263
_cell_angle_gamma 32.677536
_cell_volume 597.161146
_symmetry_space_group_name_H-M "P -1"
_symmetry_group_IT_number 2
_symmetry_cell_setting 'triclinic'
loop_
_space_group_symop_operation_xyz
x,y,z
-x,-y,-z
loop_
_atom_site_type_symbol
_atom_site_label
_atom_site_fract_x
_atom_site_fract_y
_atom_site_fract_z
Si Si1 0.428148 0.639597 0.698148
Si Si2 0.606896 0.517233 0.894267
Si Si3 0.942538 0.656822 0.792703
Si Si4 0.744205 0.471910 0.279514
Si Si5 0.810505 0.976575 0.305478
Si Si6 0.132367 0.803900 0.515764
Si Si7 0.553589 0.043740 0.769969
O O1 0.569568 0.651689 0.460553
O O2 0.290593 0.924318 0.702961
O O3 0.459530 0.385006 0.703632
O O4 0.386183 0.597473 0.920399
O O5 0.765379 0.345847 0.678199
O O6 0.540642 0.856821 0.802042
O O7 0.500000 0.500000 0.000000
O O8 0.005959 0.747105 0.742126
O O9 0.922001 0.860561 0.598692
O O10 0.792338 0.695020 0.056056
O O11 0.041281 0.320796 0.792026
O O12 0.826641 0.224714 0.186640
O O13 0.791750 0.316279 0.416724
O O14 0.721908 0.927971 0.577202
O O15 0.500000 0.000000 0.000000
#
# Coordination Sequence:
#
# PCOD8024172 Si02
#       7
#     2   2   2   2   2   2   2
#     4  10  23  42  72 102 135 174 225 298 347 395
#     4  11  21  41  67  99 134 175 232 279 340 409
#     4  11  26  47  68  98 145 188 229 280 340 420
#     4  11  23  46  71 104 139 178 237 283 346 412
#     4  11  23  45  69 102 137 176 234 285 346 405
#     4  11  25  46  70  99 143 187 229 282 344 412
#     4   9  19  38  62  93 133 169 213 280 336 393
#
# _framework density 23.444258000000001
#
# number of rings (size 3 to 8) (size 9 to 14) (size 15 to 20)
#    0.000    1.429    2.857    2.571    0.000    6.286 
#    5.143    2.143    0.000    0.000    0.000    0.000 
#    0.000    0.000    0.000    0.000    0.000    0.000 
#
# Total GULP energy -173443.423112 kJ/mol
# GULP energy per Si atom -12388.815937 kJ/mol
# Density = 2.339090 g / cm^3
# Si number density = 23.444258 Si / 1000 Ang^3
#
#
#
# Elastic Constant Matrix: (Units=GPa)
#
#
# Indices 1 2 3 4 5 6 
#
# 1 115.8199 43.5019 56.9991 -14.0338 -8.0757 0.9624
# 2 43.5019 92.9255 41.5812 -8.1493 -2.1574 3.0053
# 3 56.9991 41.5812 129.8145 -23.3819 -13.9811 -2.0074
# 4 -14.0338 -8.1493 -23.3819 32.0861 6.7180 -0.1537
# 5 -8.0757 -2.1574 -13.9811 6.7180 26.5615 -11.1467
# 6 0.9624 3.0053 -2.0074 -0.1537 -11.1467 28.9795
#
#
#
# Elastic Compliance Matrix: (Units=1/GPa)
#
#
# Indices 1 2 3 4 5 6 
#
# 1 0.012174 -0.003892 -0.003722 0.001382 0.001158 0.000194
# 2 -0.003892 0.014000 -0.003086 0.000181 -0.002815 -0.002618
# 3 -0.003722 -0.003086 0.011837 0.005212 0.004855 0.003159
# 4 0.001382 0.000181 0.005212 0.037102 -0.007153 -0.002258
# 5 0.001158 -0.002815 0.004855 -0.007153 0.050524 0.019986
# 6 0.000194 -0.002618 0.003159 -0.002258 0.019986 0.042666
#
#
# Mechanical properties :
#
#
# Convention : Reuss Voigt Hill
#
# Bulk Modulus (GPa) = 60.20569 69.19161 64.69865
# Shear Modulus (GPa) = 25.60940 30.62392 28.11666
#
# Velocity S-wave (km/s) = 3.30866 3.61812 3.46685
# Velocity P-wave (km/s) = 6.35078 6.85797 6.60924
#
# Compressibility (1/GPa) = 0.01660973
#
# Stress axis : x y z
#
# Youngs Moduli (GPa) = 82.14005 71.43089 84.48149
#
# Poissons Ratio (x) = 0.27800 0.31446
# Poissons Ratio (y) = 0.31968 0.26075
# Poissons Ratio (z) = 0.30574 0.22047
#
# Static dielectric constant tensor:
#      x y z
#    x 4.094460 0.863330 0.127220 
#    y 0.863330 8.426140 0.848290 
#    z 0.127220 0.848290 4.515050 
# 
# 
# High freq. dielectric constant tensor:
#      x y z
#    x 1.919400 0.006640 -0.008450 
#    y 0.006640 1.925320 -0.012830 
#    z -0.008450 -0.012830 1.945720 
# 
# From -- ./inp_files/474384.got.cif
#   From: 2010.06.25/outbox.cif.g09.slc.cpg/sg2_238_cif.got.tgz:474384.got - 2010.06.27 13:26:56.
