data_PCOD8024735
_publ_section_title
;
Structure prediction by ZEFSAII (Michael W. Deem and Ramdas Pophale) SiO2 
 PCOD8024735
Probable space group: P -1
;
_chemical_formula_sum "Si O2"
_cell_formula_units_Z 10
_cell_length_a 8.062714
_cell_length_b 12.689080
_cell_length_c 8.744057
_cell_angle_alpha 55.440970
_cell_angle_beta 144.859720
_cell_angle_gamma 104.381475
_cell_volume 377.695816
_symmetry_space_group_name_H-M "P -1"
_symmetry_group_IT_number 2
_symmetry_cell_setting 'triclinic'
loop_
_space_group_symop_operation_xyz
x,y,z
-x,-y,-z
loop_
_atom_site_type_symbol
_atom_site_label
_atom_site_fract_x
_atom_site_fract_y
_atom_site_fract_z
Si Si1 0.774636 0.398341 0.679550
Si Si2 0.073354 0.827579 0.789644
Si Si3 0.425795 0.386668 0.127634
Si Si4 0.694293 0.842071 0.217023
Si Si5 0.457934 0.905912 0.679758
O O1 0.500000 0.500000 0.500000
O O2 0.407172 0.635833 0.565005
O O3 0.004437 0.250518 0.063132
O O4 0.032340 0.455432 0.777256
O O5 0.000192 0.769664 0.620385
O O6 0.459033 0.767938 0.124727
O O7 0.858413 0.998994 0.527969
O O8 0.585173 0.228338 0.302839
O O9 0.500000 0.500000 0.000000
O O10 0.761704 0.845970 0.080502
O O11 0.500000 0.000000 0.000000
O O12 0.500000 0.000000 0.500000
#
# Coordination Sequence:
#
# PCOD8024735 Si02
#       5
#     2   2   2   2   2
#     4  12  28  53  78 109 156 209 258 309 381 469
#     4  11  24  48  75 111 146 199 254 308 377 452
#     4  12  29  53  78 113 156 204 254 319 391 446
#     4  10  23  43  71 110 149 191 245 312 380 448
#     4  11  24  48  79 113 152 190 256 323 377 445
#
# _framework density 26.476330000000001
#
# number of rings (size 3 to 8) (size 9 to 14) (size 15 to 20)
#    0.000    0.800    2.000    4.800    5.600    5.600 
#    3.600    0.000    0.000    0.000    0.000    0.000 
#    0.000    0.000    0.000    0.000    0.000    0.000 
#
# Total GULP energy -123934.826842 kJ/mol
# GULP energy per Si atom -12393.482684 kJ/mol
# Density = 2.641607 g / cm^3
# Si number density = 26.476330 Si / 1000 Ang^3
#
#
#
# Elastic Constant Matrix: (Units=GPa)
#
#
# Indices 1 2 3 4 5 6 
#
# 1 133.6484 83.4314 53.1413 11.7007 -1.1529 -3.4314
# 2 83.4314 186.3752 84.0954 32.8337 -17.3147 -10.3526
# 3 53.1413 84.0954 123.5419 37.1929 -9.9434 -11.3157
# 4 11.7007 32.8337 37.1929 57.1728 -7.6411 -6.5911
# 5 -1.1529 -17.3147 -9.9434 -7.6411 69.7140 9.0807
# 6 -3.4314 -10.3526 -11.3157 -6.5911 9.0807 49.7760
#
#
#
# Elastic Compliance Matrix: (Units=1/GPa)
#
#
# Indices 1 2 3 4 5 6 
#
# 1 0.010896 -0.004166 -0.002432 0.001580 -0.000992 -0.000278
# 2 -0.004166 0.009499 -0.003995 -0.001773 0.001491 0.000274
# 3 -0.002432 -0.003995 0.013802 -0.006020 0.000104 0.001323
# 4 0.001580 -0.001773 -0.006020 0.022372 0.001030 0.001146
# 5 -0.000992 0.001491 0.000104 0.001030 0.015133 -0.002359
# 6 -0.000278 0.000274 0.001323 0.001146 -0.002359 0.021011
#
#
# Mechanical properties :
#
#
# Convention : Reuss Voigt Hill
#
# Bulk Modulus (GPa) = 76.86193 98.32242 87.59218
# Shear Modulus (GPa) = 42.28791 50.19238 46.24014
#
# Velocity S-wave (km/s) = 4.00083 4.35874 4.18361
# Velocity P-wave (km/s) = 7.10181 7.90873 7.51611
#
# Compressibility (1/GPa) = 0.01301034
#
# Stress axis : x y z
#
# Youngs Moduli (GPa) = 91.77550 105.27028 72.45277
#
# Poissons Ratio (x) = 0.43859 0.17620
# Poissons Ratio (y) = 0.38237 0.28947
# Poissons Ratio (z) = 0.22319 0.42059
#
# Static dielectric constant tensor:
#      x y z
#    x 3.742320 0.288620 0.782800 
#    y 0.288620 5.667570 0.705430 
#    z 0.782800 0.705430 4.977200 
# 
# 
# High freq. dielectric constant tensor:
#      x y z
#    x 2.078320 -0.002580 -0.012820 
#    y -0.002580 2.071220 0.014770 
#    z -0.012820 0.014770 2.066110 
# 
# From -- ./inp_files/186255.got.cif
#   From: 2010.06.25/outbox.cif.g09.slc.cpg/sg2_94_cif.got.tgz:186255.got - 2010.06.27 13:26:56.
