data_PCOD8024274
_publ_section_title
;
Structure prediction by ZEFSAII (Michael W. Deem and Ramdas Pophale) SiO2 
 PCOD8024274
Probable space group: P -1
;
_chemical_formula_sum "Si O2"
_cell_formula_units_Z 16
_cell_length_a 20.209153
_cell_length_b 21.263717
_cell_length_c 9.626720
_cell_angle_alpha 38.354235
_cell_angle_beta 131.241395
_cell_angle_gamma 160.008773
_cell_volume 816.598190
_symmetry_space_group_name_H-M "P -1"
_symmetry_group_IT_number 2
_symmetry_cell_setting 'triclinic'
loop_
_space_group_symop_operation_xyz
x,y,z
-x,-y,-z
loop_
_atom_site_type_symbol
_atom_site_label
_atom_site_fract_x
_atom_site_fract_y
_atom_site_fract_z
Si Si1 0.849925 0.862402 0.901552
Si Si2 0.512242 0.356642 0.221238
Si Si3 0.646213 0.390087 0.077090
Si Si4 0.922075 0.496248 0.012508
Si Si5 0.264848 0.999506 0.730745
Si Si6 0.183172 0.646270 0.589089
Si Si7 0.482814 0.111830 0.081413
Si Si8 0.015181 0.112660 0.421025
O O1 0.668544 0.752477 0.877722
O O2 0.005235 0.067671 0.644746
O O3 0.733985 0.640159 0.071377
O O4 0.000000 0.000000 0.000000
O O5 0.530563 0.304571 0.203072
O O6 0.453387 0.225881 0.497902
O O7 0.803181 0.461887 0.209404
O O8 0.481665 0.183748 0.089814
O O9 0.767412 0.608445 0.794979
O O10 0.865018 0.373222 0.284898
O O11 0.713153 0.335196 0.951200
O O12 0.000000 0.500000 0.000000
O O13 0.092386 0.760660 0.816479
O O14 0.173871 0.006655 0.661661
O O15 0.340060 0.005993 0.946355
O O16 0.000000 0.500000 0.500000
O O17 0.396519 0.914802 0.359949
O O18 0.000000 0.000000 0.500000
#
# Coordination Sequence:
#
# PCOD8024274 Si02
#       8
#     2   2   2   2   2   2   2   2
#     4  10  23  43  64  87 126 166 206 256 316 366
#     4  10  24  41  61  93 127 161 206 261 307 372
#     4  11  22  41  64  94 124 164 211 258 311 371
#     4  11  24  40  63  93 128 167 210 259 314 372
#     4  11  24  42  63  94 131 164 210 259 314 376
#     4  11  22  44  65  92 128 166 209 263 313 373
#     4  11  24  43  67  91 128 168 211 260 315 374
#     4  11  21  42  67  90 128 165 209 264 307 372
#
# _framework density 19.59348
#
# number of rings (size 3 to 8) (size 9 to 14) (size 15 to 20)
#    0.000    1.250    5.000    1.500    5.250    2.500 
#    2.250    1.250    0.000    0.000    0.000    0.000 
#    0.000    0.000    0.000    0.000    0.000    0.000 
#
# Total GULP energy -198392.865933 kJ/mol
# GULP energy per Si atom -12399.554121 kJ/mol
# Density = 1.954888 g / cm^3
# Si number density = 19.593480 Si / 1000 Ang^3
#
#
#
# Elastic Constant Matrix: (Units=GPa)
#
#
# Indices 1 2 3 4 5 6 
#
# 1 150.8479 37.2378 35.5114 3.3626 -3.6514 -12.5279
# 2 37.2378 96.5259 36.5529 4.5048 6.5805 -3.4561
# 3 35.5114 36.5529 125.8403 -3.3168 2.1507 -0.8229
# 4 3.3626 4.5048 -3.3168 35.6958 -4.5694 2.8157
# 5 -3.6514 6.5805 2.1507 -4.5694 29.1007 -5.6308
# 6 -12.5279 -3.4561 -0.8229 2.8157 -5.6308 16.3243
#
#
#
# Elastic Compliance Matrix: (Units=1/GPa)
#
#
# Indices 1 2 3 4 5 6 
#
# 1 0.008293 -0.002494 -0.001642 -0.000787 0.002938 0.006903
# 2 -0.002494 0.012779 -0.003007 -0.002072 -0.003335 -0.000153
# 3 -0.001642 -0.003007 0.009317 0.001500 -0.000327 -0.001798
# 4 -0.000787 -0.002072 0.001500 0.029365 0.003967 -0.004664
# 5 0.002938 -0.003335 -0.000327 0.003967 0.038893 0.014263
# 6 0.006903 -0.000153 -0.001798 -0.004664 0.014263 0.072157
#
#
# Mechanical properties :
#
#
# Convention : Reuss Voigt Hill
#
# Bulk Modulus (GPa) = 62.09614 65.75760 63.92687
# Shear Modulus (GPa) = 26.25246 33.81829 30.03538
#
# Velocity S-wave (km/s) = 3.66438 4.15902 3.91951
# Velocity P-wave (km/s) = 7.04731 7.52975 7.29252
#
# Compressibility (1/GPa) = 0.01610406
#
# Stress axis : x y z
#
# Youngs Moduli (GPa) = 120.57911 78.25138 107.33522
#
# Poissons Ratio (x) = 0.19517 0.17621
# Poissons Ratio (y) = 0.30074 0.32274
# Poissons Ratio (z) = 0.19795 0.23529
#
# Static dielectric constant tensor:
#      x y z
#    x 2.041660 9.925660 -8.953180 
#    y 9.925660 -58.910000 55.985320 
#    z -8.953180 55.985320 -46.542560 
# 
# 
# High freq. dielectric constant tensor:
#      x y z
#    x 1.760720 -0.001200 -0.004720 
#    y -0.001200 1.755840 -0.009730 
#    z -0.004720 -0.009730 1.784240 
# 
# From -- ./inp_files/218102.got.cif
#   From: 2010.06.25/outbox.cif.g09.slc.cpg/sg2_110_cif.got.tgz:218102.got - 2010.06.27 13:26:56.
