data_PCOD8024312
_publ_section_title
;
Structure prediction by ZEFSAII (Michael W. Deem and Ramdas Pophale) SiO2 
 PCOD8024312
Probable space group: P -1
;
_chemical_formula_sum "Si O2"
_cell_formula_units_Z 16
_cell_length_a 19.050504
_cell_length_b 27.218548
_cell_length_c 15.255929
_cell_angle_alpha 158.886257
_cell_angle_beta 160.766544
_cell_angle_gamma 20.021329
_cell_volume 815.499467
_symmetry_space_group_name_H-M "P -1"
_symmetry_group_IT_number 2
_symmetry_cell_setting 'triclinic'
loop_
_space_group_symop_operation_xyz
x,y,z
-x,-y,-z
loop_
_atom_site_type_symbol
_atom_site_label
_atom_site_fract_x
_atom_site_fract_y
_atom_site_fract_z
Si Si1 0.777603 0.182638 0.766863
Si Si2 0.722911 0.719851 0.102359
Si Si3 0.941464 0.158318 0.241885
Si Si4 0.737928 0.659957 0.655832
Si Si5 0.095757 0.600635 0.830051
Si Si6 0.027348 0.379186 0.950091
Si Si7 0.655889 0.382074 0.124886
Si Si8 0.184225 0.834375 0.702405
O O1 0.540018 0.207568 0.474057
O O2 0.923248 0.258617 0.017707
O O3 0.689178 0.255487 0.880487
O O4 0.956446 0.998998 0.680113
O O5 0.792620 0.664755 0.993173
O O6 0.810812 0.842337 0.438843
O O7 0.431642 0.816353 0.924929
O O8 0.845485 0.566477 0.053829
O O9 0.793255 0.303860 0.245714
O O10 0.782903 0.179890 0.177547
O O11 0.000000 0.000000 0.000000
O O12 0.758776 0.489873 0.384939
O O13 0.931878 0.674325 0.845836
O O14 0.797660 0.685000 0.866472
O O15 0.000000 0.500000 0.500000
O O16 0.375454 0.486800 0.997141
O O17 0.855328 0.302066 0.611423
#
# Coordination Sequence:
#
# PCOD8024312 Si02
#       8
#     2   2   2   2   2   2   2   2
#     4  11  23  40  59  92 133 156 200 259 305 366
#     4  10  23  44  64  88 126 163 208 257 302 366
#     4  11  23  39  63  98 127 161 195 255 321 367
#     4  11  22  41  65  91 121 164 208 254 303 361
#     4  11  21  36  64  91 117 169 203 241 308 370
#     4  10  23  43  65  87 119 167 213 257 301 356
#     4  11  21  38  60  92 131 154 205 254 304 371
#     4  11  25  41  63  93 126 166 204 255 310 365
#
# _framework density 19.619878
#
# number of rings (size 3 to 8) (size 9 to 14) (size 15 to 20)
#    0.000    1.250    5.000    1.125    1.750    6.000 
#    0.000    1.250    0.000    0.000    0.000    0.000 
#    0.000    0.000    0.000    0.000    0.000    0.000 
#
# Total GULP energy -198474.970836 kJ/mol
# GULP energy per Si atom -12404.685677 kJ/mol
# Density = 1.957522 g / cm^3
# Si number density = 19.619878 Si / 1000 Ang^3
#
#
#
# Elastic Constant Matrix: (Units=GPa)
#
#
# Indices 1 2 3 4 5 6 
#
# 1 101.6796 45.4985 40.7110 -17.3665 1.3816 4.9896
# 2 45.4985 97.4398 25.4390 -5.3694 5.4695 0.7023
# 3 40.7110 25.4390 85.9356 -2.7651 -2.0012 -14.8646
# 4 -17.3665 -5.3694 -2.7651 31.1359 0.1070 -1.0674
# 5 1.3816 5.4695 -2.0012 0.1070 39.6143 -5.1868
# 6 4.9896 0.7023 -14.8646 -1.0674 -5.1868 25.5795
#
#
#
# Elastic Compliance Matrix: (Units=1/GPa)
#
#
# Indices 1 2 3 4 5 6 
#
# 1 0.016934 -0.005411 -0.007491 0.007596 -0.001216 -0.007437
# 2 -0.005411 0.013245 -0.001531 -0.000884 -0.001793 -0.000599
# 3 -0.007491 -0.001531 0.017762 -0.002452 0.002991 0.012329
# 4 0.007596 -0.000884 -0.002452 0.035934 -0.000560 -0.001497
# 5 -0.001216 -0.001793 0.002991 -0.000560 0.026656 0.007406
# 6 -0.007437 -0.000599 0.012329 -0.001497 0.007406 0.049165
#
#
# Mechanical properties :
#
#
# Convention : Reuss Voigt Hill
#
# Bulk Modulus (GPa) = 52.42461 56.48356 54.45408
# Shear Modulus (GPa) = 25.65132 30.82639 28.23886
#
# Velocity S-wave (km/s) = 3.61974 3.96811 3.79792
# Velocity P-wave (km/s) = 6.65193 7.06017 6.85909
#
# Compressibility (1/GPa) = 0.01907501
#
# Stress axis : x y z
#
# Youngs Moduli (GPa) = 59.05182 75.49770 56.29994
#
# Poissons Ratio (x) = 0.40853 0.42174
# Poissons Ratio (y) = 0.31954 0.08621
# Poissons Ratio (z) = 0.44236 0.11561
#
# Static dielectric constant tensor:
#      x y z
#    x 3.748030 0.089550 0.155680 
#    y 0.089550 3.499000 -0.103540 
#    z 0.155680 -0.103540 3.779140 
# 
# 
# High freq. dielectric constant tensor:
#      x y z
#    x 1.770950 0.008740 0.002520 
#    y 0.008740 1.757360 -0.003960 
#    z 0.002520 -0.003960 1.770450 
# 
# From -- ./inp_files/66424.got.cif
#   From: 2010.06.25/outbox.cif.g09.slc.cpg/sg2_34_cif.got.tgz:66424.got - 2010.06.27 13:26:56.
