data_PCOD8024948
_publ_section_title
;
Structure prediction by ZEFSAII (Michael W. Deem and Ramdas Pophale) SiO2 
 PCOD8024948
Probable space group: P -1
;
_chemical_formula_sum "Si O2"
_cell_formula_units_Z 14
_cell_length_a 11.416703
_cell_length_b 10.781022
_cell_length_c 11.611821
_cell_angle_alpha 83.654911
_cell_angle_beta 113.153244
_cell_angle_gamma 40.327879
_cell_volume 615.975953
_symmetry_space_group_name_H-M "P -1"
_symmetry_group_IT_number 2
_symmetry_cell_setting 'triclinic'
loop_
_space_group_symop_operation_xyz
x,y,z
-x,-y,-z
loop_
_atom_site_type_symbol
_atom_site_label
_atom_site_fract_x
_atom_site_fract_y
_atom_site_fract_z
Si Si1 0.635727 0.477911 0.142098
Si Si2 0.113013 0.916769 0.335034
Si Si3 0.592870 0.837872 0.822087
Si Si4 0.761076 0.653015 0.467813
Si Si5 0.277171 0.972412 0.862891
Si Si6 0.040175 0.548309 0.186815
Si Si7 0.461480 0.426529 0.647933
O O1 0.493481 0.588807 0.199317
O O2 0.500000 0.500000 0.000000
O O3 0.571361 0.675560 0.056333
O O4 0.959727 0.170887 0.303658
O O5 0.334356 0.666973 0.530595
O O6 0.251650 0.839889 0.277242
O O7 0.884617 0.012265 0.222055
O O8 0.327040 0.006544 0.760785
O O9 0.714794 0.642892 0.789610
O O10 0.511008 0.040083 0.709629
O O11 0.813926 0.659047 0.027052
O O12 0.724857 0.534386 0.452577
O O13 0.000000 0.500000 0.500000
O O14 0.834604 0.620662 0.632079
O O15 0.108104 0.194777 0.868168
#
# Coordination Sequence:
#
# PCOD8024948 Si02
#       7
#     2   2   2   2   2   2   2
#     4  10  24  40  67  97 129 173 221 269 332 395
#     4  10  23  44  66  96 130 173 219 272 331 395
#     4  11  25  43  69 101 136 175 223 281 334 396
#     4  12  24  45  72  98 136 181 221 277 337 399
#     4  11  22  43  66  97 131 174 215 275 333 394
#     4  11  24  43  67  99 136 176 225 274 334 398
#     4  11  23  44  67  95 135 173 218 276 331 396
#
# _framework density 22.728159999999999
#
# number of rings (size 3 to 8) (size 9 to 14) (size 15 to 20)
#    0.000    1.143    2.857    2.143    2.000    8.000 
#    5.143    0.000    0.000    0.000    0.000    0.000 
#    0.000    0.000    0.000    0.000    0.000    0.000 
#
# Total GULP energy -173511.094932 kJ/mol
# GULP energy per Si atom -12393.649638 kJ/mol
# Density = 2.267643 g / cm^3
# Si number density = 22.728160 Si / 1000 Ang^3
#
#
#
# Elastic Constant Matrix: (Units=GPa)
#
#
# Indices 1 2 3 4 5 6 
#
# 1 52.9824 10.9218 30.1993 3.4581 -7.3580 -5.2871
# 2 10.9218 117.2679 42.0956 -2.1532 -21.7974 -0.2720
# 3 30.1993 42.0956 105.4685 13.1384 -23.4748 -3.4260
# 4 3.4581 -2.1532 13.1384 48.6689 3.1575 -12.7836
# 5 -7.3580 -21.7974 -23.4748 3.1575 36.3391 -7.0779
# 6 -5.2871 -0.2720 -3.4260 -12.7836 -7.0779 24.9931
#
#
#
# Elastic Compliance Matrix: (Units=1/GPa)
#
#
# Indices 1 2 3 4 5 6 
#
# 1 0.023108 0.000518 -0.006442 0.001375 0.001721 0.005202
# 2 0.000518 0.010598 -0.003540 0.001572 0.004387 0.001786
# 3 -0.006442 -0.003540 0.014693 -0.003977 0.006490 0.000417
# 4 0.001375 0.001572 -0.003977 0.024859 -0.001140 0.012155
# 5 0.001721 0.004387 0.006490 -0.001140 0.036969 0.011188
# 6 0.005202 0.001786 0.000417 0.012155 0.011188 0.050573
#
#
# Mechanical properties :
#
#
# Convention : Reuss Voigt Hill
#
# Bulk Modulus (GPa) = 33.93300 49.12801 41.53050
# Shear Modulus (GPa) = 26.37790 34.83369 30.60579
#
# Velocity S-wave (km/s) = 3.41043 3.91912 3.67359
# Velocity P-wave (km/s) = 5.52000 6.49167 6.02545
#
# Compressibility (1/GPa) = 0.02946984
#
# Stress axis : x y z
#
# Youngs Moduli (GPa) = 43.27513 94.35443 68.06176
#
# Poissons Ratio (x) = -0.04885 0.43848
# Poissons Ratio (y) = -0.02240 0.24093
# Poissons Ratio (z) = 0.27880 0.33400
#
# Static dielectric constant tensor:
#      x y z
#    x 3.987600 0.137360 -0.605990 
#    y 0.137360 4.881550 -0.698570 
#    z -0.605990 -0.698570 5.115810 
# 
# 
# High freq. dielectric constant tensor:
#      x y z
#    x 1.877840 -0.008180 -0.020780 
#    y -0.008180 1.913030 -0.016440 
#    z -0.020780 -0.016440 1.902370 
# 
# From -- ./inp_files/258306.got.cif
#   From: 2010.06.25/outbox.cif.g09.slc.cpg/sg2_130_cif.got.tgz:258306.got - 2010.06.27 13:26:56.
