data_PCOD8024193
_publ_section_title
;
Structure prediction by ZEFSAII (Michael W. Deem and Ramdas Pophale) SiO2 
 PCOD8024193
Probable space group: P -1
;
_chemical_formula_sum "Si O2"
_cell_formula_units_Z 16
_cell_length_a 12.417850
_cell_length_b 9.057830
_cell_length_c 17.862043
_cell_angle_alpha 28.521551
_cell_angle_beta 133.038551
_cell_angle_gamma 123.528771
_cell_volume 694.693490
_symmetry_space_group_name_H-M "P -1"
_symmetry_group_IT_number 2
_symmetry_cell_setting 'triclinic'
loop_
_space_group_symop_operation_xyz
x,y,z
-x,-y,-z
loop_
_atom_site_type_symbol
_atom_site_label
_atom_site_fract_x
_atom_site_fract_y
_atom_site_fract_z
Si Si1 0.145172 0.614020 0.075470
Si Si2 0.316459 0.417598 0.879106
Si Si3 0.661252 0.025268 0.594490
Si Si4 0.638279 0.440407 0.536781
Si Si5 0.124765 0.639698 0.547278
Si Si6 0.636157 0.122398 0.183171
Si Si7 0.169705 0.917232 0.100200
Si Si8 0.085340 0.783636 0.817521
O O1 0.222987 0.769718 0.110332
O O2 0.988288 0.536671 0.070375
O O3 0.240970 0.310840 0.218982
O O4 0.112226 0.870687 0.879204
O O5 0.202230 0.449411 0.740113
O O6 0.347819 0.747748 0.782506
O O7 0.478864 0.234363 0.018019
O O8 0.247223 0.231043 0.996986
O O9 0.633360 0.141962 0.614136
O O10 0.738930 0.288541 0.471469
O O11 0.500000 0.000000 0.500000
O O12 0.500000 0.500000 0.500000
O O13 0.780035 0.343371 0.698753
O O14 0.659921 0.748117 0.363470
O O15 0.000000 0.500000 0.500000
O O16 0.033582 0.958534 0.394156
O O17 0.759292 0.254911 0.132867
O O18 0.000000 0.000000 0.000000
#
# Coordination Sequence:
#
# PCOD8024193 Si02
#       8
#     2   2   2   2   2   2   2   2
#     4  10  24  45  72 108 148 191 249 301 366 452
#     4  11  27  45  75 105 152 190 248 310 375 445
#     4  11  27  44  77 107 144 201 244 308 374 440
#     4  12  27  48  72 105 152 190 251 304 368 449
#     4  11  25  46  68 105 145 191 250 305 370 446
#     4  11  26  47  72 111 145 198 243 312 376 441
#     4  12  27  44  74 109 147 196 241 299 372 437
#     4  10  23  42  72  98 147 188 242 297 372 433
#
# _framework density 23.031738000000001
#
# number of rings (size 3 to 8) (size 9 to 14) (size 15 to 20)
#    0.000    1.000    1.250    3.000   17.500    0.500 
#    0.000    1.875    0.000    0.000    0.000    0.000 
#    0.000    0.000    0.000    0.000    0.000    0.000 
#
# Total GULP energy -198281.719175 kJ/mol
# GULP energy per Si atom -12392.607448 kJ/mol
# Density = 2.297932 g / cm^3
# Si number density = 23.031738 Si / 1000 Ang^3
#
#
#
# Elastic Constant Matrix: (Units=GPa)
#
#
# Indices 1 2 3 4 5 6 
#
# 1 142.5470 28.7722 47.2681 5.2690 15.6401 23.2613
# 2 28.7722 115.6437 48.8975 17.3855 10.3490 -4.7279
# 3 47.2681 48.8975 146.0591 24.4771 8.4444 1.0838
# 4 5.2690 17.3855 24.4771 40.8724 0.5879 7.2117
# 5 15.6401 10.3490 8.4444 0.5879 33.6048 4.1113
# 6 23.2613 -4.7279 1.0838 7.2117 4.1113 43.9138
#
#
#
# Elastic Compliance Matrix: (Units=1/GPa)
#
#
# Indices 1 2 3 4 5 6 
#
# 1 0.009218 -0.001443 -0.002636 0.001932 -0.002600 -0.005047
# 2 -0.001443 0.010897 -0.002495 -0.003412 -0.002338 0.002778
# 3 -0.002636 -0.002495 0.009296 -0.004455 -0.000468 0.001674
# 4 0.001932 -0.003412 -0.004455 0.029418 0.001521 -0.006254
# 5 -0.002600 -0.002338 -0.000468 0.001521 0.032037 -0.002112
# 6 -0.005047 0.002778 0.001674 -0.006254 -0.002112 0.026928
#
#
# Mechanical properties :
#
#
# Convention : Reuss Voigt Hill
#
# Bulk Modulus (GPa) = 61.48904 72.68061 67.08482
# Shear Modulus (GPa) = 36.66707 42.29900 39.48304
#
# Velocity S-wave (km/s) = 3.99435 4.29015 4.14489
# Velocity P-wave (km/s) = 6.93026 7.49438 7.21784
#
# Compressibility (1/GPa) = 0.01626306
#
# Stress axis : x y z
#
# Youngs Moduli (GPa) = 108.48307 91.77020 107.57332
#
# Poissons Ratio (x) = 0.13242 0.28358
# Poissons Ratio (y) = 0.15654 0.26837
# Poissons Ratio (z) = 0.28597 0.22895
#
# Static dielectric constant tensor:
#      x y z
#    x 4.176170 0.170750 0.346440 
#    y 0.170750 4.272360 -0.042280 
#    z 0.346440 -0.042280 3.690110 
# 
# 
# High freq. dielectric constant tensor:
#      x y z
#    x 1.914300 0.008300 0.005690 
#    y 0.008300 1.912910 0.001040 
#    z 0.005690 0.001040 1.916650 
# 
# From -- ./inp_files/566376.got.cif
#   From: 2010.06.25/outbox.cif.g09.slc.cpg/sg2_284_cif.got.tgz:566376.got - 2010.06.27 13:26:56.
