data_PCOD8024288
_publ_section_title
;
Structure prediction by ZEFSAII (Michael W. Deem and Ramdas Pophale) SiO2 
 PCOD8024288
Probable space group: P -1
;
_chemical_formula_sum "Si O2"
_cell_formula_units_Z 14
_cell_length_a 13.924527
_cell_length_b 23.420992
_cell_length_c 25.577810
_cell_angle_alpha 10.834329
_cell_angle_beta 23.243126
_cell_angle_gamma 26.444892
_cell_volume 615.934487
_symmetry_space_group_name_H-M "P -1"
_symmetry_group_IT_number 2
_symmetry_cell_setting 'triclinic'
loop_
_space_group_symop_operation_xyz
x,y,z
-x,-y,-z
loop_
_atom_site_type_symbol
_atom_site_label
_atom_site_fract_x
_atom_site_fract_y
_atom_site_fract_z
Si Si1 0.441837 0.862737 0.293291
Si Si2 0.943318 0.647433 0.217027
Si Si3 0.469979 0.579174 0.187718
Si Si4 0.353283 0.793502 0.716424
Si Si5 0.190295 0.314418 0.479010
Si Si6 0.036489 0.279969 0.400639
Si Si7 0.737330 0.116652 0.527318
O O1 0.310689 0.722707 0.537436
O O2 0.234759 0.849724 0.364611
O O3 0.652462 0.662383 0.348940
O O4 0.564975 0.211849 0.930913
O O5 0.077276 0.968387 0.843727
O O6 0.018642 0.540849 0.332788
O O7 0.015132 0.398816 0.363412
O O8 0.223981 0.403777 0.443795
O O9 0.675736 0.346045 0.305987
O O10 0.560205 0.804339 0.892557
O O11 0.545272 0.643732 0.718543
O O12 0.500000 0.000000 0.500000
O O13 0.199811 0.999150 0.571378
O O14 0.164773 0.537711 0.067081
O O15 0.000000 0.000000 0.500000
#
# Coordination Sequence:
#
# PCOD8024288 Si02
#       7
#     2   2   2   2   2   2   2
#     4  10  29  42  71  97 140 176 223 266 339 394
#     4  12  25  46  65  99 136 181 223 270 325 404
#     4  10  25  43  65 100 128 172 221 275 328 391
#     4  12  24  45  68 102 133 172 226 275 338 383
#     4  12  26  42  72  97 136 176 224 277 331 392
#     4  12  25  43  72  98 135 175 222 280 328 395
#     4  10  23  43  64  95 133 171 219 270 330 389
#
# _framework density 22.729690000000002
#
# number of rings (size 3 to 8) (size 9 to 14) (size 15 to 20)
#    0.857    0.000    2.857    3.000    8.000    1.143 
#    0.000    2.857    0.000    0.000    0.000    0.000 
#    0.000    0.000    0.000    0.000    0.000    0.000 
#
# Total GULP energy -173509.625277 kJ/mol
# GULP energy per Si atom -12393.544663 kJ/mol
# Density = 2.267796 g / cm^3
# Si number density = 22.729690 Si / 1000 Ang^3
#
#
#
# Elastic Constant Matrix: (Units=GPa)
#
#
# Indices 1 2 3 4 5 6 
#
# 1 91.4068 22.7378 40.0215 -2.9597 -5.4103 -29.9041
# 2 22.7378 98.5099 18.3230 -5.7874 0.9155 -20.7988
# 3 40.0215 18.3230 75.0894 -14.8725 8.4320 -11.4077
# 4 -2.9597 -5.7874 -14.8725 25.8339 -12.2615 8.1256
# 5 -5.4103 0.9155 8.4320 -12.2615 31.5984 -1.6553
# 6 -29.9041 -20.7988 -11.4077 8.1256 -1.6553 43.3982
#
#
#
# Elastic Compliance Matrix: (Units=1/GPa)
#
#
# Indices 1 2 3 4 5 6 
#
# 1 0.019312 -0.000506 -0.009933 -0.005073 0.004610 0.011579
# 2 -0.000506 0.011615 -0.001857 0.000177 0.000388 0.004711
# 3 -0.009933 -0.001857 0.020809 0.010114 -0.003500 -0.004292
# 4 -0.005073 0.000177 0.010114 0.055568 0.017440 -0.010491
# 5 0.004610 0.000388 -0.003500 0.017440 0.040164 0.000709
# 6 0.011579 0.004711 -0.004292 -0.010491 0.000709 0.034142
#
#
# Mechanical properties :
#
#
# Convention : Reuss Voigt Hill
#
# Bulk Modulus (GPa) = 36.84113 47.46340 42.15227
# Shear Modulus (GPa) = 23.22892 32.42769 27.82830
#
# Velocity S-wave (km/s) = 3.20028 3.78122 3.50282
# Velocity P-wave (km/s) = 5.46803 6.32381 5.91142
#
# Compressibility (1/GPa) = 0.02714358
#
# Stress axis : x y z
#
# Youngs Moduli (GPa) = 51.78223 86.09524 48.05645
#
# Poissons Ratio (x) = 0.04357 0.47733
# Poissons Ratio (y) = 0.02621 0.08925
# Poissons Ratio (z) = 0.51433 0.15990
#
# Static dielectric constant tensor:
#      x y z
#    x 4.195580 0.016130 -0.110480 
#    y 0.016130 4.005450 -0.059140 
#    z -0.110480 -0.059140 4.138360 
# 
# 
# High freq. dielectric constant tensor:
#      x y z
#    x 1.897980 -0.010050 -0.004560 
#    y -0.010050 1.896910 -0.007390 
#    z -0.004560 -0.007390 1.896340 
# 
# From -- ./inp_files/623719.got.cif
#   From: 2010.06.25/outbox.cif.g09.slc.cpg/sg2_312_cif.got.tgz:623719.got - 2010.06.27 13:26:56.
