data_PCOD8024753
_publ_section_title
;
Structure prediction by ZEFSAII (Michael W. Deem and Ramdas Pophale) SiO2 
 PCOD8024753
Probable space group: P -1
;
_chemical_formula_sum "Si O2"
_cell_formula_units_Z 16
_cell_length_a 16.301985
_cell_length_b 11.177345
_cell_length_c 15.298015
_cell_angle_alpha 45.998601
_cell_angle_beta 25.991691
_cell_angle_gamma 62.809748
_cell_volume 744.467775
_symmetry_space_group_name_H-M "P -1"
_symmetry_group_IT_number 2
_symmetry_cell_setting 'triclinic'
loop_
_space_group_symop_operation_xyz
x,y,z
-x,-y,-z
loop_
_atom_site_type_symbol
_atom_site_label
_atom_site_fract_x
_atom_site_fract_y
_atom_site_fract_z
Si Si1 0.901293 0.216799 0.186979
Si Si2 0.488876 0.497364 0.740175
Si Si3 0.086539 0.675310 0.398258
Si Si4 0.614838 0.473924 0.986401
Si Si5 0.848795 0.902235 0.111592
Si Si6 0.390167 0.916463 0.843170
Si Si7 0.340286 0.770902 0.279516
Si Si8 0.955130 0.588011 0.869534
O O1 0.043449 0.325384 0.081252
O O2 0.645007 0.083675 0.526108
O O3 0.931707 0.377823 0.005626
O O4 0.996903 0.091633 0.118197
O O5 0.662480 0.680306 0.423656
O O6 0.515484 0.317138 0.783437
O O7 0.522680 0.538569 0.790581
O O8 0.245416 0.436936 0.980635
O O9 0.212317 0.659468 0.369551
O O10 0.000000 0.500000 0.500000
O O11 0.866446 0.665169 0.649081
O O12 0.261290 0.877549 0.078748
O O13 0.500000 0.500000 0.000000
O O14 0.624381 0.278931 0.076536
O O15 0.730833 0.020388 0.141879
O O16 0.000000 0.000000 0.000000
O O17 0.173607 0.739867 0.531488
O O18 0.500000 0.000000 0.000000
#
# Coordination Sequence:
#
# PCOD8024753 Si02
#       8
#     2   2   2   2   2   2   2   2
#     4  11  25  46  69 102 144 184 238 290 357 425
#     4  12  25  46  73 104 145 182 241 293 360 422
#     4  10  23  43  71  99 142 185 232 294 361 420
#     4  11  25  44  73 104 144 189 230 294 366 428
#     4  12  28  42  76 109 143 187 236 297 361 429
#     4  11  25  45  70 105 142 182 237 292 362 429
#     4  12  26  48  71 102 143 192 244 297 357 432
#     4  11  25  46  71  98 141 192 235 294 353 425
#
# _framework density 21.491866000000002
#
# number of rings (size 3 to 8) (size 9 to 14) (size 15 to 20)
#    0.000    0.750    3.750    3.000    8.750    4.000 
#    0.000    0.000    0.000    0.000    0.000    0.000 
#    0.000    0.000    0.000    0.000    0.000    0.000 
#
# Total GULP energy -198434.965763 kJ/mol
# GULP energy per Si atom -12402.185360 kJ/mol
# Density = 2.144295 g / cm^3
# Si number density = 21.491866 Si / 1000 Ang^3
#
#
#
# Elastic Constant Matrix: (Units=GPa)
#
#
# Indices 1 2 3 4 5 6 
#
# 1 106.3214 48.4491 18.0459 2.2707 4.2534 -12.9615
# 2 48.4491 119.8976 34.8582 -5.2510 -1.3759 -18.6223
# 3 18.0459 34.8582 137.0157 -1.1534 11.4005 -13.1089
# 4 2.2707 -5.2510 -1.1534 28.3923 -0.9921 3.8563
# 5 4.2534 -1.3759 11.4005 -0.9921 32.7144 1.4019
# 6 -12.9615 -18.6223 -13.1089 3.8563 1.4019 36.4218
#
#
#
# Elastic Compliance Matrix: (Units=1/GPa)
#
#
# Indices 1 2 3 4 5 6 
#
# 1 0.011880 -0.004562 -0.000058 -0.002157 -0.001875 0.002175
# 2 -0.004562 0.011401 -0.002125 0.002019 0.001739 0.003160
# 3 -0.000058 -0.002125 0.008294 -0.000436 -0.003073 0.002042
# 4 -0.002157 0.002019 -0.000436 0.036328 0.001782 -0.003808
# 5 -0.001875 0.001739 -0.003073 0.001782 0.032108 -0.002309
# 6 0.002175 0.003160 0.002042 -0.003808 -0.002309 0.031073
#
#
# Mechanical properties :
#
#
# Convention : Reuss Voigt Hill
#
# Bulk Modulus (GPa) = 55.29407 62.88233 59.08820
# Shear Modulus (GPa) = 33.19969 36.96447 35.08208
#
# Velocity S-wave (km/s) = 3.93460 4.15170 4.04461
# Velocity P-wave (km/s) = 6.81361 7.23217 7.02601
#
# Compressibility (1/GPa) = 0.01808512
#
# Stress axis : x y z
#
# Youngs Moduli (GPa) = 84.17251 87.71244 120.56696
#
# Poissons Ratio (x) = 0.40014 0.00702
# Poissons Ratio (y) = 0.38399 0.25620
# Poissons Ratio (z) = 0.00490 0.18639
#
# Static dielectric constant tensor:
#      x y z
#    x 3.787160 -0.226830 -0.271440 
#    y -0.226830 3.747230 -0.124720 
#    z -0.271440 -0.124720 2.962390 
# 
# 
# High freq. dielectric constant tensor:
#      x y z
#    x 1.851340 -0.007420 0.005550 
#    y -0.007420 1.834640 0.013150 
#    z 0.005550 0.013150 1.864890 
# 
# From -- ./inp_files/532323.got.cif
#   From: 2010.06.25/outbox.cif.g09.slc.cpg/sg2_267_cif.got.tgz:532323.got - 2010.06.27 13:26:56.
