data_PCOD8024879
_publ_section_title
;
Structure prediction by ZEFSAII (Michael W. Deem and Ramdas Pophale) SiO2 
 PCOD8024879
Probable space group: P -1
;
_chemical_formula_sum "Si O2"
_cell_formula_units_Z 16
_cell_length_a 8.994351
_cell_length_b 17.639610
_cell_length_c 5.103074
_cell_angle_alpha 59.445832
_cell_angle_beta 87.804410
_cell_angle_gamma 82.493970
_cell_volume 690.869815
_symmetry_space_group_name_H-M "P -1"
_symmetry_group_IT_number 2
_symmetry_cell_setting 'triclinic'
loop_
_space_group_symop_operation_xyz
x,y,z
-x,-y,-z
loop_
_atom_site_type_symbol
_atom_site_label
_atom_site_fract_x
_atom_site_fract_y
_atom_site_fract_z
Si Si1 0.015396 0.689232 0.705217
Si Si2 0.478612 0.748448 0.256053
Si Si3 0.163410 0.747138 0.081082
Si Si4 0.094680 0.440257 0.392173
Si Si5 0.610096 0.573181 0.858307
Si Si6 0.162250 0.945110 0.608683
Si Si7 0.741727 0.690185 0.023971
Si Si8 0.364056 0.942315 0.096569
O O1 0.080701 0.743648 0.372918
O O2 0.008984 0.585566 0.800980
O O3 0.842194 0.730360 0.720745
O O4 0.117049 0.682472 0.970716
O O5 0.339820 0.720592 0.151982
O O6 0.534389 0.666156 0.581367
O O7 0.431695 0.838390 0.262456
O O8 0.610856 0.763863 0.012941
O O9 0.125340 0.845324 0.800378
O O10 0.247800 0.474978 0.229700
O O11 0.000000 0.500000 0.500000
O O12 0.142927 0.343443 0.693064
O O13 0.668009 0.602701 0.085184
O O14 0.500000 0.500000 0.000000
O O15 0.262849 0.960528 0.326103
O O16 0.256416 0.970748 0.807977
O O17 0.000000 0.000000 0.500000
O O18 0.500000 0.000000 0.000000
#
# Coordination Sequence:
#
# PCOD8024879 Si02
#       8
#     2   2   2   2   2   2   2   2
#     4  11  23  44  66 103 131 182 235 277 352 419
#     4  10  25  44  71 103 144 182 239 293 346 430
#     4  11  24  43  73 102 137 184 232 285 355 419
#     4  10  23  44  64  95 138 176 233 293 349 422
#     4  10  24  43  69  99 139 184 236 291 357 409
#     4  11  25  49  69 109 150 182 235 295 352 434
#     4  10  23  45  64 100 139 178 238 293 348 419
#     4  11  25  48  75 109 144 194 237 290 361 424
#
# _framework density 23.159212
#
# number of rings (size 3 to 8) (size 9 to 14) (size 15 to 20)
#    0.000    1.500    1.250    2.250    5.250    8.000 
#    6.750    0.000    0.000    0.000    0.000    0.000 
#    0.000    0.000    0.000    0.000    0.000    0.000 
#
# Total GULP energy -198320.681361 kJ/mol
# GULP energy per Si atom -12395.042585 kJ/mol
# Density = 2.310650 g / cm^3
# Si number density = 23.159212 Si / 1000 Ang^3
#
#
#
# Elastic Constant Matrix: (Units=GPa)
#
#
# Indices 1 2 3 4 5 6 
#
# 1 163.2369 71.3199 59.5275 7.1555 -15.2253 -9.3662
# 2 71.3199 82.5613 38.6980 11.4543 -7.7630 -0.9365
# 3 59.5275 38.6980 89.1627 27.0944 -23.8033 -9.3444
# 4 7.1555 11.4543 27.0944 38.2850 -1.9174 -1.8651
# 5 -15.2253 -7.7630 -23.8033 -1.9174 40.2467 11.5332
# 6 -9.3662 -0.9365 -9.3444 -1.8651 11.5332 50.0076
#
#
#
# Elastic Compliance Matrix: (Units=1/GPa)
#
#
# Indices 1 2 3 4 5 6 
#
# 1 0.011412 -0.007910 -0.005475 0.004139 -0.000611 0.001262
# 2 -0.007910 0.020766 -0.003299 -0.002510 -0.000579 -0.001669
# 3 -0.005475 -0.003299 0.023345 -0.013976 0.010327 0.000372
# 4 0.004139 -0.002510 -0.013976 0.035740 -0.005701 0.000764
# 5 -0.000611 -0.000579 0.010327 -0.005701 0.031999 -0.005788
# 6 0.001262 -0.001669 0.000372 0.000764 -0.005788 0.021635
#
#
# Mechanical properties :
#
#
# Convention : Reuss Voigt Hill
#
# Bulk Modulus (GPa) = 45.13202 74.89464 60.01333
# Shear Modulus (GPa) = 26.93244 36.73558 31.83401
#
# Velocity S-wave (km/s) = 3.41387 3.98706 3.71154
# Velocity P-wave (km/s) = 5.92194 7.32153 6.65861
#
# Compressibility (1/GPa) = 0.02215722
#
# Stress axis : x y z
#
# Youngs Moduli (GPa) = 87.62420 48.15570 42.83509
#
# Poissons Ratio (x) = 0.38089 0.23452
# Poissons Ratio (y) = 0.69308 0.14130
# Poissons Ratio (z) = 0.47973 0.15885
#
# Static dielectric constant tensor:
#      x y z
#    x 4.710840 0.028230 0.105240 
#    y 0.028230 4.094420 0.292010 
#    z 0.105240 0.292010 4.285510 
# 
# 
# High freq. dielectric constant tensor:
#      x y z
#    x 1.942660 0.002930 -0.003790 
#    y 0.002930 1.904040 0.028410 
#    z -0.003790 0.028410 1.916880 
# 
# From -- ./inp_files/43263.got.cif
#   From: 2010.06.25/outbox.cif.g09.slc.cpg/sg2_22_cif.got.tgz:43263.got - 2010.06.27 13:26:56.
