data_PCOD8024173
_publ_section_title
;
Structure prediction by ZEFSAII (Michael W. Deem and Ramdas Pophale) SiO2 
 PCOD8024173
Probable space group: P -1
;
_chemical_formula_sum "Si O2"
_cell_formula_units_Z 14
_cell_length_a 16.027193
_cell_length_b 5.479957
_cell_length_c 7.006858
_cell_angle_alpha 121.708295
_cell_angle_beta 102.175490
_cell_angle_gamma 90.966341
_cell_volume 505.694960
_symmetry_space_group_name_H-M "P -1"
_symmetry_group_IT_number 2
_symmetry_cell_setting 'triclinic'
loop_
_space_group_symop_operation_xyz
x,y,z
-x,-y,-z
loop_
_atom_site_type_symbol
_atom_site_label
_atom_site_fract_x
_atom_site_fract_y
_atom_site_fract_z
Si Si1 0.564342 0.280435 0.472121
Si Si2 0.000341 0.844534 0.137057
Si Si3 0.756822 0.362165 0.622589
Si Si4 0.742507 0.406242 0.108918
Si Si5 0.817780 0.948399 0.165140
Si Si6 0.185385 0.116222 0.350335
Si Si7 0.549329 0.237975 0.883620
O O1 0.500000 0.500000 0.500000
O O2 0.662588 0.405152 0.519723
O O3 0.568099 0.175848 0.647311
O O4 0.523334 0.031432 0.199962
O O5 0.917492 0.920809 0.239908
O O6 0.090166 0.997635 0.334832
O O7 0.000000 0.500000 0.000000
O O8 0.000000 0.000000 0.000000
O O9 0.814892 0.692452 0.773897
O O10 0.792700 0.133729 0.406925
O O11 0.760897 0.167111 0.742412
O O12 0.759444 0.616972 0.011989
O O13 0.771430 0.627060 0.386169
O O14 0.798942 0.135819 0.042639
O O15 0.641961 0.280977 0.049305
O O16 0.500000 0.500000 0.000000
#
# Coordination Sequence:
#
# PCOD8024173 Si02
#       7
#     2   2   2   2   2   2   2
#     4  11  28  46  72 110 151 196 251 320 372 445
#     4  12  26  44  67 106 149 187 241 305 375 438
#     4  10  23  44  73  99 141 187 243 295 370 433
#     4  10  23  42  72 102 135 188 249 294 363 437
#     4  10  23  43  68 102 139 190 242 297 366 444
#     4  10  23  44  70 101 139 187 242 299 362 443
#     4  11  26  47  73 106 151 199 255 312 378 449
#
# _framework density 27.684674999999999
#
# number of rings (size 3 to 8) (size 9 to 14) (size 15 to 20)
#    0.000    1.429    0.000    3.429   10.000    8.571 
#    0.000    0.000    0.000    0.000    0.000    0.000 
#    0.000    0.000    0.000    0.000    0.000    0.000 
#
# Total GULP energy -173513.755485 kJ/mol
# GULP energy per Si atom -12393.839678 kJ/mol
# Density = 2.762166 g / cm^3
# Si number density = 27.684675 Si / 1000 Ang^3
#
#
#
# Elastic Constant Matrix: (Units=GPa)
#
#
# Indices 1 2 3 4 5 6 
#
# 1 196.6174 56.2128 25.3943 33.1685 44.7507 -31.4242
# 2 56.2128 224.3008 57.2375 37.1805 0.9680 -24.0352
# 3 25.3943 57.2375 89.5709 27.4895 23.5417 -4.1290
# 4 33.1685 37.1805 27.4895 69.2120 5.6969 -4.6574
# 5 44.7507 0.9680 23.5417 5.6969 53.1647 5.9943
# 6 -31.4242 -24.0352 -4.1290 -4.6574 5.9943 57.6395
#
#
#
# Elastic Compliance Matrix: (Units=1/GPa)
#
#
# Indices 1 2 3 4 5 6 
#
# 1 0.008353 -0.001546 0.001843 -0.002932 -0.008028 0.004639
# 2 -0.001546 0.006116 -0.003814 -0.001198 0.002891 0.001037
# 3 0.001843 -0.003814 0.016835 -0.004741 -0.008556 0.001127
# 4 -0.002932 -0.001198 -0.004741 0.018064 0.002796 -0.001269
# 5 -0.008028 0.002891 -0.008556 0.002796 0.029754 -0.006653
# 6 0.004639 0.001037 0.001127 -0.001269 -0.006653 0.020981
#
#
# Mechanical properties :
#
#
# Convention : Reuss Voigt Hill
#
# Bulk Modulus (GPa) = 41.20258 87.57537 64.38898
# Shear Modulus (GPa) = 43.39234 60.77955 52.08595
#
# Velocity S-wave (km/s) = 3.96331 4.69062 4.34222
# Velocity P-wave (km/s) = 5.98823 7.81266 6.96048
#
# Compressibility (1/GPa) = 0.02427032
#
# Stress axis : x y z
#
# Youngs Moduli (GPa) = 119.71299 163.49634 59.40079
#
# Poissons Ratio (x) = 0.25278 -0.10950
# Poissons Ratio (y) = 0.18509 0.22658
# Poissons Ratio (z) = -0.22068 0.62364
#
# Static dielectric constant tensor:
#      x y z
#    x 5.515660 0.242680 0.168040 
#    y 0.242680 6.812740 -0.683350 
#    z 0.168040 -0.683350 5.972560 
# 
# 
# High freq. dielectric constant tensor:
#      x y z
#    x 2.116420 0.000470 -0.018760 
#    y 0.000470 2.164040 -0.000470 
#    z -0.018760 -0.000470 2.171350 
# 
# From -- ./inp_files/107848.got.cif
#   From: 2010.06.25/outbox.cif.g09.slc.cpg/sg2_54_cif.got.tgz:107848.got - 2010.06.27 13:26:56.
