data_PCOD8024229
_publ_section_title
;
Structure prediction by ZEFSAII (Michael W. Deem and Ramdas Pophale) SiO2 
 PCOD8024229
Probable space group: P -1
;
_chemical_formula_sum "Si O2"
_cell_formula_units_Z 14
_cell_length_a 15.871674
_cell_length_b 9.385113
_cell_length_c 9.084099
_cell_angle_alpha 73.332540
_cell_angle_beta 35.788638
_cell_angle_gamma 55.418148
_cell_volume 607.681711
_symmetry_space_group_name_H-M "P -1"
_symmetry_group_IT_number 2
_symmetry_cell_setting 'triclinic'
loop_
_space_group_symop_operation_xyz
x,y,z
-x,-y,-z
loop_
_atom_site_type_symbol
_atom_site_label
_atom_site_fract_x
_atom_site_fract_y
_atom_site_fract_z
Si Si1 0.395571 0.069712 0.474557
Si Si2 0.603292 0.168769 0.008474
Si Si3 0.970662 0.847135 0.642838
Si Si4 0.259655 0.635205 0.088683
Si Si5 0.449146 0.784491 0.266435
Si Si6 0.289807 0.664301 0.726130
Si Si7 0.995383 0.325961 0.047773
O O1 0.418691 0.221746 0.326845
O O2 0.500000 0.000000 0.500000
O O3 0.491175 0.902530 0.269767
O O4 0.186931 0.157034 0.760546
O O5 0.627228 0.326695 0.973447
O O6 0.616671 0.137359 0.825293
O O7 0.756744 0.961502 0.914369
O O8 0.081271 0.686541 0.409886
O O9 0.043119 0.742829 0.727466
O O10 0.000000 0.000000 0.500000
O O11 0.370333 0.423750 0.943478
O O12 0.210729 0.756671 0.972233
O O13 0.284433 0.803100 0.577877
O O14 0.500000 0.500000 0.500000
O O15 0.168788 0.606285 0.850349
O O16 0.000000 0.500000 0.000000
#
# Coordination Sequence:
#
# PCOD8024229 Si02
#       7
#     2   2   2   2   2   2   2
#     4  12  27  47  71 103 156 195 243 305 379 440
#     4  11  23  45  70 105 148 194 238 309 376 434
#     4  10  23  45  71 106 143 190 249 301 360 434
#     4  10  23  42  76 101 143 191 250 309 359 437
#     4  11  25  43  75 104 142 194 256 298 369 439
#     4  10  24  44  72 106 140 185 252 302 358 433
#     4  12  29  47  76 109 149 201 247 305 378 443
#
# _framework density 23.038377000000001
#
# number of rings (size 3 to 8) (size 9 to 14) (size 15 to 20)
#    0.000    1.143    1.429    3.429   14.000    0.571 
#    0.000    1.429    0.000    0.000    0.000    0.000 
#    0.000    0.000    0.000    0.000    0.000    0.000 
#
# Total GULP energy -173448.060464 kJ/mol
# GULP energy per Si atom -12389.147176 kJ/mol
# Density = 2.298594 g / cm^3
# Si number density = 23.038377 Si / 1000 Ang^3
#
#
#
# Elastic Constant Matrix: (Units=GPa)
#
#
# Indices 1 2 3 4 5 6 
#
# 1 160.7295 39.2373 46.6842 -7.1852 14.2914 -8.1276
# 2 39.2373 85.6748 28.4445 -2.5509 8.2570 -1.7825
# 3 46.6842 28.4445 126.9474 -6.7085 12.3146 -11.7657
# 4 -7.1852 -2.5509 -6.7085 43.3793 -1.4848 6.2886
# 5 14.2914 8.2570 12.3146 -1.4848 48.3791 -3.4986
# 6 -8.1276 -1.7825 -11.7657 6.2886 -3.4986 30.5073
#
#
#
# Elastic Compliance Matrix: (Units=1/GPa)
#
#
# Indices 1 2 3 4 5 6 
#
# 1 0.007630 -0.002685 -0.001975 0.000637 -0.001212 0.000844
# 2 -0.002685 0.013670 -0.002043 0.000130 -0.001078 -0.000855
# 3 -0.001975 -0.002043 0.009468 0.000576 -0.001262 0.002743
# 4 0.000637 0.000130 0.000576 0.023912 0.000050 -0.004524
# 5 -0.001212 -0.001078 -0.001262 0.000050 0.021651 0.001600
# 6 0.000844 -0.000855 0.002743 -0.004524 0.001600 0.035128
#
#
# Mechanical properties :
#
#
# Convention : Reuss Voigt Hill
#
# Bulk Modulus (GPa) = 57.59815 66.89819 62.24817
# Shear Modulus (GPa) = 38.26948 41.71884 39.99416
#
# Velocity S-wave (km/s) = 4.08010 4.26001 4.17103
# Velocity P-wave (km/s) = 6.87398 7.30053 7.09046
#
# Compressibility (1/GPa) = 0.01736167
#
# Stress axis : x y z
#
# Youngs Moduli (GPa) = 131.06806 73.15190 105.61500
#
# Poissons Ratio (x) = 0.19643 0.20855
# Poissons Ratio (y) = 0.35195 0.21581
# Poissons Ratio (z) = 0.25881 0.14948
#
# Static dielectric constant tensor:
#      x y z
#    x 4.317020 -0.233120 0.308300 
#    y -0.233120 4.065150 -0.145730 
#    z 0.308300 -0.145730 5.041950 
# 
# 
# High freq. dielectric constant tensor:
#      x y z
#    x 1.906290 -0.009790 0.017320 
#    y -0.009790 1.895570 -0.011240 
#    z 0.017320 -0.011240 1.933350 
# 
# From -- ./inp_files/184473.got.cif
#   From: 2010.06.25/outbox.cif.g09.slc.cpg/sg2_93_cif.got.tgz:184473.got - 2010.06.27 13:26:56.
