data_PCOD8024344
_publ_section_title
;
Structure prediction by ZEFSAII (Michael W. Deem and Ramdas Pophale) SiO2 
 PCOD8024344
Probable space group: P -1
;
_chemical_formula_sum "Si O2"
_cell_formula_units_Z 16
_cell_length_a 8.317690
_cell_length_b 23.648778
_cell_length_c 9.936802
_cell_angle_alpha 131.274432
_cell_angle_beta 86.329930
_cell_angle_gamma 133.423006
_cell_volume 747.626898
_symmetry_space_group_name_H-M "P -1"
_symmetry_group_IT_number 2
_symmetry_cell_setting 'triclinic'
loop_
_space_group_symop_operation_xyz
x,y,z
-x,-y,-z
loop_
_atom_site_type_symbol
_atom_site_label
_atom_site_fract_x
_atom_site_fract_y
_atom_site_fract_z
Si Si1 0.468650 0.457218 0.084551
Si Si2 0.617917 0.100450 0.939347
Si Si3 0.860446 0.475682 0.604295
Si Si4 0.592345 0.145453 0.454605
Si Si5 0.213786 0.291412 0.361107
Si Si6 0.024579 0.447759 0.801416
Si Si7 0.191422 0.756982 0.121569
Si Si8 0.188885 0.001319 0.010538
O O1 0.678254 0.593617 0.382270
O O2 0.606812 0.427279 0.044517
O O3 0.500000 0.500000 0.000000
O O4 0.104550 0.310648 0.921111
O O5 0.619360 0.131566 0.837052
O O6 0.381405 0.933837 0.699008
O O7 0.511046 0.887780 0.931677
O O8 0.981740 0.226272 0.152453
O O9 0.519344 0.369882 0.413020
O O10 0.000000 0.500000 0.500000
O O11 0.849842 0.406922 0.612145
O O12 0.081108 0.629271 0.892232
O O13 0.558842 0.147315 0.618583
O O14 0.284095 0.046559 0.233399
O O15 0.882971 0.310697 0.641334
O O16 0.028580 0.158377 0.256490
O O17 0.000000 0.500000 0.000000
O O18 0.000000 0.000000 0.000000
#
# Coordination Sequence:
#
# PCOD8024344 Si02
#       8
#     2   2   2   2   2   2   2   2
#     4  11  22  39  68  96 131 177 225 271 322 404
#     4  11  25  43  70  95 134 179 222 281 323 401
#     4  11  26  41  68 100 139 170 213 287 336 388
#     4  11  22  46  67  95 131 174 224 266 329 404
#     4  10  23  43  65  97 126 178 233 256 334 397
#     4  12  22  42  67  97 133 168 219 278 331 389
#     4  11  25  43  65 100 136 172 222 272 343 392
#     4  11  24  42  70  97 127 176 226 277 325 399
#
# _framework density 21.401050000000001
#
# number of rings (size 3 to 8) (size 9 to 14) (size 15 to 20)
#    0.000    1.000    2.500    4.875    7.000    1.000 
#    0.000    0.625    0.000    0.000    0.000    0.000 
#    0.000    0.000    0.000    0.000    0.000    0.000 
#
# Total GULP energy -198328.428143 kJ/mol
# GULP energy per Si atom -12395.526759 kJ/mol
# Density = 2.135234 g / cm^3
# Si number density = 21.401050 Si / 1000 Ang^3
#
#
#
# Elastic Constant Matrix: (Units=GPa)
#
#
# Indices 1 2 3 4 5 6 
#
# 1 147.7881 72.1864 46.5546 -19.2324 11.9229 11.4300
# 2 72.1864 123.0905 54.8331 -23.8244 4.9473 -3.5442
# 3 46.5546 54.8331 103.9816 -17.4860 8.9276 5.0697
# 4 -19.2324 -23.8244 -17.4860 35.6000 -7.6854 -2.8651
# 5 11.9229 4.9473 8.9276 -7.6854 19.1397 -2.3313
# 6 11.4300 -3.5442 5.0697 -2.8651 -2.3313 39.9626
#
#
#
# Elastic Compliance Matrix: (Units=1/GPa)
#
#
# Indices 1 2 3 4 5 6 
#
# 1 0.010541 -0.005557 -0.001177 0.000021 -0.005017 -0.003650
# 2 -0.005557 0.014584 -0.004851 0.005742 0.004770 0.004188
# 3 -0.001177 -0.004851 0.013412 0.001732 -0.003804 -0.001893
# 4 0.000021 0.005742 0.001732 0.035781 0.012498 0.003578
# 5 -0.005017 0.004770 -0.003804 0.012498 0.061766 0.006840
# 6 -0.003650 0.004188 -0.001893 0.003578 0.006840 0.027334
#
#
# Mechanical properties :
#
#
# Convention : Reuss Voigt Hill
#
# Bulk Modulus (GPa) = 65.07001 80.22318 72.64659
# Shear Modulus (GPa) = 26.08092 32.35955 29.22024
#
# Velocity S-wave (km/s) = 3.49474 3.89273 3.69909
# Velocity P-wave (km/s) = 6.83779 7.60076 7.22934
#
# Compressibility (1/GPa) = 0.01536806
#
# Stress axis : x y z
#
# Youngs Moduli (GPa) = 94.86544 68.56717 74.55890
#
# Poissons Ratio (x) = 0.38103 0.08775
# Poissons Ratio (y) = 0.52717 0.36168
# Poissons Ratio (z) = 0.11164 0.33261
#
# Static dielectric constant tensor:
#      x y z
#    x 4.215790 0.055730 -0.020230 
#    y 0.055730 4.076370 -0.220790 
#    z -0.020230 -0.220790 4.164750 
# 
# 
# High freq. dielectric constant tensor:
#      x y z
#    x 1.844980 -0.005250 -0.002100 
#    y -0.005250 1.826640 -0.009250 
#    z -0.002100 -0.009250 1.848830 
# 
# From -- ./inp_files/226491.got.cif
#   From: 2010.06.25/outbox.cif.g09.slc.cpg/sg2_114_cif.got.tgz:226491.got - 2010.06.27 13:26:56.
