data_PCOD8024507
_publ_section_title
;
Structure prediction by ZEFSAII (Michael W. Deem and Ramdas Pophale) SiO2 
 PCOD8024507
Probable space group: P -1
;
_chemical_formula_sum "Si O2"
_cell_formula_units_Z 14
_cell_length_a 24.310860
_cell_length_b 15.074246
_cell_length_c 5.729286
_cell_angle_alpha 103.289164
_cell_angle_beta 92.585680
_cell_angle_gamma 20.549468
_cell_volume 621.988588
_symmetry_space_group_name_H-M "P -1"
_symmetry_group_IT_number 2
_symmetry_cell_setting 'triclinic'
loop_
_space_group_symop_operation_xyz
x,y,z
-x,-y,-z
loop_
_atom_site_type_symbol
_atom_site_label
_atom_site_fract_x
_atom_site_fract_y
_atom_site_fract_z
Si Si1 0.300084 0.522602 0.730091
Si Si2 0.023087 0.888956 0.241591
Si Si3 0.456012 0.698418 0.309566
Si Si4 0.032281 0.702021 0.441789
Si Si5 0.905369 0.743736 0.162587
Si Si6 0.593747 0.826124 0.661257
Si Si7 0.258037 0.890482 0.033099
O O1 0.465116 0.324728 0.731505
O O2 0.372743 0.336214 0.436351
O O3 0.214860 0.599737 0.973740
O O4 0.146153 0.833607 0.795036
O O5 0.024449 0.785532 0.279529
O O6 0.000000 0.000000 0.500000
O O7 0.377608 0.782444 0.104689
O O8 0.300811 0.949323 0.622324
O O9 0.609204 0.387237 0.247845
O O10 0.212956 0.428410 0.462075
O O11 0.024916 0.610152 0.291359
O O12 0.851175 0.001183 0.740272
O O13 0.000000 0.500000 0.000000
O O14 0.896071 0.819028 0.974573
O O15 0.500000 0.000000 0.500000
O O16 0.500000 0.000000 0.000000
#
# Coordination Sequence:
#
# PCOD8024507 Si02
#       7
#     2   2   2   2   2   2   2
#     4  11  25  41  71 105 148 186 243 306 362 450
#     4  11  22  42  71 109 139 186 240 298 379 427
#     4  10  23  43  68 107 137 184 236 305 364 437
#     4  11  25  45  73  98 140 186 240 306 360 441
#     4  11  26  43  72 100 137 189 236 296 370 434
#     4  12  29  47  69 105 149 202 244 297 372 447
#     4  10  23  45  73 100 140 184 241 305 370 426
#
# _framework density 22.50845
#
# number of rings (size 3 to 8) (size 9 to 14) (size 15 to 20)
#    0.000    1.143    1.429    3.000    8.000    6.857 
#    0.000    0.000    0.000    0.000    0.000    0.000 
#    0.000    0.000    0.000    0.000    0.000    0.000 
#
# Total GULP energy -173562.887621 kJ/mol
# GULP energy per Si atom -12397.349116 kJ/mol
# Density = 2.245722 g / cm^3
# Si number density = 22.508450 Si / 1000 Ang^3
#
#
#
# Elastic Constant Matrix: (Units=GPa)
#
#
# Indices 1 2 3 4 5 6 
#
# 1 154.4375 63.3895 76.0297 22.8828 -3.0349 -19.4406
# 2 63.3895 119.4592 41.3283 2.5815 -4.2308 -3.0016
# 3 76.0297 41.3283 134.3396 10.9783 6.5178 1.3633
# 4 22.8828 2.5815 10.9783 27.4638 5.8831 0.2787
# 5 -3.0349 -4.2308 6.5178 5.8831 39.6073 3.7350
# 6 -19.4406 -3.0016 1.3633 0.2787 3.7350 48.6150
#
#
#
# Elastic Compliance Matrix: (Units=1/GPa)
#
#
# Indices 1 2 3 4 5 6 
#
# 1 0.012983 -0.004643 -0.005361 -0.008763 0.002217 0.004935
# 2 -0.004643 0.011131 -0.001072 0.003121 0.000660 -0.001208
# 3 -0.005361 -0.001072 0.010880 0.000714 -0.002200 -0.002350
# 4 -0.008763 0.003121 0.000714 0.044621 -0.006794 -0.003065
# 5 0.002217 0.000660 -0.002200 -0.006794 0.026958 -0.001043
# 6 0.004935 -0.001208 -0.002350 -0.003065 -0.001043 0.022632
#
#
# Mechanical properties :
#
#
# Convention : Reuss Voigt Hill
#
# Bulk Modulus (GPa) = 77.86228 85.52569 81.69398
# Shear Modulus (GPa) = 32.12588 38.30315 35.21452
#
# Velocity S-wave (km/s) = 3.78204 4.12967 3.95967
# Velocity P-wave (km/s) = 7.33071 7.79862 7.56828
#
# Compressibility (1/GPa) = 0.01284319
#
# Stress axis : x y z
#
# Youngs Moduli (GPa) = 77.02150 89.83928 91.91251
#
# Poissons Ratio (x) = 0.41711 0.49276
# Poissons Ratio (y) = 0.35759 0.09849
# Poissons Ratio (z) = 0.41293 0.09627
#
# Static dielectric constant tensor:
#      x y z
#    x 4.209710 0.020710 -0.105100 
#    y 0.020710 4.334680 -0.073010 
#    z -0.105100 -0.073010 4.275650 
# 
# 
# High freq. dielectric constant tensor:
#      x y z
#    x 1.897210 -0.014140 0.005250 
#    y -0.014140 1.882520 0.005760 
#    z 0.005250 0.005760 1.890120 
# 
# From -- ./inp_files/66085.got.cif
#   From: 2010.06.25/outbox.cif.g09.slc.cpg/sg2_34_cif.got.tgz:66085.got - 2010.06.27 13:26:56.
