data_PCOD8024326
_publ_section_title
;
Structure prediction by ZEFSAII (Michael W. Deem and Ramdas Pophale) SiO2 
 PCOD8024326
Probable space group: P -1
;
_chemical_formula_sum "Si O2"
_cell_formula_units_Z 16
_cell_length_a 6.779834
_cell_length_b 10.592500
_cell_length_c 11.588446
_cell_angle_alpha 94.924438
_cell_angle_beta 116.236035
_cell_angle_gamma 74.673223
_cell_volume 719.480598
_symmetry_space_group_name_H-M "P -1"
_symmetry_group_IT_number 2
_symmetry_cell_setting 'triclinic'
loop_
_space_group_symop_operation_xyz
x,y,z
-x,-y,-z
loop_
_atom_site_type_symbol
_atom_site_label
_atom_site_fract_x
_atom_site_fract_y
_atom_site_fract_z
Si Si1 0.640958 0.135251 0.936634
Si Si2 0.971434 0.014159 0.838373
Si Si3 0.499673 0.599546 0.680887
Si Si4 0.289829 0.673972 0.391580
Si Si5 0.659739 0.383382 0.102963
Si Si6 0.168765 0.138244 0.713801
Si Si7 0.377626 0.143144 0.525095
Si Si8 0.146920 0.249916 0.250692
O O1 0.385823 0.130312 0.848423
O O2 0.795591 0.005823 0.029017
O O3 0.616572 0.253798 0.027370
O O4 0.779066 0.138920 0.850983
O O5 0.869077 0.888456 0.815689
O O6 0.036864 0.033988 0.723433
O O7 0.324570 0.643721 0.534347
O O8 0.649357 0.454740 0.680920
O O9 0.380469 0.596740 0.770654
O O10 0.641333 0.707419 0.744456
O O11 0.434543 0.775645 0.394961
O O12 0.018531 0.724602 0.309954
O O13 0.930496 0.367262 0.167611
O O14 0.500000 0.500000 0.000000
O O15 0.244050 0.113437 0.600242
O O16 0.188770 0.229220 0.397407
O O17 0.500000 0.000000 0.500000
#
# Coordination Sequence:
#
# PCOD8024326 Si02
#       8
#     2   2   2   2   2   2   2   2
#     4  10  24  42  61  95 133 172 215 271 321 389
#     4  10  23  43  65  93 133 171 218 264 327 393
#     4  10  24  46  66  92 131 175 218 264 332 376
#     4  10  24  43  68  95 129 172 218 270 316 399
#     4  11  26  41  67  96 132 172 225 270 317 391
#     4  12  23  38  69  96 128 172 212 268 334 383
#     4  11  24  41  67 101 132 163 217 274 330 388
#     4  10  23  44  66  94 130 172 213 275 323 387
#
# _framework density 22.238264000000001
#
# number of rings (size 3 to 8) (size 9 to 14) (size 15 to 20)
#    0.000    1.500    0.000    3.375    5.250   11.500 
#    0.000    3.750    0.000    0.000    0.000    0.000 
#    0.000    0.000    0.000    0.000    0.000    0.000 
#
# Total GULP energy -198229.451276 kJ/mol
# GULP energy per Si atom -12389.340705 kJ/mol
# Density = 2.218765 g / cm^3
# Si number density = 22.238264 Si / 1000 Ang^3
#
#
#
# Elastic Constant Matrix: (Units=GPa)
#
#
# Indices 1 2 3 4 5 6 
#
# 1 76.0559 34.9016 30.4440 -0.3965 -6.3958 -13.6979
# 2 34.9016 97.2912 25.0046 0.6373 6.3533 -12.9626
# 3 30.4440 25.0046 70.4717 1.4947 2.5815 -7.4388
# 4 -0.3965 0.6373 1.4947 35.4662 -10.6701 2.3117
# 5 -6.3958 6.3533 2.5815 -10.6701 51.5838 -7.6803
# 6 -13.6979 -12.9626 -7.4388 2.3117 -7.6803 32.8104
#
#
#
# Elastic Compliance Matrix: (Units=1/GPa)
#
#
# Indices 1 2 3 4 5 6 
#
# 1 0.019261 -0.004866 -0.006194 0.001536 0.004456 0.005649
# 2 -0.004866 0.013017 -0.002191 -0.000930 -0.001959 0.002222
# 3 -0.006194 -0.002191 0.017760 -0.001281 -0.001609 0.000289
# 4 0.001536 -0.000930 -0.001281 0.030293 0.006543 -0.000619
# 5 0.004456 -0.001959 -0.001609 0.006543 0.022434 0.005512
# 6 0.005649 0.002222 0.000289 -0.000619 0.005512 0.035114
#
#
# Mechanical properties :
#
#
# Convention : Reuss Voigt Hill
#
# Bulk Modulus (GPa) = 42.48647 47.16879 44.82763
# Shear Modulus (GPa) = 29.03196 34.20331 31.61764
#
# Velocity S-wave (km/s) = 3.61708 3.92604 3.77472
# Velocity P-wave (km/s) = 6.04905 6.46594 6.26097
#
# Compressibility (1/GPa) = 0.02353690
#
# Stress axis : x y z
#
# Youngs Moduli (GPa) = 51.91944 76.82266 56.30752
#
# Poissons Ratio (x) = 0.37382 0.34875
# Poissons Ratio (y) = 0.25264 0.12334
# Poissons Ratio (z) = 0.32157 0.16828
#
# Static dielectric constant tensor:
#      x y z
#    x 4.197800 -0.254800 0.143720 
#    y -0.254800 4.103940 -0.303430 
#    z 0.143720 -0.303430 4.321600 
# 
# 
# High freq. dielectric constant tensor:
#      x y z
#    x 1.872770 -0.015100 0.004970 
#    y -0.015100 1.867000 -0.012810 
#    z 0.004970 -0.012810 1.895550 
# 
# From -- ./inp_files/364840.got.cif
#   From: 2010.06.25/outbox.cif.g09.slc.cpg/sg2_183_cif.got.tgz:364840.got - 2010.06.27 13:26:56.
