data_PCOD8024080
_publ_section_title
;
Structure prediction by ZEFSAII (Michael W. Deem and Ramdas Pophale) SiO2 
 PCOD8024080
Probable space group: P -1
;
_chemical_formula_sum "Si O2"
_cell_formula_units_Z 14
_cell_length_a 8.422626
_cell_length_b 8.501670
_cell_length_c 9.578010
_cell_angle_alpha 93.487088
_cell_angle_beta 94.255508
_cell_angle_gamma 59.290052
_cell_volume 587.830058
_symmetry_space_group_name_H-M "P -1"
_symmetry_group_IT_number 2
_symmetry_cell_setting 'triclinic'
loop_
_space_group_symop_operation_xyz
x,y,z
-x,-y,-z
loop_
_atom_site_type_symbol
_atom_site_label
_atom_site_fract_x
_atom_site_fract_y
_atom_site_fract_z
Si Si1 0.035182 0.909510 0.351032
Si Si2 0.009166 0.856937 0.884769
Si Si3 0.356727 0.158867 0.099905
Si Si4 0.747944 0.549499 0.119591
Si Si5 0.570813 0.670764 0.640071
Si Si6 0.534318 0.342458 0.663161
Si Si7 0.989968 0.426375 0.646472
O O1 0.248416 0.787217 0.316381
O O2 0.934235 0.790280 0.345532
O O3 0.938258 0.082500 0.252133
O O4 0.000000 0.000000 0.500000
O O5 0.810995 0.868158 0.862784
O O6 0.185054 0.659987 0.927990
O O7 0.000000 0.000000 0.000000
O O8 0.474147 0.166024 0.243186
O O9 0.264344 0.348351 0.018225
O O10 0.500000 0.000000 0.000000
O O11 0.555223 0.666198 0.196973
O O12 0.908700 0.519622 0.232287
O O13 0.463220 0.559338 0.650972
O O14 0.536995 0.729841 0.476987
O O15 0.779831 0.527500 0.681968
O O16 0.000000 0.500000 0.500000
#
# Coordination Sequence:
#
# PCOD8024080 Si02
#       7
#     2   2   2   2   2   2   2
#     4  11  26  44  70 107 142 183 234 295 354 424
#     4  12  28  46  69 104 144 186 240 292 358 427
#     4  12  28  47  70 105 146 188 240 294 357 428
#     4  12  25  46  75 102 138 194 239 296 357 421
#     4  10  23  42  70 100 142 180 236 291 357 419
#     4  10  24  43  72 103 138 184 238 294 358 416
#     4  11  21  43  73 104 136 182 235 292 354 420
#
# _framework density 23.816406000000001
#
# number of rings (size 3 to 8) (size 9 to 14) (size 15 to 20)
#    0.000    0.857    2.857    3.000   10.000    1.714 
#    0.000    2.143    0.000    0.000    0.000    0.000 
#    0.000    0.000    0.000    0.000    0.000    0.000 
#
# Total GULP energy -173526.510131 kJ/mol
# GULP energy per Si atom -12394.750724 kJ/mol
# Density = 2.376220 g / cm^3
# Si number density = 23.816406 Si / 1000 Ang^3
#
#
#
# Elastic Constant Matrix: (Units=GPa)
#
#
# Indices 1 2 3 4 5 6 
#
# 1 66.8847 17.1484 24.2975 1.5085 -3.2142 14.5595
# 2 17.1484 124.4937 44.0901 -0.2079 -6.6602 17.4523
# 3 24.2975 44.0901 136.3001 8.2837 -2.7354 27.0295
# 4 1.5085 -0.2079 8.2837 49.0828 11.0244 -2.0061
# 5 -3.2142 -6.6602 -2.7354 11.0244 41.1883 -0.5329
# 6 14.5595 17.4523 27.0295 -2.0061 -0.5329 36.2547
#
#
#
# Elastic Compliance Matrix: (Units=1/GPa)
#
#
# Indices 1 2 3 4 5 6 
#
# 1 0.016989 -0.000980 -0.001618 -0.000731 0.001189 -0.005167
# 2 -0.000980 0.009406 -0.002387 0.000102 0.001229 -0.002331
# 3 -0.001618 -0.002387 0.009610 -0.001934 0.000573 -0.005464
# 4 -0.000731 0.000102 -0.001934 0.022203 -0.006075 0.002826
# 5 0.001189 0.001229 0.000573 -0.006075 0.026216 -0.001447
# 6 -0.005167 -0.002331 -0.005464 0.002826 -0.001447 0.034989
#
#
# Mechanical properties :
#
#
# Convention : Reuss Voigt Hill
#
# Bulk Modulus (GPa) = 38.41297 55.41672 46.91484
# Shear Modulus (GPa) = 36.21588 41.44799 38.83193
#
# Velocity S-wave (km/s) = 3.90375 4.17623 4.04229
# Velocity P-wave (km/s) = 6.04010 6.82447 6.44423
#
# Compressibility (1/GPa) = 0.02603288
#
# Stress axis : x y z
#
# Youngs Moduli (GPa) = 58.86257 106.31993 104.05696
#
# Poissons Ratio (x) = 0.10422 0.16841
# Poissons Ratio (y) = 0.05770 0.24839
# Poissons Ratio (z) = 0.09527 0.25380
#
# Static dielectric constant tensor:
#      x y z
#    x 4.346210 0.177640 0.050030 
#    y 0.177640 4.321190 0.263080 
#    z 0.050030 0.263080 4.319220 
# 
# 
# High freq. dielectric constant tensor:
#      x y z
#    x 1.940120 0.007810 -0.004470 
#    y 0.007810 1.945520 0.009080 
#    z -0.004470 0.009080 1.956990 
# 
# From -- ./inp_files/156579.got.cif
#   From: 2010.06.25/outbox.cif.g09.slc.cpg/sg2_79_cif.got.tgz:156579.got - 2010.06.27 13:26:56.
