data_PCOD8024825
_publ_section_title
;
Structure prediction by ZEFSAII (Michael W. Deem and Ramdas Pophale) SiO2 
 PCOD8024825
Probable space group: P -1
;
_chemical_formula_sum "Si O2"
_cell_formula_units_Z 16
_cell_length_a 20.775026
_cell_length_b 5.394526
_cell_length_c 8.324321
_cell_angle_alpha 118.566926
_cell_angle_beta 57.193508
_cell_angle_gamma 109.408581
_cell_volume 685.266930
_symmetry_space_group_name_H-M "P -1"
_symmetry_group_IT_number 2
_symmetry_cell_setting 'triclinic'
loop_
_space_group_symop_operation_xyz
x,y,z
-x,-y,-z
loop_
_atom_site_type_symbol
_atom_site_label
_atom_site_fract_x
_atom_site_fract_y
_atom_site_fract_z
Si Si1 0.492045 0.813679 0.793754
Si Si2 0.797169 0.393675 0.856418
Si Si3 0.696412 0.583822 0.779656
Si Si4 0.578386 0.283855 0.614324
Si Si5 0.936054 0.713848 0.649698
Si Si6 0.338953 0.830301 0.846476
Si Si7 0.021068 0.181485 0.869738
Si Si8 0.843980 0.822077 0.513722
O O1 0.532322 0.525567 0.670524
O O2 0.403367 0.718283 0.842154
O O3 0.524459 0.005154 0.657075
O O4 0.500000 0.000000 0.000000
O O5 0.739317 0.392012 0.783111
O O6 0.864108 0.654454 0.856411
O O7 0.845965 0.130601 0.683487
O O8 0.742670 0.361983 0.077852
O O9 0.621813 0.407675 0.752860
O O10 0.755892 0.680107 0.583731
O O11 0.670233 0.847342 0.995080
O O12 0.639329 0.186255 0.374365
O O13 0.897727 0.662494 0.511748
O O14 0.000000 0.500000 0.500000
O O15 0.975192 0.028145 0.733435
O O16 0.113590 0.181970 0.717206
O O17 0.000000 0.500000 0.000000
O O18 0.000000 0.000000 0.000000
#
# Coordination Sequence:
#
# PCOD8024825 Si02
#       8
#     2   2   2   2   2   2   2   2
#     4  12  25  46  75 103 143 188 236 292 355 418
#     4  10  23  43  74  95 136 186 238 290 349 428
#     4  10  24  45  69  97 143 187 234 290 354 424
#     4  12  27  45  73 105 140 190 232 298 351 418
#     4  11  22  44  76  96 133 190 241 280 352 434
#     4  11  25  44  70 107 141 181 241 290 356 423
#     4  12  27  42  68 106 143 174 229 303 355 413
#     4  10  23  45  67  98 133 187 234 284 354 426
#
# _framework density 23.348564
#
# number of rings (size 3 to 8) (size 9 to 14) (size 15 to 20)
#    0.000    1.000    2.500    3.000    8.750    1.000 
#    4.500    0.000    0.000    0.000    0.000    0.000 
#    0.000    0.000    0.000    0.000    0.000    0.000 
#
# Total GULP energy -198362.931233 kJ/mol
# GULP energy per Si atom -12397.683202 kJ/mol
# Density = 2.329542 g / cm^3
# Si number density = 23.348564 Si / 1000 Ang^3
#
#
#
# Elastic Constant Matrix: (Units=GPa)
#
#
# Indices 1 2 3 4 5 6 
#
# 1 66.6979 20.8699 9.2957 12.7193 -19.9663 -9.7759
# 2 20.8699 117.8256 50.2055 -3.5975 -21.8593 -6.0498
# 3 9.2957 50.2055 146.5948 -17.0194 -21.1690 -3.3882
# 4 12.7193 -3.5975 -17.0194 35.4472 2.4619 1.6759
# 5 -19.9663 -21.8593 -21.1690 2.4619 33.9129 -2.0694
# 6 -9.7759 -6.0498 -3.3882 1.6759 -2.0694 38.8553
#
#
#
# Elastic Compliance Matrix: (Units=1/GPa)
#
#
# Indices 1 2 3 4 5 6 
#
# 1 0.022093 -0.001451 0.000073 -0.009260 0.013183 0.006441
# 2 -0.001451 0.010898 -0.002996 -0.000179 0.004393 0.001312
# 3 0.000073 -0.002996 0.008753 0.003625 0.003333 0.000336
# 4 -0.009260 -0.000179 0.003625 0.033853 -0.005995 -0.003821
# 5 0.013183 0.004393 0.003333 -0.005995 0.043014 0.006841
# 6 0.006441 0.001312 0.000336 -0.003821 0.006841 0.028120
#
#
# Mechanical properties :
#
#
# Convention : Reuss Voigt Hill
#
# Bulk Modulus (GPa) = 30.30643 54.65119 42.47881
# Shear Modulus (GPa) = 30.03439 38.35956 34.19698
#
# Velocity S-wave (km/s) = 3.59046 4.05768 3.83120
# Velocity P-wave (km/s) = 5.49515 6.73873 6.14846
#
# Compressibility (1/GPa) = 0.03299630
#
# Stress axis : x y z
#
# Youngs Moduli (GPa) = 45.26334 91.76228 114.24711
#
# Poissons Ratio (x) = 0.13313 -0.00840
# Poissons Ratio (y) = 0.06567 0.34233
# Poissons Ratio (z) = -0.00333 0.27495
#
# Static dielectric constant tensor:
#      x y z
#    x 4.220770 0.072450 -0.225840 
#    y 0.072450 4.478210 -0.222030 
#    z -0.225840 -0.222030 4.642200 
# 
# 
# High freq. dielectric constant tensor:
#      x y z
#    x 1.915880 -0.000120 -0.024010 
#    y -0.000120 1.933630 -0.016500 
#    z -0.024010 -0.016500 1.928210 
# 
# From -- ./inp_files/55519.got.cif
#   From: 2010.06.25/outbox.cif.g09.slc.cpg/sg2_28_cif.got.tgz:55519.got - 2010.06.27 13:26:56.
