data_PCOD8024393
_publ_section_title
;
Structure prediction by ZEFSAII (Michael W. Deem and Ramdas Pophale) SiO2 
 PCOD8024393
Probable space group: P -1
;
_chemical_formula_sum "Si O2"
_cell_formula_units_Z 14
_cell_length_a 9.233784
_cell_length_b 17.457651
_cell_length_c 8.309242
_cell_angle_alpha 64.266927
_cell_angle_beta 113.874043
_cell_angle_gamma 147.312180
_cell_volume 649.514433
_symmetry_space_group_name_H-M "P -1"
_symmetry_group_IT_number 2
_symmetry_cell_setting 'triclinic'
loop_
_space_group_symop_operation_xyz
x,y,z
-x,-y,-z
loop_
_atom_site_type_symbol
_atom_site_label
_atom_site_fract_x
_atom_site_fract_y
_atom_site_fract_z
Si Si1 0.973027 0.370049 0.526040
Si Si2 0.203008 0.250856 0.358858
Si Si3 0.823559 0.817355 0.956187
Si Si4 0.609447 0.308042 0.640763
Si Si5 0.389620 0.446697 0.820830
Si Si6 0.270352 0.857753 0.628013
Si Si7 0.592502 0.873576 0.975888
O O1 0.692599 0.282526 0.553421
O O2 0.920560 0.279448 0.447113
O O3 0.144757 0.519586 0.383701
O O4 0.134483 0.397503 0.722263
O O5 0.223483 0.225612 0.210356
O O6 0.327186 0.231822 0.545255
O O7 0.370105 0.412000 0.311305
O O8 0.898678 0.138014 0.374830
O O9 0.668919 0.836779 0.910192
O O10 0.698410 0.688640 0.131747
O O11 0.140736 0.961979 0.997482
O O12 0.567018 0.236724 0.847906
O O13 0.500000 0.500000 0.000000
O O14 0.389541 0.852972 0.828327
O O15 0.500000 0.000000 0.500000
#
# Coordination Sequence:
#
# PCOD8024393 Si02
#       7
#     2   2   2   2   2   2   2
#     4  10  23  44  67  95 136 169 212 271 318 383
#     4  10  24  43  68  93 127 177 212 266 328 381
#     4  10  23  43  66  94 131 168 220 268 321 379
#     4  10  24  43  70  95 128 172 218 263 325 381
#     4   9  20  40  70  95 126 164 218 263 321 377
#     4  12  28  43  64  98 133 170 217 265 327 384
#     4  11  26  41  67  96 129 173 216 268 319 386
#
# _framework density 21.554563999999999
#
# number of rings (size 3 to 8) (size 9 to 14) (size 15 to 20)
#    0.000    1.714    0.000    1.714   14.000    4.000 
#    0.000    0.000    0.000    0.000    0.000    0.000 
#    0.000    0.000    0.000    0.000    0.000    0.000 
#
# Total GULP energy -173609.203014 kJ/mol
# GULP energy per Si atom -12400.657358 kJ/mol
# Density = 2.150551 g / cm^3
# Si number density = 21.554564 Si / 1000 Ang^3
#
#
#
# Elastic Constant Matrix: (Units=GPa)
#
#
# Indices 1 2 3 4 5 6 
#
# 1 99.3293 36.7651 47.2442 0.6414 6.0389 23.7161
# 2 36.7651 94.0747 53.3899 -6.9711 2.3666 5.4277
# 3 47.2442 53.3899 150.7358 -4.8141 17.4700 15.3270
# 4 0.6414 -6.9711 -4.8141 31.0501 3.8307 3.3074
# 5 6.0389 2.3666 17.4700 3.8307 34.1453 6.1065
# 6 23.7161 5.4277 15.3270 3.3074 6.1065 40.4186
#
#
#
# Elastic Compliance Matrix: (Units=1/GPa)
#
#
# Indices 1 2 3 4 5 6 
#
# 1 0.014313 -0.003857 -0.002483 -0.000851 0.000339 -0.006921
# 2 -0.003857 0.014564 -0.004174 0.002385 0.001272 0.001503
# 3 -0.002483 -0.004174 0.009511 0.001207 -0.004082 -0.001071
# 4 -0.000851 0.002385 0.001207 0.033696 -0.003977 -0.002435
# 5 0.000339 0.001272 -0.004082 -0.003977 0.032276 -0.003373
# 6 -0.006921 0.001503 -0.001071 -0.002435 -0.003373 0.029715
#
#
# Mechanical properties :
#
#
# Convention : Reuss Voigt Hill
#
# Bulk Modulus (GPa) = 57.59887 68.77092 63.18490
# Shear Modulus (GPa) = 31.07719 34.90553 32.99136
#
# Velocity S-wave (km/s) = 3.80121 4.02855 3.91653
# Velocity P-wave (km/s) = 6.78572 7.32214 7.05903
#
# Compressibility (1/GPa) = 0.01736145
#
# Stress axis : x y z
#
# Youngs Moduli (GPa) = 69.86512 68.66301 105.14040
#
# Poissons Ratio (x) = 0.26483 0.26104
# Poissons Ratio (y) = 0.26947 0.43881
# Poissons Ratio (z) = 0.17346 0.28657
#
# Static dielectric constant tensor:
#      x y z
#    x 3.912690 -0.095390 0.246580 
#    y -0.095390 4.183440 -0.171070 
#    z 0.246580 -0.171070 3.912730 
# 
# 
# High freq. dielectric constant tensor:
#      x y z
#    x 1.843320 -0.000400 0.010390 
#    y -0.000400 1.856150 -0.004340 
#    z 0.010390 -0.004340 1.851700 
# 
# From -- ./inp_files/157464.got.cif
#   From: 2010.06.25/outbox.cif.g09.slc.cpg/sg2_79_cif.got.tgz:157464.got - 2010.06.27 13:26:56.
