data_PCOD8024900
_publ_section_title
;
Structure prediction by ZEFSAII (Michael W. Deem and Ramdas Pophale) SiO2 
 PCOD8024900
Probable space group: P -1
;
_chemical_formula_sum "Si O2"
_cell_formula_units_Z 14
_cell_length_a 12.397402
_cell_length_b 12.457348
_cell_length_c 9.038586
_cell_angle_alpha 62.413437
_cell_angle_beta 55.398949
_cell_angle_gamma 34.892927
_cell_volume 657.273210
_symmetry_space_group_name_H-M "P -1"
_symmetry_group_IT_number 2
_symmetry_cell_setting 'triclinic'
loop_
_space_group_symop_operation_xyz
x,y,z
-x,-y,-z
loop_
_atom_site_type_symbol
_atom_site_label
_atom_site_fract_x
_atom_site_fract_y
_atom_site_fract_z
Si Si1 0.646888 0.984098 0.807322
Si Si2 0.646975 0.437375 0.292414
Si Si3 0.644330 0.792716 0.372776
Si Si4 0.920746 0.032684 0.204478
Si Si5 0.349806 0.949166 0.740974
Si Si6 0.059254 0.567724 0.802871
Si Si7 0.666820 0.195784 0.865360
O O1 0.862488 0.767560 0.757735
O O2 0.548892 0.082810 0.663714
O O3 0.677144 0.089048 0.798292
O O4 0.500000 0.000000 0.000000
O O5 0.500000 0.500000 0.500000
O O6 0.769662 0.239957 0.254072
O O7 0.804932 0.429286 0.221465
O O8 0.508979 0.584831 0.172464
O O9 0.570636 0.817922 0.581055
O O10 0.816535 0.575052 0.339209
O O11 0.736485 0.863893 0.245047
O O12 0.798723 0.993131 0.311035
O O13 0.117038 0.886126 0.251298
O O14 0.000000 0.000000 0.000000
O O15 0.377839 0.832567 0.923397
O O16 0.000000 0.500000 0.000000
#
# Coordination Sequence:
#
# PCOD8024900 Si02
#       7
#     2   2   2   2   2   2   2
#     4  12  21  40  69  99 126 172 225 280 335 383
#     4  12  26  43  70 105 135 173 232 289 334 398
#     4  11  23  42  67 101 136 172 221 284 328 402
#     4  10  24  43  65  95 137 180 222 268 341 410
#     4  10  23  44  65  94 143 178 215 272 344 402
#     4  12  23  40  72 102 132 171 230 281 335 395
#     4  11  22  44  71  93 132 180 222 274 339 401
#
# _framework density 21.300122000000002
#
# number of rings (size 3 to 8) (size 9 to 14) (size 15 to 20)
#    0.000    0.857    5.714    0.857    2.000    4.000 
#    0.000    7.143    0.000    0.000    0.000    0.000 
#    0.000    0.000    0.000    0.000    0.000    0.000 
#
# Total GULP energy -173587.778161 kJ/mol
# GULP energy per Si atom -12399.127012 kJ/mol
# Density = 2.125164 g / cm^3
# Si number density = 21.300122 Si / 1000 Ang^3
#
#
#
# Elastic Constant Matrix: (Units=GPa)
#
#
# Indices 1 2 3 4 5 6 
#
# 1 159.8438 53.2214 24.1181 5.7804 -5.7597 1.4700
# 2 53.2214 133.1410 28.3216 23.3096 14.1720 -28.1381
# 3 24.1181 28.3216 83.0747 5.7250 -3.0034 -3.6272
# 4 5.7804 23.3096 5.7250 30.7951 3.6623 6.7542
# 5 -5.7597 14.1720 -3.0034 3.6623 25.2551 8.4163
# 6 1.4700 -28.1381 -3.6272 6.7542 8.4163 30.1892
#
#
#
# Elastic Compliance Matrix: (Units=1/GPa)
#
#
# Indices 1 2 3 4 5 6 
#
# 1 0.009450 -0.008625 -0.000436 0.006432 0.010297 -0.012862
# 2 -0.008625 0.026429 -0.004292 -0.022554 -0.026344 0.036928
# 3 -0.000436 -0.004292 0.013562 0.001083 0.005102 -0.004014
# 4 0.006432 -0.022554 0.001083 0.054339 0.019282 -0.038737
# 5 0.010297 -0.026344 0.005102 0.019282 0.070688 -0.048463
# 6 -0.012862 0.036928 -0.004014 -0.038737 -0.048463 0.089865
#
#
# Mechanical properties :
#
#
# Convention : Reuss Voigt Hill
#
# Bulk Modulus (GPa) = 43.98450 65.26462 54.62456
# Shear Modulus (GPa) = 16.74389 35.27446 26.00917
#
# Velocity S-wave (km/s) = 2.80678 4.07390 3.49819
# Velocity P-wave (km/s) = 5.58558 7.26883 6.48207
#
# Compressibility (1/GPa) = 0.02273528
#
# Stress axis : x y z
#
# Youngs Moduli (GPa) = 105.81523 37.83768 73.73790
#
# Poissons Ratio (x) = 0.32636 0.03212
# Poissons Ratio (y) = 0.91269 0.31646
# Poissons Ratio (z) = 0.04610 0.16239
#
# Static dielectric constant tensor:
#      x y z
#    x 4.537460 -0.019260 -0.152310 
#    y -0.019260 3.994090 0.070790 
#    z -0.152310 0.070790 3.849760 
# 
# 
# High freq. dielectric constant tensor:
#      x y z
#    x 1.857640 0.007220 -0.006800 
#    y 0.007220 1.830860 0.011940 
#    z -0.006800 0.011940 1.835280 
# 
# From -- ./inp_files/257372.got.cif
#   From: 2010.06.25/outbox.cif.g09.slc.cpg/sg2_129_cif.got.tgz:257372.got - 2010.06.27 13:26:56.
