data_PCOD8024618
_publ_section_title
;
Structure prediction by ZEFSAII (Michael W. Deem and Ramdas Pophale) SiO2 
 PCOD8024618
Probable space group: P -1
;
_chemical_formula_sum "Si O2"
_cell_formula_units_Z 14
_cell_length_a 14.899374
_cell_length_b 26.185655
_cell_length_c 14.314533
_cell_angle_alpha 21.046587
_cell_angle_beta 28.243780
_cell_angle_gamma 17.115457
_cell_volume 587.046923
_symmetry_space_group_name_H-M "P -1"
_symmetry_group_IT_number 2
_symmetry_cell_setting 'triclinic'
loop_
_space_group_symop_operation_xyz
x,y,z
-x,-y,-z
loop_
_atom_site_type_symbol
_atom_site_label
_atom_site_fract_x
_atom_site_fract_y
_atom_site_fract_z
Si Si1 0.165120 0.655755 0.006056
Si Si2 0.847120 0.127547 0.060007
Si Si3 0.987744 0.796664 0.720553
Si Si4 0.746849 0.071390 0.816726
Si Si5 0.598747 0.745312 0.604392
Si Si6 0.943634 0.507531 0.239381
Si Si7 0.803399 0.321383 0.587515
O O1 0.178899 0.476755 0.288861
O O2 0.500000 0.500000 0.000000
O O3 0.067275 0.778216 0.786842
O O4 0.910436 0.859353 0.963662
O O5 0.595257 0.253885 0.156123
O O6 0.723721 0.308758 0.785513
O O7 0.150638 0.017400 0.018274
O O8 0.925883 0.929003 0.279648
O O9 0.159681 0.818662 0.470126
O O10 0.619867 0.025645 0.647308
O O11 0.079320 0.585407 0.958329
O O12 0.387025 0.270758 0.789773
O O13 0.825036 0.700271 0.542154
O O14 0.922353 0.414592 0.329077
O O15 0.500000 0.500000 0.500000
#
# Coordination Sequence:
#
# PCOD8024618 Si02
#       7
#     2   2   2   2   2   2   2
#     4  11  21  40  70 102 130 184 222 260 333 390
#     4  10  23  43  69  96 130 168 228 271 326 405
#     4  10  24  43  64 101 138 169 227 268 317 406
#     4  11  23  44  70  96 136 179 218 272 328 395
#     4  10  24  44  65 101 136 174 220 274 332 387
#     4  11  26  41  68  99 134 175 219 275 336 387
#     4  11  24  43  70  99 125 175 227 270 338 396
#
# _framework density 23.848178999999998
#
# number of rings (size 3 to 8) (size 9 to 14) (size 15 to 20)
#    0.000    1.429    4.286    0.429    6.000    2.857 
#    0.000    6.429    0.000    0.000    0.000    0.000 
#    0.000    0.000    0.000    0.000    0.000    0.000 
#
# Total GULP energy -173504.784291 kJ/mol
# GULP energy per Si atom -12393.198878 kJ/mol
# Density = 2.379390 g / cm^3
# Si number density = 23.848179 Si / 1000 Ang^3
#
#
#
# Elastic Constant Matrix: (Units=GPa)
#
#
# Indices 1 2 3 4 5 6 
#
# 1 150.6428 15.4164 46.2934 -11.6197 16.4122 -26.7191
# 2 15.4164 61.2895 8.5939 -14.9567 11.9891 -16.8968
# 3 46.2934 8.5939 104.8581 -17.7108 -0.5524 0.5222
# 4 -11.6197 -14.9567 -17.7108 25.8342 -6.9668 4.5981
# 5 16.4122 11.9891 -0.5524 -6.9668 51.8650 -19.2455
# 6 -26.7191 -16.8968 0.5222 4.5981 -19.2455 53.6430
#
#
#
# Elastic Compliance Matrix: (Units=1/GPa)
#
#
# Indices 1 2 3 4 5 6 
#
# 1 0.008659 -0.000333 -0.003809 0.000069 -0.001293 0.003775
# 2 -0.000333 0.020600 0.000232 0.010686 -0.001400 0.004903
# 3 -0.003809 0.000232 0.012536 0.007804 0.001573 -0.002051
# 4 0.000069 0.010686 0.007804 0.051442 0.004728 0.000611
# 5 -0.001293 -0.001400 0.001573 0.004728 0.023195 0.006816
# 6 0.003775 0.004903 -0.002051 0.000611 0.006816 0.024479
#
#
# Mechanical properties :
#
#
# Convention : Reuss Voigt Hill
#
# Bulk Modulus (GPa) = 29.43446 50.82197 40.12821
# Shear Modulus (GPa) = 31.23879 42.70089 36.96984
#
# Velocity S-wave (km/s) = 3.62318 4.23606 3.94155
# Velocity P-wave (km/s) = 5.46558 6.72922 6.13005
#
# Compressibility (1/GPa) = 0.03397379
#
# Stress axis : x y z
#
# Youngs Moduli (GPa) = 115.48983 48.54298 79.76962
#
# Poissons Ratio (x) = 0.01617 0.30387
# Poissons Ratio (y) = 0.03848 -0.01849
# Poissons Ratio (z) = 0.43994 -0.01125
#
# Static dielectric constant tensor:
#      x y z
#    x 4.840290 -0.268150 0.039740 
#    y -0.268150 4.179460 -0.451120 
#    z 0.039740 -0.451120 4.313360 
# 
# 
# High freq. dielectric constant tensor:
#      x y z
#    x 1.962760 -0.022630 -0.002260 
#    y -0.022630 1.930670 -0.034950 
#    z -0.002260 -0.034950 1.941000 
# 
# From -- ./inp_files/535596.got.cif
#   From: 2010.06.25/outbox.cif.g09.slc.cpg/sg2_268_cif.got.tgz:535596.got - 2010.06.27 13:26:56.
