data_PCOD8024052
_publ_section_title
;
Structure prediction by ZEFSAII (Michael W. Deem and Ramdas Pophale) SiO2 
 PCOD8024052
Probable space group: P -1
;
_chemical_formula_sum "Si O2"
_cell_formula_units_Z 16
_cell_length_a 11.555114
_cell_length_b 9.147998
_cell_length_c 15.033178
_cell_angle_alpha 63.323571
_cell_angle_beta 68.986417
_cell_angle_gamma 123.163832
_cell_volume 700.783477
_symmetry_space_group_name_H-M "P -1"
_symmetry_group_IT_number 2
_symmetry_cell_setting 'triclinic'
loop_
_space_group_symop_operation_xyz
x,y,z
-x,-y,-z
loop_
_atom_site_type_symbol
_atom_site_label
_atom_site_fract_x
_atom_site_fract_y
_atom_site_fract_z
Si Si1 0.062972 0.669971 0.026184
Si Si2 0.737052 0.272716 0.541413
Si Si3 0.744656 0.394453 0.886092
Si Si4 0.780407 0.665616 0.391020
Si Si5 0.744551 0.257075 0.743311
Si Si6 0.628895 0.405848 0.211021
Si Si7 0.734061 0.679535 0.919051
Si Si8 0.586186 0.651190 0.291716
O O1 0.288000 0.039416 0.854663
O O2 0.122199 0.611525 0.105412
O O3 0.000000 0.500000 0.000000
O O4 0.842231 0.534222 0.153953
O O5 0.667691 0.360708 0.483078
O O6 0.667339 0.232801 0.674067
O O7 0.015311 0.571501 0.377331
O O8 0.604888 0.967134 0.622841
O O9 0.780248 0.439599 0.757248
O O10 0.844464 0.673904 0.820547
O O11 0.466260 0.091054 0.066907
O O12 0.731260 0.742802 0.308776
O O13 0.677535 0.610291 0.529822
O O14 0.061735 0.956645 0.234262
O O15 0.582360 0.514822 0.251536
O O16 0.690237 0.533862 0.061344
O O17 0.500000 0.500000 0.000000
#
# Coordination Sequence:
#
# PCOD8024052 Si02
#       8
#     2   2   2   2   2   2   2   2
#     4  12  22  45  76 100 141 183 235 285 342 418
#     4  11  24  45  69  98 139 184 225 289 343 414
#     4  11  23  43  72 103 132 187 234 279 347 412
#     4  11  25  45  69  98 142 182 229 283 354 405
#     4  10  23  42  69  97 135 173 242 277 334 417
#     4  12  26  46  69 104 141 181 237 283 353 407
#     4  12  26  45  70 103 142 181 230 290 346 415
#     4  11  26  44  69 103 143 179 229 294 345 408
#
# _framework density 22.831589999999998
#
# number of rings (size 3 to 8) (size 9 to 14) (size 15 to 20)
#    0.000    0.750    3.750    2.625    5.250    4.500 
#    0.000    1.250    0.000    0.000    0.000    0.000 
#    0.000    0.000    0.000    0.000    0.000    0.000 
#
# Total GULP energy -198334.266610 kJ/mol
# GULP energy per Si atom -12395.891663 kJ/mol
# Density = 2.277962 g / cm^3
# Si number density = 22.831590 Si / 1000 Ang^3
#
#
#
# Elastic Constant Matrix: (Units=GPa)
#
#
# Indices 1 2 3 4 5 6 
#
# 1 81.4578 24.0493 25.7365 -17.1845 -5.8395 -11.5947
# 2 24.0493 112.5019 18.1295 -1.9646 10.5163 -19.4424
# 3 25.7365 18.1295 67.9736 -15.9109 -7.7608 -2.3288
# 4 -17.1845 -1.9646 -15.9109 37.9143 0.8751 -1.6220
# 5 -5.8395 10.5163 -7.7608 0.8751 24.6192 -8.7131
# 6 -11.5947 -19.4424 -2.3288 -1.6220 -8.7131 33.9108
#
#
#
# Elastic Compliance Matrix: (Units=1/GPa)
#
#
# Indices 1 2 3 4 5 6 
#
# 1 0.016578 -0.002432 -0.003344 0.006101 0.005758 0.005816
# 2 -0.002432 0.010948 -0.002720 -0.001398 -0.004646 0.003998
# 3 -0.003344 -0.002720 0.018874 0.006141 0.006277 0.000500
# 4 0.006101 -0.001398 0.006141 0.031730 0.004393 0.004352
# 5 0.005758 -0.004646 0.006277 0.004393 0.050352 0.012884
# 6 0.005816 0.003998 0.000500 0.004352 0.012884 0.037323
#
#
# Mechanical properties :
#
#
# Convention : Reuss Voigt Hill
#
# Bulk Modulus (GPa) = 34.00238 44.19599 39.09919
# Shear Modulus (GPa) = 25.96078 32.22338 29.09208
#
# Velocity S-wave (km/s) = 3.37568 3.76087 3.57347
# Velocity P-wave (km/s) = 5.48805 6.18533 5.84709
#
# Compressibility (1/GPa) = 0.02940970
#
# Stress axis : x y z
#
# Youngs Moduli (GPa) = 60.31968 91.34374 52.98234
#
# Poissons Ratio (x) = 0.22212 0.17715
# Poissons Ratio (y) = 0.14668 0.14411
# Poissons Ratio (z) = 0.20169 0.24845
#
# Static dielectric constant tensor:
#      x y z
#    x 4.381660 -0.108370 -0.123010 
#    y -0.108370 4.263200 0.098750 
#    z -0.123010 0.098750 4.303400 
# 
# 
# High freq. dielectric constant tensor:
#      x y z
#    x 1.902000 -0.007890 -0.008240 
#    y -0.007890 1.899410 -0.000120 
#    z -0.008240 -0.000120 1.909860 
# 
# From -- ./inp_files/185717.got.cif
#   From: 2010.06.25/outbox.cif.g09.slc.cpg/sg2_93_cif.got.tgz:185717.got - 2010.06.27 13:26:56.
