data_PCOD8024005
_publ_section_title
;
Structure prediction by ZEFSAII (Michael W. Deem and Ramdas Pophale) SiO2 
 PCOD8024005
Probable space group: P -1
;
_chemical_formula_sum "Si O2"
_cell_formula_units_Z 12
_cell_length_a 11.948059
_cell_length_b 10.392699
_cell_length_c 9.565459
_cell_angle_alpha 37.326852
_cell_angle_beta 72.451961
_cell_angle_gamma 50.071254
_cell_volume 493.433445
_symmetry_space_group_name_H-M "P -1"
_symmetry_group_IT_number 2
_symmetry_cell_setting 'triclinic'
loop_
_space_group_symop_operation_xyz
x,y,z
-x,-y,-z
loop_
_atom_site_type_symbol
_atom_site_label
_atom_site_fract_x
_atom_site_fract_y
_atom_site_fract_z
Si Si1 0.634606 0.152696 0.211311
Si Si2 0.372904 0.842662 0.228016
Si Si3 0.550413 0.858810 0.914623
Si Si4 0.912723 0.587494 0.739926
Si Si5 0.890776 0.337568 0.224682
Si Si6 0.894146 0.927414 0.068916
O O1 0.745301 0.934220 0.487852
O O2 0.761998 0.075004 0.113537
O O3 0.500000 0.500000 0.000000
O O4 0.534405 0.074254 0.260951
O O5 0.500000 0.500000 0.500000
O O6 0.417548 0.959852 0.991774
O O7 0.378186 0.987618 0.239048
O O8 0.202429 0.946674 0.155056
O O9 0.704769 0.507237 0.183482
O O10 0.054302 0.548861 0.788519
O O11 0.975988 0.428431 0.699799
O O12 0.885055 0.419668 0.994739
O O13 0.000000 0.000000 0.500000
O O14 0.000000 0.000000 0.000000
#
# Coordination Sequence:
#
# PCOD8024005 Si02
#       6
#     2   2   2   2   2   2
#     4  11  26  48  73 107 148 188 238 298 362 425
#     4  10  23  42  69 100 135 182 237 283 354 422
#     4  10  23  43  67  99 139 181 229 296 345 419
#     4  11  26  46  71 107 144 185 243 291 360 428
#     4  11  25  44  74 101 139 188 237 296 354 424
#     4  11  26  45  72 109 140 193 236 295 358 427
#
# _framework density 24.319389000000001
#
# number of rings (size 3 to 8) (size 9 to 14) (size 15 to 20)
#    0.000    1.333    1.667    1.500    9.333    3.333 
#    0.000    0.000    0.000    0.000    0.000    0.000 
#    0.000    0.000    0.000    0.000    0.000    0.000 
#
# Total GULP energy -148666.464157 kJ/mol
# GULP energy per Si atom -12388.872013 kJ/mol
# Density = 2.426404 g / cm^3
# Si number density = 24.319389 Si / 1000 Ang^3
#
#
#
# Elastic Constant Matrix: (Units=GPa)
#
#
# Indices 1 2 3 4 5 6 
#
# 1 177.7244 37.0538 32.1386 -4.7883 20.5669 18.1318
# 2 37.0538 119.8356 41.8421 -21.9986 -1.0454 2.6993
# 3 32.1386 41.8421 127.0198 -17.4363 15.4716 -0.1637
# 4 -4.7883 -21.9986 -17.4363 38.0190 -0.0603 7.9714
# 5 20.5669 -1.0454 15.4716 -0.0603 37.5230 -7.0749
# 6 18.1318 2.6993 -0.1637 7.9714 -7.0749 33.6183
#
#
#
# Elastic Compliance Matrix: (Units=1/GPa)
#
#
# Indices 1 2 3 4 5 6 
#
# 1 0.007160 -0.001841 -0.000564 0.000584 -0.004654 -0.004834
# 2 -0.001841 0.010788 -0.002700 0.004892 0.002326 -0.000557
# 3 -0.000564 -0.002700 0.009812 0.003070 -0.003995 -0.001000
# 4 0.000584 0.004892 0.003070 0.032508 -0.003104 -0.009054
# 5 -0.004654 0.002326 -0.003995 -0.003104 0.032782 0.009939
# 6 -0.004834 -0.000557 -0.001000 -0.009054 0.009939 0.036631
#
#
# Mechanical properties :
#
#
# Convention : Reuss Voigt Hill
#
# Bulk Modulus (GPa) = 56.98728 71.84987 64.41858
# Shear Modulus (GPa) = 34.30699 42.73507 38.52103
#
# Velocity S-wave (km/s) = 3.75998 4.19650 3.98422
# Velocity P-wave (km/s) = 6.50643 7.28623 6.90735
#
# Compressibility (1/GPa) = 0.01754777
#
# Stress axis : x y z
#
# Youngs Moduli (GPa) = 139.66154 92.69656 101.91828
#
# Poissons Ratio (x) = 0.17070 0.05751
# Poissons Ratio (y) = 0.25718 0.27520
# Poissons Ratio (z) = 0.07881 0.25030
#
# Static dielectric constant tensor:
#      x y z
#    x 4.897520 0.288190 0.551700 
#    y 0.288190 4.454860 -0.311660 
#    z 0.551700 -0.311660 3.990280 
# 
# 
# High freq. dielectric constant tensor:
#      x y z
#    x 1.984600 0.005900 0.022480 
#    y 0.005900 1.970160 -0.021990 
#    z 0.022480 -0.021990 1.949660 
# 
# From -- ./inp_files/159880.got.cif
#   From: 2010.06.25/outbox.cif.g09.slc.cpg/sg2_80_cif.got.tgz:159880.got - 2010.06.27 13:26:56.
