data_PCOD8024853
_publ_section_title
;
Structure prediction by ZEFSAII (Michael W. Deem and Ramdas Pophale) SiO2 
 PCOD8024853
Probable space group: P -1
;
_chemical_formula_sum "Si O2"
_cell_formula_units_Z 16
_cell_length_a 6.909793
_cell_length_b 8.793474
_cell_length_c 18.284324
_cell_angle_alpha 58.234831
_cell_angle_beta 57.546796
_cell_angle_gamma 54.146788
_cell_volume 722.366461
_symmetry_space_group_name_H-M "P -1"
_symmetry_group_IT_number 2
_symmetry_cell_setting 'triclinic'
loop_
_space_group_symop_operation_xyz
x,y,z
-x,-y,-z
loop_
_atom_site_type_symbol
_atom_site_label
_atom_site_fract_x
_atom_site_fract_y
_atom_site_fract_z
Si Si1 0.936704 0.354851 0.237395
Si Si2 0.944175 0.285043 0.625113
Si Si3 0.622483 0.733176 0.022737
Si Si4 0.516838 0.226194 0.800527
Si Si5 0.855747 0.280591 0.116112
Si Si6 0.627903 0.608207 0.496321
Si Si7 0.860279 0.075523 0.433337
Si Si8 0.490610 0.160541 0.138477
O O1 0.734045 0.582575 0.220641
O O2 0.873592 0.246923 0.208466
O O3 0.931770 0.244131 0.341002
O O4 0.221996 0.337762 0.172742
O O5 0.780859 0.243981 0.731500
O O6 0.744906 0.472034 0.576058
O O7 0.157148 0.346384 0.601423
O O8 0.079168 0.103526 0.588713
O O9 0.477432 0.837919 0.099522
O O10 0.683379 0.505363 0.074622
O O11 0.452475 0.811482 0.964987
O O12 0.868270 0.778538 0.958000
O O13 0.524226 0.048009 0.793531
O O14 0.723976 0.150270 0.142176
O O15 0.500000 0.500000 0.500000
O O16 0.434311 0.818509 0.513843
O O17 0.000000 0.000000 0.500000
#
# Coordination Sequence:
#
# PCOD8024853 Si02
#       8
#     2   2   2   2   2   2   2   2
#     4  10  23  44  61  94 135 167 216 278 321 392
#     4  11  24  45  68  97 134 176 214 279 336 393
#     4   9  20  39  64  94 136 171 216 272 319 388
#     4  11  22  42  65  97 136 171 216 272 330 390
#     4   9  20  41  66  92 131 178 217 267 327 385
#     4  11  24  47  69  98 130 169 226 274 334 406
#     4  12  23  45  72  94 130 176 221 273 342 394
#     4  11  21  41  69  96 130 174 225 260 330 392
#
# _framework density 22.149421
#
# number of rings (size 3 to 8) (size 9 to 14) (size 15 to 20)
#    0.000    1.500    3.750    1.875    0.000    0.500 
#   11.250    6.250    0.000    0.000    0.000    0.000 
#    0.000    0.000    0.000    0.000    0.000    0.000 
#
# Total GULP energy -198372.768328 kJ/mol
# GULP energy per Si atom -12398.298021 kJ/mol
# Density = 2.209901 g / cm^3
# Si number density = 22.149421 Si / 1000 Ang^3
#
#
#
# Elastic Constant Matrix: (Units=GPa)
#
#
# Indices 1 2 3 4 5 6 
#
# 1 121.6894 27.9426 50.9519 5.6267 -18.1351 9.2483
# 2 27.9426 87.5744 18.2813 13.7954 -12.0204 -9.3595
# 3 50.9519 18.2813 116.2568 6.3554 -11.3879 -3.1440
# 4 5.6267 13.7954 6.3554 31.4979 -6.0597 -1.2737
# 5 -18.1351 -12.0204 -11.3879 -6.0597 31.6816 -7.3186
# 6 9.2483 -9.3595 -3.1440 -1.2737 -7.3186 27.8948
#
#
#
# Elastic Compliance Matrix: (Units=1/GPa)
#
#
# Indices 1 2 3 4 5 6 
#
# 1 0.011501 -0.002895 -0.004445 0.000495 0.002944 -0.004490
# 2 -0.002895 0.014432 -0.000129 -0.004651 0.004439 0.006740
# 3 -0.004445 -0.000129 0.010885 -0.000860 0.001873 0.003109
# 4 0.000495 -0.004651 -0.000860 0.034905 0.005145 0.001122
# 5 0.002944 0.004439 0.001873 0.005145 0.039188 0.011241
# 6 -0.004490 0.006740 0.003109 0.001122 0.011241 0.042950
#
#
# Mechanical properties :
#
#
# Convention : Reuss Voigt Hill
#
# Bulk Modulus (GPa) = 45.70806 57.76360 51.73583
# Shear Modulus (GPa) = 28.39404 33.43786 30.91595
#
# Velocity S-wave (km/s) = 3.58429 3.88964 3.74008
# Velocity P-wave (km/s) = 6.14903 6.80500 6.48531
#
# Compressibility (1/GPa) = 0.02187798
#
# Stress axis : x y z
#
# Youngs Moduli (GPa) = 86.94948 69.29034 91.87192
#
# Poissons Ratio (x) = 0.20063 0.40840
# Poissons Ratio (y) = 0.25176 0.01186
# Poissons Ratio (z) = 0.38652 0.00894
#
# Static dielectric constant tensor:
#      x y z
#    x 3.852630 -0.178750 -0.145520 
#    y -0.178750 4.207400 0.098530 
#    z -0.145520 0.098530 4.237200 
# 
# 
# High freq. dielectric constant tensor:
#      x y z
#    x 1.853060 -0.013490 -0.004420 
#    y -0.013490 1.885940 -0.002720 
#    z -0.004420 -0.002720 1.873940 
# 
# From -- ./inp_files/547960.got.cif
#   From: 2010.06.25/outbox.cif.g09.slc.cpg/sg2_274_cif.got.tgz:547960.got - 2010.06.27 13:26:56.
