data_PCOD8024355
_publ_section_title
;
Structure prediction by ZEFSAII (Michael W. Deem and Ramdas Pophale) SiO2 
 PCOD8024355
Probable space group: P -1
;
_chemical_formula_sum "Si O2"
_cell_formula_units_Z 16
_cell_length_a 18.914885
_cell_length_b 8.996634
_cell_length_c 12.093378
_cell_angle_alpha 37.708992
_cell_angle_beta 139.541528
_cell_angle_gamma 115.296653
_cell_volume 733.466220
_symmetry_space_group_name_H-M "P -1"
_symmetry_group_IT_number 2
_symmetry_cell_setting 'triclinic'
loop_
_space_group_symop_operation_xyz
x,y,z
-x,-y,-z
loop_
_atom_site_type_symbol
_atom_site_label
_atom_site_fract_x
_atom_site_fract_y
_atom_site_fract_z
Si Si1 0.734723 0.538971 0.691419
Si Si2 0.306456 0.677050 0.725601
Si Si3 0.323756 0.911884 0.200117
Si Si4 0.871162 0.533210 0.285364
Si Si5 0.554472 0.414556 0.259690
Si Si6 0.464675 0.990685 0.118019
Si Si7 0.876792 0.254859 0.229093
Si Si8 0.284004 0.002281 0.721527
O O1 0.744337 0.254326 0.831190
O O2 0.597447 0.747900 0.439034
O O3 0.780015 0.671290 0.566711
O O4 0.826883 0.472015 0.943317
O O5 0.186430 0.626993 0.614181
O O6 0.330217 0.754387 0.584298
O O7 0.296748 0.903321 0.668336
O O8 0.431774 0.411265 0.065492
O O9 0.427852 0.724945 0.518486
O O10 0.379974 0.013048 0.108578
O O11 0.223472 0.155325 0.006672
O O12 0.889113 0.420374 0.249637
O O13 0.000000 0.500000 0.500000
O O14 0.535043 0.721658 0.066810
O O15 0.411502 0.922136 0.982609
O O16 0.785943 0.121305 0.216708
O O17 0.000000 0.000000 0.500000
#
# Coordination Sequence:
#
# PCOD8024355 Si02
#       8
#     2   2   2   2   2   2   2   2
#     4  12  24  40  72 104 135 183 222 271 348 406
#     4  10  23  43  65  98 139 176 219 287 336 397
#     4  12  25  40  70 104 138 181 223 267 355 405
#     4  11  26  47  70  93 134 185 234 286 337 397
#     4  11  23  41  67 102 147 174 218 279 346 415
#     4  12  23  41  68 107 147 175 216 276 341 421
#     4  11  27  47  70  97 135 177 237 289 328 399
#     4  11  23  42  70  98 141 172 225 276 338 402
#
# _framework density 21.814229999999998
#
# number of rings (size 3 to 8) (size 9 to 14) (size 15 to 20)
#    0.000    0.750    5.000    2.250    5.250    1.000 
#    0.000    0.625    0.000    0.000    0.000    0.000 
#    0.000    0.000    0.000    0.000    0.000    0.000 
#
# Total GULP energy -198305.953677 kJ/mol
# GULP energy per Si atom -12394.122105 kJ/mol
# Density = 2.176458 g / cm^3
# Si number density = 21.814230 Si / 1000 Ang^3
#
#
#
# Elastic Constant Matrix: (Units=GPa)
#
#
# Indices 1 2 3 4 5 6 
#
# 1 60.8808 38.1745 35.5065 3.0599 -6.2717 1.5639
# 2 38.1745 106.7519 45.1113 4.7733 11.6102 2.3751
# 3 35.5065 45.1113 121.3135 2.8580 -4.7502 -0.8297
# 4 3.0599 4.7733 2.8580 40.5631 -4.5563 9.7861
# 5 -6.2717 11.6102 -4.7502 -4.5563 37.8799 -2.0864
# 6 1.5639 2.3751 -0.8297 9.7861 -2.0864 39.1286
#
#
#
# Elastic Compliance Matrix: (Units=1/GPa)
#
#
# Indices 1 2 3 4 5 6 
#
# 1 0.024106 -0.007545 -0.004027 0.000076 0.005791 -0.000301
# 2 -0.007545 0.014210 -0.003290 -0.001424 -0.006222 -0.000606
# 3 -0.004027 -0.003290 0.010718 -0.000037 0.001719 0.000689
# 4 0.000076 -0.001424 -0.000037 0.026740 0.003307 -0.006429
# 5 0.005791 -0.006222 0.001719 0.003307 0.029931 0.000952
# 6 -0.000301 -0.000606 0.000689 -0.006429 0.000952 0.027279
#
#
# Mechanical properties :
#
#
# Convention : Reuss Voigt Hill
#
# Bulk Modulus (GPa) = 51.78715 58.50343 55.14529
# Shear Modulus (GPa) = 29.56089 34.85793 32.20941
#
# Velocity S-wave (km/s) = 3.68519 4.00177 3.84674
# Velocity P-wave (km/s) = 6.47295 6.94473 6.71299
#
# Compressibility (1/GPa) = 0.01930981
#
# Stress axis : x y z
#
# Youngs Moduli (GPa) = 41.48424 70.37433 93.30169
#
# Poissons Ratio (x) = 0.53098 0.37569
# Poissons Ratio (y) = 0.31300 0.30695
# Poissons Ratio (z) = 0.16704 0.23152
#
# Static dielectric constant tensor:
#      x y z
#    x 3.960640 -0.120480 -0.114340 
#    y -0.120480 4.206880 -0.026210 
#    z -0.114340 -0.026210 3.769690 
# 
# 
# High freq. dielectric constant tensor:
#      x y z
#    x 1.859010 -0.004720 -0.010020 
#    y -0.004720 1.880110 -0.000200 
#    z -0.010020 -0.000200 1.835640 
# 
# From -- ./inp_files/258396.got.cif
#   From: 2010.06.25/outbox.cif.g09.slc.cpg/sg2_130_cif.got.tgz:258396.got - 2010.06.27 13:26:56.
