data_PCOD8024332
_publ_section_title
;
Structure prediction by ZEFSAII (Michael W. Deem and Ramdas Pophale) SiO2 
 PCOD8024332
Probable space group: P -1
;
_chemical_formula_sum "Si O2"
_cell_formula_units_Z 14
_cell_length_a 10.070675
_cell_length_b 12.412173
_cell_length_c 15.581216
_cell_angle_alpha 153.787932
_cell_angle_beta 132.790063
_cell_angle_gamma 55.491394
_cell_volume 625.739624
_symmetry_space_group_name_H-M "P -1"
_symmetry_group_IT_number 2
_symmetry_cell_setting 'triclinic'
loop_
_space_group_symop_operation_xyz
x,y,z
-x,-y,-z
loop_
_atom_site_type_symbol
_atom_site_label
_atom_site_fract_x
_atom_site_fract_y
_atom_site_fract_z
Si Si1 0.888329 0.988556 0.618250
Si Si2 0.782944 0.461745 0.212974
Si Si3 0.466283 0.701983 0.870442
Si Si4 0.837242 0.512224 0.531359
Si Si5 0.762499 0.000182 0.761224
Si Si6 0.367935 0.766815 0.431020
Si Si7 0.731603 0.141207 0.353737
O O1 0.781627 0.722911 0.351826
O O2 0.878603 0.005754 0.729464
O O3 0.096840 0.007810 0.692845
O O4 0.793885 0.202248 0.684472
O O5 0.589946 0.387539 0.121593
O O6 0.945613 0.501610 0.385615
O O7 0.822801 0.260859 0.018039
O O8 0.277097 0.686750 0.723760
O O9 0.598149 0.517573 0.757660
O O10 0.561358 0.981889 0.116629
O O11 0.801764 0.788984 0.694855
O O12 0.766700 0.417704 0.527883
O O13 0.547339 0.947723 0.608784
O O14 0.307557 0.840625 0.550781
#
# Coordination Sequence:
#
# PCOD8024332 Si02
#       7
#     2   2   2   2   2   2   2
#     4  11  25  43  67  94 128 168 212 268 307 374
#     4  11  22  41  67  97 126 167 211 260 320 372
#     4  11  23  41  66  95 129 168 208 261 318 377
#     4  10  23  43  65  94 133 161 212 264 314 377
#     4  11  23  41  69  97 124 166 216 262 312 374
#     4  11  24  44  64  95 131 164 218 259 312 375
#     4  11  25  43  65  95 131 169 206 260 326 373
#
# _framework density 22.373524
#
# number of rings (size 3 to 8) (size 9 to 14) (size 15 to 20)
#    0.000    1.143    4.286    2.143    2.000    6.857 
#    2.571    0.000    0.000    0.000    0.000    0.000 
#    0.000    0.000    0.000    0.000    0.000    0.000 
#
# Total GULP energy -173575.753692 kJ/mol
# GULP energy per Si atom -12398.268121 kJ/mol
# Density = 2.232260 g / cm^3
# Si number density = 22.373524 Si / 1000 Ang^3
#
#
#
# Elastic Constant Matrix: (Units=GPa)
#
#
# Indices 1 2 3 4 5 6 
#
# 1 130.6830 15.1847 33.6274 -0.0068 -13.2121 -2.3631
# 2 15.1847 77.0626 22.2112 -0.0275 -15.7083 -1.6232
# 3 33.6274 22.2112 78.7941 1.3286 -12.6542 -1.2265
# 4 -0.0068 -0.0275 1.3286 17.4071 1.7544 0.7964
# 5 -13.2121 -15.7083 -12.6542 1.7544 28.2730 1.8405
# 6 -2.3631 -1.6232 -1.2265 0.7964 1.8405 21.2914
#
#
#
# Elastic Compliance Matrix: (Units=1/GPa)
#
#
# Indices 1 2 3 4 5 6 
#
# 1 0.008783 -0.000277 -0.003267 -0.000020 0.002453 0.000554
# 2 -0.000277 0.015357 -0.003067 -0.000468 0.007035 0.000373
# 3 -0.003267 -0.003067 0.015595 -0.001585 0.003846 0.000029
# 4 -0.000020 -0.000468 -0.001585 0.058105 -0.004460 -0.001917
# 5 0.002453 0.007035 0.003846 -0.004460 0.042584 -0.002484
# 6 0.000554 0.000373 0.000029 -0.001917 -0.002484 0.047345
#
#
# Mechanical properties :
#
#
# Convention : Reuss Voigt Hill
#
# Bulk Modulus (GPa) = 37.71947 47.62070 42.67009
# Shear Modulus (GPa) = 23.82882 27.76205 25.79543
#
# Velocity S-wave (km/s) = 3.26704 3.52638 3.39919
# Velocity P-wave (km/s) = 5.57916 6.15720 5.87529
#
# Compressibility (1/GPa) = 0.02651151
#
# Stress axis : x y z
#
# Youngs Moduli (GPa) = 113.85504 65.11809 64.12282
#
# Poissons Ratio (x) = 0.01805 0.20951
# Poissons Ratio (y) = 0.03156 0.19667
# Poissons Ratio (z) = 0.37200 0.19973
#
# Static dielectric constant tensor:
#      x y z
#    x 4.079330 -0.035960 0.143750 
#    y -0.035960 3.895210 0.025920 
#    z 0.143750 0.025920 3.992570 
# 
# 
# High freq. dielectric constant tensor:
#      x y z
#    x 1.891190 0.000720 0.006730 
#    y 0.000720 1.869030 0.002120 
#    z 0.006730 0.002120 1.874200 
# 
# From -- ./inp_files/171994.got.cif
#   From: 2010.06.25/outbox.cif.g09.slc.cpg/sg2_86_cif.got.tgz:171994.got - 2010.06.27 13:26:56.
