data_PCOD8024013
_publ_section_title
;
Structure prediction by ZEFSAII (Michael W. Deem and Ramdas Pophale) SiO2 
 PCOD8024013
Probable space group: P -1
;
_chemical_formula_sum "Si O2"
_cell_formula_units_Z 16
_cell_length_a 5.056215
_cell_length_b 22.552157
_cell_length_c 14.115599
_cell_angle_alpha 153.093314
_cell_angle_beta 77.545023
_cell_angle_gamma 103.503863
_cell_volume 708.159555
_symmetry_space_group_name_H-M "P -1"
_symmetry_group_IT_number 2
_symmetry_cell_setting 'triclinic'
loop_
_space_group_symop_operation_xyz
x,y,z
-x,-y,-z
loop_
_atom_site_type_symbol
_atom_site_label
_atom_site_fract_x
_atom_site_fract_y
_atom_site_fract_z
Si Si1 0.888729 0.272568 0.562443
Si Si2 0.932530 0.848693 0.812835
Si Si3 0.289914 0.204280 0.582634
Si Si4 0.218848 0.695459 0.911189
Si Si5 0.717991 0.025210 0.601203
Si Si6 0.277536 0.465270 0.046251
Si Si7 0.648751 0.540538 0.751655
Si Si8 0.661904 0.267228 0.260473
O O1 0.567167 0.247654 0.568514
O O2 0.956444 0.431857 0.800114
O O3 0.954164 0.240109 0.404075
O O4 0.055326 0.184114 0.492714
O O5 0.612552 0.815364 0.802164
O O6 0.087060 0.815728 0.850185
O O7 0.000000 0.000000 0.000000
O O8 0.338698 0.070911 0.442237
O O9 0.180109 0.311374 0.817011
O O10 0.369714 0.583718 0.792604
O O11 0.342679 0.715159 0.825946
O O12 0.898196 0.650869 0.869898
O O13 0.280827 0.827439 0.153537
O O14 0.500000 0.000000 0.500000
O O15 0.000000 0.000000 0.500000
O O16 0.400563 0.482983 0.166915
O O17 0.500000 0.500000 0.000000
O O18 0.709963 0.407727 0.506469
#
# Coordination Sequence:
#
# PCOD8024013 Si02
#       8
#     2   2   2   2   2   2   2   2
#     4  11  24  42  66 100 137 178 228 283 354 416
#     4  12  27  44  74 104 147 181 233 288 363 423
#     4  11  24  41  68  96 138 180 230 282 348 427
#     4  12  27  45  76 102 144 191 242 293 355 417
#     4  12  26  46  69 103 141 186 237 291 356 419
#     4  10  23  42  69 102 138 181 233 287 355 410
#     4  12  25  47  73 105 144 185 242 300 351 416
#     4  12  26  49  73 107 141 189 239 294 354 429
#
# _framework density 22.593776999999999
#
# number of rings (size 3 to 8) (size 9 to 14) (size 15 to 20)
#    0.000    0.500    1.250    6.750    5.250    3.000 
#    0.000    0.000    0.000    0.000    0.000    0.000 
#    0.000    0.000    0.000    0.000    0.000    0.000 
#
# Total GULP energy -198453.921995 kJ/mol
# GULP energy per Si atom -12403.370125 kJ/mol
# Density = 2.254235 g / cm^3
# Si number density = 22.593777 Si / 1000 Ang^3
#
#
#
# Elastic Constant Matrix: (Units=GPa)
#
#
# Indices 1 2 3 4 5 6 
#
# 1 105.5589 27.8643 27.0813 -2.2579 4.1620 -10.7614
# 2 27.8643 115.1353 38.8673 -8.8455 0.5320 -13.3371
# 3 27.0813 38.8673 106.3531 -3.9970 7.2797 9.2760
# 4 -2.2579 -8.8455 -3.9970 46.1222 -0.2088 -4.1834
# 5 4.1620 0.5320 7.2797 -0.2088 30.9539 3.7982
# 6 -10.7614 -13.3371 9.2760 -4.1834 3.7982 46.9529
#
#
#
# Elastic Compliance Matrix: (Units=1/GPa)
#
#
# Indices 1 2 3 4 5 6 
#
# 1 0.010788 -0.001489 -0.002340 0.000273 -0.001196 0.002633
# 2 -0.001489 0.010941 -0.003897 0.002023 0.000491 0.003677
# 3 -0.002340 -0.003897 0.011885 -0.000190 -0.001942 -0.003851
# 4 0.000273 0.002023 -0.000190 0.022309 -0.000205 0.002679
# 5 -0.001196 0.000491 -0.001942 -0.000205 0.033215 -0.002456
# 6 0.002633 0.003677 -0.003851 0.002679 -0.002456 0.024144
#
#
# Mechanical properties :
#
#
# Convention : Reuss Voigt Hill
#
# Bulk Modulus (GPa) = 55.06769 57.18589 56.12679
# Shear Modulus (GPa) = 37.09513 40.35477 38.72495
#
# Velocity S-wave (km/s) = 4.05635 4.23081 4.14450
# Velocity P-wave (km/s) = 6.80914 7.01654 6.91362
#
# Compressibility (1/GPa) = 0.01815947
#
# Stress axis : x y z
#
# Youngs Moduli (GPa) = 92.69242 91.40235 84.14281
#
# Poissons Ratio (x) = 0.13613 0.19692
# Poissons Ratio (y) = 0.13805 0.32793
# Poissons Ratio (z) = 0.21693 0.35623
#
# Static dielectric constant tensor:
#      x y z
#    x 3.984560 -0.061520 0.002660 
#    y -0.061520 4.173940 0.016220 
#    z 0.002660 0.016220 4.411720 
# 
# 
# High freq. dielectric constant tensor:
#      x y z
#    x 1.894710 -0.008460 -0.005960 
#    y -0.008460 1.907260 -0.001470 
#    z -0.005960 -0.001470 1.902860 
# 
# From -- ./inp_files/370520.got.cif
#   From: 2010.06.25/outbox.cif.g09.slc.cpg/sg2_186_cif.got.tgz:370520.got - 2010.06.27 13:26:56.
