data_PCOD8024498
_publ_section_title
;
Structure prediction by ZEFSAII (Michael W. Deem and Ramdas Pophale) SiO2 
 PCOD8024498
Probable space group: P -1
;
_chemical_formula_sum "Si O2"
_cell_formula_units_Z 14
_cell_length_a 12.141513
_cell_length_b 17.325847
_cell_length_c 8.918333
_cell_angle_alpha 112.320370
_cell_angle_beta 73.274642
_cell_angle_gamma 157.731560
_cell_volume 646.725796
_symmetry_space_group_name_H-M "P -1"
_symmetry_group_IT_number 2
_symmetry_cell_setting 'triclinic'
loop_
_space_group_symop_operation_xyz
x,y,z
-x,-y,-z
loop_
_atom_site_type_symbol
_atom_site_label
_atom_site_fract_x
_atom_site_fract_y
_atom_site_fract_z
Si Si1 0.619427 0.077735 0.342561
Si Si2 0.864843 0.149166 0.780506
Si Si3 0.819465 0.460582 0.489817
Si Si4 0.342829 0.592226 0.811351
Si Si5 0.738132 0.005673 0.056282
Si Si6 0.896292 0.861927 0.822202
Si Si7 0.157513 0.025230 0.523194
O O1 0.556131 0.949839 0.186026
O O2 0.972755 0.323902 0.383902
O O3 0.500000 0.000000 0.500000
O O4 0.464161 0.049529 0.293886
O O5 0.977818 0.146064 0.635610
O O6 0.070319 0.368390 0.842249
O O7 0.834491 0.104956 0.931855
O O8 0.770531 0.436240 0.312814
O O9 0.000000 0.500000 0.500000
O O10 0.509163 0.262768 0.546102
O O11 0.567149 0.663980 0.746747
O O12 0.515072 0.777834 0.973736
O O13 0.052794 0.190644 0.146623
O O14 0.107874 0.992059 0.693876
O O15 0.000000 0.000000 0.000000
O O16 0.000000 0.000000 0.500000
#
# Coordination Sequence:
#
# PCOD8024498 Si02
#       7
#     2   2   2   2   2   2   2
#     4  12  25  44  68 102 141 190 240 294 358 428
#     4  12  25  44  73 104 143 189 244 295 360 428
#     4  12  24  44  73 106 144 186 241 294 364 427
#     4  11  24  46  72 101 143 190 239 296 360 426
#     4  11  25  46  67 102 147 185 241 306 351 426
#     4  10  23  43  68 103 144 186 239 294 357 423
#     4  12  23  44  76 105 144 192 237 301 360 425
#
# _framework density 21.647503
#
# number of rings (size 3 to 8) (size 9 to 14) (size 15 to 20)
#    0.000    0.571    5.714    2.143    0.000    5.143 
#    0.000    0.000    0.000    0.000    0.000    0.000 
#    0.000    0.000    0.000    0.000    0.000    0.000 
#
# Total GULP energy -173506.075719 kJ/mol
# GULP energy per Si atom -12393.291123 kJ/mol
# Density = 2.159823 g / cm^3
# Si number density = 21.647503 Si / 1000 Ang^3
#
#
#
# Elastic Constant Matrix: (Units=GPa)
#
#
# Indices 1 2 3 4 5 6 
#
# 1 160.5716 37.0966 76.5149 -1.5957 19.7606 24.1128
# 2 37.0966 125.8207 48.6292 -4.4636 5.1658 2.9115
# 3 76.5149 48.6292 157.3318 -23.3198 4.5524 -5.6312
# 4 -1.5957 -4.4636 -23.3198 31.6748 -1.8019 3.0516
# 5 19.7606 5.1658 4.5524 -1.8019 49.2815 2.7158
# 6 24.1128 2.9115 -5.6312 3.0516 2.7158 39.4570
#
#
#
# Elastic Compliance Matrix: (Units=1/GPa)
#
#
# Indices 1 2 3 4 5 6 
#
# 1 0.010338 -0.000790 -0.005383 -0.003111 -0.003317 -0.006559
# 2 -0.000790 0.009171 -0.002545 -0.000597 -0.000405 -0.000483
# 3 -0.005383 -0.002545 0.010924 0.007071 0.001433 0.004391
# 4 -0.003111 -0.000597 0.007071 0.036652 0.001998 -0.000018
# 5 -0.003317 -0.000405 0.001433 0.001998 0.021571 0.000622
# 6 -0.006559 -0.000483 0.004391 -0.000018 0.000622 0.029973
#
#
# Mechanical properties :
#
#
# Convention : Reuss Voigt Hill
#
# Bulk Modulus (GPa) = 76.93698 85.35618 81.14658
# Shear Modulus (GPa) = 35.61371 42.84822 39.23096
#
# Velocity S-wave (km/s) = 4.06046 4.45383 4.26169
# Velocity P-wave (km/s) = 7.58954 8.12185 7.86020
#
# Compressibility (1/GPa) = 0.01299765
#
# Stress axis : x y z
#
# Youngs Moduli (GPa) = 96.73428 109.04232 91.53861
#
# Poissons Ratio (x) = 0.08611 0.49277
# Poissons Ratio (y) = 0.07639 0.23293
# Poissons Ratio (z) = 0.52074 0.27747
#
# Static dielectric constant tensor:
#      x y z
#    x 4.201920 0.069970 0.238640 
#    y 0.069970 3.967540 0.276260 
#    z 0.238640 0.276260 3.866280 
# 
# 
# High freq. dielectric constant tensor:
#      x y z
#    x 1.877660 0.010870 0.010390 
#    y 0.010870 1.841770 0.004160 
#    z 0.010390 0.004160 1.852940 
# 
# From -- ./inp_files/279610.got.cif
#   From: 2010.06.25/outbox.cif.g09.slc.cpg/sg2_140_cif.got.tgz:279610.got - 2010.06.27 13:26:56.
