data_PCOD8024517
_publ_section_title
;
Structure prediction by ZEFSAII (Michael W. Deem and Ramdas Pophale) SiO2 
 PCOD8024517
Probable space group: P -1
;
_chemical_formula_sum "Si O2"
_cell_formula_units_Z 16
_cell_length_a 8.824051
_cell_length_b 9.897367
_cell_length_c 15.530417
_cell_angle_alpha 114.515201
_cell_angle_beta 140.936297
_cell_angle_gamma 72.693533
_cell_volume 776.972273
_symmetry_space_group_name_H-M "P -1"
_symmetry_group_IT_number 2
_symmetry_cell_setting 'triclinic'
loop_
_space_group_symop_operation_xyz
x,y,z
-x,-y,-z
loop_
_atom_site_type_symbol
_atom_site_label
_atom_site_fract_x
_atom_site_fract_y
_atom_site_fract_z
Si Si1 0.605739 0.776302 0.541555
Si Si2 0.057579 0.281690 0.009904
Si Si3 0.848271 0.487670 0.514959
Si Si4 0.336442 0.900234 0.310830
Si Si5 0.760413 0.631049 0.223853
Si Si6 0.477560 0.238449 0.301089
Si Si7 0.724343 0.952338 0.354471
Si Si8 0.721093 0.534558 0.988343
O O1 0.787904 0.652700 0.561146
O O2 0.380835 0.781920 0.376150
O O3 0.513719 0.740023 0.586669
O O4 0.737196 0.940860 0.641021
O O5 0.208329 0.221027 0.140310
O O6 0.244513 0.334517 0.031670
O O7 0.878100 0.152847 0.860292
O O8 0.904409 0.410797 0.013669
O O9 0.609164 0.387372 0.360974
O O10 0.000000 0.500000 0.500000
O O11 0.990940 0.403009 0.629299
O O12 0.589791 0.921753 0.377656
O O13 0.700125 0.803554 0.248009
O O14 0.551751 0.530485 0.151553
O O15 0.788697 0.596148 0.127648
O O16 0.603513 0.088357 0.288298
O O17 0.000000 0.000000 0.500000
#
# Coordination Sequence:
#
# PCOD8024517 Si02
#       8
#     2   2   2   2   2   2   2   2
#     4  10  24  41  65  98 125 164 220 259 315 383
#     4  11  23  43  66  93 129 165 216 264 319 377
#     4  12  24  39  67  93 132 164 216 270 315 371
#     4  10  23  43  68  94 129 173 210 262 324 378
#     4  11  22  43  63  94 127 172 214 261 324 378
#     4  11  25  41  65  98 124 170 216 264 319 374
#     4  11  22  42  66  93 133 168 212 263 324 382
#     4  10  24  40  67  91 127 170 215 261 320 386
#
# _framework density 20.592756000000001
#
# number of rings (size 3 to 8) (size 9 to 14) (size 15 to 20)
#    0.000    1.250    2.500    2.625    5.250    3.000 
#    4.500    0.625    0.000    0.000    0.000    0.000 
#    0.000    0.000    0.000    0.000    0.000    0.000 
#
# Total GULP energy -198423.838204 kJ/mol
# GULP energy per Si atom -12401.489888 kJ/mol
# Density = 2.054589 g / cm^3
# Si number density = 20.592756 Si / 1000 Ang^3
#
#
#
# Elastic Constant Matrix: (Units=GPa)
#
#
# Indices 1 2 3 4 5 6 
#
# 1 74.7870 30.8078 34.9252 8.5786 -9.6089 -0.4354
# 2 30.8078 104.4543 31.9382 5.2209 -10.9109 -19.6090
# 3 34.9252 31.9382 124.3643 -0.5591 -0.8414 -0.1166
# 4 8.5786 5.2209 -0.5591 35.8156 -5.7946 -5.0536
# 5 -9.6089 -10.9109 -0.8414 -5.7946 23.4464 1.9683
# 6 -0.4354 -19.6090 -0.1166 -5.0536 1.9683 36.7434
#
#
#
# Elastic Compliance Matrix: (Units=1/GPa)
#
#
# Indices 1 2 3 4 5 6 
#
# 1 0.017803 -0.003848 -0.003997 -0.003361 0.004748 -0.002572
# 2 -0.003848 0.013052 -0.002235 0.000587 0.003993 0.006780
# 3 -0.003997 -0.002235 0.009727 0.000974 -0.002007 -0.000968
# 4 -0.003361 0.000587 0.000974 0.030214 0.006053 0.004108
# 5 0.004748 0.003993 -0.002007 0.006053 0.047840 0.000450
# 6 -0.002572 0.006780 -0.000968 0.004108 0.000450 0.031341
#
#
# Mechanical properties :
#
#
# Convention : Reuss Voigt Hill
#
# Bulk Modulus (GPa) = 48.96466 55.43866 52.20166
# Shear Modulus (GPa) = 28.25703 32.93004 30.59353
#
# Velocity S-wave (km/s) = 3.70832 4.00322 3.85859
# Velocity P-wave (km/s) = 6.49344 6.95324 6.72727
#
# Compressibility (1/GPa) = 0.02042289
#
# Stress axis : x y z
#
# Youngs Moduli (GPa) = 56.16902 76.61411 102.80295
#
# Poissons Ratio (x) = 0.29479 0.41090
# Poissons Ratio (y) = 0.21612 0.22981
# Poissons Ratio (z) = 0.22451 0.17127
#
# Static dielectric constant tensor:
#      x y z
#    x 3.853520 -0.122910 0.029090 
#    y -0.122910 4.125780 -0.074430 
#    z 0.029090 -0.074430 3.920700 
# 
# 
# High freq. dielectric constant tensor:
#      x y z
#    x 1.807830 -0.001690 -0.005370 
#    y -0.001690 1.812570 0.006290 
#    z -0.005370 0.006290 1.807290 
# 
# From -- ./inp_files/343640.got.cif
#   From: 2010.06.25/outbox.cif.g09.slc.cpg/sg2_172_cif.got.tgz:343640.got - 2010.06.27 13:26:56.
