data_PCOD8024240
_publ_section_title
;
Structure prediction by ZEFSAII (Michael W. Deem and Ramdas Pophale) SiO2 
 PCOD8024240
Probable space group: P -1
;
_chemical_formula_sum "Si O2"
_cell_formula_units_Z 16
_cell_length_a 9.253196
_cell_length_b 13.572473
_cell_length_c 13.765247
_cell_angle_alpha 32.783424
_cell_angle_beta 84.608129
_cell_angle_gamma 106.236671
_cell_volume 695.806877
_symmetry_space_group_name_H-M "P -1"
_symmetry_group_IT_number 2
_symmetry_cell_setting 'triclinic'
loop_
_space_group_symop_operation_xyz
x,y,z
-x,-y,-z
loop_
_atom_site_type_symbol
_atom_site_label
_atom_site_fract_x
_atom_site_fract_y
_atom_site_fract_z
Si Si1 0.716573 0.932474 0.910314
Si Si2 0.302670 0.701119 0.476466
Si Si3 0.017828 0.188478 0.990834
Si Si4 0.977222 0.300866 0.102532
Si Si5 0.389698 0.215759 0.742994
Si Si6 0.205599 0.208731 0.267232
Si Si7 0.477764 0.679322 0.964524
Si Si8 0.562135 0.995287 0.393306
O O1 0.519697 0.711359 0.049486
O O2 0.790768 0.183910 0.646980
O O3 0.652339 0.898344 0.053380
O O4 0.875485 0.907931 0.903862
O O5 0.477515 0.816567 0.294889
O O6 0.388785 0.766493 0.528166
O O7 0.144294 0.406439 0.722309
O O8 0.987952 0.313873 0.973938
O O9 0.817262 0.946623 0.161824
O O10 0.160880 0.330636 0.093062
O O11 0.758943 0.037103 0.357784
O O12 0.000000 0.500000 0.000000
O O13 0.500000 0.500000 0.500000
O O14 0.313557 0.139757 0.257709
O O15 0.356956 0.398202 0.182910
O O16 0.000000 0.000000 0.500000
O O17 0.361907 0.762573 0.870910
O O18 0.500000 0.000000 0.500000
#
# Coordination Sequence:
#
# PCOD8024240 Si02
#       8
#     2   2   2   2   2   2   2   2
#     4  11  25  49  73 105 146 189 244 303 359 430
#     4  11  26  47  74 109 142 193 240 299 366 428
#     4  12  26  49  73 105 151 184 242 306 358 436
#     4  12  23  42  67 102 140 187 236 289 354 430
#     4  12  26  50  78 107 142 194 244 300 371 426
#     4  11  23  38  63  94 134 181 227 280 354 418
#     4  10  23  43  61  96 139 177 230 290 344 419
#     4  11  22  42  70  98 142 187 231 287 355 425
#
# _framework density 22.994886999999999
#
# number of rings (size 3 to 8) (size 9 to 14) (size 15 to 20)
#    0.000    0.750    5.000    2.250    0.000    3.500 
#    2.250    0.000    0.000    0.000    0.000    0.000 
#    0.000    0.000    0.000    0.000    0.000    0.000 
#
# Total GULP energy -198243.170700 kJ/mol
# GULP energy per Si atom -12390.198169 kJ/mol
# Density = 2.294255 g / cm^3
# Si number density = 22.994887 Si / 1000 Ang^3
#
#
#
# Elastic Constant Matrix: (Units=GPa)
#
#
# Indices 1 2 3 4 5 6 
#
# 1 105.2284 36.5131 35.5397 -7.1995 -2.2675 2.3949
# 2 36.5131 149.9700 36.2200 0.8815 -5.2429 7.3229
# 3 35.5397 36.2200 94.3807 -20.6466 -8.6816 10.4392
# 4 -7.1995 0.8815 -20.6466 32.5263 -5.6474 -4.6815
# 5 -2.2675 -5.2429 -8.6816 -5.6474 37.4588 3.4793
# 6 2.3949 7.3229 10.4392 -4.6815 3.4793 34.1653
#
#
#
# Elastic Compliance Matrix: (Units=1/GPa)
#
#
# Indices 1 2 3 4 5 6 
#
# 1 0.011393 -0.001963 -0.003594 0.000333 -0.000443 0.000811
# 2 -0.001963 0.007868 -0.002702 -0.002504 0.000078 -0.001074
# 3 -0.003594 -0.002702 0.015924 0.009771 0.004864 -0.003191
# 4 0.000333 -0.002504 0.009771 0.038700 0.007577 0.002059
# 5 -0.000443 0.000078 0.004864 0.007577 0.029267 -0.003414
# 6 0.000811 -0.001074 -0.003191 0.002059 -0.003414 0.031048
#
#
# Mechanical properties :
#
#
# Convention : Reuss Voigt Hill
#
# Bulk Modulus (GPa) = 53.57301 62.90274 58.23788
# Shear Modulus (GPa) = 31.85913 36.91718 34.38815
#
# Velocity S-wave (km/s) = 3.72625 4.01116 3.87133
# Velocity P-wave (km/s) = 6.47006 6.99049 6.73530
#
# Compressibility (1/GPa) = 0.01866612
#
# Stress axis : x y z
#
# Youngs Moduli (GPa) = 87.77345 127.09016 62.79941
#
# Poissons Ratio (x) = 0.24945 0.22573
# Poissons Ratio (y) = 0.17228 0.16970
# Poissons Ratio (z) = 0.31550 0.34343
#
# Static dielectric constant tensor:
#      x y z
#    x 4.869450 0.187840 0.006050 
#    y 0.187840 4.480690 -0.005930 
#    z 0.006050 -0.005930 3.880820 
# 
# 
# High freq. dielectric constant tensor:
#      x y z
#    x 1.922160 0.001780 -0.005910 
#    y 0.001780 1.922560 -0.001380 
#    z -0.005910 -0.001380 1.886760 
# 
# From -- ./inp_files/505030.got.cif
#   From: 2010.06.25/outbox.cif.g09.slc.cpg/sg2_253_cif.got.tgz:505030.got - 2010.06.27 13:26:56.
