data_PCOD8024834
_publ_section_title
;
Structure prediction by ZEFSAII (Michael W. Deem and Ramdas Pophale) SiO2 
 PCOD8024834
Probable space group: P -1
;
_chemical_formula_sum "Si O2"
_cell_formula_units_Z 12
_cell_length_a 7.617685
_cell_length_b 8.568030
_cell_length_c 16.273873
_cell_angle_alpha 43.259836
_cell_angle_beta 54.878661
_cell_angle_gamma 35.384208
_cell_volume 421.049335
_symmetry_space_group_name_H-M "P -1"
_symmetry_group_IT_number 2
_symmetry_cell_setting 'triclinic'
loop_
_space_group_symop_operation_xyz
x,y,z
-x,-y,-z
loop_
_atom_site_type_symbol
_atom_site_label
_atom_site_fract_x
_atom_site_fract_y
_atom_site_fract_z
Si Si1 0.602581 0.154884 0.954337
Si Si2 0.003587 0.247791 0.639853
Si Si3 0.172669 0.692005 0.747304
Si Si4 0.544683 0.297254 0.490960
Si Si5 0.679080 0.704432 0.695491
Si Si6 0.184412 0.506366 0.084470
O O1 0.460978 0.279646 0.035268
O O2 0.481868 0.449982 0.814576
O O3 0.967982 0.880048 0.972591
O O4 0.500000 0.000000 0.000000
O O5 0.793246 0.535512 0.516990
O O6 0.948452 0.391878 0.689261
O O7 0.916022 0.044448 0.726441
O O8 0.362014 0.946236 0.637869
O O9 0.266324 0.717291 0.623988
O O10 0.028923 0.553660 0.832121
O O11 0.500000 0.500000 0.500000
O O12 0.734767 0.933852 0.609818
O O13 0.673224 0.566359 0.835229
#
# Coordination Sequence:
#
# PCOD8024834 Si02
#       6
#     2   2   2   2   2   2
#     4  10  23  43  75 107 143 186 238 305 356 409
#     4  12  27  49  71 105 150 196 229 294 365 437
#     4  11  26  46  76 109 143 187 249 297 359 420
#     4  12  29  47  78 109 144 187 247 305 349 433
#     4  12  28  48  72 106 152 191 234 288 374 425
#     4  11  25  46  76 108 142 188 244 298 352 426
#
# _framework density 28.500221
#
# number of rings (size 3 to 8) (size 9 to 14) (size 15 to 20)
#    0.000    0.667    1.667    5.000   16.333    1.333 
#    0.000    5.000    0.000    0.000    0.000    0.000 
#    0.000    0.000    0.000    0.000    0.000    0.000 
#
# Total GULP energy -148806.725349 kJ/mol
# GULP energy per Si atom -12400.560446 kJ/mol
# Density = 2.843535 g / cm^3
# Si number density = 28.500221 Si / 1000 Ang^3
#
#
#
# Elastic Constant Matrix: (Units=GPa)
#
#
# Indices 1 2 3 4 5 6 
#
# 1 64.4839 36.7286 12.1977 5.7996 23.1134 5.3910
# 2 36.7286 184.7897 46.3100 -4.1028 7.0073 34.3176
# 3 12.1977 46.3100 134.4258 -14.2071 10.0966 17.1709
# 4 5.7996 -4.1028 -14.2071 54.3370 -0.6471 11.7416
# 5 23.1134 7.0073 10.0966 -0.6471 37.5815 8.8281
# 6 5.3910 34.3176 17.1709 11.7416 8.8281 53.5217
#
#
#
# Elastic Compliance Matrix: (Units=1/GPa)
#
#
# Indices 1 2 3 4 5 6 
#
# 1 0.023610 -0.004927 -0.000312 -0.004048 -0.014568 0.004172
# 2 -0.004927 0.007599 -0.001618 0.001745 0.003198 -0.004767
# 3 -0.000312 -0.001618 0.008662 0.002607 -0.001303 -0.002067
# 4 -0.004048 0.001745 0.002607 0.021148 0.003414 -0.006750
# 5 -0.014568 0.003198 -0.001303 0.003414 0.037030 -0.007022
# 6 0.004172 -0.004767 -0.002067 -0.006750 -0.007022 0.024623
#
#
# Mechanical properties :
#
#
# Convention : Reuss Voigt Hill
#
# Bulk Modulus (GPa) = 38.22789 63.79690 51.01240
# Shear Modulus (GPa) = 34.45788 48.31892 41.38840
#
# Velocity S-wave (km/s) = 3.48090 4.12198 3.81493
# Velocity P-wave (km/s) = 5.44039 6.71473 6.11087
#
# Compressibility (1/GPa) = 0.02615891
#
# Stress axis : x y z
#
# Youngs Moduli (GPa) = 42.35515 131.59535 115.44529
#
# Poissons Ratio (x) = 0.64835 0.03598
# Poissons Ratio (y) = 0.20868 0.18675
# Poissons Ratio (z) = 0.01320 0.21287
#
# Static dielectric constant tensor:
#      x y z
#    x 6.018220 0.216200 -0.423360 
#    y 0.216200 5.483120 -0.909540 
#    z -0.423360 -0.909540 6.226920 
# 
# 
# High freq. dielectric constant tensor:
#      x y z
#    x 2.178400 0.021290 -0.010770 
#    y 0.021290 2.168500 -0.025770 
#    z -0.010770 -0.025770 2.168990 
# 
# From -- ./inp_files/227925.got.cif
#   From: 2010.06.25/outbox.cif.g09.slc.cpg/sg2_114_cif.got.tgz:227925.got - 2010.06.27 13:26:56.
