data_PCOD8024268
_publ_section_title
;
Structure prediction by ZEFSAII (Michael W. Deem and Ramdas Pophale) SiO2 
 PCOD8024268
Probable space group: P -1
;
_chemical_formula_sum "Si O2"
_cell_formula_units_Z 16
_cell_length_a 14.274386
_cell_length_b 6.388102
_cell_length_c 22.605404
_cell_angle_alpha 84.004147
_cell_angle_beta 19.961180
_cell_angle_gamma 83.231525
_cell_volume 698.668278
_symmetry_space_group_name_H-M "P -1"
_symmetry_group_IT_number 2
_symmetry_cell_setting 'triclinic'
loop_
_space_group_symop_operation_xyz
x,y,z
-x,-y,-z
loop_
_atom_site_type_symbol
_atom_site_label
_atom_site_fract_x
_atom_site_fract_y
_atom_site_fract_z
Si Si1 0.771991 0.956930 0.911955
Si Si2 0.399399 0.057476 0.303734
Si Si3 0.703313 0.796950 0.380233
Si Si4 0.329131 0.302045 0.125375
Si Si5 0.467861 0.469289 0.297073
Si Si6 0.384939 0.518830 0.661083
Si Si7 0.809740 0.736246 0.013500
Si Si8 0.039799 0.264258 0.413505
O O1 0.852904 0.784314 0.818054
O O2 0.690829 0.808810 0.018724
O O3 0.998843 0.120523 0.787636
O O4 0.507774 0.098648 0.047090
O O5 0.473699 0.217244 0.306875
O O6 0.302497 0.200308 0.300042
O O7 0.679709 0.914747 0.130383
O O8 0.140281 0.937706 0.484155
O O9 0.631082 0.628654 0.478240
O O10 0.703010 0.680818 0.319772
O O11 0.500000 0.000000 0.500000
O O12 0.131032 0.367296 0.294889
O O13 0.500000 0.500000 0.000000
O O14 0.513892 0.566162 0.332250
O O15 0.703875 0.518906 0.108079
O O16 0.179479 0.557742 0.436048
O O17 0.138142 0.698792 0.813291
#
# Coordination Sequence:
#
# PCOD8024268 Si02
#       8
#     2   2   2   2   2   2   2   2
#     4  11  26  45  67 103 134 183 229 277 353 415
#     4  10  23  44  68  93 134 187 221 285 345 400
#     4  11  26  46  71  96 137 185 223 289 346 406
#     4  11  27  42  73 102 137 177 227 290 341 415
#     4  11  26  40  70  99 137 180 231 287 333 407
#     4  11  27  44  68 106 131 184 238 279 341 406
#     4  11  24  45  66  97 138 178 232 278 339 413
#     4  10  23  43  64 101 133 173 231 280 345 408
#
# _framework density 22.900711000000001
#
# number of rings (size 3 to 8) (size 9 to 14) (size 15 to 20)
#    0.000    1.250    2.500    0.750   10.500    2.500 
#    0.000    0.000    0.000    0.000    0.000    0.000 
#    0.000    0.000    0.000    0.000    0.000    0.000 
#
# Total GULP energy -198290.491296 kJ/mol
# GULP energy per Si atom -12393.155706 kJ/mol
# Density = 2.284859 g / cm^3
# Si number density = 22.900711 Si / 1000 Ang^3
#
#
#
# Elastic Constant Matrix: (Units=GPa)
#
#
# Indices 1 2 3 4 5 6 
#
# 1 88.5555 35.1508 36.0743 -17.8207 6.4147 5.3125
# 2 35.1508 100.9368 25.1434 -8.6119 -1.0865 12.9775
# 3 36.0743 25.1434 88.2180 -7.3598 13.9732 9.1749
# 4 -17.8207 -8.6119 -7.3598 40.0466 -12.5440 -2.8016
# 5 6.4147 -1.0865 13.9732 -12.5440 31.6912 -7.4677
# 6 5.3125 12.9775 9.1749 -2.8016 -7.4677 41.3841
#
#
#
# Elastic Compliance Matrix: (Units=1/GPa)
#
#
# Indices 1 2 3 4 5 6 
#
# 1 0.015991 -0.003863 -0.005295 0.005859 0.001521 0.001003
# 2 -0.003863 0.012128 -0.001818 0.000935 0.001775 -0.002521
# 3 -0.005295 -0.001818 0.015408 -0.002584 -0.007686 -0.003728
# 4 0.005859 0.000935 -0.002584 0.031841 0.013562 0.004130
# 5 0.001521 0.001775 -0.007686 0.013562 0.042304 0.009504
# 6 0.001003 -0.002521 -0.003728 0.004130 0.009504 0.027647
#
#
# Mechanical properties :
#
#
# Convention : Reuss Voigt Hill
#
# Bulk Modulus (GPa) = 46.34656 52.27191 49.30923
# Shear Modulus (GPa) = 28.65938 34.71382 31.68660
#
# Velocity S-wave (km/s) = 3.54144 3.89760 3.72378
# Velocity P-wave (km/s) = 6.08312 6.56735 6.32987
#
# Compressibility (1/GPa) = 0.02157657
#
# Stress axis : x y z
#
# Youngs Moduli (GPa) = 62.53473 82.45222 64.89959
#
# Poissons Ratio (x) = 0.31849 0.34362
# Poissons Ratio (y) = 0.24155 0.11800
# Poissons Ratio (z) = 0.33110 0.14992
#
# Static dielectric constant tensor:
#      x y z
#    x 4.262310 0.045110 -0.072200 
#    y 0.045110 4.247470 -0.080210 
#    z -0.072200 -0.080210 4.510750 
# 
# 
# High freq. dielectric constant tensor:
#      x y z
#    x 1.897840 -0.006560 0.009020 
#    y -0.006560 1.912640 0.003240 
#    z 0.009020 0.003240 1.904820 
# 
# From -- ./inp_files/118589.got.cif
#   From: 2010.06.25/outbox.cif.g09.slc.cpg/sg2_60_cif.got.tgz:118589.got - 2010.06.27 13:26:56.
