data_PCOD8024771
_publ_section_title
;
Structure prediction by ZEFSAII (Michael W. Deem and Ramdas Pophale) SiO2 
 PCOD8024771
Probable space group: P -1
;
_chemical_formula_sum "Si O2"
_cell_formula_units_Z 16
_cell_length_a 9.420576
_cell_length_b 12.014877
_cell_length_c 11.643536
_cell_angle_alpha 53.112002
_cell_angle_beta 52.819164
_cell_angle_gamma 87.873728
_cell_volume 721.866081
_symmetry_space_group_name_H-M "P -1"
_symmetry_group_IT_number 2
_symmetry_cell_setting 'triclinic'
loop_
_space_group_symop_operation_xyz
x,y,z
-x,-y,-z
loop_
_atom_site_type_symbol
_atom_site_label
_atom_site_fract_x
_atom_site_fract_y
_atom_site_fract_z
Si Si1 0.728732 0.842098 0.513165
Si Si2 0.197477 0.058754 0.949751
Si Si3 0.493602 0.219009 0.120863
Si Si4 0.034566 0.638740 0.812134
Si Si5 0.497483 0.087922 0.607340
Si Si6 0.945119 0.492551 0.698426
Si Si7 0.972574 0.718543 0.354100
Si Si8 0.849287 0.846052 0.848661
O O1 0.590950 0.732373 0.755143
O O2 0.625091 0.928143 0.440852
O O3 0.768709 0.729344 0.476322
O O4 0.942392 0.981629 0.377929
O O5 0.169275 0.896855 0.124391
O O6 0.209017 0.178091 0.971685
O O7 0.407155 0.148182 0.717255
O O8 0.000000 0.000000 0.000000
O O9 0.328485 0.151116 0.140758
O O10 0.540548 0.084431 0.229274
O O11 0.699051 0.372667 0.876524
O O12 0.265300 0.788030 0.609973
O O13 0.989914 0.555737 0.763871
O O14 0.876691 0.699118 0.883455
O O15 0.000000 0.500000 0.000000
O O16 0.030479 0.646683 0.478643
O O17 0.064202 0.395856 0.667647
#
# Coordination Sequence:
#
# PCOD8024771 Si02
#       8
#     2   2   2   2   2   2   2   2
#     4  11  23  43  74 100 138 178 239 291 342 407
#     4  11  23  45  77 101 137 182 238 292 339 414
#     4  12  25  43  74 103 138 184 237 283 346 425
#     4  12  29  45  69 104 149 182 230 291 349 417
#     4  12  25  43  75 105 130 193 237 280 348 418
#     4  11  26  45  67 103 148 182 225 290 356 406
#     4  10  23  43  72  95 140 185 222 286 357 397
#     4  11  26  44  70 104 141 177 235 292 349 402
#
# _framework density 22.164777000000001
#
# number of rings (size 3 to 8) (size 9 to 14) (size 15 to 20)
#    0.000    0.750    5.000    2.250    7.000    5.500 
#    0.000    1.250    0.000    0.000    0.000    0.000 
#    0.000    0.000    0.000    0.000    0.000    0.000 
#
# Total GULP energy -198388.662857 kJ/mol
# GULP energy per Si atom -12399.291429 kJ/mol
# Density = 2.211433 g / cm^3
# Si number density = 22.164777 Si / 1000 Ang^3
#
#
#
# Elastic Constant Matrix: (Units=GPa)
#
#
# Indices 1 2 3 4 5 6 
#
# 1 90.3505 16.6746 -2.1910 -5.4766 3.8206 17.9038
# 2 16.6746 110.0373 -11.2094 8.6849 11.5483 13.4068
# 3 -2.1910 -11.2094 69.9120 3.4694 5.6389 9.4003
# 4 -5.4766 8.6849 3.4694 36.1078 -0.6126 7.7052
# 5 3.8206 11.5483 5.6389 -0.6126 31.3816 4.0100
# 6 17.9038 13.4068 9.4003 7.7052 4.0100 34.8757
#
#
#
# Elastic Compliance Matrix: (Units=1/GPa)
#
#
# Indices 1 2 3 4 5 6 
#
# 1 0.012998 -0.001242 0.001025 0.003715 -0.000310 -0.007257
# 2 -0.001242 0.010493 0.002485 -0.002352 -0.003805 -0.003109
# 3 0.001025 0.002485 0.015732 -0.000910 -0.003226 -0.005150
# 4 0.003715 -0.002352 -0.000910 0.030606 0.002167 -0.007769
# 5 -0.000310 -0.003805 -0.003226 0.002167 0.034171 -0.001916
# 6 -0.007257 -0.003109 -0.005150 -0.007769 -0.001916 0.036918
#
#
# Mechanical properties :
#
#
# Convention : Reuss Voigt Hill
#
# Bulk Modulus (GPa) = 22.85245 30.76092 26.80669
# Shear Modulus (GPa) = 33.11934 38.27472 35.69703
#
# Velocity S-wave (km/s) = 3.86972 4.16002 4.01749
# Velocity P-wave (km/s) = 5.50445 6.08134 5.80008
#
# Compressibility (1/GPa) = 0.04375899
#
# Stress axis : x y z
#
# Youngs Moduli (GPa) = 76.93299 95.30189 63.56459
#
# Poissons Ratio (x) = 0.11836 -0.06513
# Poissons Ratio (y) = 0.09554 -0.15797
# Poissons Ratio (z) = -0.07883 -0.23684
#
# Static dielectric constant tensor:
#      x y z
#    x 3.877730 -0.184830 0.066120 
#    y -0.184830 4.410030 0.430330 
#    z 0.066120 0.430330 4.751930 
# 
# 
# High freq. dielectric constant tensor:
#      x y z
#    x 1.860910 -0.010160 0.014660 
#    y -0.010160 1.888190 0.026030 
#    z 0.014660 0.026030 1.874530 
# 
# From -- ./inp_files/392040.got.cif
#   From: 2010.06.25/outbox.cif.g09.slc.cpg/sg2_197_cif.got.tgz:392040.got - 2010.06.27 13:26:56.
