data_PCOD8024884
_publ_section_title
;
Structure prediction by ZEFSAII (Michael W. Deem and Ramdas Pophale) SiO2 
 PCOD8024884
Probable space group: P -1
;
_chemical_formula_sum "Si O2"
_cell_formula_units_Z 16
_cell_length_a 21.586960
_cell_length_b 14.571713
_cell_length_c 8.842494
_cell_angle_alpha 64.711343
_cell_angle_beta 76.239879
_cell_angle_gamma 20.820150
_cell_volume 772.943525
_symmetry_space_group_name_H-M "P -1"
_symmetry_group_IT_number 2
_symmetry_cell_setting 'triclinic'
loop_
_space_group_symop_operation_xyz
x,y,z
-x,-y,-z
loop_
_atom_site_type_symbol
_atom_site_label
_atom_site_fract_x
_atom_site_fract_y
_atom_site_fract_z
Si Si1 0.867678 0.111145 0.067556
Si Si2 0.359470 0.629787 0.419843
Si Si3 0.543623 0.246028 0.299588
Si Si4 0.184481 0.748741 0.673220
Si Si5 0.985184 0.766392 0.013603
Si Si6 0.373756 0.102458 0.581638
Si Si7 0.954479 0.681966 0.347643
Si Si8 0.609067 0.767499 0.976668
O O1 0.898697 0.067665 0.259883
O O2 0.630779 0.482332 0.914868
O O3 0.944428 0.892714 0.100775
O O4 0.000000 0.000000 0.000000
O O5 0.500000 0.500000 0.500000
O O6 0.468286 0.395763 0.399790
O O7 0.320472 0.619490 0.593134
O O8 0.163307 0.980109 0.214769
O O9 0.598724 0.044202 0.423045
O O10 0.728056 0.042471 0.288054
O O11 0.306094 0.463653 0.840779
O O12 0.000000 0.000000 0.500000
O O13 0.212416 0.436399 0.058107
O O14 0.954130 0.700164 0.150208
O O15 0.131199 0.488166 0.451201
O O16 0.500000 0.000000 0.500000
O O17 0.444503 0.985074 0.795028
O O18 0.000000 0.500000 0.500000
O O19 0.500000 0.000000 0.000000
#
# Coordination Sequence:
#
# PCOD8024884 Si02
#       8
#     2   2   2   2   2   2   2   2
#     4  11  21  40  72  96 131 179 231 292 332 404
#     4  11  27  41  67 101 142 180 220 286 354 411
#     4  10  23  44  64  98 136 174 233 280 339 404
#     4  12  24  44  68 102 140 179 231 285 350 405
#     4  11  23  45  65 101 134 177 237 283 340 414
#     4  11  22  42  70  94 128 182 236 274 337 410
#     4  10  24  40  70  97 132 177 234 280 337 412
#     4  12  26  42  67 105 141 177 225 293 352 407
#
# _framework density 20.700088000000001
#
# number of rings (size 3 to 8) (size 9 to 14) (size 15 to 20)
#    0.000    1.000    5.000    0.750    5.250    3.000 
#    0.000    0.000    0.000    4.500    0.000    0.000 
#    0.000    0.000    0.000    0.000    0.000    0.000 
#
# Total GULP energy -198318.891985 kJ/mol
# GULP energy per Si atom -12394.930749 kJ/mol
# Density = 2.065297 g / cm^3
# Si number density = 20.700088 Si / 1000 Ang^3
#
#
#
# Elastic Constant Matrix: (Units=GPa)
#
#
# Indices 1 2 3 4 5 6 
#
# 1 97.1869 49.5480 43.8692 6.3300 10.4414 -14.8598
# 2 49.5480 145.5691 56.9076 6.0080 9.5987 -28.0834
# 3 43.8692 56.9076 134.7710 9.5040 3.4101 -12.0054
# 4 6.3300 6.0080 9.5040 43.8912 -8.5469 1.9278
# 5 10.4414 9.5987 3.4101 -8.5469 46.9265 6.0540
# 6 -14.8598 -28.0834 -12.0054 1.9278 6.0540 47.6002
#
#
#
# Elastic Compliance Matrix: (Units=1/GPa)
#
#
# Indices 1 2 3 4 5 6 
#
# 1 0.013831 -0.002870 -0.002895 -0.001638 -0.002879 0.002327
# 2 -0.002870 0.009975 -0.002754 -0.000939 -0.001964 0.004583
# 3 -0.002895 -0.002754 0.009595 -0.001220 0.000300 -0.000097
# 4 -0.001638 -0.000939 -0.001220 0.024624 0.005526 -0.003073
# 5 -0.002879 -0.001964 0.000300 0.005526 0.024015 -0.005260
# 6 0.002327 0.004583 -0.000097 -0.003073 -0.005260 0.025207
#
#
# Mechanical properties :
#
#
# Convention : Reuss Voigt Hill
#
# Bulk Modulus (GPa) = 61.10787 75.35296 68.23041
# Shear Modulus (GPa) = 38.53892 42.83040 40.68466
#
# Velocity S-wave (km/s) = 4.31951 4.55366 4.43813
# Velocity P-wave (km/s) = 7.37985 8.00806 7.70037
#
# Compressibility (1/GPa) = 0.01636450
#
# Stress axis : x y z
#
# Youngs Moduli (GPa) = 72.30203 100.24776 104.22229
#
# Poissons Ratio (x) = 0.28768 0.30169
# Poissons Ratio (y) = 0.20749 0.28701
# Poissons Ratio (z) = 0.20929 0.27607
#
# Static dielectric constant tensor:
#      x y z
#    x 6.092960 0.699690 0.124270 
#    y 0.699690 4.394840 -0.316120 
#    z 0.124270 -0.316120 3.627780 
# 
# 
# High freq. dielectric constant tensor:
#      x y z
#    x 1.804240 -0.019250 -0.004920 
#    y -0.019250 1.818100 -0.005210 
#    z -0.004920 -0.005210 1.829150 
# 
# From -- ./inp_files/222080.got.cif
#   From: 2010.06.25/outbox.cif.g09.slc.cpg/sg2_112_cif.got.tgz:222080.got - 2010.06.27 13:26:56.
