data_PCOD8024398
_publ_section_title
;
Structure prediction by ZEFSAII (Michael W. Deem and Ramdas Pophale) SiO2 
 PCOD8024398
Probable space group: P -1
;
_chemical_formula_sum "Si O2"
_cell_formula_units_Z 14
_cell_length_a 8.502541
_cell_length_b 24.179691
_cell_length_c 12.462172
_cell_angle_alpha 29.240327
_cell_angle_beta 36.653404
_cell_angle_gamma 28.889905
_cell_volume 596.634596
_symmetry_space_group_name_H-M "P -1"
_symmetry_group_IT_number 2
_symmetry_cell_setting 'triclinic'
loop_
_space_group_symop_operation_xyz
x,y,z
-x,-y,-z
loop_
_atom_site_type_symbol
_atom_site_label
_atom_site_fract_x
_atom_site_fract_y
_atom_site_fract_z
Si Si1 0.249518 0.027014 0.182113
Si Si2 0.379868 0.602632 0.514656
Si Si3 0.766384 0.304206 0.111576
Si Si4 0.320848 0.220784 0.472923
Si Si5 0.737613 0.399455 0.186734
Si Si6 0.365110 0.913102 0.685199
Si Si7 0.627610 0.643302 0.117200
O O1 0.036281 0.184592 0.083909
O O2 0.004156 0.994829 0.320553
O O3 0.468571 0.926087 0.330143
O O4 0.500000 0.000000 0.000000
O O5 0.307256 0.663218 0.573315
O O6 0.635984 0.618852 0.284469
O O7 0.495411 0.441013 0.731063
O O8 0.070367 0.690364 0.451716
O O9 0.443889 0.310335 0.291930
O O10 0.895942 0.284901 0.195965
O O11 0.627392 0.459428 0.880631
O O12 0.375224 0.194983 0.360746
O O13 0.006046 0.429038 0.006821
O O14 0.500000 0.000000 0.500000
O O15 0.385569 0.812550 0.938079
#
# Coordination Sequence:
#
# PCOD8024398 Si02
#       7
#     2   2   2   2   2   2   2
#     4  11  25  45  66  97 140 185 234 289 345 420
#     4  11  22  41  70 102 133 181 229 284 349 413
#     4  10  23  43  66  95 131 184 226 274 355 413
#     4  11  22  40  65  91 132 183 224 277 350 415
#     4  11  22  43  69  98 139 174 226 294 343 413
#     4  11  24  43  70  99 133 185 236 285 347 412
#     4  11  23  40  70 101 137 175 234 284 345 416
#
# _framework density 23.464948
#
# number of rings (size 3 to 8) (size 9 to 14) (size 15 to 20)
#    0.000    1.143    2.857    4.714    4.000    1.143 
#    5.143    2.857    0.000    0.000    0.000    0.000 
#    0.000    0.000    0.000    0.000    0.000    0.000 
#
# Total GULP energy -173455.208452 kJ/mol
# GULP energy per Si atom -12389.657747 kJ/mol
# Density = 2.341154 g / cm^3
# Si number density = 23.464948 Si / 1000 Ang^3
#
#
#
# Elastic Constant Matrix: (Units=GPa)
#
#
# Indices 1 2 3 4 5 6 
#
# 1 95.4036 36.4121 38.4835 0.7845 10.7987 18.2528
# 2 36.4121 98.5883 34.0880 7.6261 10.2207 5.5820
# 3 38.4835 34.0880 112.9958 4.1276 17.1958 12.9681
# 4 0.7845 7.6261 4.1276 42.4815 8.1740 13.3921
# 5 10.7987 10.2207 17.1958 8.1740 33.4838 -0.7992
# 6 18.2528 5.5820 12.9681 13.3921 -0.7992 35.4885
#
#
#
# Elastic Compliance Matrix: (Units=1/GPa)
#
#
# Indices 1 2 3 4 5 6 
#
# 1 0.014887 -0.004120 -0.002596 0.003730 -0.003301 -0.007542
# 2 -0.004120 0.012658 -0.002451 -0.002445 -0.000633 0.001933
# 3 -0.002596 -0.002451 0.011492 0.001236 -0.004691 -0.003051
# 4 0.003730 -0.002445 0.001236 0.029672 -0.008654 -0.013377
# 5 -0.003301 -0.000633 -0.004691 -0.008654 0.035826 0.007584
# 6 -0.007542 0.001933 -0.003051 -0.013377 0.007584 0.038087
#
#
# Mechanical properties :
#
#
# Convention : Reuss Voigt Hill
#
# Bulk Modulus (GPa) = 48.30214 58.32834 53.31524
# Shear Modulus (GPa) = 29.78712 35.49103 32.63907
#
# Velocity S-wave (km/s) = 3.56677 3.89332 3.73362
# Velocity P-wave (km/s) = 6.13123 6.71731 6.43095
#
# Compressibility (1/GPa) = 0.02070302
#
# Stress axis : x y z
#
# Youngs Moduli (GPa) = 67.17149 79.00206 87.01476
#
# Poissons Ratio (x) = 0.32550 0.22585
# Poissons Ratio (y) = 0.27676 0.21332
# Poissons Ratio (z) = 0.17435 0.19367
#
# Static dielectric constant tensor:
#      x y z
#    x 4.898930 -0.495140 -1.192340 
#    y -0.495140 4.573690 1.555200 
#    z -1.192340 1.555200 9.043100 
# 
# 
# High freq. dielectric constant tensor:
#      x y z
#    x 1.923860 -0.002220 0.019310 
#    y -0.002220 1.925580 0.003770 
#    z 0.019310 0.003770 1.920820 
# 
# From -- ./inp_files/191066.got.cif
#   From: 2010.06.25/outbox.cif.g09.slc.cpg/sg2_96_cif.got.tgz:191066.got - 2010.06.27 13:26:56.
