data_PCOD8024751
_publ_section_title
;
Structure prediction by ZEFSAII (Michael W. Deem and Ramdas Pophale) SiO2 
 PCOD8024751
Probable space group: P -1
;
_chemical_formula_sum "Si O2"
_cell_formula_units_Z 16
_cell_length_a 14.781249
_cell_length_b 11.331850
_cell_length_c 14.375180
_cell_angle_alpha 118.410183
_cell_angle_beta 149.654073
_cell_angle_gamma 42.502910
_cell_volume 725.423050
_symmetry_space_group_name_H-M "P -1"
_symmetry_group_IT_number 2
_symmetry_cell_setting 'triclinic'
loop_
_space_group_symop_operation_xyz
x,y,z
-x,-y,-z
loop_
_atom_site_type_symbol
_atom_site_label
_atom_site_fract_x
_atom_site_fract_y
_atom_site_fract_z
Si Si1 0.598587 0.955972 0.675889
Si Si2 0.812533 0.727474 0.441998
Si Si3 0.135004 0.189167 0.821268
Si Si4 0.733705 0.412547 0.107632
Si Si5 0.864597 0.218882 0.958236
Si Si6 0.644723 0.767057 0.116339
Si Si7 0.289040 0.292582 0.158879
Si Si8 0.457727 0.567558 0.592425
O O1 0.565795 0.839810 0.667117
O O2 0.500000 0.000000 0.500000
O O3 0.423192 0.168459 0.652174
O O4 0.910196 0.808243 0.891962
O O5 0.684324 0.834741 0.270184
O O6 0.000000 0.500000 0.500000
O O7 0.994092 0.746421 0.651836
O O8 0.135179 0.308462 0.790659
O O9 0.852015 0.275381 0.603731
O O10 0.242627 0.191259 0.013293
O O11 0.346011 0.960038 0.889381
O O12 0.681395 0.590416 0.093725
O O13 0.500000 0.500000 0.000000
O O14 0.761460 0.303119 0.002177
O O15 0.617393 0.376064 0.728695
O O16 0.000000 0.000000 0.000000
O O17 0.457673 0.323374 0.276679
O O18 0.000000 0.500000 0.000000
O O19 0.500000 0.500000 0.500000
#
# Coordination Sequence:
#
# PCOD8024751 Si02
#       8
#     2   2   2   2   2   2   2   2
#     4  12  25  46  72 105 143 190 241 301 366 436
#     4  10  23  43  71  99 137 189 236 289 364 426
#     4  11  24  47  75 102 144 191 246 302 359 444
#     4  11  26  45  70 106 149 187 238 304 365 442
#     4  12  29  45  71 110 146 192 247 300 369 436
#     4  10  24  46  72 102 142 190 243 299 366 433
#     4  12  24  45  72 104 151 188 240 301 372 437
#     4  12  27  45  73 109 144 195 244 307 371 437
#
# _framework density 22.056097000000001
#
# number of rings (size 3 to 8) (size 9 to 14) (size 15 to 20)
#    0.000    0.750    5.000    0.750    7.000    2.000 
#    0.000    1.875    0.000    0.000    0.000    0.000 
#    0.000    0.000    0.000    0.000    0.000    0.000 
#
# Total GULP energy -198276.920455 kJ/mol
# GULP energy per Si atom -12392.307528 kJ/mol
# Density = 2.200590 g / cm^3
# Si number density = 22.056097 Si / 1000 Ang^3
#
#
#
# Elastic Constant Matrix: (Units=GPa)
#
#
# Indices 1 2 3 4 5 6 
#
# 1 147.6564 53.2956 57.7810 -7.0032 1.0584 -9.6115
# 2 53.2956 102.3150 42.7089 -10.1972 -3.1443 -1.5340
# 3 57.7810 42.7089 133.9427 -9.5836 7.9220 -0.4466
# 4 -7.0032 -10.1972 -9.5836 33.5993 -5.1676 2.1241
# 5 1.0584 -3.1443 7.9220 -5.1676 54.0113 -1.5904
# 6 -9.6115 -1.5340 -0.4466 2.1241 -1.5904 51.5351
#
#
#
# Elastic Compliance Matrix: (Units=1/GPa)
#
#
# Indices 1 2 3 4 5 6 
#
# 1 0.009303 -0.003634 -0.002858 -0.000070 0.000066 0.001607
# 2 -0.003634 0.013009 -0.002472 0.002732 0.001441 -0.000380
# 3 -0.002858 -0.002472 0.009656 0.001231 -0.001405 -0.000617
# 4 -0.000070 0.002732 0.001231 0.031454 0.002956 -0.001126
# 5 0.000066 0.001441 -0.001405 0.002956 0.019101 0.000511
# 6 0.001607 -0.000380 -0.000617 -0.001126 0.000511 0.019750
#
#
# Mechanical properties :
#
#
# Convention : Reuss Voigt Hill
#
# Bulk Modulus (GPa) = 71.21870 76.83164 74.02517
# Shear Modulus (GPa) = 40.03812 43.17103 41.60458
#
# Velocity S-wave (km/s) = 4.26524 4.42897 4.34788
# Velocity P-wave (km/s) = 7.52438 7.81439 7.67075
#
# Compressibility (1/GPa) = 0.01404126
#
# Stress axis : x y z
#
# Youngs Moduli (GPa) = 107.48755 76.86902 103.56181
#
# Poissons Ratio (x) = 0.27934 0.29600
# Poissons Ratio (y) = 0.39060 0.25596
# Poissons Ratio (z) = 0.30722 0.18998
#
# Static dielectric constant tensor:
#      x y z
#    x 4.117870 -0.345580 -0.339190 
#    y -0.345580 3.761780 -0.296110 
#    z -0.339190 -0.296110 4.411120 
# 
# 
# High freq. dielectric constant tensor:
#      x y z
#    x 1.877740 -0.014540 -0.008040 
#    y -0.014540 1.867460 -0.021850 
#    z -0.008040 -0.021850 1.877110 
# 
# From -- ./inp_files/532639.got.cif
#   From: 2010.06.25/outbox.cif.g09.slc.cpg/sg2_267_cif.got.tgz:532639.got - 2010.06.27 13:26:56.
