data_PCOD8024557
_publ_section_title
;
Structure prediction by ZEFSAII (Michael W. Deem and Ramdas Pophale) SiO2 
 PCOD8024557
Probable space group: P -1
;
_chemical_formula_sum "Si O2"
_cell_formula_units_Z 16
_cell_length_a 11.267482
_cell_length_b 8.989155
_cell_length_c 8.453545
_cell_angle_alpha 62.396834
_cell_angle_beta 114.587261
_cell_angle_gamma 96.413455
_cell_volume 686.462100
_symmetry_space_group_name_H-M "P -1"
_symmetry_group_IT_number 2
_symmetry_cell_setting 'triclinic'
loop_
_space_group_symop_operation_xyz
x,y,z
-x,-y,-z
loop_
_atom_site_type_symbol
_atom_site_label
_atom_site_fract_x
_atom_site_fract_y
_atom_site_fract_z
Si Si1 0.298698 0.353231 0.337382
Si Si2 0.388058 0.863895 0.851624
Si Si3 0.043051 0.310185 0.064445
Si Si4 0.908037 0.015759 0.289956
Si Si5 0.515740 0.185060 0.750106
Si Si6 0.469885 0.609436 0.778279
Si Si7 0.720340 0.351374 0.601513
Si Si8 0.002870 0.317750 0.678191
O O1 0.178645 0.253668 0.261420
O O2 0.375759 0.269640 0.571131
O O3 0.392568 0.361070 0.236627
O O4 0.243663 0.537774 0.282131
O O5 0.391469 0.778841 0.723790
O O6 0.242521 0.949071 0.761052
O O7 0.501600 0.988907 0.849575
O O8 0.438388 0.742457 0.089358
O O9 0.944059 0.170739 0.121452
O O10 0.000000 0.500000 0.000000
O O11 0.069244 0.318728 0.887039
O O12 0.920023 0.833522 0.301674
O O13 0.000000 0.000000 0.500000
O O14 0.631508 0.206474 0.678389
O O15 0.370605 0.537760 0.632071
O O16 0.500000 0.500000 0.000000
O O17 0.853876 0.271333 0.636205
O O18 0.000000 0.500000 0.500000
#
# Coordination Sequence:
#
# PCOD8024557 Si02
#       8
#     2   2   2   2   2   2   2   2
#     4  11  24  43  70  99 139 184 231 290 356 426
#     4  11  24  42  71 100 144 177 240 292 358 430
#     4  12  26  46  75 105 150 196 243 298 368 434
#     4  12  27  48  74 109 152 194 239 301 367 436
#     4  10  23  43  68  99 133 189 224 291 363 414
#     4  11  24  39  67 100 130 182 230 289 348 411
#     4  11  23  44  68  94 144 174 237 290 352 425
#     4  12  28  47  75 109 142 196 246 299 368 437
#
# _framework density 23.307914
#
# number of rings (size 3 to 8) (size 9 to 14) (size 15 to 20)
#    0.000    0.750    1.250    6.375    5.250    5.000 
#    0.000    0.000    0.000    0.000    0.000    0.000 
#    0.000    0.000    0.000    0.000    0.000    0.000 
#
# Total GULP energy -198309.328658 kJ/mol
# GULP energy per Si atom -12394.333041 kJ/mol
# Density = 2.325486 g / cm^3
# Si number density = 23.307914 Si / 1000 Ang^3
#
#
#
# Elastic Constant Matrix: (Units=GPa)
#
#
# Indices 1 2 3 4 5 6 
#
# 1 112.9105 35.9219 22.2698 7.0640 -0.2909 1.2833
# 2 35.9219 111.5166 29.5667 7.5769 -15.8801 -6.5628
# 3 22.2698 29.5667 124.0976 19.8785 -11.3896 7.4196
# 4 7.0640 7.5769 19.8785 43.3924 4.1373 -0.5412
# 5 -0.2909 -15.8801 -11.3896 4.1373 37.4589 8.6065
# 6 1.2833 -6.5628 7.4196 -0.5412 8.6065 40.6608
#
#
#
# Elastic Compliance Matrix: (Units=1/GPa)
#
#
# Indices 1 2 3 4 5 6 
#
# 1 0.010108 -0.003161 -0.001105 -0.000451 -0.001474 -0.000322
# 2 -0.003161 0.011139 -0.001630 -0.001050 0.004012 0.001332
# 3 -0.001105 -0.001630 0.009831 -0.004400 0.003420 -0.002805
# 4 -0.000451 -0.001050 -0.004400 0.025832 -0.005116 0.002075
# 5 -0.001474 0.004012 0.003420 -0.005116 0.031523 -0.006670
# 6 -0.000322 0.001332 -0.002805 0.002075 -0.006670 0.026770
#
#
# Mechanical properties :
#
#
# Convention : Reuss Voigt Hill
#
# Bulk Modulus (GPa) = 51.84923 58.22683 55.03803
# Shear Modulus (GPa) = 37.47471 41.68686 39.58079
#
# Velocity S-wave (km/s) = 4.01410 4.23369 4.12536
# Velocity P-wave (km/s) = 6.61647 6.99533 6.80853
#
# Compressibility (1/GPa) = 0.01928669
#
# Stress axis : x y z
#
# Youngs Moduli (GPa) = 98.92869 89.77679 101.71746
#
# Poissons Ratio (x) = 0.28382 0.11235
# Poissons Ratio (y) = 0.31275 0.16578
# Poissons Ratio (z) = 0.10927 0.14632
#
# Static dielectric constant tensor:
#      x y z
#    x 3.548340 0.308660 0.432340 
#    y 0.308660 4.474520 0.055290 
#    z 0.432340 0.055290 4.162270 
# 
# 
# High freq. dielectric constant tensor:
#      x y z
#    x 1.926380 0.000770 -0.001930 
#    y 0.000770 1.914830 0.013770 
#    z -0.001930 0.013770 1.944570 
# 
# From -- ./inp_files/242686.got.cif
#   From: 2010.06.25/outbox.cif.g09.slc.cpg/sg2_122_cif.got.tgz:242686.got - 2010.06.27 13:26:56.
