data_PCOD8024248
_publ_section_title
;
Structure prediction by ZEFSAII (Michael W. Deem and Ramdas Pophale) SiO2 
 PCOD8024248
Probable space group: P -1
;
_chemical_formula_sum "Si O2"
_cell_formula_units_Z 12
_cell_length_a 6.434690
_cell_length_b 19.879239
_cell_length_c 22.701842
_cell_angle_alpha 15.706266
_cell_angle_beta 39.644960
_cell_angle_gamma 35.827847
_cell_volume 459.143503
_symmetry_space_group_name_H-M "P -1"
_symmetry_group_IT_number 2
_symmetry_cell_setting 'triclinic'
loop_
_space_group_symop_operation_xyz
x,y,z
-x,-y,-z
loop_
_atom_site_type_symbol
_atom_site_label
_atom_site_fract_x
_atom_site_fract_y
_atom_site_fract_z
Si Si1 0.673894 0.303197 0.858891
Si Si2 0.571681 0.005646 0.912118
Si Si3 0.964139 0.243692 0.442515
Si Si4 0.384287 0.651179 0.836557
Si Si5 0.653935 0.183338 0.095445
Si Si6 0.090065 0.643611 0.503770
O O1 0.710085 0.073472 0.996297
O O2 0.586920 0.194883 0.030607
O O3 0.036433 0.363626 0.733800
O O4 0.355977 0.585774 0.674091
O O5 0.973612 0.780053 0.001787
O O6 0.500000 0.000000 0.000000
O O7 0.582292 0.301624 0.645149
O O8 0.326387 0.256910 0.332210
O O9 0.865105 0.344223 0.446440
O O10 0.021098 0.923492 0.694409
O O11 0.336095 0.431869 0.987149
O O12 0.500000 0.500000 0.000000
O O13 0.718596 0.887053 0.357654
#
# Coordination Sequence:
#
# PCOD8024248 Si02
#       6
#     2   2   2   2   2   2
#     4  12  23  43  69  96 138 173 217 277 335 386
#     4  10  24  46  71  96 131 174 219 277 341 389
#     4  11  23  39  67  99 134 181 217 266 333 384
#     4  11  20  41  67  93 142 175 219 274 313 393
#     4  10  23  43  63 100 135 170 224 271 321 400
#     4  10  23  43  67  97 134 172 222 268 324 404
#
# _framework density 26.135619999999999
#
# number of rings (size 3 to 8) (size 9 to 14) (size 15 to 20)
#    1.000    0.333    5.000    0.000    2.333    2.000 
#    0.000    5.000    0.000    0.000    0.000    0.000 
#    0.000    0.000    0.000    0.000    0.000    0.000 
#
# Total GULP energy -148745.406845 kJ/mol
# GULP energy per Si atom -12395.450570 kJ/mol
# Density = 2.607613 g / cm^3
# Si number density = 26.135620 Si / 1000 Ang^3
#
#
#
# Elastic Constant Matrix: (Units=GPa)
#
#
# Indices 1 2 3 4 5 6 
#
# 1 117.2576 41.4318 36.4603 -15.7905 17.1809 21.6847
# 2 41.4318 91.3470 49.1717 -9.3270 -14.0614 25.8242
# 3 36.4603 49.1717 126.8795 -34.3909 4.8104 15.7966
# 4 -15.7905 -9.3270 -34.3909 60.2693 12.8131 4.6345
# 5 17.1809 -14.0614 4.8104 12.8131 53.5302 -6.3767
# 6 21.6847 25.8242 15.7966 4.6345 -6.3767 58.0888
#
#
#
# Elastic Compliance Matrix: (Units=1/GPa)
#
#
# Indices 1 2 3 4 5 6 
#
# 1 0.012660 -0.005639 0.000463 0.004479 -0.007073 -0.003479
# 2 -0.005639 0.018797 -0.006557 -0.003721 0.007833 -0.003311
# 3 0.000463 -0.006557 0.012786 0.007627 -0.005072 -0.001900
# 4 0.004479 -0.003721 0.007627 0.023934 -0.009429 -0.005037
# 5 -0.007073 0.007833 -0.005072 -0.009429 0.026218 0.004168
# 6 -0.003479 -0.003311 -0.001900 -0.005037 0.004168 0.021362
#
#
# Mechanical properties :
#
#
# Convention : Reuss Voigt Hill
#
# Bulk Modulus (GPa) = 48.13486 65.51240 56.82363
# Shear Modulus (GPa) = 34.21195 48.27236 41.24216
#
# Velocity S-wave (km/s) = 3.62196 4.30233 3.97672
# Velocity P-wave (km/s) = 5.99573 7.05697 6.54788
#
# Compressibility (1/GPa) = 0.02077497
#
# Stress axis : x y z
#
# Youngs Moduli (GPa) = 78.99117 53.20071 78.21157
#
# Poissons Ratio (x) = 0.30000 -0.03620
# Poissons Ratio (y) = 0.44544 0.51287
# Poissons Ratio (z) = -0.03656 0.34886
#
# Static dielectric constant tensor:
#      x y z
#    x 4.754340 -0.398090 -0.145500 
#    y -0.398090 5.066410 -0.596070 
#    z -0.145500 -0.596070 7.064010 
# 
# 
# High freq. dielectric constant tensor:
#      x y z
#    x 2.042950 -0.015400 0.010870 
#    y -0.015400 2.067390 -0.021550 
#    z 0.010870 -0.021550 2.087370 
# 
# From -- ./inp_files/480008.got.cif
#   From: 2010.06.25/outbox.cif.g09.slc.cpg/sg2_241_cif.got.tgz:480008.got - 2010.06.27 13:26:56.
