data_PCOD8024592
_publ_section_title
;
Structure prediction by ZEFSAII (Michael W. Deem and Ramdas Pophale) SiO2 
 PCOD8024592
Probable space group: P -1
;
_chemical_formula_sum "Si O2"
_cell_formula_units_Z 16
_cell_length_a 9.505962
_cell_length_b 10.970139
_cell_length_c 9.182709
_cell_angle_alpha 116.783473
_cell_angle_beta 93.577931
_cell_angle_gamma 82.888186
_cell_volume 848.254079
_symmetry_space_group_name_H-M "P -1"
_symmetry_group_IT_number 2
_symmetry_cell_setting 'triclinic'
loop_
_space_group_symop_operation_xyz
x,y,z
-x,-y,-z
loop_
_atom_site_type_symbol
_atom_site_label
_atom_site_fract_x
_atom_site_fract_y
_atom_site_fract_z
Si Si1 0.663232 0.948961 0.989791
Si Si2 0.137080 0.822100 0.833419
Si Si3 0.824771 0.669663 0.364710
Si Si4 0.896829 0.204461 0.852117
Si Si5 0.131471 0.551531 0.216120
Si Si6 0.160293 0.541428 0.529251
Si Si7 0.152116 0.088698 0.284917
Si Si8 0.796386 0.732880 0.092955
O O1 0.682151 0.821153 0.033755
O O2 0.747680 0.071455 0.120091
O O3 0.713753 0.898241 0.804469
O O4 0.500000 0.000000 0.000000
O O5 0.174750 0.695686 0.660155
O O6 0.982623 0.895842 0.823381
O O7 0.138113 0.762425 0.964016
O O8 0.751412 0.567243 0.414198
O O9 0.858868 0.802777 0.528093
O O10 0.728419 0.712322 0.239074
O O11 0.967181 0.588772 0.264598
O O12 0.817639 0.325648 0.812517
O O13 0.065917 0.187078 0.830797
O O14 0.838220 0.062349 0.724120
O O15 0.219439 0.529854 0.361557
O O16 0.151308 0.412045 0.053602
O O17 0.000000 0.500000 0.500000
#
# Coordination Sequence:
#
# PCOD8024592 Si02
#       8
#     2   2   2   2   2   2   2   2
#     4  11  24  39  57  79 112 154 190 225 273 331
#     4  11  18  35  57  82 112 144 183 235 276 324
#     4  10  20  30  53  89 115 145 172 232 287 327
#     4  10  18  29  50  82 111 140 176 229 278 325
#     4  10  19  29  50  84 121 139 173 228 285 326
#     4  10  17  29  51  84 117 140 173 222 288 326
#     4  11  19  35  57  83 114 142 184 234 279 327
#     4  11  19  33  53  80 116 145 185 225 278 329
#
# _framework density 18.862272999999998
#
# number of rings (size 3 to 8) (size 9 to 14) (size 15 to 20)
#    0.000    1.500    5.000    5.250    0.000    3.000 
#    0.000    0.625    0.000    9.750    0.000    0.000 
#    0.000    0.000    0.000    0.000    0.000    0.000 
#
# Total GULP energy -198329.948421 kJ/mol
# GULP energy per Si atom -12395.621776 kJ/mol
# Density = 1.881934 g / cm^3
# Si number density = 18.862273 Si / 1000 Ang^3
#
#
#
# Elastic Constant Matrix: (Units=GPa)
#
#
# Indices 1 2 3 4 5 6 
#
# 1 58.3005 33.0005 26.2146 0.4723 -6.5174 -10.2375
# 2 33.0005 160.4614 64.1927 -22.2386 -2.2476 -0.8775
# 3 26.2146 64.1927 126.8929 -6.4881 0.8920 -1.6012
# 4 0.4723 -22.2386 -6.4881 38.9063 7.0798 0.4426
# 5 -6.5174 -2.2476 0.8920 7.0798 6.3668 1.0937
# 6 -10.2375 -0.8775 -1.6012 0.4426 1.0937 14.9363
#
#
#
# Elastic Compliance Matrix: (Units=1/GPa)
#
#
# Indices 1 2 3 4 5 6 
#
# 1 0.029309 -0.005370 -0.003969 -0.011242 0.038264 0.016879
# 2 -0.005370 0.009419 -0.003306 0.006454 -0.008359 -0.003060
# 3 -0.003969 -0.003306 0.010484 0.001381 -0.008021 -0.001245
# 4 -0.011242 0.006454 0.001381 0.039345 -0.052400 -0.004507
# 5 0.038264 -0.008359 -0.008021 -0.052400 0.251296 0.008028
# 6 0.016879 -0.003060 -0.001245 -0.004507 0.008028 0.077752
#
#
# Mechanical properties :
#
#
# Convention : Reuss Voigt Hill
#
# Bulk Modulus (GPa) = 41.79964 65.83006 53.81485
# Shear Modulus (GPa) = 11.08968 26.85836 18.97402
#
# Velocity S-wave (km/s) = 2.42736 3.77758 3.17507
# Velocity P-wave (km/s) = 5.48312 7.34867 6.48335
#
# Compressibility (1/GPa) = 0.02392365
#
# Stress axis : x y z
#
# Youngs Moduli (GPa) = 34.11892 106.16401 95.38113
#
# Poissons Ratio (x) = 0.57005 0.37861
# Poissons Ratio (y) = 0.18320 0.31530
# Poissons Ratio (z) = 0.13543 0.35094
#
# Static dielectric constant tensor:
#      x y z
#    x 2.764640 0.122460 0.009310 
#    y 0.122460 4.297050 -0.522470 
#    z 0.009310 -0.522470 3.815480 
# 
# 
# High freq. dielectric constant tensor:
#      x y z
#    x 1.642840 0.012180 0.002710 
#    y 0.012180 1.761520 -0.006110 
#    z 0.002710 -0.006110 1.749610 
# 
# From -- ./inp_files/182498.got.cif
#   From: 2010.06.25/outbox.cif.g09.slc.cpg/sg2_92_cif.got.tgz:182498.got - 2010.06.27 13:26:56.
