data_PCOD8024719
_publ_section_title
;
Structure prediction by ZEFSAII (Michael W. Deem and Ramdas Pophale) SiO2 
 PCOD8024719
Probable space group: P -1
;
_chemical_formula_sum "Si O2"
_cell_formula_units_Z 14
_cell_length_a 15.255316
_cell_length_b 8.946320
_cell_length_c 21.980170
_cell_angle_alpha 150.761981
_cell_angle_beta 152.632794
_cell_angle_gamma 30.601875
_cell_volume 622.451420
_symmetry_space_group_name_H-M "P -1"
_symmetry_group_IT_number 2
_symmetry_cell_setting 'triclinic'
loop_
_space_group_symop_operation_xyz
x,y,z
-x,-y,-z
loop_
_atom_site_type_symbol
_atom_site_label
_atom_site_fract_x
_atom_site_fract_y
_atom_site_fract_z
Si Si1 0.658351 0.122498 0.890571
Si Si2 0.503173 0.727419 0.858439
Si Si3 0.951839 0.269133 0.937142
Si Si4 0.208160 0.380843 0.548972
Si Si5 0.542762 0.780083 0.588405
Si Si6 0.673468 0.771634 0.173600
Si Si7 0.897657 0.603603 0.647146
O O1 0.470443 0.184345 0.841819
O O2 0.606121 0.020991 0.756650
O O3 0.687227 0.471662 0.029806
O O4 0.868241 0.827218 0.936066
O O5 0.733290 0.457770 0.900546
O O6 0.349858 0.560647 0.728320
O O7 0.420013 0.885707 0.798000
O O8 0.500000 0.000000 0.000000
O O9 0.950017 0.931244 0.787267
O O10 0.000000 0.500000 0.000000
O O11 0.169715 0.472122 0.487119
O O12 0.000000 0.500000 0.500000
O O13 0.332213 0.988588 0.496580
O O14 0.500000 0.500000 0.500000
O O15 0.719938 0.629004 0.594210
O O16 0.900949 0.703501 0.315288
#
# Coordination Sequence:
#
# PCOD8024719 Si02
#       7
#     2   2   2   2   2   2   2
#     4  10  23  44  67 103 140 179 235 288 359 411
#     4  12  27  43  74 105 143 184 245 289 364 420
#     4  11  24  43  74 102 141 189 234 300 352 430
#     4  12  29  50  72 102 149 189 239 302 357 432
#     4  12  28  44  72 102 142 190 240 295 354 431
#     4  10  23  43  71 101 140 184 232 296 347 428
#     4  11  27  47  71 103 145 188 243 292 363 425
#
# _framework density 22.491714000000002
#
# number of rings (size 3 to 8) (size 9 to 14) (size 15 to 20)
#    0.000    0.857    2.857    2.143   10.000    1.714 
#    0.000    0.000    0.000    0.000    0.000    0.000 
#    0.000    0.000    0.000    0.000    0.000    0.000 
#
# Total GULP energy -173651.392741 kJ/mol
# GULP energy per Si atom -12403.670910 kJ/mol
# Density = 2.244052 g / cm^3
# Si number density = 22.491714 Si / 1000 Ang^3
#
#
#
# Elastic Constant Matrix: (Units=GPa)
#
#
# Indices 1 2 3 4 5 6 
#
# 1 132.5658 42.2100 45.6729 -16.5054 8.3767 -17.7014
# 2 42.2100 137.3591 19.7943 -37.7105 3.0802 -21.7409
# 3 45.6729 19.7943 91.9069 -14.4715 -3.1052 -16.3282
# 4 -16.5054 -37.7105 -14.4715 34.6498 0.0714 9.7594
# 5 8.3767 3.0802 -3.1052 0.0714 44.6562 -2.3237
# 6 -17.7014 -21.7409 -16.3282 9.7594 -2.3237 42.6805
#
#
#
# Elastic Compliance Matrix: (Units=1/GPa)
#
#
# Indices 1 2 3 4 5 6 
#
# 1 0.010044 -0.002138 -0.004329 0.000303 -0.001973 0.001244
# 2 -0.002138 0.011200 0.000810 0.010761 -0.000194 0.002657
# 3 -0.004329 0.000810 0.014095 0.003788 0.001899 0.003247
# 4 0.000303 0.010761 0.003788 0.043099 -0.000752 -0.002840
# 5 -0.001973 -0.000194 0.001899 -0.000752 0.022974 0.001232
# 6 0.001244 0.002657 0.003247 -0.002840 0.001232 0.027258
#
#
# Mechanical properties :
#
#
# Convention : Reuss Voigt Hill
#
# Bulk Modulus (GPa) = 41.62344 64.13178 52.87761
# Shear Modulus (GPa) = 33.78556 41.34096 37.56326
#
# Velocity S-wave (km/s) = 3.87994 4.29190 4.09111
# Velocity P-wave (km/s) = 6.21436 7.28944 6.77326
#
# Compressibility (1/GPa) = 0.02402492
#
# Stress axis : x y z
#
# Youngs Moduli (GPa) = 99.55933 89.28792 70.94839
#
# Poissons Ratio (x) = 0.19094 0.30713
# Poissons Ratio (y) = 0.21290 -0.05750
# Poissons Ratio (z) = 0.43098 -0.07236
#
# Static dielectric constant tensor:
#      x y z
#    x 3.952760 0.169510 0.131340 
#    y 0.169510 4.398720 -0.357600 
#    z 0.131340 -0.357600 3.857640 
# 
# 
# High freq. dielectric constant tensor:
#      x y z
#    x 1.890700 0.003810 0.005720 
#    y 0.003810 1.909610 -0.010490 
#    z 0.005720 -0.010490 1.886820 
# 
# From -- ./inp_files/157348.got.cif
#   From: 2010.06.25/outbox.cif.g09.slc.cpg/sg2_79_cif.got.tgz:157348.got - 2010.06.27 13:26:56.
