data_PCOD8024856
_publ_section_title
;
Structure prediction by ZEFSAII (Michael W. Deem and Ramdas Pophale) SiO2 
 PCOD8024856
Probable space group: P -1
;
_chemical_formula_sum "Si O2"
_cell_formula_units_Z 14
_cell_length_a 9.755658
_cell_length_b 19.962257
_cell_length_c 18.133321
_cell_angle_alpha 160.484926
_cell_angle_beta 140.327646
_cell_angle_gamma 36.912884
_cell_volume 706.229322
_symmetry_space_group_name_H-M "P -1"
_symmetry_group_IT_number 2
_symmetry_cell_setting 'triclinic'
loop_
_space_group_symop_operation_xyz
x,y,z
-x,-y,-z
loop_
_atom_site_type_symbol
_atom_site_label
_atom_site_fract_x
_atom_site_fract_y
_atom_site_fract_z
Si Si1 0.364066 0.212682 0.464037
Si Si2 0.973626 0.534617 0.304371
Si Si3 0.436830 0.434935 0.582469
Si Si4 0.103683 0.806008 0.747101
Si Si5 0.711326 0.857933 0.892757
Si Si6 0.921411 0.474032 0.826029
Si Si7 0.844865 0.856193 0.296531
O O1 0.584742 0.007092 0.357312
O O2 0.281334 0.356752 0.653496
O O3 0.411846 0.372032 0.590650
O O4 0.159475 0.129392 0.266492
O O5 0.132896 0.664684 0.537174
O O6 0.092175 0.290225 0.125895
O O7 0.948790 0.541685 0.213790
O O8 0.262001 0.671389 0.738777
O O9 0.387787 0.268361 0.335863
O O10 0.691245 0.428847 0.668315
O O11 0.172363 0.008797 0.969561
O O12 0.500000 0.000000 0.000000
O O13 0.086677 0.292815 0.758455
O O14 0.868578 0.710011 0.082427
O O15 0.000000 0.000000 0.500000
#
# Coordination Sequence:
#
# PCOD8024856 Si02
#       7
#     2   2   2   2   2   2   2
#     4  10  23  44  62  93 136 166 207 272 312 379
#     4   9  23  42  59  98 131 159 212 258 320 373
#     4  11  22  39  66  94 133 165 216 252 314 387
#     4   9  22  39  61  96 136 165 203 253 323 374
#     4  11  22  36  64 101 133 173 207 251 315 390
#     4  11  24  43  70  91 123 169 214 274 308 376
#     4  11  25  46  67  93 120 167 229 258 322 378
#
# _framework density 19.823588999999998
#
# number of rings (size 3 to 8) (size 9 to 14) (size 15 to 20)
#    0.857    0.857    1.429    2.143    4.000    5.714 
#    0.000    0.714    0.000    0.000    0.000    0.000 
#    0.000    0.000    0.000    0.000    0.000    0.000 
#
# Total GULP energy -173572.003652 kJ/mol
# GULP energy per Si atom -12398.000261 kJ/mol
# Density = 1.977847 g / cm^3
# Si number density = 19.823589 Si / 1000 Ang^3
#
#
#
# Elastic Constant Matrix: (Units=GPa)
#
#
# Indices 1 2 3 4 5 6 
#
# 1 119.0619 66.2450 53.2417 22.7679 -20.3277 -16.9457
# 2 66.2450 131.9326 37.6747 24.2569 -8.3560 -3.3521
# 3 53.2417 37.6747 91.0990 16.4054 10.5297 21.9305
# 4 22.7679 24.2569 16.4054 24.8387 -0.9690 1.6060
# 5 -20.3277 -8.3560 10.5297 -0.9690 29.7251 -10.1944
# 6 -16.9457 -3.3521 21.9305 1.6060 -10.1944 8.5329
#
#
#
# Elastic Compliance Matrix: (Units=1/GPa)
#
#
# Indices 1 2 3 4 5 6 
#
# 1 0.003444 -0.004415 0.006755 -0.002190 -0.009168 -0.022795
# 2 -0.004415 0.011329 -0.001168 -0.006257 0.000554 0.000523
# 3 0.006755 -0.001168 0.001633 -0.007234 0.011771 0.024184
# 4 -0.002190 -0.006257 -0.007234 0.052931 0.002805 0.005173
# 5 -0.009168 0.000554 0.011771 0.002805 0.011392 -0.035159
# 6 -0.022795 0.000523 0.024184 0.005173 -0.035159 -0.033006
#
#
# Mechanical properties :
#
#
# Convention : Reuss Voigt Hill
#
# Bulk Modulus (GPa) = 53.33681 72.93516 63.13598
# Shear Modulus (GPa) = 96.84409 24.94814 60.89611
#
# Velocity S-wave (km/s) = 6.99707 3.55139 5.54849
# Velocity P-wave (km/s) = 9.60431 7.32724 8.54199
#
# Compressibility (1/GPa) = 0.01874878
#
# Stress axis : x y z
#
# Youngs Moduli (GPa) = 290.33020 88.26885 612.51858
#
# Poissons Ratio (x) = 0.38975 -4.13740
# Poissons Ratio (y) = 1.28194 0.71535
# Poissons Ratio (z) = -1.96110 0.10309
#
# Static dielectric constant tensor:
#      x y z
#    x 3.592270 -0.039500 -0.095000 
#    y -0.039500 3.656870 0.126300 
#    z -0.095000 0.126300 3.884190 
# 
# 
# High freq. dielectric constant tensor:
#      x y z
#    x 1.774110 0.000170 0.001100 
#    y 0.000170 1.774190 0.012220 
#    z 0.001100 0.012220 1.774320 
# 
# From -- ./inp_files/562154.got.cif
#   From: 2010.06.25/outbox.cif.g09.slc.cpg/sg2_282_cif.got.tgz:562154.got - 2010.06.27 13:26:56.
