data_PCOD8024605
_publ_section_title
;
Structure prediction by ZEFSAII (Michael W. Deem and Ramdas Pophale) SiO2 
 PCOD8024605
Probable space group: P -1
;
_chemical_formula_sum "Si O2"
_cell_formula_units_Z 12
_cell_length_a 5.519193
_cell_length_b 8.339292
_cell_length_c 14.267354
_cell_angle_alpha 83.023784
_cell_angle_beta 75.822369
_cell_angle_gamma 121.746069
_cell_volume 515.858735
_symmetry_space_group_name_H-M "P -1"
_symmetry_group_IT_number 2
_symmetry_cell_setting 'triclinic'
loop_
_space_group_symop_operation_xyz
x,y,z
-x,-y,-z
loop_
_atom_site_type_symbol
_atom_site_label
_atom_site_fract_x
_atom_site_fract_y
_atom_site_fract_z
Si Si1 0.860382 0.599753 0.449956
Si Si2 0.319216 0.277557 0.284310
Si Si3 0.772341 0.023809 0.229170
Si Si4 0.249655 0.614203 0.251691
Si Si5 0.344980 0.005945 0.421452
Si Si6 0.915039 0.414136 0.116916
O O1 0.500000 0.500000 0.500000
O O2 0.000000 0.500000 0.500000
O O3 0.983050 0.618029 0.329787
O O4 0.995936 0.815679 0.466069
O O5 0.229743 0.425950 0.310083
O O6 0.604903 0.384672 0.180015
O O7 0.050868 0.080311 0.267505
O O8 0.373754 0.208709 0.384428
O O9 0.883621 0.206946 0.135266
O O10 0.602948 0.810715 0.208995
O O11 0.497886 0.985073 0.319294
O O12 0.177734 0.573748 0.151229
O O13 0.500000 0.000000 0.500000
O O14 0.000000 0.500000 0.000000
#
# Coordination Sequence:
#
# PCOD8024605 Si02
#       6
#     2   2   2   2   2   2
#     4  11  28  44  68 102 140 187 239 283 350 417
#     4  10  23  43  69  91 139 178 230 287 345 411
#     4   9  22  43  62  97 132 176 228 279 349 414
#     4  10  24  44  68  98 137 178 232 284 345 412
#     4  10  24  42  63  95 138 182 233 285 346 411
#     4  10  23  43  69  99 134 174 225 291 355 415
#
# _framework density 23.262184000000001
#
# number of rings (size 3 to 8) (size 9 to 14) (size 15 to 20)
#    0.000    2.000    0.000    0.000   14.000    6.667 
#    0.000    3.333    0.000    0.000    0.000    0.000 
#    0.000    0.000    0.000    0.000    0.000    0.000 
#
# Total GULP energy -148682.507450 kJ/mol
# GULP energy per Si atom -12390.208954 kJ/mol
# Density = 2.320924 g / cm^3
# Si number density = 23.262184 Si / 1000 Ang^3
#
#
#
# Elastic Constant Matrix: (Units=GPa)
#
#
# Indices 1 2 3 4 5 6 
#
# 1 133.6960 48.3719 54.7520 -6.3567 8.4809 15.2571
# 2 48.3719 152.4386 58.0146 -6.3247 7.0484 33.1932
# 3 54.7520 58.0146 151.3761 -10.4245 25.0728 2.7061
# 4 -6.3567 -6.3247 -10.4245 22.1441 4.5289 -7.9814
# 5 8.4809 7.0484 25.0728 4.5289 32.5417 1.9536
# 6 15.2571 33.1932 2.7061 -7.9814 1.9536 32.5216
#
#
#
# Elastic Compliance Matrix: (Units=1/GPa)
#
#
# Indices 1 2 3 4 5 6 
#
# 1 0.009451 -0.001253 -0.002941 -0.000154 0.000274 -0.002964
# 2 -0.001253 0.010632 -0.004062 -0.003662 0.002321 -0.010963
# 3 -0.002941 -0.004062 0.010974 0.007338 -0.008245 0.006909
# 4 -0.000154 -0.003662 0.007338 0.056826 -0.013808 0.017974
# 5 0.000274 0.002321 -0.008245 -0.013808 0.038883 -0.007536
# 6 -0.002964 -0.010963 0.006909 0.017974 -0.007536 0.047618
#
#
# Mechanical properties :
#
#
# Convention : Reuss Voigt Hill
#
# Bulk Modulus (GPa) = 68.75574 84.42085 76.58829
# Shear Modulus (GPa) = 25.54362 35.86629 30.70495
#
# Velocity S-wave (km/s) = 3.31732 3.93087 3.63706
# Velocity P-wave (km/s) = 6.65536 7.54799 7.11569
#
# Compressibility (1/GPa) = 0.01454424
#
# Stress axis : x y z
#
# Youngs Moduli (GPa) = 105.80748 94.05974 91.12463
#
# Poissons Ratio (x) = 0.11789 0.26800
# Poissons Ratio (y) = 0.13262 0.37013
# Poissons Ratio (z) = 0.31118 0.38205
#
# Static dielectric constant tensor:
#      x y z
#    x 4.280760 0.093240 -0.026040 
#    y 0.093240 4.684510 -0.167030 
#    z -0.026040 -0.167030 3.853510 
# 
# 
# High freq. dielectric constant tensor:
#      x y z
#    x 1.926730 0.010410 0.001930 
#    y 0.010410 1.931320 -0.010700 
#    z 0.001930 -0.010700 1.898340 
# 
# From -- ./inp_files/136885.got.cif
#   From: 2010.06.25/outbox.cif.g09.slc.cpg/sg2_69_cif.got.tgz:136885.got - 2010.06.27 13:26:56.
