data_PCOD8024796
_publ_section_title
;
Structure prediction by ZEFSAII (Michael W. Deem and Ramdas Pophale) SiO2 
 PCOD8024796
Probable space group: P -1
;
_chemical_formula_sum "Si O2"
_cell_formula_units_Z 14
_cell_length_a 24.612854
_cell_length_b 4.988384
_cell_length_c 8.642082
_cell_angle_alpha 82.715036
_cell_angle_beta 37.420727
_cell_angle_gamma 91.158778
_cell_volume 626.558830
_symmetry_space_group_name_H-M "P -1"
_symmetry_group_IT_number 2
_symmetry_cell_setting 'triclinic'
loop_
_space_group_symop_operation_xyz
x,y,z
-x,-y,-z
loop_
_atom_site_type_symbol
_atom_site_label
_atom_site_fract_x
_atom_site_fract_y
_atom_site_fract_z
Si Si1 0.857442 0.479675 0.416759
Si Si2 0.512826 0.279133 0.862968
Si Si3 0.714166 0.287669 0.318831
Si Si4 0.408387 0.383228 0.805719
Si Si5 0.292625 0.824457 0.009379
Si Si6 0.798985 0.815100 0.270584
Si Si7 0.037080 0.801554 0.044245
O O1 0.793580 0.241068 0.675951
O O2 0.802134 0.704192 0.450558
O O3 0.942664 0.605414 0.330886
O O4 0.897627 0.365512 0.181306
O O5 0.611878 0.342057 0.554467
O O6 0.433367 0.256025 0.918720
O O7 0.500000 0.500000 0.000000
O O8 0.500000 0.000000 0.000000
O O9 0.660185 0.853118 0.115821
O O10 0.724160 0.011783 0.412086
O O11 0.740257 0.249013 0.085078
O O12 0.500000 0.500000 0.500000
O O13 0.362578 0.641693 0.923544
O O14 0.219695 0.438318 0.787437
O O15 0.898213 0.012108 0.988434
O O16 0.000000 0.000000 0.000000
#
# Coordination Sequence:
#
# PCOD8024796 Si02
#       7
#     2   2   2   2   2   2   2
#     4  10  23  43  73 105 131 180 231 275 331 412
#     4  12  28  43  68  99 133 174 231 285 339 395
#     4  12  26  44  64 100 141 173 226 287 340 396
#     4  12  27  49  69  95 139 187 223 280 342 400
#     4  12  28  44  72 100 137 182 231 275 336 409
#     4  11  23  42  71  97 137 181 215 281 339 394
#     4   9  20  42  73 101 140 169 228 278 334 401
#
# _framework density 22.344270999999999
#
# number of rings (size 3 to 8) (size 9 to 14) (size 15 to 20)
#    0.000    0.857    2.857    3.000   12.000    0.000 
#    0.000    1.429    0.000    0.000    0.000    0.000 
#    0.000    0.000    0.000    0.000    0.000    0.000 
#
# Total GULP energy -173523.051354 kJ/mol
# GULP energy per Si atom -12394.503668 kJ/mol
# Density = 2.229341 g / cm^3
# Si number density = 22.344271 Si / 1000 Ang^3
#
#
#
# Elastic Constant Matrix: (Units=GPa)
#
#
# Indices 1 2 3 4 5 6 
#
# 1 96.5616 14.5336 26.9950 -5.7972 -8.1828 22.0210
# 2 14.5336 104.4788 17.4004 -4.6208 -3.4184 7.2124
# 3 26.9950 17.4004 107.7363 -13.9315 -15.9444 12.6500
# 4 -5.7972 -4.6208 -13.9315 32.3049 4.0550 -11.1054
# 5 -8.1828 -3.4184 -15.9444 4.0550 30.6521 -7.1212
# 6 22.0210 7.2124 12.6500 -11.1054 -7.1212 48.4983
#
#
#
# Elastic Compliance Matrix: (Units=1/GPa)
#
#
# Indices 1 2 3 4 5 6 
#
# 1 0.012294 -0.000992 -0.002303 -0.000718 0.000939 -0.004860
# 2 -0.000992 0.009977 -0.001226 0.000515 0.000004 -0.000595
# 3 -0.002303 -0.001226 0.011223 0.003609 0.004562 -0.000203
# 4 -0.000718 0.000515 0.003609 0.035072 -0.001234 0.007158
# 5 0.000939 0.000004 0.004562 -0.001234 0.036205 0.003417
# 6 -0.004860 -0.000595 -0.000203 0.007158 0.003417 0.025108
#
#
# Mechanical properties :
#
#
# Convention : Reuss Voigt Hill
#
# Bulk Modulus (GPa) = 40.89689 47.40387 44.15038
# Shear Modulus (GPa) = 33.99680 38.94757 36.47218
#
# Velocity S-wave (km/s) = 3.90487 4.17954 4.04454
# Velocity P-wave (km/s) = 6.21880 6.67478 6.45082
#
# Compressibility (1/GPa) = 0.02445174
#
# Stress axis : x y z
#
# Youngs Moduli (GPa) = 81.33873 100.22578 89.10578
#
# Poissons Ratio (x) = 0.09943 0.20525
# Poissons Ratio (y) = 0.08069 0.10923
# Poissons Ratio (z) = 0.18736 0.12286
#
# Static dielectric constant tensor:
#      x y z
#    x 4.815800 -0.138540 -0.768250 
#    y -0.138540 3.765410 0.017770 
#    z -0.768250 0.017770 4.238810 
# 
# 
# High freq. dielectric constant tensor:
#      x y z
#    x 1.886250 -0.002240 -0.029000 
#    y -0.002240 1.903250 -0.007420 
#    z -0.029000 -0.007420 1.851720 
# 
# From -- ./inp_files/350628.got.cif
#   From: 2010.06.25/outbox.cif.g09.slc.cpg/sg2_176_cif.got.tgz:350628.got - 2010.06.27 13:26:56.
