data_PCOD8024862
_publ_section_title
;
Structure prediction by ZEFSAII (Michael W. Deem and Ramdas Pophale) SiO2 
 PCOD8024862
Probable space group: P -1
;
_chemical_formula_sum "Si O2"
_cell_formula_units_Z 16
_cell_length_a 9.044333
_cell_length_b 11.466359
_cell_length_c 22.205380
_cell_angle_alpha 39.118318
_cell_angle_beta 34.162683
_cell_angle_gamma 37.600958
_cell_volume 738.806791
_symmetry_space_group_name_H-M "P -1"
_symmetry_group_IT_number 2
_symmetry_cell_setting 'triclinic'
loop_
_space_group_symop_operation_xyz
x,y,z
-x,-y,-z
loop_
_atom_site_type_symbol
_atom_site_label
_atom_site_fract_x
_atom_site_fract_y
_atom_site_fract_z
Si Si1 0.386735 0.767317 0.419450
Si Si2 0.145061 0.250153 0.971644
Si Si3 0.563295 0.814738 0.972284
Si Si4 0.389148 0.243007 0.433293
Si Si5 0.888173 0.340720 0.226808
Si Si6 0.229913 0.498286 0.507252
Si Si7 0.492414 0.454892 0.091133
Si Si8 0.907910 0.771911 0.669299
O O1 0.405068 0.641666 0.401362
O O2 0.683330 0.656704 0.402602
O O3 0.107115 0.757149 0.550999
O O4 0.337152 0.996945 0.331993
O O5 0.194782 0.421881 0.849020
O O6 0.315136 0.040603 0.963641
O O7 0.261096 0.246030 0.000865
O O8 0.809343 0.291865 0.070664
O O9 0.791908 0.797102 0.850451
O O10 0.410676 0.664496 0.071171
O O11 0.649621 0.280962 0.299099
O O12 0.318418 0.360088 0.473754
O O13 0.111232 0.345159 0.442639
O O14 0.500000 0.000000 0.500000
O O15 0.880441 0.292038 0.319159
O O16 0.256042 0.374249 0.221589
O O17 0.500000 0.500000 0.000000
#
# Coordination Sequence:
#
# PCOD8024862 Si02
#       8
#     2   2   2   2   2   2   2   2
#     4  10  23  44  65  93 135 176 215 264 326 380
#     4  10  23  44  64  92 127 166 213 264 324 385
#     4  10  23  44  66  91 128 165 213 265 326 386
#     4  11  24  42  67  96 130 166 216 267 323 382
#     4  11  21  42  66  91 126 173 208 265 324 384
#     4  10  23  44  63  94 132 166 222 265 310 394
#     4  11  21  42  64  97 126 161 214 268 317 381
#     4  11  22  41  68  93 133 175 213 269 328 376
#
# _framework density 21.656542999999999
#
# number of rings (size 3 to 8) (size 9 to 14) (size 15 to 20)
#    0.000    1.500    3.750    2.250    1.750    5.500 
#    9.000    0.000    0.000    0.000    0.000    0.000 
#    0.000    0.000    0.000    0.000    0.000    0.000 
#
# Total GULP energy -198345.984205 kJ/mol
# GULP energy per Si atom -12396.624013 kJ/mol
# Density = 2.160725 g / cm^3
# Si number density = 21.656543 Si / 1000 Ang^3
#
#
#
# Elastic Constant Matrix: (Units=GPa)
#
#
# Indices 1 2 3 4 5 6 
#
# 1 116.1958 47.7222 25.6962 -10.7668 -9.4168 -5.2024
# 2 47.7222 147.2059 30.4239 -23.0625 -7.7382 1.2258
# 3 25.6962 30.4239 85.5431 -11.4917 -20.3645 -1.6354
# 4 -10.7668 -23.0625 -11.4917 19.5872 0.2529 6.2800
# 5 -9.4168 -7.7382 -20.3645 0.2529 32.1927 0.7442
# 6 -5.2024 1.2258 -1.6354 6.2800 0.7442 40.3118
#
#
#
# Elastic Compliance Matrix: (Units=1/GPa)
#
#
# Indices 1 2 3 4 5 6 
#
# 1 0.010375 -0.002801 -0.001653 0.001044 0.001281 0.001171
# 2 -0.002801 0.009508 -0.001101 0.009712 0.000745 -0.002222
# 3 -0.001653 -0.001101 0.015701 0.007154 0.009147 -0.000826
# 4 0.001044 0.009712 0.007154 0.070702 0.006864 -0.011011
# 5 0.001281 0.000745 0.009147 0.006864 0.037378 -0.001246
# 6 0.001171 -0.002222 -0.000826 -0.011011 -0.001246 0.026730
#
#
# Mechanical properties :
#
#
# Convention : Reuss Voigt Hill
#
# Bulk Modulus (GPa) = 40.85810 61.84770 51.35290
# Shear Modulus (GPa) = 26.36298 34.75852 30.56075
#
# Velocity S-wave (km/s) = 3.49280 4.01058 3.76061
# Velocity P-wave (km/s) = 5.93073 7.07579 6.52841
#
# Compressibility (1/GPa) = 0.02447495
#
# Stress axis : x y z
#
# Youngs Moduli (GPa) = 96.38671 105.17533 63.69147
#
# Poissons Ratio (x) = 0.29456 0.10528
# Poissons Ratio (y) = 0.26995 0.07010
# Poissons Ratio (z) = 0.15932 0.11576
#
# Static dielectric constant tensor:
#      x y z
#    x 4.211060 -0.032690 -0.127100 
#    y -0.032690 4.239630 -0.113200 
#    z -0.127100 -0.113200 3.615350 
# 
# 
# High freq. dielectric constant tensor:
#      x y z
#    x 1.869300 -0.001840 -0.002990 
#    y -0.001840 1.867860 -0.007830 
#    z -0.002990 -0.007830 1.824040 
# 
# From -- ./inp_files/589441.got.cif
#   From: 2010.06.25/outbox.cif.g09.slc.cpg/sg2_295_cif.got.tgz:589441.got - 2010.06.27 13:26:56.
