data_PCOD8024192
_publ_section_title
;
Structure prediction by ZEFSAII (Michael W. Deem and Ramdas Pophale) SiO2 
 PCOD8024192
Probable space group: P -1
;
_chemical_formula_sum "Si O2"
_cell_formula_units_Z 14
_cell_length_a 12.169703
_cell_length_b 5.809524
_cell_length_c 14.416088
_cell_angle_alpha 83.480499
_cell_angle_beta 133.956299
_cell_angle_gamma 119.925820
_cell_volume 589.981479
_symmetry_space_group_name_H-M "P -1"
_symmetry_group_IT_number 2
_symmetry_cell_setting 'triclinic'
loop_
_space_group_symop_operation_xyz
x,y,z
-x,-y,-z
loop_
_atom_site_type_symbol
_atom_site_label
_atom_site_fract_x
_atom_site_fract_y
_atom_site_fract_z
Si Si1 0.074356 0.353761 0.659859
Si Si2 0.771252 0.581164 0.932087
Si Si3 0.779026 0.449521 0.450951
Si Si4 0.732719 0.765529 0.559672
Si Si5 0.591794 0.341580 0.024356
Si Si6 0.813146 0.987153 0.790958
Si Si7 0.443166 0.857875 0.323624
O O1 0.195704 0.384602 0.638086
O O2 0.203538 0.485937 0.818860
O O3 0.985765 0.529781 0.587782
O O4 0.903560 0.028312 0.590227
O O5 0.757331 0.821005 0.864020
O O6 0.724400 0.356441 0.835185
O O7 0.611954 0.408530 0.924116
O O8 0.976491 0.723770 0.090084
O O9 0.702161 0.504460 0.496482
O O10 0.616421 0.115230 0.353601
O O11 0.798562 0.795209 0.703969
O O12 0.532116 0.723951 0.440516
O O13 0.500000 0.500000 0.000000
O O14 0.500000 0.000000 0.000000
O O15 0.664965 0.059035 0.676054
#
# Coordination Sequence:
#
# PCOD8024192 Si02
#       7
#     2   2   2   2   2   2   2
#     4  10  23  44  67 106 138 191 240 305 376 433
#     4  11  26  47  71 102 147 197 240 307 372 446
#     4  10  23  42  72  98 143 180 245 309 370 439
#     4  11  23  43  72 102 143 189 245 305 369 443
#     4  12  29  48  80 111 150 195 252 311 378 454
#     4  11  25  46  68 104 147 193 249 295 376 443
#     4  11  24  42  69 102 141 192 245 303 368 435
#
# _framework density 23.729561
#
# number of rings (size 3 to 8) (size 9 to 14) (size 15 to 20)
#    0.000    1.143    1.429    3.000    8.000    4.571 
#    2.571    0.000    0.000    0.000    0.000    0.000 
#    0.000    0.000    0.000    0.000    0.000    0.000 
#
# Total GULP energy -173465.372776 kJ/mol
# GULP energy per Si atom -12390.383770 kJ/mol
# Density = 2.367555 g / cm^3
# Si number density = 23.729561 Si / 1000 Ang^3
#
#
#
# Elastic Constant Matrix: (Units=GPa)
#
#
# Indices 1 2 3 4 5 6 
#
# 1 108.9722 34.0312 41.3364 -11.8007 -8.7662 -7.6341
# 2 34.0312 83.0136 27.2993 -0.5914 1.5213 0.1620
# 3 41.3364 27.2993 129.3337 8.9761 -3.1423 -0.5048
# 4 -11.8007 -0.5914 8.9761 37.9537 0.8986 -3.6012
# 5 -8.7662 1.5213 -3.1423 0.8986 39.6785 -6.9543
# 6 -7.6341 0.1620 -0.5048 -3.6012 -6.9543 35.9761
#
#
#
# Elastic Compliance Matrix: (Units=1/GPa)
#
#
# Indices 1 2 3 4 5 6 
#
# 1 0.012884 -0.004164 -0.003495 0.005055 0.003289 0.003845
# 2 -0.004164 0.014341 -0.001693 -0.000761 -0.001833 -0.001402
# 3 -0.003495 -0.001693 0.009440 -0.003435 -0.000049 -0.000955
# 4 0.005055 -0.000761 -0.003435 0.029089 0.000937 0.004121
# 5 0.003289 -0.001833 -0.000049 0.000937 0.027030 0.006024
# 6 0.003845 -0.001402 -0.000955 0.004121 0.006024 0.030182
#
#
# Mechanical properties :
#
#
# Convention : Reuss Voigt Hill
#
# Bulk Modulus (GPa) = 55.67871 58.51702 57.09787
# Shear Modulus (GPa) = 33.86205 37.29849 35.58027
#
# Velocity S-wave (km/s) = 3.78166 3.96891 3.87642
# Velocity P-wave (km/s) = 6.52555 6.76140 6.64452
#
# Compressibility (1/GPa) = 0.01796019
#
# Stress axis : x y z
#
# Youngs Moduli (GPa) = 77.61465 69.72954 105.93434
#
# Poissons Ratio (x) = 0.29038 0.37022
# Poissons Ratio (y) = 0.32321 0.17938
# Poissons Ratio (z) = 0.27125 0.11807
#
# Static dielectric constant tensor:
#      x y z
#    x 4.154910 0.108920 0.012770 
#    y 0.108920 4.363110 0.061100 
#    z 0.012770 0.061100 4.321890 
# 
# 
# High freq. dielectric constant tensor:
#      x y z
#    x 1.938350 0.016340 -0.001300 
#    y 0.016340 1.937230 0.011150 
#    z -0.001300 0.011150 1.954760 
# 
# From -- ./inp_files/27727.got.cif
#   From: 2010.06.25/outbox.cif.g09.slc.cpg/sg2_14_cif.got.tgz:27727.got - 2010.06.27 13:26:56.
