data_PCOD8024289
_publ_section_title
;
Structure prediction by ZEFSAII (Michael W. Deem and Ramdas Pophale) SiO2 
 PCOD8024289
Probable space group: P -1
;
_chemical_formula_sum "Si O2"
_cell_formula_units_Z 16
_cell_length_a 14.283688
_cell_length_b 12.469496
_cell_length_c 8.374159
_cell_angle_alpha 103.386295
_cell_angle_beta 129.830991
_cell_angle_gamma 42.954995
_cell_volume 695.652115
_symmetry_space_group_name_H-M "P -1"
_symmetry_group_IT_number 2
_symmetry_cell_setting 'triclinic'
loop_
_space_group_symop_operation_xyz
x,y,z
-x,-y,-z
loop_
_atom_site_type_symbol
_atom_site_label
_atom_site_fract_x
_atom_site_fract_y
_atom_site_fract_z
Si Si1 0.126540 0.537033 0.322289
Si Si2 0.566614 0.206482 0.588494
Si Si3 0.823675 0.046822 0.281947
Si Si4 0.965301 0.261496 0.401461
Si Si5 0.244601 0.701716 0.075703
Si Si6 0.531887 0.674100 0.818103
Si Si7 0.911158 0.869573 0.997918
Si Si8 0.068115 0.511532 0.736144
O O1 0.339948 0.352533 0.433708
O O2 0.144661 0.592491 0.527207
O O3 0.006468 0.689121 0.106584
O O4 0.015161 0.498472 0.209404
O O5 0.641257 0.265672 0.772870
O O6 0.588617 0.194218 0.417550
O O7 0.702807 0.006294 0.723566
O O8 0.842062 0.924774 0.373447
O O9 0.847026 0.998234 0.109738
O O10 0.611471 0.245115 0.160042
O O11 0.000000 0.000000 0.500000
O O12 0.014255 0.304955 0.314430
O O13 0.824531 0.265482 0.174604
O O14 0.385604 0.501595 0.208312
O O15 0.062159 0.830142 0.041083
O O16 0.698515 0.643053 0.043549
O O17 0.000000 0.500000 0.500000
#
# Coordination Sequence:
#
# PCOD8024289 Si02
#       8
#     2   2   2   2   2   2   2   2
#     4  10  23  43  64  96 130 170 225 281 311 380
#     4  12  24  39  67  97 136 171 216 263 341 393
#     4  11  23  39  64 102 135 164 221 272 319 402
#     4   9  21  41  65  90 130 176 208 267 332 379
#     4  11  22  41  65  94 139 171 210 268 337 400
#     4  11  24  41  68  96 130 181 214 260 342 388
#     4  11  24  41  62  99 132 170 214 273 326 385
#     4   9  21  45  67  88 129 174 223 275 321 380
#
# _framework density 23.000001999999999
#
# number of rings (size 3 to 8) (size 9 to 14) (size 15 to 20)
#    0.000    1.500    1.250    3.000    8.750    1.000 
#    2.250    2.500    0.000    0.000    0.000    0.000 
#    0.000    0.000    0.000    0.000    0.000    0.000 
#
# Total GULP energy -198274.624967 kJ/mol
# GULP energy per Si atom -12392.164060 kJ/mol
# Density = 2.294765 g / cm^3
# Si number density = 23.000002 Si / 1000 Ang^3
#
#
#
# Elastic Constant Matrix: (Units=GPa)
#
#
# Indices 1 2 3 4 5 6 
#
# 1 80.7495 26.8670 36.7165 -22.5890 9.2726 -10.9979
# 2 26.8670 78.3347 33.5193 -23.9845 10.2712 -22.1198
# 3 36.7165 33.5193 122.1911 -23.5191 -4.0932 5.2042
# 4 -22.5890 -23.9845 -23.5191 38.9583 1.8166 6.6586
# 5 9.2726 10.2712 -4.0932 1.8166 47.9848 -4.4586
# 6 -10.9979 -22.1198 5.2042 6.6586 -4.4586 32.3493
#
#
#
# Elastic Compliance Matrix: (Units=1/GPa)
#
#
# Indices 1 2 3 4 5 6 
#
# 1 0.017241 -0.000442 -0.004075 0.006678 -0.003432 0.004367
# 2 -0.000442 0.021843 -0.005012 0.008071 -0.004081 0.013368
# 3 -0.004075 -0.005012 0.011667 0.002685 0.002108 -0.006951
# 4 0.006678 0.008071 0.002685 0.036453 -0.004237 -0.000730
# 5 -0.003432 -0.004081 0.002108 -0.004237 0.022689 -0.000297
# 6 0.004367 0.013368 -0.006951 -0.000730 -0.000297 0.042766
#
#
# Mechanical properties :
#
#
# Convention : Reuss Voigt Hill
#
# Bulk Modulus (GPa) = 31.55192 52.83125 42.19158
# Shear Modulus (GPa) = 27.43040 36.13663 31.78352
#
# Velocity S-wave (km/s) = 3.45719 3.96808 3.72141
# Velocity P-wave (km/s) = 5.44832 6.63432 6.07036
#
# Compressibility (1/GPa) = 0.03169380
#
# Stress axis : x y z
#
# Youngs Moduli (GPa) = 58.00157 45.78145 85.71473
#
# Poissons Ratio (x) = 0.02021 0.34929
# Poissons Ratio (y) = 0.02561 0.42958
# Poissons Ratio (z) = 0.23636 0.22945
#
# Static dielectric constant tensor:
#      x y z
#    x 4.634710 0.395940 -0.191540 
#    y 0.395940 4.302790 0.000690 
#    z -0.191540 0.000690 4.314880 
# 
# 
# High freq. dielectric constant tensor:
#      x y z
#    x 1.908050 -0.002960 -0.026260 
#    y -0.002960 1.904720 0.000490 
#    z -0.026260 0.000490 1.916520 
# 
# From -- ./inp_files/315513.got.cif
#   From: 2010.06.25/outbox.cif.g09.slc.cpg/sg2_158_cif.got.tgz:315513.got - 2010.06.27 13:26:56.
