data_PCOD8024347
_publ_section_title
;
Structure prediction by ZEFSAII (Michael W. Deem and Ramdas Pophale) SiO2 
 PCOD8024347
Probable space group: P -1
;
_chemical_formula_sum "Si O2"
_cell_formula_units_Z 16
_cell_length_a 13.495890
_cell_length_b 8.749619
_cell_length_c 16.958362
_cell_angle_alpha 74.853431
_cell_angle_beta 155.658365
_cell_angle_gamma 111.480803
_cell_volume 754.268634
_symmetry_space_group_name_H-M "P -1"
_symmetry_group_IT_number 2
_symmetry_cell_setting 'triclinic'
loop_
_space_group_symop_operation_xyz
x,y,z
-x,-y,-z
loop_
_atom_site_type_symbol
_atom_site_label
_atom_site_fract_x
_atom_site_fract_y
_atom_site_fract_z
Si Si1 0.703967 0.005631 0.079978
Si Si2 0.525680 0.440169 0.349883
Si Si3 0.854491 0.733554 0.016165
Si Si4 0.850847 0.364182 0.470583
Si Si5 0.547754 0.966322 0.806265
Si Si6 0.705136 0.807234 0.501203
Si Si7 0.574833 0.190224 0.551313
Si Si8 0.722863 0.649704 0.105255
O O1 0.990564 0.108541 0.301421
O O2 0.657637 0.815873 0.050011
O O3 0.500000 0.000000 0.000000
O O4 0.635821 0.072725 0.937154
O O5 0.661947 0.443981 0.364725
O O6 0.610671 0.625038 0.419767
O O7 0.587835 0.311130 0.471208
O O8 0.236903 0.368792 0.118250
O O9 0.757660 0.624582 0.040729
O O10 0.151788 0.771240 0.216652
O O11 0.770681 0.902939 0.937934
O O12 0.699177 0.196727 0.335834
O O13 0.000000 0.500000 0.500000
O O14 0.017468 0.324476 0.665171
O O15 0.459172 0.083964 0.667028
O O16 0.637298 0.784458 0.547174
O O17 0.500000 0.000000 0.500000
O O18 0.500000 0.500000 0.000000
#
# Coordination Sequence:
#
# PCOD8024347 Si02
#       8
#     2   2   2   2   2   2   2   2
#     4  11  26  43  65  98 138 180 222 280 346 402
#     4  11  26  43  66 103 138 178 224 279 343 403
#     4  10  23  43  69  98 130 175 234 274 336 397
#     4  11  21  40  67  94 131 173 230 277 329 398
#     4  10  23  43  65  97 133 174 229 274 334 406
#     4  12  27  45  66 100 145 179 222 283 344 406
#     4  12  24  45  76  97 133 181 231 287 330 401
#     4  11  21  40  65  95 130 173 229 281 328 400
#
# _framework density 21.212600999999999
#
# number of rings (size 3 to 8) (size 9 to 14) (size 15 to 20)
#    0.000    1.000    2.500    5.625    3.500    7.000 
#    0.000    0.000    0.000    0.000    0.000    0.000 
#    0.000    0.000    0.000    0.000    0.000    0.000 
#
# Total GULP energy -198302.801608 kJ/mol
# GULP energy per Si atom -12393.925101 kJ/mol
# Density = 2.116432 g / cm^3
# Si number density = 21.212601 Si / 1000 Ang^3
#
#
#
# Elastic Constant Matrix: (Units=GPa)
#
#
# Indices 1 2 3 4 5 6 
#
# 1 92.8393 38.2209 43.0611 11.0330 -2.0607 -0.1429
# 2 38.2209 94.3915 35.6391 12.9701 -4.8137 5.3840
# 3 43.0611 35.6391 156.5010 6.1218 -4.1055 -3.7966
# 4 11.0330 12.9701 6.1218 33.4174 2.5252 -11.7550
# 5 -2.0607 -4.8137 -4.1055 2.5252 37.8488 8.6428
# 6 -0.1429 5.3840 -3.7966 -11.7550 8.6428 23.2218
#
#
#
# Elastic Compliance Matrix: (Units=1/GPa)
#
#
# Indices 1 2 3 4 5 6 
#
# 1 0.014167 -0.004185 -0.002846 -0.002917 0.000357 -0.001017
# 2 -0.004185 0.014811 -0.002044 -0.007487 0.004006 -0.009075
# 3 -0.002846 -0.002044 0.007644 0.001187 -0.000210 0.002385
# 4 -0.002917 -0.007487 0.001187 0.044274 -0.010372 0.028184
# 5 0.000357 0.004006 -0.000210 -0.010372 0.031735 -0.018022
# 6 -0.001017 -0.009075 0.002385 0.028184 -0.018022 0.066525
#
#
# Mechanical properties :
#
#
# Convention : Reuss Voigt Hill
#
# Bulk Modulus (GPa) = 54.13318 64.17488 59.15403
# Shear Modulus (GPa) = 24.57441 34.01832 29.29636
#
# Velocity S-wave (km/s) = 3.40734 4.00895 3.72032
# Velocity P-wave (km/s) = 6.40739 7.19359 6.81184
#
# Compressibility (1/GPa) = 0.01847296
#
# Stress axis : x y z
#
# Youngs Moduli (GPa) = 70.58475 67.51704 130.81849
#
# Poissons Ratio (x) = 0.28256 0.37235
# Poissons Ratio (y) = 0.29539 0.26733
# Poissons Ratio (z) = 0.20091 0.13797
#
# Static dielectric constant tensor:
#      x y z
#    x 6.185900 0.031030 -0.731100 
#    y 0.031030 3.892990 0.026860 
#    z -0.731100 0.026860 4.841170 
# 
# 
# High freq. dielectric constant tensor:
#      x y z
#    x 1.829300 0.008730 -0.008500 
#    y 0.008730 1.821470 -0.000800 
#    z -0.008500 -0.000800 1.860380 
# 
# From -- ./inp_files/460951.got.cif
#   From: 2010.06.25/outbox.cif.g09.slc.cpg/sg2_231_cif.got.tgz:460951.got - 2010.06.27 13:26:56.
