data_PCOD8024664
_publ_section_title
;
Structure prediction by ZEFSAII (Michael W. Deem and Ramdas Pophale) SiO2 
 PCOD8024664
Probable space group: P -1
;
_chemical_formula_sum "Si O2"
_cell_formula_units_Z 14
_cell_length_a 9.169098
_cell_length_b 16.170750
_cell_length_c 8.172727
_cell_angle_alpha 60.773003
_cell_angle_beta 111.224339
_cell_angle_gamma 148.401507
_cell_volume 550.239867
_symmetry_space_group_name_H-M "P -1"
_symmetry_group_IT_number 2
_symmetry_cell_setting 'triclinic'
loop_
_space_group_symop_operation_xyz
x,y,z
-x,-y,-z
loop_
_atom_site_type_symbol
_atom_site_label
_atom_site_fract_x
_atom_site_fract_y
_atom_site_fract_z
Si Si1 0.719772 0.151799 0.271694
Si Si2 0.843804 0.819034 0.868186
Si Si3 0.526901 0.640440 0.236093
Si Si4 0.882865 0.390908 0.878630
Si Si5 0.462567 0.097887 0.759649
Si Si6 0.533291 0.215999 0.342488
Si Si7 0.226798 0.295897 0.401667
O O1 0.552898 0.116268 0.386552
O O2 0.892846 0.146444 0.408678
O O3 0.522791 0.005520 0.192749
O O4 0.911301 0.334967 0.100615
O O5 0.738119 0.874543 0.766891
O O6 0.700781 0.700465 0.759595
O O7 0.736068 0.724814 0.088406
O O8 0.177971 0.977409 0.859890
O O9 0.339674 0.639623 0.134544
O O10 0.336934 0.453387 0.345502
O O11 0.683140 0.730656 0.390362
O O12 0.751653 0.257750 0.817253
O O13 0.185718 0.580880 0.768732
O O14 0.476706 0.184074 0.541428
#
# Coordination Sequence:
#
# PCOD8024664 Si02
#       7
#     2   2   2   2   2   2   2
#     4  11  23  48  71 103 147 187 239 299 367 423
#     4  11  24  46  73 103 148 192 241 294 367 434
#     4  11  22  43  73 107 144 190 244 297 361 430
#     4  12  24  46  75 109 140 187 249 299 356 430
#     4  11  27  45  67 111 148 188 234 302 368 430
#     4  12  23  46  78 102 144 191 243 298 358 432
#     4  10  23  43  70 108 145 188 242 299 360 432
#
# _framework density 25.443448
#
# number of rings (size 3 to 8) (size 9 to 14) (size 15 to 20)
#    0.000    0.857    2.857    4.286    0.000    2.857 
#   12.857    0.000    0.000    0.000    0.000    0.000 
#    0.000    0.000    0.000    0.000    0.000    0.000 
#
# Total GULP energy -173489.551264 kJ/mol
# GULP energy per Si atom -12392.110805 kJ/mol
# Density = 2.538554 g / cm^3
# Si number density = 25.443448 Si / 1000 Ang^3
#
#
#
# Elastic Constant Matrix: (Units=GPa)
#
#
# Indices 1 2 3 4 5 6 
#
# 1 102.9212 31.5057 10.5649 4.5361 -10.8382 0.8528
# 2 31.5057 78.6468 6.6157 2.2530 -9.9192 -10.9452
# 3 10.5649 6.6157 89.5826 8.4729 -20.7002 0.8276
# 4 4.5361 2.2530 8.4729 34.1771 3.1488 -3.6218
# 5 -10.8382 -9.9192 -20.7002 3.1488 44.2480 3.8481
# 6 0.8528 -10.9452 0.8276 -3.6218 3.8481 36.0269
#
#
#
# Elastic Compliance Matrix: (Units=1/GPa)
#
#
# Indices 1 2 3 4 5 6 
#
# 1 0.011428 -0.004542 -0.000422 -0.001495 0.001863 -0.001990
# 2 -0.004542 0.015427 -0.000215 -0.000044 0.001849 0.004597
# 3 -0.000422 -0.000215 0.013084 -0.003912 0.006372 -0.001430
# 4 -0.001495 -0.000044 -0.003912 0.031268 -0.004759 0.003764
# 5 0.001863 0.001849 0.006372 -0.004759 0.027051 -0.002997
# 6 -0.001990 0.004597 -0.001430 0.003764 -0.002997 0.029932
#
#
# Mechanical properties :
#
#
# Convention : Reuss Voigt Hill
#
# Bulk Modulus (GPa) = 33.80409 40.94700 37.37555
# Shear Modulus (GPa) = 33.69082 37.72134 35.70608
#
# Velocity S-wave (km/s) = 3.64283 3.85457 3.75020
# Velocity P-wave (km/s) = 5.56852 5.99488 5.78563
#
# Compressibility (1/GPa) = 0.02958222
#
# Stress axis : x y z
#
# Youngs Moduli (GPa) = 87.50132 64.82228 76.42793
#
# Poissons Ratio (x) = 0.29441 0.03226
# Poissons Ratio (y) = 0.39741 0.01641
# Poissons Ratio (z) = 0.03693 0.01392
#
# Static dielectric constant tensor:
#      x y z
#    x 4.646930 -0.192650 -0.015470 
#    y -0.192650 4.756820 0.215390 
#    z -0.015470 0.215390 4.789750 
# 
# 
# High freq. dielectric constant tensor:
#      x y z
#    x 2.023130 -0.014500 0.002930 
#    y -0.014500 2.017690 0.000710 
#    z 0.002930 0.000710 2.028340 
# 
# From -- ./inp_files/216315.got.cif
#   From: 2010.06.25/outbox.cif.g09.slc.cpg/sg2_109_cif.got.tgz:216315.got - 2010.06.27 13:26:56.
