data_PCOD8024210
_publ_section_title
;
Structure prediction by ZEFSAII (Michael W. Deem and Ramdas Pophale) SiO2 
 PCOD8024210
Probable space group: P -1
;
_chemical_formula_sum "Si O2"
_cell_formula_units_Z 12
_cell_length_a 10.490562
_cell_length_b 15.897084
_cell_length_c 15.354471
_cell_angle_alpha 26.206518
_cell_angle_beta 34.448102
_cell_angle_gamma 24.342028
_cell_volume 465.734672
_symmetry_space_group_name_H-M "P -1"
_symmetry_group_IT_number 2
_symmetry_cell_setting 'triclinic'
loop_
_space_group_symop_operation_xyz
x,y,z
-x,-y,-z
loop_
_atom_site_type_symbol
_atom_site_label
_atom_site_fract_x
_atom_site_fract_y
_atom_site_fract_z
Si Si1 0.126276 0.980251 0.040033
Si Si2 0.309530 0.756300 0.814137
Si Si3 0.063583 0.489354 0.371657
Si Si4 0.766114 0.455381 0.225818
Si Si5 0.851547 0.789717 0.924303
Si Si6 0.442598 0.360354 0.596767
O O1 0.926953 0.998347 0.214908
O O2 0.475940 0.709211 0.099933
O O3 0.089716 0.227366 0.839790
O O4 0.000000 0.000000 0.000000
O O5 0.563822 0.745579 0.634337
O O6 0.128615 0.737501 0.862650
O O7 0.500000 0.500000 0.000000
O O8 0.000000 0.500000 0.500000
O O9 0.887614 0.442118 0.450918
O O10 0.701050 0.276777 0.457494
O O11 0.069993 0.272966 0.164567
O O12 0.813569 0.583845 0.161843
O O13 0.535170 0.096748 0.827104
O O14 0.500000 0.500000 0.500000
#
# Coordination Sequence:
#
# PCOD8024210 Si02
#       6
#     2   2   2   2   2   2
#     4  11  22  43  71 104 141 190 244 293 366 433
#     4  10  23  42  73  99 142 187 239 293 362 433
#     4  11  24  46  71 106 150 185 242 305 362 434
#     4  11  24  43  72 101 143 188 239 295 363 428
#     4  11  24  46  71 104 139 190 241 297 359 437
#     4  12  26  44  71 107 144 188 239 300 364 434
#
# _framework density 25.765741999999999
#
# number of rings (size 3 to 8) (size 9 to 14) (size 15 to 20)
#    0.000    1.000    1.667    5.500    4.667    1.333 
#    0.000    5.833    0.000    0.000    0.000    0.000 
#    0.000    0.000    0.000    0.000    0.000    0.000 
#
# Total GULP energy -148657.617977 kJ/mol
# GULP energy per Si atom -12388.134831 kJ/mol
# Density = 2.570710 g / cm^3
# Si number density = 25.765742 Si / 1000 Ang^3
#
#
#
# Elastic Constant Matrix: (Units=GPa)
#
#
# Indices 1 2 3 4 5 6 
#
# 1 198.7374 39.9427 4.0882 12.6386 -21.3213 -19.3579
# 2 39.9427 84.3429 -1.6251 12.5214 -4.0835 -3.7536
# 3 4.0882 -1.6251 83.3344 2.6310 -12.6432 -6.4591
# 4 12.6386 12.5214 2.6310 42.1942 -5.9948 -5.2877
# 5 -21.3213 -4.0835 -12.6432 -5.9948 31.5817 4.9105
# 6 -19.3579 -3.7536 -6.4591 -5.2877 4.9105 48.0278
#
#
#
# Elastic Compliance Matrix: (Units=1/GPa)
#
#
# Indices 1 2 3 4 5 6 
#
# 1 0.006138 -0.002590 0.000352 -0.000342 0.003587 0.001914
# 2 -0.002590 0.013559 0.000413 -0.003367 -0.000430 -0.000256
# 3 0.000352 0.000413 0.012891 -0.000120 0.005217 0.001361
# 4 -0.000342 -0.003367 -0.000120 0.025606 0.003834 0.002010
# 5 0.003587 -0.000430 0.005217 0.003834 0.037041 -0.001251
# 6 0.001914 -0.000256 0.001361 0.002010 -0.001251 0.022105
#
#
# Mechanical properties :
#
#
# Convention : Reuss Voigt Hill
#
# Bulk Modulus (GPa) = 34.55827 50.13625 42.34726
# Shear Modulus (GPa) = 38.27380 45.96132 42.11756
#
# Velocity S-wave (km/s) = 3.85834 4.22811 4.04745
# Velocity P-wave (km/s) = 5.76980 6.58305 6.18980
#
# Compressibility (1/GPa) = 0.02893663
#
# Stress axis : x y z
#
# Youngs Moduli (GPa) = 162.91232 73.75341 77.57062
#
# Poissons Ratio (x) = 0.19106 -0.02729
# Poissons Ratio (y) = 0.42202 -0.03202
# Poissons Ratio (z) = -0.05731 -0.03044
#
# Static dielectric constant tensor:
#      x y z
#    x 4.671610 0.492230 -0.159010 
#    y 0.492230 3.697330 0.464690 
#    z -0.159010 0.464690 5.675580 
# 
# 
# High freq. dielectric constant tensor:
#      x y z
#    x 2.041990 0.007940 -0.008010 
#    y 0.007940 2.036880 0.021120 
#    z -0.008010 0.021120 2.033980 
# 
# From -- ./inp_files/242525.got.cif
#   From: 2010.06.25/outbox.cif.g09.slc.cpg/sg2_122_cif.got.tgz:242525.got - 2010.06.27 13:26:56.
