data_PCOD8024365
_publ_section_title
;
Structure prediction by ZEFSAII (Michael W. Deem and Ramdas Pophale) SiO2 
 PCOD8024365
Probable space group: P -1
;
_chemical_formula_sum "Si O2"
_cell_formula_units_Z 14
_cell_length_a 14.064924
_cell_length_b 12.048877
_cell_length_c 11.642726
_cell_angle_alpha 98.092424
_cell_angle_beta 90.199985
_cell_angle_gamma 159.595833
_cell_volume 626.426302
_symmetry_space_group_name_H-M "P -1"
_symmetry_group_IT_number 2
_symmetry_cell_setting 'triclinic'
loop_
_space_group_symop_operation_xyz
x,y,z
-x,-y,-z
loop_
_atom_site_type_symbol
_atom_site_label
_atom_site_fract_x
_atom_site_fract_y
_atom_site_fract_z
Si Si1 0.906792 0.432656 0.114765
Si Si2 0.237427 0.291804 0.948455
Si Si3 0.681443 0.363858 0.971209
Si Si4 0.805074 0.943424 0.466544
Si Si5 0.144873 0.158417 0.343839
Si Si6 0.182385 0.566276 0.257086
Si Si7 0.813696 0.187159 0.413208
O O1 0.850290 0.502759 0.107064
O O2 0.166362 0.683321 0.241133
O O3 0.000000 0.500000 0.000000
O O4 0.618537 0.043108 0.102315
O O5 0.375284 0.569503 0.999537
O O6 0.500000 0.500000 0.000000
O O7 0.087041 0.112589 0.798455
O O8 0.000000 0.000000 0.000000
O O9 0.868881 0.558813 0.881047
O O10 0.477835 0.550931 0.356957
O O11 0.848699 0.948237 0.596882
O O12 0.844157 0.121296 0.495800
O O13 0.051067 0.160204 0.419653
O O14 0.918280 0.250562 0.301260
O O15 0.483330 0.865444 0.360506
O O16 0.000000 0.500000 0.500000
#
# Coordination Sequence:
#
# PCOD8024365 Si02
#       7
#     2   2   2   2   2   2   2
#     4   9  20  41  69  94 128 180 224 257 332 418
#     4  12  29  41  67 107 141 173 228 280 338 400
#     4  10  23  43  66 100 134 184 219 268 346 409
#     4  10  23  45  72  89 129 180 228 266 341 386
#     4  10  23  46  67  95 128 180 225 277 319 402
#     4  11  23  41  67  94 137 175 209 276 343 404
#     4  12  26  41  66 102 127 166 226 285 339 390
#
# _framework density 22.348996
#
# number of rings (size 3 to 8) (size 9 to 14) (size 15 to 20)
#    0.000    1.429    1.429    2.143   10.000    1.143 
#    0.000    1.429    0.000    0.000    0.000    0.000 
#    0.000    0.000    0.000    0.000    0.000    0.000 
#
# Total GULP energy -173466.504671 kJ/mol
# GULP energy per Si atom -12390.464619 kJ/mol
# Density = 2.229813 g / cm^3
# Si number density = 22.348996 Si / 1000 Ang^3
#
#
#
# Elastic Constant Matrix: (Units=GPa)
#
#
# Indices 1 2 3 4 5 6 
#
# 1 186.5892 54.6557 51.4873 0.8140 40.3874 -25.0393
# 2 54.6557 84.4038 19.2795 -12.3670 6.0809 2.1212
# 3 51.4873 19.2795 85.1581 -1.4403 25.2656 -13.4104
# 4 0.8140 -12.3670 -1.4403 23.0297 3.8817 2.8461
# 5 40.3874 6.0809 25.2656 3.8817 43.5625 -1.6481
# 6 -25.0393 2.1212 -13.4104 2.8461 -1.6481 50.2518
#
#
#
# Elastic Compliance Matrix: (Units=1/GPa)
#
#
# Indices 1 2 3 4 5 6 
#
# 1 0.009658 -0.005914 -0.001886 -0.003083 -0.006589 0.004517
# 2 -0.005914 0.017379 -0.001847 0.009471 0.003110 -0.004607
# 3 -0.001886 -0.001847 0.015943 0.000902 -0.007203 0.003105
# 4 -0.003083 0.009471 0.000902 0.049854 -0.003605 -0.004637
# 5 -0.006589 0.003110 -0.007203 -0.003605 0.032976 -0.004051
# 6 0.004517 -0.004607 0.003105 -0.004637 -0.004051 0.023303
#
#
# Mechanical properties :
#
#
# Convention : Reuss Voigt Hill
#
# Bulk Modulus (GPa) = 42.22044 67.44401 54.83223
# Shear Modulus (GPa) = 28.36053 38.75071 33.55562
#
# Velocity S-wave (km/s) = 3.56615 4.16852 3.87904
# Velocity P-wave (km/s) = 5.99074 7.30834 6.68210
#
# Compressibility (1/GPa) = 0.02368521
#
# Stress axis : x y z
#
# Youngs Moduli (GPa) = 103.54269 57.54233 62.72413
#
# Poissons Ratio (x) = 0.34028 0.11832
# Poissons Ratio (y) = 0.61231 0.11585
# Poissons Ratio (z) = 0.19532 0.10628
#
# Static dielectric constant tensor:
#      x y z
#    x 4.708280 0.076200 0.369990 
#    y 0.076200 4.080340 -0.739490 
#    z 0.369990 -0.739490 3.279930 
# 
# 
# High freq. dielectric constant tensor:
#      x y z
#    x 1.900600 0.014590 0.040660 
#    y 0.014590 1.880890 -0.025570 
#    z 0.040660 -0.025570 1.860290 
# 
# From -- ./inp_files/364835.got.cif
#   From: 2010.06.25/outbox.cif.g09.slc.cpg/sg2_183_cif.got.tgz:364835.got - 2010.06.27 13:26:56.
