data_PCOD8024985
_publ_section_title
;
Structure prediction by ZEFSAII (Michael W. Deem and Ramdas Pophale) SiO2 
 PCOD8024985
Probable space group: P -1
;
_chemical_formula_sum "Si O2"
_cell_formula_units_Z 16
_cell_length_a 13.068491
_cell_length_b 22.061332
_cell_length_c 8.586992
_cell_angle_alpha 111.886926
_cell_angle_beta 66.265946
_cell_angle_gamma 160.474447
_cell_volume 757.289602
_symmetry_space_group_name_H-M "P -1"
_symmetry_group_IT_number 2
_symmetry_cell_setting 'triclinic'
loop_
_space_group_symop_operation_xyz
x,y,z
-x,-y,-z
loop_
_atom_site_type_symbol
_atom_site_label
_atom_site_fract_x
_atom_site_fract_y
_atom_site_fract_z
Si Si1 0.095895 0.173574 0.672596
Si Si2 0.612407 0.471379 0.117862
Si Si3 0.988047 0.417313 0.454008
Si Si4 0.682418 0.931316 0.413917
Si Si5 0.170833 0.849052 0.008640
Si Si6 0.990057 0.783160 0.720922
Si Si7 0.731058 0.526346 0.456591
Si Si8 0.454195 0.286748 0.802184
O O1 0.397175 0.362761 0.575716
O O2 0.182785 0.170353 0.752013
O O3 0.910642 0.133017 0.818960
O O4 0.876248 0.018189 0.532081
O O5 0.358840 0.390051 0.178221
O O6 0.721770 0.521592 0.273802
O O7 0.906407 0.650687 0.004853
O O8 0.454707 0.317958 0.004501
O O9 0.628422 0.200104 0.464507
O O10 0.000000 0.500000 0.500000
O O11 0.148308 0.480249 0.576816
O O12 0.205912 0.505828 0.271386
O O13 0.595600 0.818164 0.263793
O O14 0.869771 0.079563 0.325982
O O15 0.192448 0.878815 0.841366
O O16 0.500000 0.000000 0.000000
O O17 0.980092 0.714818 0.548531
#
# Coordination Sequence:
#
# PCOD8024985 Si02
#       8
#     2   2   2   2   2   2   2   2
#     4  11  21  43  68  96 127 168 220 261 322 393
#     4  12  23  45  66  96 129 171 220 264 323 390
#     4   9  22  44  65  93 131 173 211 259 325 384
#     4  11  24  41  66  98 130 168 221 268 317 382
#     4  12  27  41  67 101 130 166 212 275 330 381
#     4  12  24  44  66  94 134 168 214 270 327 383
#     4  11  23  42  71  95 127 176 213 263 326 390
#     4  10  23  44  67  92 132 176 213 263 322 386
#
# _framework density 21.127980000000001
#
# number of rings (size 3 to 8) (size 9 to 14) (size 15 to 20)
#    0.000    1.000    3.750    3.375    5.250    1.000 
#    0.000    2.500    0.000    0.000    0.000    0.000 
#    0.000    0.000    0.000    0.000    0.000    0.000 
#
# Total GULP energy -198368.482037 kJ/mol
# GULP energy per Si atom -12398.030127 kJ/mol
# Density = 2.107989 g / cm^3
# Si number density = 21.127980 Si / 1000 Ang^3
#
#
#
# Elastic Constant Matrix: (Units=GPa)
#
#
# Indices 1 2 3 4 5 6 
#
# 1 126.2257 47.7958 57.5280 6.4852 4.7294 17.5685
# 2 47.7958 104.6312 37.2515 0.4040 1.5400 16.4009
# 3 57.5280 37.2515 121.2051 27.5593 9.9247 1.4715
# 4 6.4852 0.4040 27.5593 33.1274 -0.5772 -4.7670
# 5 4.7294 1.5400 9.9247 -0.5772 33.4848 1.8247
# 6 17.5685 16.4009 1.4715 -4.7670 1.8247 34.8799
#
#
#
# Elastic Compliance Matrix: (Units=1/GPa)
#
#
# Indices 1 2 3 4 5 6 
#
# 1 0.011815 -0.002994 -0.004930 0.001227 0.000179 -0.004177
# 2 -0.002994 0.012611 -0.003032 0.002394 0.001002 -0.004019
# 3 -0.004930 -0.003032 0.014204 -0.010583 -0.003669 0.002056
# 4 0.001227 0.002394 -0.010583 0.039341 0.003319 0.003905
# 5 0.000179 0.001002 -0.003669 0.003319 0.031023 -0.001576
# 6 -0.004177 -0.004019 0.002056 0.003905 -0.001576 0.033193
#
#
# Mechanical properties :
#
#
# Convention : Reuss Voigt Hill
#
# Bulk Modulus (GPa) = 59.82382 70.80141 65.31262
# Shear Modulus (GPa) = 29.46854 34.26420 31.86637
#
# Velocity S-wave (km/s) = 3.73871 4.03146 3.88784
# Velocity P-wave (km/s) = 6.85665 7.43328 7.15078
#
# Compressibility (1/GPa) = 0.01671575
#
# Stress axis : x y z
#
# Youngs Moduli (GPa) = 84.64007 79.29768 70.40128
#
# Poissons Ratio (x) = 0.23744 0.34711
# Poissons Ratio (y) = 0.25344 0.21347
# Poissons Ratio (z) = 0.41731 0.24045
#
# Static dielectric constant tensor:
#      x y z
#    x 3.900060 0.279400 -0.061750 
#    y 0.279400 4.075400 -0.115110 
#    z -0.061750 -0.115110 3.828210 
# 
# 
# High freq. dielectric constant tensor:
#      x y z
#    x 1.833070 0.009580 -0.001090 
#    y 0.009580 1.828530 0.001000 
#    z -0.001090 0.001000 1.825640 
# 
# From -- ./inp_files/283133.got.cif
#   From: 2010.06.25/outbox.cif.g09.slc.cpg/sg2_142_cif.got.tgz:283133.got - 2010.06.27 13:26:56.
