data_PCOD8024497
_publ_section_title
;
Structure prediction by ZEFSAII (Michael W. Deem and Ramdas Pophale) SiO2 
 PCOD8024497
Probable space group: P -1
;
_chemical_formula_sum "Si O2"
_cell_formula_units_Z 16
_cell_length_a 11.929157
_cell_length_b 14.147877
_cell_length_c 11.401121
_cell_angle_alpha 63.766559
_cell_angle_beta 100.965062
_cell_angle_gamma 153.687214
_cell_volume 654.376517
_symmetry_space_group_name_H-M "P -1"
_symmetry_group_IT_number 2
_symmetry_cell_setting 'triclinic'
loop_
_space_group_symop_operation_xyz
x,y,z
-x,-y,-z
loop_
_atom_site_type_symbol
_atom_site_label
_atom_site_fract_x
_atom_site_fract_y
_atom_site_fract_z
Si Si1 0.305942 0.098262 0.950440
Si Si2 0.137591 0.650983 0.567689
Si Si3 0.980388 0.069229 0.562735
Si Si4 0.848539 0.806000 0.886530
Si Si5 0.108139 0.375213 0.111054
Si Si6 0.833082 0.244919 0.916322
Si Si7 0.355544 0.051376 0.561003
Si Si8 0.291333 0.540780 0.385684
O O1 0.533263 0.323104 0.975537
O O2 0.507667 0.246758 0.795668
O O3 0.054870 0.977300 0.951813
O O4 0.155707 0.859860 0.086465
O O5 0.487500 0.920455 0.476987
O O6 0.000000 0.500000 0.500000
O O7 0.009335 0.473344 0.745158
O O8 0.044729 0.693814 0.553814
O O9 0.266265 0.391059 0.455195
O O10 0.930480 0.974567 0.730752
O O11 0.704822 0.911012 0.569492
O O12 0.000000 0.000000 0.500000
O O13 0.985209 0.818035 0.848357
O O14 0.500000 0.500000 0.000000
O O15 0.951641 0.250609 0.275198
O O16 0.995317 0.372956 0.005436
O O17 0.500000 0.000000 0.000000
O O18 0.563858 0.291482 0.560347
#
# Coordination Sequence:
#
# PCOD8024497 Si02
#       8
#     2   2   2   2   2   2   2   2
#     4  11  22  43  69  98 136 180 233 283 349 420
#     4  10  23  43  68 103 143 181 230 287 340 415
#     4  12  24  43  72 100 130 185 236 286 352 408
#     4  11  26  46  67  95 139 176 230 300 350 411
#     4  11  23  45  68 101 136 183 233 282 350 418
#     4  11  21  42  70  97 141 184 224 281 347 408
#     4  11  22  42  69  99 145 180 231 290 340 417
#     4  11  21  44  70 101 138 183 229 284 348 416
#
# _framework density 24.450755999999998
#
# number of rings (size 3 to 8) (size 9 to 14) (size 15 to 20)
#    0.000    1.000    6.250    0.750    3.500    4.500 
#    4.500    0.000    0.000    0.000    0.000    0.000 
#    0.000    0.000    0.000    0.000    0.000    0.000 
#
# Total GULP energy -198271.859677 kJ/mol
# GULP energy per Si atom -12391.991230 kJ/mol
# Density = 2.439511 g / cm^3
# Si number density = 24.450756 Si / 1000 Ang^3
#
#
#
# Elastic Constant Matrix: (Units=GPa)
#
#
# Indices 1 2 3 4 5 6 
#
# 1 132.9557 37.8532 40.4268 4.6940 10.5663 2.8289
# 2 37.8532 120.7174 12.0587 -7.2275 5.4249 38.9820
# 3 40.4268 12.0587 95.1892 -5.2341 20.7561 15.0640
# 4 4.6940 -7.2275 -5.2341 36.4338 10.4726 2.6413
# 5 10.5663 5.4249 20.7561 10.4726 43.4649 -1.9273
# 6 2.8289 38.9820 15.0640 2.6413 -1.9273 61.8857
#
#
#
# Elastic Compliance Matrix: (Units=1/GPa)
#
#
# Indices 1 2 3 4 5 6 
#
# 1 0.010074 -0.004058 -0.004786 -0.003420 0.001320 0.003448
# 2 -0.004058 0.012545 0.002507 0.004963 -0.003355 -0.008643
# 3 -0.004786 0.002507 0.015202 0.006033 -0.008109 -0.005571
# 4 -0.003420 0.004963 0.006033 0.033344 -0.010978 -0.006203
# 5 0.001320 -0.003355 -0.008109 -0.010978 0.029863 0.005426
# 6 0.003448 -0.008643 -0.005571 -0.006203 0.005426 0.023235
#
#
# Mechanical properties :
#
#
# Convention : Reuss Voigt Hill
#
# Bulk Modulus (GPa) = 39.76805 58.83774 49.30289
# Shear Modulus (GPa) = 34.40656 45.59178 39.99917
#
# Velocity S-wave (km/s) = 3.75531 4.32283 4.04902
# Velocity P-wave (km/s) = 5.92477 7.00227 6.48594
#
# Compressibility (1/GPa) = 0.02514582
#
# Stress axis : x y z
#
# Youngs Moduli (GPa) = 99.26056 79.71372 65.78077
#
# Poissons Ratio (x) = 0.32351 0.31483
# Poissons Ratio (y) = 0.40284 -0.16489
# Poissons Ratio (z) = 0.47506 -0.19981
#
# Static dielectric constant tensor:
#      x y z
#    x 4.728920 0.201750 -0.009020 
#    y 0.201750 5.159950 0.002700 
#    z -0.009020 0.002700 4.243610 
# 
# 
# High freq. dielectric constant tensor:
#      x y z
#    x 1.984920 0.007050 0.002920 
#    y 0.007050 2.014020 0.002230 
#    z 0.002920 0.002230 1.944110 
# 
# From -- ./inp_files/433847.got.cif
#   From: 2010.06.25/outbox.cif.g09.slc.cpg/sg2_217_cif.got.tgz:433847.got - 2010.06.27 13:26:56.
