data_PCOD8024783
_publ_section_title
;
Structure prediction by ZEFSAII (Michael W. Deem and Ramdas Pophale) SiO2 
 PCOD8024783
Probable space group: P -1
;
_chemical_formula_sum "Si O2"
_cell_formula_units_Z 16
_cell_length_a 15.278246
_cell_length_b 9.476473
_cell_length_c 8.398806
_cell_angle_alpha 73.488937
_cell_angle_beta 140.739164
_cell_angle_gamma 94.515026
_cell_volume 717.528603
_symmetry_space_group_name_H-M "P -1"
_symmetry_group_IT_number 2
_symmetry_cell_setting 'triclinic'
loop_
_space_group_symop_operation_xyz
x,y,z
-x,-y,-z
loop_
_atom_site_type_symbol
_atom_site_label
_atom_site_fract_x
_atom_site_fract_y
_atom_site_fract_z
Si Si1 0.740030 0.312046 0.872744
Si Si2 0.431562 0.863120 0.498105
Si Si3 0.615648 0.765799 0.314693
Si Si4 0.349228 0.367691 0.259121
Si Si5 0.038126 0.366539 0.719360
Si Si6 0.661968 0.092377 0.291901
Si Si7 0.925183 0.141856 0.451849
Si Si8 0.137904 0.524744 0.274637
O O1 0.669996 0.172135 0.775900
O O2 0.630875 0.462386 0.739831
O O3 0.801788 0.357120 0.781006
O O4 0.856376 0.267718 0.186647
O O5 0.559933 0.709886 0.740510
O O6 0.346690 0.891850 0.534131
O O7 0.500000 0.000000 0.500000
O O8 0.587991 0.739748 0.469143
O O9 0.742488 0.629382 0.474556
O O10 0.658989 0.922921 0.293355
O O11 0.466405 0.780209 0.006668
O O12 0.184573 0.364861 0.014630
O O13 0.000000 0.500000 0.500000
O O14 0.044411 0.205589 0.694511
O O15 0.907226 0.394643 0.648153
O O16 0.811391 0.112616 0.428940
O O17 0.000000 0.000000 0.500000
O O18 0.000000 0.500000 0.000000
#
# Coordination Sequence:
#
# PCOD8024783 Si02
#       8
#     2   2   2   2   2   2   2   2
#     4  11  25  48  69 102 141 189 243 292 360 426
#     4  12  26  45  70 105 143 187 239 294 359 429
#     4  10  23  43  73 100 140 188 233 293 356 421
#     4  11  23  46  72  99 140 191 231 298 353 424
#     4  12  25  45  70 109 140 183 248 287 363 429
#     4  11  26  44  68 106 144 182 244 289 364 430
#     4  12  29  45  72 104 147 187 234 307 357 426
#     4  11  22  45  75 103 142 187 244 293 354 422
#
# _framework density 22.298763000000001
#
# number of rings (size 3 to 8) (size 9 to 14) (size 15 to 20)
#    0.000    0.750    5.000    1.875    8.750    1.000 
#    0.000    5.625    0.000    0.000    0.000    0.000 
#    0.000    0.000    0.000    0.000    0.000    0.000 
#
# Total GULP energy -198347.474791 kJ/mol
# GULP energy per Si atom -12396.717174 kJ/mol
# Density = 2.224801 g / cm^3
# Si number density = 22.298763 Si / 1000 Ang^3
#
#
#
# Elastic Constant Matrix: (Units=GPa)
#
#
# Indices 1 2 3 4 5 6 
#
# 1 129.1216 40.0193 15.5517 -8.5116 0.6669 -25.5972
# 2 40.0193 113.3362 15.8880 12.5606 -9.1140 -9.6121
# 3 15.5517 15.8880 72.8995 0.8600 -7.7246 1.9442
# 4 -8.5116 12.5606 0.8600 37.1501 2.8609 -1.9673
# 5 0.6669 -9.1140 -7.7246 2.8609 30.4270 -5.0284
# 6 -25.5972 -9.6121 1.9442 -1.9673 -5.0284 33.8603
#
#
#
# Elastic Compliance Matrix: (Units=1/GPa)
#
#
# Indices 1 2 3 4 5 6 
#
# 1 0.010783 -0.003449 -0.001892 0.004142 -0.000919 0.007386
# 2 -0.003449 0.011117 -0.001265 -0.004756 0.003679 0.000891
# 3 -0.001892 -0.001265 0.014795 -0.000706 0.003119 -0.002217
# 4 0.004142 -0.004756 -0.000706 0.029958 -0.004021 0.002965
# 5 -0.000919 0.003679 0.003119 -0.004021 0.036031 0.005288
# 6 0.007386 0.000891 -0.002217 0.002965 0.005288 0.036454
#
#
# Mechanical properties :
#
#
# Convention : Reuss Voigt Hill
#
# Bulk Modulus (GPa) = 42.58342 50.91948 46.75145
# Shear Modulus (GPa) = 31.21525 36.54737 33.88131
#
# Velocity S-wave (km/s) = 3.74554 4.05283 3.90221
# Velocity P-wave (km/s) = 6.15172 6.69218 6.42763
#
# Compressibility (1/GPa) = 0.02348332
#
# Stress axis : x y z
#
# Youngs Moduli (GPa) = 92.73482 89.95263 67.59177
#
# Poissons Ratio (x) = 0.31025 0.12788
# Poissons Ratio (y) = 0.31984 0.08550
# Poissons Ratio (z) = 0.17545 0.11378
#
# Static dielectric constant tensor:
#      x y z
#    x 4.170180 -0.257670 0.088800 
#    y -0.257670 4.137160 -0.105800 
#    z 0.088800 -0.105800 4.177650 
# 
# 
# High freq. dielectric constant tensor:
#      x y z
#    x 1.888940 -0.004500 0.004620 
#    y -0.004500 1.888020 0.002340 
#    z 0.004620 0.002340 1.874510 
# 
# From -- ./inp_files/298032.got.cif
#   From: 2010.06.25/outbox.cif.g09.slc.cpg/sg2_150_cif.got.tgz:298032.got - 2010.06.27 13:26:56.
