data_PCOD8024079
_publ_section_title
;
Structure prediction by ZEFSAII (Michael W. Deem and Ramdas Pophale) SiO2 
 PCOD8024079
Probable space group: P -1
;
_chemical_formula_sum "Si O2"
_cell_formula_units_Z 16
_cell_length_a 8.766733
_cell_length_b 5.474549
_cell_length_c 19.522717
_cell_angle_alpha 95.623670
_cell_angle_beta 131.666426
_cell_angle_gamma 93.593278
_cell_volume 686.202283
_symmetry_space_group_name_H-M "P -1"
_symmetry_group_IT_number 2
_symmetry_cell_setting 'triclinic'
loop_
_space_group_symop_operation_xyz
x,y,z
-x,-y,-z
loop_
_atom_site_type_symbol
_atom_site_label
_atom_site_fract_x
_atom_site_fract_y
_atom_site_fract_z
Si Si1 0.630901 0.275828 0.040084
Si Si2 0.123000 0.807064 0.763840
Si Si3 0.064501 0.640629 0.392674
Si Si4 0.989352 0.264257 0.040084
Si Si5 0.386477 0.747956 0.607326
Si Si6 0.313346 0.104449 0.708897
Si Si7 0.668519 0.456777 0.763840
Si Si8 0.783182 0.094395 0.688788
O O1 0.756706 0.337791 0.150344
O O2 0.780692 0.260231 0.020461
O O3 0.500000 0.500000 0.000000
O O4 0.500000 0.000000 0.000000
O O5 0.993913 0.629359 0.664996
O O6 0.285325 0.012562 0.776651
O O7 0.955226 0.932495 0.758933
O O8 0.210579 0.618378 0.500000
O O9 0.184232 0.830691 0.378364
O O10 0.856137 0.728975 0.358193
O O11 0.194327 0.312553 0.150344
O O12 0.000000 0.500000 0.000000
O O13 0.000000 0.000000 0.000000
O O14 0.501071 0.535637 0.664996
O O15 0.281555 0.870786 0.641805
O O16 0.549140 0.952329 0.621637
O O17 0.544630 0.264087 0.776651
O O18 0.821572 0.326442 0.758932
#
# Coordination Sequence:
#
# PCOD8024079 Si02
#       8
#     2   2   2   2   2   2   2   2
#     4  12  30  51  82 116 154 199 256 318 389 460
#     4  11  26  46  73 100 145 187 247 303 375 444
#     4  11  23  41  67 102 144 189 243 303 371 445
#     4  12  30  51  82 116 154 199 256 318 389 460
#     4  11  23  41  67 102 144 189 243 303 371 445
#     4  10  25  42  70 100 142 192 242 300 373 442
#     4  11  26  46  73 100 145 187 247 303 375 444
#     4  10  23  42  70 100 140 190 244 298 375 442
#
# _framework density 23.316737
#
# number of rings (size 3 to 8) (size 9 to 14) (size 15 to 20)
#    0.000    1.000    0.000    4.500   12.250   10.000 
#    0.000    0.000    0.000    0.000    0.000    0.000 
#    0.000    0.000    0.000    0.000    0.000    0.000 
#
# Total GULP energy -198463.305946 kJ/mol
# GULP energy per Si atom -12403.956622 kJ/mol
# Density = 2.326367 g / cm^3
# Si number density = 23.316737 Si / 1000 Ang^3
#
#
#
# Elastic Constant Matrix: (Units=GPa)
#
#
# Indices 1 2 3 4 5 6 
#
# 1 145.1017 54.3374 51.6628 1.3409 -3.8773 -25.8070
# 2 54.3374 147.7553 64.6535 2.0654 0.5802 -30.2699
# 3 51.6628 64.6535 141.3717 1.7410 3.3418 -18.2086
# 4 1.3409 2.0654 1.7410 42.6594 -3.2712 -0.2411
# 5 -3.8773 0.5802 3.3418 -3.2712 20.1323 0.4401
# 6 -25.8070 -30.2699 -18.2086 -0.2411 0.4401 45.4529
#
#
#
# Elastic Compliance Matrix: (Units=1/GPa)
#
#
# Indices 1 2 3 4 5 6 
#
# 1 0.008886 -0.001731 -0.002115 0.000066 0.002057 0.003025
# 2 -0.001731 0.009686 -0.003252 -0.000274 -0.000208 0.004165
# 3 -0.002115 -0.003252 0.009439 -0.000308 -0.001940 0.000432
# 4 0.000066 -0.000274 -0.000308 0.023766 0.003937 -0.000181
# 5 0.002057 -0.000208 -0.001940 0.003937 0.051040 -0.000221
# 6 0.003025 0.004165 0.000432 -0.000181 -0.000221 0.026666
#
#
# Mechanical properties :
#
#
# Convention : Reuss Voigt Hill
#
# Bulk Modulus (GPa) = 72.39553 86.17066 79.28309
# Shear Modulus (GPa) = 33.71906 39.22060 36.46983
#
# Velocity S-wave (km/s) = 3.80693 4.10577 3.95917
# Velocity P-wave (km/s) = 7.10209 7.71448 7.41461
#
# Compressibility (1/GPa) = 0.01381301
#
# Stress axis : x y z
#
# Youngs Moduli (GPa) = 112.54234 103.24618 105.94349
#
# Poissons Ratio (x) = 0.17877 0.22408
# Poissons Ratio (y) = 0.19486 0.34453
# Poissons Ratio (z) = 0.23804 0.33576
#
# Static dielectric constant tensor:
#      x y z
#    x 4.522930 0.053720 -0.034940 
#    y 0.053720 4.269050 -0.002280 
#    z -0.034940 -0.002280 4.012040 
# 
# 
# High freq. dielectric constant tensor:
#      x y z
#    x 1.947280 0.004720 -0.002420 
#    y 0.004720 1.932880 -0.000210 
#    z -0.002420 -0.000210 1.911760 
# 
# From -- ./inp_files/553675.got.cif
#   From: 2010.06.25/outbox.cif.g09.slc.cpg/sg2_277_cif.got.tgz:553675.got - 2010.06.27 13:26:56.
