data_PCOD8024718
_publ_section_title
;
Structure prediction by ZEFSAII (Michael W. Deem and Ramdas Pophale) SiO2 
 PCOD8024718
Probable space group: P -1
;
_chemical_formula_sum "Si O2"
_cell_formula_units_Z 16
_cell_length_a 7.988297
_cell_length_b 8.427759
_cell_length_c 25.879133
_cell_angle_alpha 32.810972
_cell_angle_beta 130.691022
_cell_angle_gamma 129.748346
_cell_volume 697.880729
_symmetry_space_group_name_H-M "P -1"
_symmetry_group_IT_number 2
_symmetry_cell_setting 'triclinic'
loop_
_space_group_symop_operation_xyz
x,y,z
-x,-y,-z
loop_
_atom_site_type_symbol
_atom_site_label
_atom_site_fract_x
_atom_site_fract_y
_atom_site_fract_z
Si Si1 0.010910 0.548450 0.102908
Si Si2 0.176896 0.595271 0.741448
Si Si3 0.890399 0.059059 0.882700
Si Si4 0.638816 0.094692 0.205044
Si Si5 0.592782 0.714216 0.718563
Si Si6 0.356802 0.623491 0.478571
Si Si7 0.595581 0.434523 0.382194
Si Si8 0.038706 0.911025 0.473939
O O1 0.053949 0.749018 0.107342
O O2 0.231897 0.412003 0.175794
O O3 0.785672 0.284807 0.136969
O O4 0.975281 0.748566 0.991654
O O5 0.333632 0.712313 0.789886
O O6 0.339719 0.619665 0.717535
O O7 0.034159 0.252117 0.812440
O O8 0.992330 0.802446 0.643616
O O9 0.625212 0.978641 0.840651
O O10 0.726442 0.785004 0.314017
O O11 0.595761 0.586718 0.695130
O O12 0.684528 0.069039 0.636473
O O13 0.500000 0.500000 0.500000
O O14 0.489007 0.655328 0.551718
O O15 0.121264 0.387614 0.499894
O O16 0.721559 0.174488 0.460820
O O17 0.000000 0.000000 0.500000
#
# Coordination Sequence:
#
# PCOD8024718 Si02
#       8
#     2   2   2   2   2   2   2   2
#     4  10  23  43  71 101 132 169 237 291 343 410
#     4  11  25  44  66  99 143 177 230 286 338 414
#     4  10  23  44  72  97 130 182 225 293 350 404
#     4  11  22  45  70 100 130 179 231 285 350 411
#     4  12  24  44  64 105 138 182 228 282 344 414
#     4  12  24  42  65 100 140 180 230 280 338 413
#     4  12  24  40  68  97 138 186 224 280 344 410
#     4  12  24  42  62  99 138 185 228 276 341 407
#
# _framework density 22.926553999999999
#
# number of rings (size 3 to 8) (size 9 to 14) (size 15 to 20)
#    0.000    0.750    5.000    1.875    3.500    3.500 
#    2.250    0.625    0.000    0.000    0.000    0.000 
#    0.000    0.000    0.000    0.000    0.000    0.000 
#
# Total GULP energy -198329.968905 kJ/mol
# GULP energy per Si atom -12395.623057 kJ/mol
# Density = 2.287437 g / cm^3
# Si number density = 22.926554 Si / 1000 Ang^3
#
#
#
# Elastic Constant Matrix: (Units=GPa)
#
#
# Indices 1 2 3 4 5 6 
#
# 1 93.8648 41.2077 65.3357 -2.6296 -3.6321 -2.8083
# 2 41.2077 87.9906 44.9932 -7.7050 -2.7792 11.4651
# 3 65.3357 44.9932 196.7656 -22.7526 -0.1866 18.3254
# 4 -2.6296 -7.7050 -22.7526 31.4357 5.9090 -1.1827
# 5 -3.6321 -2.7792 -0.1866 5.9090 34.0718 -1.8901
# 6 -2.8083 11.4651 18.3254 -1.1827 -1.8901 38.9701
#
#
#
# Elastic Compliance Matrix: (Units=1/GPa)
#
#
# Indices 1 2 3 4 5 6 
#
# 1 0.017282 -0.006419 -0.005272 -0.004170 0.002324 0.005599
# 2 -0.006419 0.015554 -0.000689 0.002627 -0.000132 -0.004641
# 3 -0.005272 -0.000689 0.007963 0.005331 -0.001712 -0.003843
# 4 -0.004170 0.002627 0.005331 0.037137 -0.006796 -0.002783
# 5 0.002324 -0.000132 -0.001712 -0.006796 0.030884 0.002303
# 6 0.005599 -0.004641 -0.003843 -0.002783 0.002303 0.029264
#
#
# Mechanical properties :
#
#
# Convention : Reuss Voigt Hill
#
# Bulk Modulus (GPa) = 62.35078 75.74380 69.04729
# Shear Modulus (GPa) = 29.72817 36.03447 32.88132
#
# Velocity S-wave (km/s) = 3.60484 3.96881 3.79119
# Velocity P-wave (km/s) = 6.67693 7.35604 7.02469
#
# Compressibility (1/GPa) = 0.01603829
#
# Stress axis : x y z
#
# Youngs Moduli (GPa) = 57.86414 64.29202 125.57900
#
# Poissons Ratio (x) = 0.41268 0.66206
# Poissons Ratio (y) = 0.37142 0.08658
# Poissons Ratio (z) = 0.30506 0.04432
#
# Static dielectric constant tensor:
#      x y z
#    x 3.895520 -0.046770 -0.092990 
#    y -0.046770 3.808130 -0.289480 
#    z -0.092990 -0.289480 4.559350 
# 
# 
# High freq. dielectric constant tensor:
#      x y z
#    x 1.885620 0.006650 -0.001010 
#    y 0.006650 1.912920 -0.009400 
#    z -0.001010 -0.009400 1.919230 
# 
# From -- ./inp_files/616593.got.cif
#   From: 2010.06.25/outbox.cif.g09.slc.cpg/sg2_309_cif.got.tgz:616593.got - 2010.06.27 13:26:56.
