data_PCOD8024709
_publ_section_title
;
Structure prediction by ZEFSAII (Michael W. Deem and Ramdas Pophale) SiO2 
 PCOD8024709
Probable space group: P -1
;
_chemical_formula_sum "Si O2"
_cell_formula_units_Z 16
_cell_length_a 18.381161
_cell_length_b 9.176542
_cell_length_c 12.310259
_cell_angle_alpha 142.395212
_cell_angle_beta 141.009058
_cell_angle_gamma 35.221483
_cell_volume 679.047351
_symmetry_space_group_name_H-M "P -1"
_symmetry_group_IT_number 2
_symmetry_cell_setting 'triclinic'
loop_
_space_group_symop_operation_xyz
x,y,z
-x,-y,-z
loop_
_atom_site_type_symbol
_atom_site_label
_atom_site_fract_x
_atom_site_fract_y
_atom_site_fract_z
Si Si1 0.535975 0.467081 0.708453
Si Si2 0.125688 0.183266 0.866554
Si Si3 0.297952 0.564562 0.624346
Si Si4 0.846413 0.375147 0.724104
Si Si5 0.667985 0.137703 0.455885
Si Si6 0.810004 0.560132 0.375870
Si Si7 0.187101 0.762853 0.002435
Si Si8 0.982656 0.626925 0.779620
O O1 0.450402 0.411304 0.665169
O O2 0.588346 0.243406 0.539589
O O3 0.434106 0.767480 0.709507
O O4 0.658443 0.452501 0.907639
O O5 0.011248 0.172138 0.801388
O O6 0.038527 0.370329 0.774178
O O7 0.244810 0.880955 0.788183
O O8 0.196220 0.325935 0.095685
O O9 0.198351 0.572233 0.421588
O O10 0.294010 0.385784 0.614775
O O11 0.774200 0.240910 0.627302
O O12 0.748413 0.803883 0.357913
O O13 0.945641 0.530074 0.567279
O O14 0.837537 0.286591 0.180411
O O15 0.149658 0.084260 0.159627
O O16 0.097617 0.699932 0.941062
#
# Coordination Sequence:
#
# PCOD8024709 Si02
#       8
#     2   2   2   2   2   2   2   2
#     4  10  23  50  70  97 141 187 236 279 338 423
#     4  11  24  41  73 105 137 190 229 278 356 408
#     4  11  26  45  69 104 146 181 231 282 346 420
#     4  10  23  43  70  98 141 181 231 288 333 415
#     4  10  23  47  73 102 136 186 234 285 349 402
#     4  12  26  43  70 107 139 182 226 293 347 406
#     4  11  26  44  70 103 144 180 236 283 346 414
#     4  11  25  45  68 106 143 181 227 296 347 402
#
# _framework density 23.562419999999999
#
# number of rings (size 3 to 8) (size 9 to 14) (size 15 to 20)
#    0.000    1.250    2.500    1.500    8.750    1.500 
#    6.750    0.000    0.000    0.000    0.000    0.000 
#    0.000    0.000    0.000    0.000    0.000    0.000 
#
# Total GULP energy -198393.422778 kJ/mol
# GULP energy per Si atom -12399.588924 kJ/mol
# Density = 2.350879 g / cm^3
# Si number density = 23.562420 Si / 1000 Ang^3
#
#
#
# Elastic Constant Matrix: (Units=GPa)
#
#
# Indices 1 2 3 4 5 6 
#
# 1 98.2256 22.2404 20.6396 3.4695 20.0668 -5.4059
# 2 22.2404 60.1117 25.1708 -2.4739 14.5706 12.9105
# 3 20.6396 25.1708 130.4430 -0.9096 -7.8201 -1.0493
# 4 3.4695 -2.4739 -0.9096 17.7254 -4.3234 1.0146
# 5 20.0668 14.5706 -7.8201 -4.3234 36.0006 -2.4140
# 6 -5.4059 12.9105 -1.0493 1.0146 -2.4140 31.2617
#
#
#
# Elastic Compliance Matrix: (Units=1/GPa)
#
#
# Indices 1 2 3 4 5 6 
#
# 1 0.013037 -0.003326 -0.001831 -0.004927 -0.006695 0.003209
# 2 -0.003326 0.024983 -0.004967 0.002155 -0.009875 -0.011892
# 3 -0.001831 -0.004967 0.009264 0.001310 0.005363 0.002417
# 4 -0.004927 0.002155 0.001310 0.060157 0.009186 -0.002941
# 5 -0.006695 -0.009875 0.005363 0.009186 0.038159 0.005749
# 6 0.003209 -0.011892 0.002417 -0.002941 0.005749 0.038075
#
#
# Mechanical properties :
#
#
# Convention : Reuss Voigt Hill
#
# Bulk Modulus (GPa) = 36.98816 47.20910 42.09863
# Shear Modulus (GPa) = 23.48136 31.71285 27.59710
#
# Velocity S-wave (km/s) = 3.16026 3.67264 3.42604
# Velocity P-wave (km/s) = 5.38965 6.16957 5.79275
#
# Compressibility (1/GPa) = 0.02703568
#
# Stress axis : x y z
#
# Youngs Moduli (GPa) = 76.70598 40.02800 107.93986
#
# Poissons Ratio (x) = 0.13314 0.19762
# Poissons Ratio (y) = 0.25513 0.53615
# Poissons Ratio (z) = 0.14044 0.19882
#
# Static dielectric constant tensor:
#      x y z
#    x 4.352200 -0.002670 -0.071810 
#    y -0.002670 4.075710 -0.035590 
#    z -0.071810 -0.035590 4.173080 
# 
# 
# High freq. dielectric constant tensor:
#      x y z
#    x 1.944010 0.005280 -0.006300 
#    y 0.005280 1.918120 -0.002550 
#    z -0.006300 -0.002550 1.932920 
# 
# From -- ./inp_files/428097.got.cif
#   From: 2010.06.25/outbox.cif.g09.slc.cpg/sg2_215_cif.got.tgz:428097.got - 2010.06.27 13:26:56.
