data_PCOD8024829
_publ_section_title
;
Structure prediction by ZEFSAII (Michael W. Deem and Ramdas Pophale) SiO2 
 PCOD8024829
Probable space group: P -1
;
_chemical_formula_sum "Si O2"
_cell_formula_units_Z 16
_cell_length_a 13.831872
_cell_length_b 17.753242
_cell_length_c 10.825501
_cell_angle_alpha 51.569873
_cell_angle_beta 149.004409
_cell_angle_gamma 148.108744
_cell_volume 665.796035
_symmetry_space_group_name_H-M "P -1"
_symmetry_group_IT_number 2
_symmetry_cell_setting 'triclinic'
loop_
_space_group_symop_operation_xyz
x,y,z
-x,-y,-z
loop_
_atom_site_type_symbol
_atom_site_label
_atom_site_fract_x
_atom_site_fract_y
_atom_site_fract_z
Si Si1 0.636935 0.354391 0.234994
Si Si2 0.272378 0.775791 0.716566
Si Si3 0.890948 0.361930 0.733371
Si Si4 0.248326 0.612114 0.054611
Si Si5 0.832304 0.128825 0.965783
Si Si6 0.263037 0.323897 0.456113
Si Si7 0.641000 0.731295 0.735203
Si Si8 0.351578 0.412395 0.729933
O O1 0.584204 0.242037 0.204447
O O2 0.923493 0.441077 0.559507
O O3 0.356595 0.250642 0.131807
O O4 0.604861 0.444117 0.036727
O O5 0.239358 0.713387 0.879666
O O6 0.938074 0.677813 0.407721
O O7 0.493555 0.955241 0.785521
O O8 0.597595 0.286633 0.562584
O O9 0.185028 0.503585 0.991806
O O10 0.834125 0.226875 0.785230
O O11 0.581922 0.718215 0.360014
O O12 0.000000 0.500000 0.000000
O O13 0.958885 0.205666 0.162323
O O14 0.029257 0.127000 0.110337
O O15 0.500000 0.500000 0.500000
O O16 0.190933 0.303494 0.543286
O O17 0.531724 0.581648 0.725748
#
# Coordination Sequence:
#
# PCOD8024829 Si02
#       8
#     2   2   2   2   2   2   2   2
#     4  10  26  45  70 108 146 184 249 288 350 423
#     4  12  28  46  71 108 149 186 235 300 351 424
#     4  10  24  44  74 103 139 192 238 286 344 437
#     4  12  23  46  74 107 142 186 241 294 358 418
#     4  12  27  47  71 109 143 191 237 289 371 411
#     4  12  23  44  75 101 142 182 243 296 347 435
#     4  10  23  43  75 101 138 192 235 293 350 421
#     4  12  23  46  72 107 140 190 238 300 354 416
#
# _framework density 24.031383999999999
#
# number of rings (size 3 to 8) (size 9 to 14) (size 15 to 20)
#    0.750    0.000    5.000    1.875    1.750    5.000 
#    0.000    0.000    0.000    0.000    0.000    0.000 
#    0.000    0.000    0.000    0.000    0.000    0.000 
#
# Total GULP energy -198307.244317 kJ/mol
# GULP energy per Si atom -12394.202770 kJ/mol
# Density = 2.397669 g / cm^3
# Si number density = 24.031384 Si / 1000 Ang^3
#
#
#
# Elastic Constant Matrix: (Units=GPa)
#
#
# Indices 1 2 3 4 5 6 
#
# 1 103.3788 16.8017 18.7118 -8.2466 1.5868 4.5450
# 2 16.8017 101.4569 39.6058 1.9141 1.6356 1.6587
# 3 18.7118 39.6058 111.5521 -17.5028 15.8154 -1.2929
# 4 -8.2466 1.9141 -17.5028 33.5955 -0.9615 4.4251
# 5 1.5868 1.6356 15.8154 -0.9615 36.6729 -6.4788
# 6 4.5450 1.6587 -1.2929 4.4251 -6.4788 28.0025
#
#
#
# Elastic Compliance Matrix: (Units=1/GPa)
#
#
# Indices 1 2 3 4 5 6 
#
# 1 0.010343 -0.001395 -0.000832 0.002452 -0.000333 -0.002099
# 2 -0.001395 0.011995 -0.004790 -0.003504 0.001535 0.000204
# 3 -0.000832 -0.004790 0.012571 0.006634 -0.005220 -0.001257
# 4 0.002452 -0.003504 0.006634 0.034737 -0.002971 -0.006061
# 5 -0.000333 0.001535 -0.005220 -0.002971 0.030675 0.007289
# 6 -0.002099 0.000204 -0.001257 -0.006061 0.007289 0.038626
#
#
# Mechanical properties :
#
#
# Convention : Reuss Voigt Hill
#
# Bulk Modulus (GPa) = 47.90193 51.84737 49.87465
# Shear Modulus (GPa) = 31.26176 35.73875 33.50025
#
# Velocity S-wave (km/s) = 3.61067 3.86057 3.73771
# Velocity P-wave (km/s) = 6.11220 6.44156 6.27904
#
# Compressibility (1/GPa) = 0.02087599
#
# Stress axis : x y z
#
# Youngs Moduli (GPa) = 96.67957 83.36625 79.54764
#
# Poissons Ratio (x) = 0.11626 0.06621
# Poissons Ratio (y) = 0.13483 0.38103
# Poissons Ratio (z) = 0.08047 0.39933
#
# Static dielectric constant tensor:
#      x y z
#    x 4.811570 0.072930 0.075010 
#    y 0.072930 3.806430 -0.347080 
#    z 0.075010 -0.347080 4.587480 
# 
# 
# High freq. dielectric constant tensor:
#      x y z
#    x 1.979150 0.006130 0.016710 
#    y 0.006130 1.906910 -0.026940 
#    z 0.016710 -0.026940 1.965420 
# 
# From -- ./inp_files/456957.got.cif
#   From: 2010.06.25/outbox.cif.g09.slc.cpg/sg2_229_cif.got.tgz:456957.got - 2010.06.27 13:26:56.
