data_PCOD8024308
_publ_section_title
;
Structure prediction by ZEFSAII (Michael W. Deem and Ramdas Pophale) SiO2 
 PCOD8024308
Probable space group: P -1
;
_chemical_formula_sum "Si O2"
_cell_formula_units_Z 16
_cell_length_a 10.985017
_cell_length_b 9.322511
_cell_length_c 14.836299
_cell_angle_alpha 64.410302
_cell_angle_beta 123.373700
_cell_angle_gamma 68.315667
_cell_volume 677.310209
_symmetry_space_group_name_H-M "P -1"
_symmetry_group_IT_number 2
_symmetry_cell_setting 'triclinic'
loop_
_space_group_symop_operation_xyz
x,y,z
-x,-y,-z
loop_
_atom_site_type_symbol
_atom_site_label
_atom_site_fract_x
_atom_site_fract_y
_atom_site_fract_z
Si Si1 0.973028 0.294646 0.029024
Si Si2 0.592419 0.563341 0.076038
Si Si3 0.133308 0.385905 0.415767
Si Si4 0.783404 0.731455 0.717440
Si Si5 0.468577 0.814018 0.268669
Si Si6 0.528584 0.471890 0.776754
Si Si7 0.102452 0.063493 0.472536
Si Si8 0.651425 0.902242 0.175203
O O1 0.088029 0.227317 0.193545
O O2 0.796436 0.588940 0.840010
O O3 0.805361 0.283903 0.965391
O O4 0.183273 0.093608 0.094056
O O5 0.553375 0.573731 0.164090
O O6 0.888426 0.313535 0.249217
O O7 0.500000 0.500000 0.000000
O O8 0.437027 0.846507 0.895958
O O9 0.067776 0.442415 0.266800
O O10 0.377735 0.281218 0.552310
O O11 0.169532 0.169089 0.524968
O O12 0.934371 0.645986 0.328515
O O13 0.500000 0.000000 0.500000
O O14 0.490450 0.612932 0.299460
O O15 0.591566 0.826752 0.245837
O O16 0.352166 0.780497 0.604808
O O17 0.000000 0.000000 0.500000
O O18 0.500000 0.000000 0.000000
#
# Coordination Sequence:
#
# PCOD8024308 Si02
#       8
#     2   2   2   2   2   2   2   2
#     4  11  26  46  75 101 146 195 240 300 354 430
#     4  11  26  41  69 103 144 185 233 299 362 428
#     4  12  25  44  76 102 145 189 242 302 357 436
#     4  11  24  47  71 107 138 189 249 293 358 427
#     4  12  26  46  71 104 147 192 240 297 362 432
#     4  11  25  46  68 102 144 190 242 292 365 429
#     4  10  23  43  65 102 141 182 233 291 359 426
#     4  12  23  44  68 107 139 184 238 297 361 430
#
# _framework density 23.622855000000001
#
# number of rings (size 3 to 8) (size 9 to 14) (size 15 to 20)
#    0.000    0.750    3.750    3.000    8.750    0.000 
#    0.000    0.625    0.000    0.000    0.000    0.000 
#    0.000    0.000    0.000    0.000    0.000    0.000 
#
# Total GULP energy -198233.100730 kJ/mol
# GULP energy per Si atom -12389.568796 kJ/mol
# Density = 2.356909 g / cm^3
# Si number density = 23.622855 Si / 1000 Ang^3
#
#
#
# Elastic Constant Matrix: (Units=GPa)
#
#
# Indices 1 2 3 4 5 6 
#
# 1 68.3508 28.5022 40.8891 2.4088 13.2085 0.6437
# 2 28.5022 155.4402 69.3683 1.5613 17.1341 23.8848
# 3 40.8891 69.3683 133.7193 -4.3037 25.2563 8.1529
# 4 2.4088 1.5613 -4.3037 50.8139 3.3497 5.1044
# 5 13.2085 17.1341 25.2563 3.3497 41.4080 5.8325
# 6 0.6437 23.8848 8.1529 5.1044 5.8325 44.0766
#
#
#
# Elastic Compliance Matrix: (Units=1/GPa)
#
#
# Indices 1 2 3 4 5 6 
#
# 1 0.018480 -0.001291 -0.004620 -0.001229 -0.002694 0.001783
# 2 -0.001291 0.009145 -0.004042 -0.000126 -0.000315 -0.004133
# 3 -0.004620 -0.004042 0.011814 0.001579 -0.004251 0.000452
# 4 -0.001229 -0.000126 0.001579 0.020228 -0.001830 -0.002306
# 5 -0.002694 -0.000315 -0.004251 -0.001830 0.028236 -0.002528
# 6 0.001783 -0.004133 0.000452 -0.002306 -0.002528 0.025419
#
#
# Mechanical properties :
#
#
# Convention : Reuss Voigt Hill
#
# Bulk Modulus (GPa) = 51.19840 70.55883 60.87861
# Shear Modulus (GPa) = 35.78065 41.84308 38.81186
#
# Velocity S-wave (km/s) = 3.89609 4.21324 4.05777
# Velocity P-wave (km/s) = 6.47763 7.32136 6.91238
#
# Compressibility (1/GPa) = 0.01953186
#
# Stress axis : x y z
#
# Youngs Moduli (GPa) = 54.11222 109.35121 84.64487
#
# Poissons Ratio (x) = 0.14121 0.39110
# Poissons Ratio (y) = 0.06988 0.34212
# Poissons Ratio (z) = 0.25002 0.44197
#
# Static dielectric constant tensor:
#      x y z
#    x 2.585520 0.310620 0.474680 
#    y 0.310620 4.230510 -0.108920 
#    z 0.474680 -0.108920 4.229670 
# 
# 
# High freq. dielectric constant tensor:
#      x y z
#    x 1.928720 0.004250 0.021910 
#    y 0.004250 1.942180 0.002880 
#    z 0.021910 0.002880 1.941370 
# 
# From -- ./inp_files/515415.got.cif
#   From: 2010.06.25/outbox.cif.g09.slc.cpg/sg2_258_cif.got.tgz:515415.got - 2010.06.27 13:26:56.
