data_PCOD8024464
_publ_section_title
;
Structure prediction by ZEFSAII (Michael W. Deem and Ramdas Pophale) SiO2 
 PCOD8024464
Probable space group: P -1
;
_chemical_formula_sum "Si O2"
_cell_formula_units_Z 12
_cell_length_a 7.539334
_cell_length_b 7.084499
_cell_length_c 16.913168
_cell_angle_alpha 128.219289
_cell_angle_beta 63.351649
_cell_angle_gamma 89.624141
_cell_volume 580.128569
_symmetry_space_group_name_H-M "P -1"
_symmetry_group_IT_number 2
_symmetry_cell_setting 'triclinic'
loop_
_space_group_symop_operation_xyz
x,y,z
-x,-y,-z
loop_
_atom_site_type_symbol
_atom_site_label
_atom_site_fract_x
_atom_site_fract_y
_atom_site_fract_z
Si Si1 0.858177 0.457043 0.740410
Si Si2 0.623750 0.013023 0.237196
Si Si3 0.797553 0.486392 0.579731
Si Si4 0.946988 0.960508 0.844417
Si Si5 0.840557 0.024683 0.348203
Si Si6 0.433792 0.502414 0.924426
O O1 0.867537 0.387502 0.628506
O O2 0.883761 0.725643 0.822599
O O3 0.629502 0.474530 0.821182
O O4 0.059078 0.231853 0.684562
O O5 0.643813 0.729823 0.133635
O O6 0.399897 0.231087 0.308019
O O7 0.646781 0.015241 0.329173
O O8 0.821727 0.067856 0.172335
O O9 0.733248 0.277095 0.491264
O O10 0.000000 0.500000 0.500000
O O11 0.968436 0.962220 0.744114
O O12 0.766109 0.225588 0.983790
O O13 0.500000 0.500000 0.000000
#
# Coordination Sequence:
#
# PCOD8024464 Si02
#       6
#     2   2   2   2   2   2
#     4  12  24  42  72 104 128 184 224 264 344 394
#     4  10  24  44  70  98 136 180 216 282 338 386
#     4  12  22  44  69 100 138 173 224 282 326 399
#     4  10  23  43  67  97 137 172 223 271 333 389
#     4  10  23  43  67  97 137 172 223 271 333 389
#     4  12  22  44  69 100 138 173 224 282 326 399
#
# _framework density 20.68507
#
# number of rings (size 3 to 8) (size 9 to 14) (size 15 to 20)
#    1.000    0.000    3.333    4.000    0.000    1.333 
#    0.000    5.000    0.000    0.000    0.000    0.000 
#    0.000    0.000    0.000    0.000    0.000    0.000 
#
# Total GULP energy -148803.208360 kJ/mol
# GULP energy per Si atom -12400.267363 kJ/mol
# Density = 2.063799 g / cm^3
# Si number density = 20.685070 Si / 1000 Ang^3
#
#
#
# Elastic Constant Matrix: (Units=GPa)
#
#
# Indices 1 2 3 4 5 6 
#
# 1 86.2288 14.5766 6.6205 2.0835 8.1957 5.3659
# 2 14.5766 72.7591 13.4672 6.0007 4.6941 -11.4903
# 3 6.6205 13.4672 61.3873 11.9590 8.4015 9.3487
# 4 2.0835 6.0007 11.9590 48.6671 5.0370 1.2399
# 5 8.1957 4.6941 8.4015 5.0370 42.1001 7.8785
# 6 5.3659 -11.4903 9.3487 1.2399 7.8785 37.5004
#
#
#
# Elastic Compliance Matrix: (Units=1/GPa)
#
#
# Indices 1 2 3 4 5 6 
#
# 1 0.012359 -0.002685 -0.000197 0.000079 -0.001666 -0.002195
# 2 -0.002685 0.016245 -0.003888 -0.000932 -0.001657 0.006710
# 3 -0.000197 -0.003888 0.018987 -0.003849 -0.001850 -0.005380
# 4 0.000079 -0.000932 -0.003849 0.021784 -0.001810 0.000323
# 5 -0.001666 -0.001657 -0.001850 -0.001810 0.025816 -0.005172
# 6 -0.002195 0.006710 -0.005380 0.000323 -0.005172 0.031454
#
#
# Mechanical properties :
#
#
# Convention : Reuss Voigt Hill
#
# Bulk Modulus (GPa) = 29.36773 32.18930 30.77851
# Shear Modulus (GPa) = 32.99589 38.03425 35.51507
#
# Velocity S-wave (km/s) = 3.99827 4.29269 4.14810
# Velocity P-wave (km/s) = 5.96182 6.33759 6.15257
#
# Compressibility (1/GPa) = 0.03405098
#
# Stress axis : x y z
#
# Youngs Moduli (GPa) = 80.91199 61.55759 52.66877
#
# Poissons Ratio (x) = 0.16529 0.01037
# Poissons Ratio (y) = 0.21726 0.20476
# Poissons Ratio (z) = 0.01593 0.23932
#
# Static dielectric constant tensor:
#      x y z
#    x 3.675730 -0.008550 0.094020 
#    y -0.008550 3.650910 0.044540 
#    z 0.094020 0.044540 4.276250 
# 
# 
# High freq. dielectric constant tensor:
#      x y z
#    x 1.813300 -0.000430 0.005850 
#    y -0.000430 1.806720 0.011240 
#    z 0.005850 0.011240 1.816910 
# 
# From -- ./inp_files/40146.got.cif
#   From: 2010.06.25/outbox.cif.g09.slc.cpg/sg2_21_cif.got.tgz:40146.got - 2010.06.27 13:26:56.
