data_PCOD8024194
_publ_section_title
;
Structure prediction by ZEFSAII (Michael W. Deem and Ramdas Pophale) SiO2 
 PCOD8024194
Probable space group: P -1
;
_chemical_formula_sum "Si O2"
_cell_formula_units_Z 16
_cell_length_a 17.288534
_cell_length_b 12.063113
_cell_length_c 8.804849
_cell_angle_alpha 39.785202
_cell_angle_beta 137.456243
_cell_angle_gamma 137.326909
_cell_volume 731.351505
_symmetry_space_group_name_H-M "P -1"
_symmetry_group_IT_number 2
_symmetry_cell_setting 'triclinic'
loop_
_space_group_symop_operation_xyz
x,y,z
-x,-y,-z
loop_
_atom_site_type_symbol
_atom_site_label
_atom_site_fract_x
_atom_site_fract_y
_atom_site_fract_z
Si Si1 0.294038 0.925555 0.461714
Si Si2 0.734265 0.708775 0.958160
Si Si3 0.465648 0.030135 0.088695
Si Si4 0.967487 0.647285 0.892243
Si Si5 0.123796 0.513277 0.746998
Si Si6 0.764300 0.197721 0.824907
Si Si7 0.243039 0.408810 0.559375
Si Si8 0.513484 0.553651 0.288808
O O1 0.438801 0.016279 0.618252
O O2 0.225470 0.725539 0.655827
O O3 0.293598 0.913921 0.292652
O O4 0.235315 0.074690 0.272761
O O5 0.600058 0.575078 0.843269
O O6 0.837159 0.643545 0.107706
O O7 0.740115 0.707281 0.151275
O O8 0.324453 0.890292 0.067249
O O9 0.475681 0.235647 0.928189
O O10 0.500000 0.000000 0.000000
O O11 0.875383 0.714578 0.588359
O O12 0.895607 0.539892 0.049970
O O13 0.000000 0.500000 0.000000
O O14 0.100599 0.815152 0.943864
O O15 0.000000 0.500000 0.500000
O O16 0.779429 0.411842 0.598206
O O17 0.365069 0.472390 0.566520
O O18 0.500000 0.500000 0.500000
#
# Coordination Sequence:
#
# PCOD8024194 Si02
#       8
#     2   2   2   2   2   2   2   2
#     4  12  25  45  73 104 138 184 234 287 348 417
#     4  12  25  45  71 106 136 188 234 284 352 413
#     4  12  26  43  69 104 139 181 233 294 349 415
#     4  10  23  42  72  99 138 191 223 282 357 413
#     4  12  23  47  74 102 143 181 235 287 349 415
#     4  11  22  45  67 102 140 182 233 284 350 415
#     4  11  22  42  70  99 141 186 230 287 349 415
#     4  12  24  44  67 102 142 181 236 294 349 414
#
# _framework density 21.877305
#
# number of rings (size 3 to 8) (size 9 to 14) (size 15 to 20)
#    0.000    0.500    3.750    5.250    3.500    0.500 
#    0.000    2.500    0.000    0.000    0.000    0.000 
#    0.000    0.000    0.000    0.000    0.000    0.000 
#
# Total GULP energy -198414.887289 kJ/mol
# GULP energy per Si atom -12400.930456 kJ/mol
# Density = 2.182751 g / cm^3
# Si number density = 21.877305 Si / 1000 Ang^3
#
#
#
# Elastic Constant Matrix: (Units=GPa)
#
#
# Indices 1 2 3 4 5 6 
#
# 1 131.1039 35.3393 44.8593 15.4225 -3.4471 9.2666
# 2 35.3393 84.5953 49.9052 10.8834 1.4123 1.0716
# 3 44.8593 49.9052 126.1351 23.9924 3.8622 -0.1208
# 4 15.4225 10.8834 23.9924 59.2645 -5.5366 5.7170
# 5 -3.4471 1.4123 3.8622 -5.5366 47.6042 -1.8397
# 6 9.2666 1.0716 -0.1208 5.7170 -1.8397 35.8964
#
#
#
# Elastic Compliance Matrix: (Units=1/GPa)
#
#
# Indices 1 2 3 4 5 6 
#
# 1 0.009317 -0.002471 -0.002209 -0.000797 0.000751 -0.002173
# 2 -0.002471 0.016090 -0.005454 -0.000139 -0.000224 0.000150
# 3 -0.002209 -0.005454 0.011546 -0.003336 -0.001275 0.001238
# 4 -0.000797 -0.000139 -0.003336 0.018934 0.002315 -0.002698
# 5 0.000751 -0.000224 -0.001275 0.002315 0.021461 0.000540
# 6 -0.002173 0.000150 0.001238 -0.002698 0.000540 0.028876
#
#
# Mechanical properties :
#
#
# Convention : Reuss Voigt Hill
#
# Bulk Modulus (GPa) = 59.93419 66.89355 63.41387
# Shear Modulus (GPa) = 37.86316 42.66837 40.26577
#
# Velocity S-wave (km/s) = 4.16469 4.42107 4.29479
# Velocity P-wave (km/s) = 7.11205 7.53022 7.32412
#
# Compressibility (1/GPa) = 0.01668497
#
# Stress axis : x y z
#
# Youngs Moduli (GPa) = 107.33486 62.14872 86.60730
#
# Poissons Ratio (x) = 0.15358 0.19134
# Poissons Ratio (y) = 0.26525 0.47234
# Poissons Ratio (z) = 0.23713 0.33895
#
# Static dielectric constant tensor:
#      x y z
#    x 4.416390 0.493530 0.571450 
#    y 0.493530 4.760830 0.835480 
#    z 0.571450 0.835480 4.761790 
# 
# 
# High freq. dielectric constant tensor:
#      x y z
#    x 1.870530 -0.006820 0.006140 
#    y -0.006820 1.859080 0.015860 
#    z 0.006140 0.015860 1.871960 
# 
# From -- ./inp_files/259480.got.cif
#   From: 2010.06.25/outbox.cif.g09.slc.cpg/sg2_130_cif.got.tgz:259480.got - 2010.06.27 13:26:56.
