data_PCOD8024345
_publ_section_title
;
Structure prediction by ZEFSAII (Michael W. Deem and Ramdas Pophale) SiO2 
 PCOD8024345
Probable space group: P -1
;
_chemical_formula_sum "Si O2"
_cell_formula_units_Z 12
_cell_length_a 12.565713
_cell_length_b 6.436533
_cell_length_c 11.577855
_cell_angle_alpha 76.773807
_cell_angle_beta 137.110382
_cell_angle_gamma 117.931185
_cell_volume 552.788348
_symmetry_space_group_name_H-M "P -1"
_symmetry_group_IT_number 2
_symmetry_cell_setting 'triclinic'
loop_
_space_group_symop_operation_xyz
x,y,z
-x,-y,-z
loop_
_atom_site_type_symbol
_atom_site_label
_atom_site_fract_x
_atom_site_fract_y
_atom_site_fract_z
Si Si1 0.700538 0.174723 0.659733
Si Si2 0.234540 0.877023 0.027520
Si Si3 0.864956 0.423233 0.237448
Si Si4 0.199875 0.388540 0.484094
Si Si5 0.562740 0.360967 0.155659
Si Si6 0.051382 0.962758 0.264640
O O1 0.735727 0.229044 0.816171
O O2 0.753643 0.424418 0.607401
O O3 0.817190 0.049912 0.723951
O O4 0.500000 0.000000 0.500000
O O5 0.404782 0.117414 0.100927
O O6 0.201083 0.677366 0.930202
O O7 0.066556 0.926250 0.900130
O O8 0.976901 0.634648 0.590784
O O9 0.707625 0.298382 0.219346
O O10 0.925267 0.705748 0.250651
O O11 0.356609 0.471715 0.689654
O O12 0.167148 0.133341 0.439374
O O13 0.500000 0.500000 0.000000
#
# Coordination Sequence:
#
# PCOD8024345 Si02
#       6
#     2   2   2   2   2   2
#     4  11  23  42  67  96 127 164 210 263 319 372
#     4  11  23  43  66  95 129 165 212 260 314 373
#     4  10  23  43  66  94 127 173 207 257 316 373
#     4  10  24  44  66  94 127 168 210 260 316 374
#     4  12  23  43  66  95 129 167 213 261 312 372
#     4  10  23  43  65  97 127 166 209 260 317 377
#
# _framework density 21.708127000000001
#
# number of rings (size 3 to 8) (size 9 to 14) (size 15 to 20)
#    0.000    1.333    3.333    1.500    0.000   10.000 
#    6.000    0.000    0.000    0.000    0.000    0.000 
#    0.000    0.000    0.000    0.000    0.000    0.000 
#
# Total GULP energy -148865.619531 kJ/mol
# GULP energy per Si atom -12405.468294 kJ/mol
# Density = 2.165872 g / cm^3
# Si number density = 21.708127 Si / 1000 Ang^3
#
#
#
# Elastic Constant Matrix: (Units=GPa)
#
#
# Indices 1 2 3 4 5 6 
#
# 1 112.0370 39.3956 31.5826 9.6051 1.7113 19.4606
# 2 39.3956 97.7218 76.8839 29.2608 -10.1280 -2.8395
# 3 31.5826 76.8839 155.7739 10.9743 -4.2912 8.4002
# 4 9.6051 29.2608 10.9743 36.2247 6.1110 -3.8136
# 5 1.7113 -10.1280 -4.2912 6.1110 27.4773 8.0863
# 6 19.4606 -2.8395 8.4002 -3.8136 8.0863 21.2661
#
#
#
# Elastic Compliance Matrix: (Units=1/GPa)
#
#
# Indices 1 2 3 4 5 6 
#
# 1 0.013349 -0.006738 0.001427 -0.000206 0.001115 -0.014140
# 2 -0.006738 0.029760 -0.011950 -0.019945 0.011978 0.006728
# 3 0.001427 -0.011950 0.011903 0.005414 -0.002125 -0.005824
# 4 -0.000206 -0.019945 0.005414 0.046759 -0.020271 0.011480
# 5 0.001115 0.011978 -0.002125 -0.020271 0.051310 -0.021727
# 6 -0.014140 0.006728 -0.005824 0.011480 -0.021727 0.073482
#
#
# Mechanical properties :
#
#
# Convention : Reuss Voigt Hill
#
# Bulk Modulus (GPa) = 48.80475 73.47300 61.13887
# Shear Modulus (GPa) = 18.66259 31.50500 25.08380
#
# Velocity S-wave (km/s) = 2.93525 3.81373 3.40296
# Velocity P-wave (km/s) = 5.83255 7.30151 6.60798
#
# Compressibility (1/GPa) = 0.02048981
#
# Stress axis : x y z
#
# Youngs Moduli (GPa) = 74.90969 33.60162 84.01532
#
# Poissons Ratio (x) = 0.22640 -0.11986
# Poissons Ratio (y) = 0.50472 1.00401
# Poissons Ratio (z) = -0.10687 0.40155
#
# Static dielectric constant tensor:
#      x y z
#    x 4.228460 0.172920 0.097990 
#    y 0.172920 3.883320 0.193540 
#    z 0.097990 0.193540 4.080450 
# 
# 
# High freq. dielectric constant tensor:
#      x y z
#    x 1.862890 0.007780 0.006000 
#    y 0.007780 1.847330 0.015900 
#    z 0.006000 0.015900 1.864380 
# 
# From -- ./inp_files/229801.got.cif
#   From: 2010.06.25/outbox.cif.g09.slc.cpg/sg2_115_cif.got.tgz:229801.got - 2010.06.27 13:26:56.
