data_PCOD8024519
_publ_section_title
;
Structure prediction by ZEFSAII (Michael W. Deem and Ramdas Pophale) SiO2 
 PCOD8024519
Probable space group: P -1
;
_chemical_formula_sum "Si O2"
_cell_formula_units_Z 14
_cell_length_a 9.131877
_cell_length_b 9.024953
_cell_length_c 23.789027
_cell_angle_alpha 145.403402
_cell_angle_beta 130.407888
_cell_angle_gamma 74.053147
_cell_volume 678.929989
_symmetry_space_group_name_H-M "P -1"
_symmetry_group_IT_number 2
_symmetry_cell_setting 'triclinic'
loop_
_space_group_symop_operation_xyz
x,y,z
-x,-y,-z
loop_
_atom_site_type_symbol
_atom_site_label
_atom_site_fract_x
_atom_site_fract_y
_atom_site_fract_z
Si Si1 0.555802 0.209261 0.258161
Si Si2 0.072571 0.324359 0.925219
Si Si3 0.352999 0.363244 0.362946
Si Si4 0.956853 0.895440 0.520291
Si Si5 0.147344 0.595392 0.910485
Si Si6 0.758358 0.269143 0.626348
Si Si7 0.379495 0.266903 0.816958
O O1 0.492938 0.313993 0.333283
O O2 0.758915 0.513580 0.365945
O O3 0.641866 0.982622 0.220489
O O4 0.316140 0.979478 0.088951
O O5 0.022238 0.366714 0.862085
O O6 0.347343 0.476018 0.054237
O O7 0.906669 0.951907 0.784264
O O8 0.000000 0.500000 0.000000
O O9 0.500000 0.500000 0.500000
O O10 0.281541 0.591301 0.395085
O O11 0.877250 0.091522 0.590840
O O12 0.000000 0.000000 0.500000
O O13 0.215994 0.028721 0.650903
O O14 0.300268 0.483841 0.887043
O O15 0.938300 0.546416 0.803401
O O16 0.500000 0.000000 0.500000
#
# Coordination Sequence:
#
# PCOD8024519 Si02
#       7
#     2   2   2   2   2   2   2
#     4  11  22  45  66 100 129 175 218 268 329 383
#     4  11  21  41  66 100 127 168 224 264 322 390
#     4  12  26  41  68 101 132 172 221 272 324 394
#     4  11  26  42  65  96 133 175 218 270 326 385
#     4  10  23  43  68  97 134 171 215 273 332 386
#     4  11  24  45  64  93 135 178 215 267 328 386
#     4  10  23  43  68  94 134 171 214 272 327 387
#
# _framework density 20.620683
#
# number of rings (size 3 to 8) (size 9 to 14) (size 15 to 20)
#    0.000    1.143    4.286    3.000    4.000    5.143 
#    0.000    2.857    0.000    0.000    0.000    0.000 
#    0.000    0.000    0.000    0.000    0.000    0.000 
#
# Total GULP energy -173488.670742 kJ/mol
# GULP energy per Si atom -12392.047910 kJ/mol
# Density = 2.057375 g / cm^3
# Si number density = 20.620683 Si / 1000 Ang^3
#
#
#
# Elastic Constant Matrix: (Units=GPa)
#
#
# Indices 1 2 3 4 5 6 
#
# 1 98.9794 30.4482 52.8214 -7.9102 18.6355 13.5838
# 2 30.4482 114.6854 79.6044 -13.2057 28.6588 9.1370
# 3 52.8214 79.6044 169.1534 -11.3915 26.1628 17.1749
# 4 -7.9102 -13.2057 -11.3915 46.5432 7.0802 5.4064
# 5 18.6355 28.6588 26.1628 7.0802 37.1314 9.8639
# 6 13.5838 9.1370 17.1749 5.4064 9.8639 35.7016
#
#
#
# Elastic Compliance Matrix: (Units=1/GPa)
#
#
# Indices 1 2 3 4 5 6 
#
# 1 0.013062 0.000266 -0.003085 0.002518 -0.004340 -0.002736
# 2 0.000266 0.015234 -0.005646 0.004274 -0.008866 0.000518
# 3 -0.003085 -0.005646 0.009880 0.000626 -0.000629 -0.002055
# 4 0.002518 0.004274 0.000626 0.025049 -0.008793 -0.003717
# 5 -0.004340 -0.008866 -0.000629 -0.008793 0.039496 -0.005358
# 6 -0.002736 0.000518 -0.002055 -0.003717 -0.005358 0.031950
#
#
# Mechanical properties :
#
#
# Convention : Reuss Voigt Hill
#
# Bulk Modulus (GPa) = 47.06664 78.72960 62.89812
# Shear Modulus (GPa) = 31.50929 38.53818 35.02374
#
# Velocity S-wave (km/s) = 3.91326 4.32778 4.12573
# Velocity P-wave (km/s) = 6.57972 7.95209 7.29823
#
# Compressibility (1/GPa) = 0.02124647
#
# Stress axis : x y z
#
# Youngs Moduli (GPa) = 76.56003 65.64195 101.21021
#
# Poissons Ratio (x) = -0.01749 0.31228
# Poissons Ratio (y) = -0.02040 0.57142
# Poissons Ratio (z) = 0.23622 0.37061
#
# Static dielectric constant tensor:
#      x y z
#    x 3.445760 -0.167220 0.419960 
#    y -0.167220 3.726050 0.027030 
#    z 0.419960 0.027030 3.967310 
# 
# 
# High freq. dielectric constant tensor:
#      x y z
#    x 1.807190 -0.002530 0.005040 
#    y -0.002530 1.807380 -0.004620 
#    z 0.005040 -0.004620 1.827000 
# 
# From -- ./inp_files/155614.got.cif
#   From: 2010.06.25/outbox.cif.g09.slc.cpg/sg2_78_cif.got.tgz:155614.got - 2010.06.27 13:26:56.
