data_PCOD8024793
_publ_section_title
;
Structure prediction by ZEFSAII (Michael W. Deem and Ramdas Pophale) SiO2 
 PCOD8024793
Probable space group: P -1
;
_chemical_formula_sum "Si O2"
_cell_formula_units_Z 14
_cell_length_a 5.240495
_cell_length_b 12.002756
_cell_length_c 12.413935
_cell_angle_alpha 50.479975
_cell_angle_beta 85.763537
_cell_angle_gamma 106.408851
_cell_volume 542.808120
_symmetry_space_group_name_H-M "P -1"
_symmetry_group_IT_number 2
_symmetry_cell_setting 'triclinic'
loop_
_space_group_symop_operation_xyz
x,y,z
-x,-y,-z
loop_
_atom_site_type_symbol
_atom_site_label
_atom_site_fract_x
_atom_site_fract_y
_atom_site_fract_z
Si Si1 0.896167 0.323776 0.474194
Si Si2 0.792959 0.604411 0.241645
Si Si3 0.726098 0.063630 0.048473
Si Si4 0.340059 0.529182 0.888463
Si Si5 0.831091 0.100935 0.419821
Si Si6 0.317683 0.246142 0.657991
Si Si7 0.785206 0.241096 0.135803
O O1 0.979209 0.512485 0.335381
O O2 0.918475 0.251813 0.402982
O O3 0.575377 0.254367 0.572329
O O4 0.081752 0.276684 0.580125
O O5 0.572976 0.499667 0.217434
O O6 0.590012 0.617739 0.334426
O O7 0.994503 0.785591 0.091216
O O8 0.600524 0.124869 0.117175
O O9 0.816979 0.927722 0.172185
O O10 0.500000 0.000000 0.000000
O O11 0.393110 0.711858 0.797024
O O12 0.500000 0.500000 0.000000
O O13 0.008805 0.405064 0.975125
O O14 0.927962 0.154640 0.259898
O O15 0.500000 0.000000 0.500000
O O16 0.000000 0.000000 0.500000
#
# Coordination Sequence:
#
# PCOD8024793 Si02
#       7
#     2   2   2   2   2   2   2
#     4  12  26  50  75 112 148 199 255 308 375 445
#     4  11  25  47  74 112 148 196 259 308 369 449
#     4  11  25  47  75 107 150 200 247 309 380 447
#     4  10  23  43  73 104 140 188 239 314 370 434
#     4  12  26  45  74 107 148 197 242 303 375 452
#     4  12  27  49  74 109 154 200 247 311 376 448
#     4  10  23  45  67 106 142 184 247 301 368 444
#
# _framework density 25.791803000000002
#
# number of rings (size 3 to 8) (size 9 to 14) (size 15 to 20)
#    0.000    0.857    1.429    4.714    4.000    2.286 
#    5.143    0.000    0.000    0.000    0.000    0.000 
#    0.000    0.000    0.000    0.000    0.000    0.000 
#
# Total GULP energy -173437.259736 kJ/mol
# GULP energy per Si atom -12388.375695 kJ/mol
# Density = 2.573310 g / cm^3
# Si number density = 25.791803 Si / 1000 Ang^3
#
#
#
# Elastic Constant Matrix: (Units=GPa)
#
#
# Indices 1 2 3 4 5 6 
#
# 1 97.9871 39.6388 36.7220 4.4569 27.7586 -2.2342
# 2 39.6388 219.9812 53.3084 37.9977 19.9761 -7.2162
# 3 36.7220 53.3084 147.7496 6.4863 37.2351 -0.4664
# 4 4.4569 37.9977 6.4863 41.8022 0.3772 5.4856
# 5 27.7586 19.9761 37.2351 0.3772 41.6349 5.7523
# 6 -2.2342 -7.2162 -0.4664 5.4856 5.7523 29.6283
#
#
#
# Elastic Compliance Matrix: (Units=1/GPa)
#
#
# Indices 1 2 3 4 5 6 
#
# 1 0.013346 -0.001376 -0.000838 -0.000263 -0.007793 0.002220
# 2 -0.001376 0.006313 -0.001372 -0.005723 -0.001207 0.002706
# 3 -0.000838 -0.001372 0.009319 -0.000201 -0.007281 0.001200
# 4 -0.000263 -0.005723 -0.000201 0.030167 0.003900 -0.007760
# 5 -0.007793 -0.001207 -0.007281 0.003900 0.037513 -0.009001
# 6 0.002220 0.002706 0.001200 -0.007760 -0.009001 0.037781
#
#
# Mechanical properties :
#
#
# Convention : Reuss Voigt Hill
#
# Bulk Modulus (GPa) = 45.85770 80.56180 63.20975
# Shear Modulus (GPa) = 33.58398 45.01633 39.30016
#
# Velocity S-wave (km/s) = 3.61240 4.18230 3.90775
# Velocity P-wave (km/s) = 5.93446 7.39090 6.70236
#
# Compressibility (1/GPa) = 0.02180659
#
# Stress axis : x y z
#
# Youngs Moduli (GPa) = 74.92709 158.39915 107.30586
#
# Poissons Ratio (x) = 0.21793 0.08995
# Poissons Ratio (y) = 0.10309 0.14722
# Poissons Ratio (z) = 0.06281 0.21731
#
# Static dielectric constant tensor:
#      x y z
#    x 4.264930 -0.324830 0.114700 
#    y -0.324830 5.643850 0.056280 
#    z 0.114700 0.056280 5.137250 
# 
# 
# High freq. dielectric constant tensor:
#      x y z
#    x 1.993110 -0.016030 0.015200 
#    y -0.016030 2.063900 0.006320 
#    z 0.015200 0.006320 2.059880 
# 
# From -- ./inp_files/363686.got.cif
#   From: 2010.06.25/outbox.cif.g09.slc.cpg/sg2_182_cif.got.tgz:363686.got - 2010.06.27 13:26:56.
