data_PCOD8024201
_publ_section_title
;
Structure prediction by ZEFSAII (Michael W. Deem and Ramdas Pophale) SiO2 
 PCOD8024201
Probable space group: P -1
;
_chemical_formula_sum "Si O2"
_cell_formula_units_Z 14
_cell_length_a 7.950930
_cell_length_b 7.666598
_cell_length_c 14.803553
_cell_angle_alpha 127.944581
_cell_angle_beta 112.120824
_cell_angle_gamma 105.730404
_cell_volume 478.385709
_symmetry_space_group_name_H-M "P -1"
_symmetry_group_IT_number 2
_symmetry_cell_setting 'triclinic'
loop_
_space_group_symop_operation_xyz
x,y,z
-x,-y,-z
loop_
_atom_site_type_symbol
_atom_site_label
_atom_site_fract_x
_atom_site_fract_y
_atom_site_fract_z
Si Si1 0.136075 0.143556 0.961455
Si Si2 0.096068 0.844111 0.389630
Si Si3 0.895599 0.661979 0.490089
Si Si4 0.601538 0.789814 0.667301
Si Si5 0.267503 0.815015 0.963152
Si Si6 0.445157 0.785102 0.283977
Si Si7 0.655033 0.925379 0.187550
O O1 0.300251 0.222616 0.928219
O O2 0.167521 0.980392 0.991261
O O3 0.206140 0.425461 0.119164
O O4 0.849642 0.927092 0.810694
O O5 0.943324 0.687514 0.401737
O O6 0.979337 0.544171 0.214018
O O7 0.068395 0.042804 0.387667
O O8 0.392592 0.079567 0.548351
O O9 0.616455 0.335780 0.344200
O O10 0.083484 0.714062 0.625380
O O11 0.500000 0.500000 0.500000
O O12 0.644315 0.037642 0.690878
O O13 0.399796 0.853719 0.095930
O O14 0.500000 0.000000 0.000000
O O15 0.614215 0.811139 0.246506
#
# Coordination Sequence:
#
# PCOD8024201 Si02
#       7
#     2   2   2   2   2   2   2
#     4  11  24  45  67 104 147 181 228 289 355 419
#     4  10  24  44  69 106 138 181 240 295 342 406
#     4  10  24  42  73 102 140 185 235 290 348 411
#     4  12  25  46  72 104 145 188 233 285 359 429
#     4  10  24  39  72 102 142 177 233 291 351 409
#     4  11  26  43  74 104 140 187 239 289 347 416
#     4  10  23  42  73 103 136 179 241 286 345 403
#
# _framework density 29.265089
#
# number of rings (size 3 to 8) (size 9 to 14) (size 15 to 20)
#    0.000    1.429    1.429    1.714   20.000    1.143 
#    0.000    7.143    0.000    0.000    0.000    0.000 
#    0.000    0.000    0.000    0.000    0.000    0.000 
#
# Total GULP energy -173480.562862 kJ/mol
# GULP energy per Si atom -12391.468776 kJ/mol
# Density = 2.919848 g / cm^3
# Si number density = 29.265089 Si / 1000 Ang^3
#
#
#
# Elastic Constant Matrix: (Units=GPa)
#
#
# Indices 1 2 3 4 5 6 
#
# 1 106.2832 24.0236 67.7651 -1.9326 14.1259 -40.1231
# 2 24.0236 88.8292 66.4429 -3.2324 15.1259 -20.8839
# 3 67.7651 66.4429 274.3075 6.4945 7.0093 -43.1853
# 4 -1.9326 -3.2324 6.4945 48.9688 -20.3610 -2.1575
# 5 14.1259 15.1259 7.0093 -20.3610 52.6043 -6.1831
# 6 -40.1231 -20.8839 -43.1853 -2.1575 -6.1831 45.5045
#
#
#
# Elastic Compliance Matrix: (Units=1/GPa)
#
#
# Indices 1 2 3 4 5 6 
#
# 1 0.015240 0.000526 -0.002039 0.000378 -0.002483 0.011424
# 2 0.000526 0.014918 -0.003033 0.000121 -0.003514 0.003960
# 3 -0.002039 -0.003033 0.005159 -0.000591 0.000712 0.001775
# 4 0.000378 0.000121 -0.000591 0.024688 0.009772 0.002326
# 5 -0.002483 -0.003514 0.000712 0.009772 0.024452 0.000660
# 6 0.011424 0.003960 0.001775 0.002326 0.000660 0.035751
#
#
# Mechanical properties :
#
#
# Convention : Reuss Voigt Hill
#
# Bulk Modulus (GPa) = 38.13221 87.32033 62.72627
# Shear Modulus (GPa) = 36.22115 50.16140 43.19127
#
# Velocity S-wave (km/s) = 3.52190 4.14458 3.84586
# Velocity P-wave (km/s) = 5.44028 7.26677 6.41882
#
# Compressibility (1/GPa) = 0.02622455
#
# Stress axis : x y z
#
# Youngs Moduli (GPa) = 65.61813 67.03431 193.82890
#
# Poissons Ratio (x) = -0.03527 0.39526
# Poissons Ratio (y) = -0.03452 0.58788
# Poissons Ratio (z) = 0.13381 0.20331
#
# Static dielectric constant tensor:
#      x y z
#    x 6.096800 -0.316640 0.331000 
#    y -0.316640 5.565290 -0.351450 
#    z 0.331000 -0.351450 7.150550 
# 
# 
# High freq. dielectric constant tensor:
#      x y z
#    x 2.208360 -0.003350 -0.000430 
#    y -0.003350 2.186840 0.003700 
#    z -0.000430 0.003700 2.222950 
# 
# From -- ./inp_files/557618.got.cif
#   From: 2010.06.25/outbox.cif.g09.slc.cpg/sg2_279_cif.got.tgz:557618.got - 2010.06.27 13:26:56.
