data_PCOD8024294
_publ_section_title
;
Structure prediction by ZEFSAII (Michael W. Deem and Ramdas Pophale) SiO2 
 PCOD8024294
Probable space group: P -1
;
_chemical_formula_sum "Si O2"
_cell_formula_units_Z 16
_cell_length_a 9.889529
_cell_length_b 9.223268
_cell_length_c 19.550516
_cell_angle_alpha 138.739619
_cell_angle_beta 47.273034
_cell_angle_gamma 106.075932
_cell_volume 757.298655
_symmetry_space_group_name_H-M "P -1"
_symmetry_group_IT_number 2
_symmetry_cell_setting 'triclinic'
loop_
_space_group_symop_operation_xyz
x,y,z
-x,-y,-z
loop_
_atom_site_type_symbol
_atom_site_label
_atom_site_fract_x
_atom_site_fract_y
_atom_site_fract_z
Si Si1 0.800944 0.227458 0.284649
Si Si2 0.623127 0.131455 0.778972
Si Si3 0.488929 0.416542 0.684770
Si Si4 0.215464 0.951742 0.443516
Si Si5 0.120135 0.661236 0.007484
Si Si6 0.390999 0.358177 0.395961
Si Si7 0.797766 0.412555 0.895856
Si Si8 0.822863 0.594925 0.307508
O O1 0.583162 0.237810 0.341092
O O2 0.778494 0.382372 0.417676
O O3 0.880106 0.333264 0.232034
O O4 0.961762 0.940547 0.138447
O O5 0.603296 0.188609 0.724871
O O6 0.802039 0.190920 0.769038
O O7 0.694449 0.837868 0.659326
O O8 0.402888 0.317748 0.956449
O O9 0.707346 0.214067 0.572883
O O10 0.544362 0.599536 0.686908
O O11 0.398309 0.290881 0.616846
O O12 0.307872 0.560633 0.853228
O O13 0.197313 0.219668 0.559314
O O14 0.000000 0.000000 0.500000
O O15 0.211231 0.668749 0.052838
O O16 0.000000 0.500000 0.000000
O O17 0.999159 0.445558 0.822716
#
# Coordination Sequence:
#
# PCOD8024294 Si02
#       8
#     2   2   2   2   2   2   2   2
#     4  10  24  40  66 100 134 171 221 270 334 392
#     4  11  23  44  66  93 139 178 224 265 334 393
#     4  11  26  41  67 100 131 171 225 276 334 388
#     4  12  24  44  67  96 133 177 225 269 335 398
#     4  12  24  42  66 101 134 170 219 275 331 388
#     4  10  23  43  64  97 137 177 214 274 328 389
#     4  11  24  41  67 101 129 180 223 271 326 400
#     4  11  23  42  68 101 132 172 222 278 327 390
#
# _framework density 21.127727
#
# number of rings (size 3 to 8) (size 9 to 14) (size 15 to 20)
#    0.000    1.000    5.000    1.125    3.500    1.000 
#    2.250    1.875    0.000    0.000    0.000    0.000 
#    0.000    0.000    0.000    0.000    0.000    0.000 
#
# Total GULP energy -198353.330104 kJ/mol
# GULP energy per Si atom -12397.083131 kJ/mol
# Density = 2.107964 g / cm^3
# Si number density = 21.127727 Si / 1000 Ang^3
#
#
#
# Elastic Constant Matrix: (Units=GPa)
#
#
# Indices 1 2 3 4 5 6 
#
# 1 107.8833 52.8209 35.7422 15.9374 5.5019 -7.3810
# 2 52.8209 124.6211 46.0734 4.7459 8.2310 -7.1621
# 3 35.7422 46.0734 92.6511 12.0522 7.4855 -4.7341
# 4 15.9374 4.7459 12.0522 42.4590 -3.0628 2.5939
# 5 5.5019 8.2310 7.4855 -3.0628 35.7276 0.7842
# 6 -7.3810 -7.1621 -4.7341 2.5939 0.7842 29.8623
#
#
#
# Elastic Compliance Matrix: (Units=1/GPa)
#
#
# Indices 1 2 3 4 5 6 
#
# 1 0.012872 -0.004340 -0.002108 -0.003948 -0.000927 0.002174
# 2 -0.004340 0.011433 -0.004060 0.001373 -0.001018 0.000933
# 3 -0.002108 -0.004060 0.014233 -0.003005 -0.002003 0.001075
# 4 -0.003948 0.001373 -0.003005 0.026180 0.003242 -0.003482
# 5 -0.000927 -0.001018 -0.002003 0.003242 0.029105 -0.001837
# 6 0.002174 0.000933 0.001075 -0.003482 -0.001837 0.034769
#
#
# Mechanical properties :
#
#
# Convention : Reuss Voigt Hill
#
# Bulk Modulus (GPa) = 57.06983 66.04759 61.55871
# Shear Modulus (GPa) = 32.16491 34.31105 33.23798
#
# Velocity S-wave (km/s) = 3.90603 4.03424 3.97065
# Velocity P-wave (km/s) = 6.88573 7.28211 7.08669
#
# Compressibility (1/GPa) = 0.01752239
#
# Stress axis : x y z
#
# Youngs Moduli (GPa) = 77.68999 87.46301 70.25889
#
# Poissons Ratio (x) = 0.37958 0.14810
# Poissons Ratio (y) = 0.33717 0.28526
# Poissons Ratio (z) = 0.16376 0.35511
#
# Static dielectric constant tensor:
#      x y z
#    x 3.821260 -0.036630 0.212340 
#    y -0.036630 3.869620 -0.226650 
#    z 0.212340 -0.226650 3.863290 
# 
# 
# High freq. dielectric constant tensor:
#      x y z
#    x 1.823530 -0.002400 0.013560 
#    y -0.002400 1.830520 -0.011990 
#    z 0.013560 -0.011990 1.832430 
# 
# From -- ./inp_files/205392.got.cif
#   From: 2010.06.25/outbox.cif.g09.slc.cpg/sg2_103_cif.got.tgz:205392.got - 2010.06.27 13:26:56.
