data_PCOD8024566
_publ_section_title
;
Structure prediction by ZEFSAII (Michael W. Deem and Ramdas Pophale) SiO2 
 PCOD8024566
Probable space group: P -1
;
_chemical_formula_sum "Si O2"
_cell_formula_units_Z 16
_cell_length_a 19.558760
_cell_length_b 11.526805
_cell_length_c 8.997307
_cell_angle_alpha 150.035376
_cell_angle_beta 53.948723
_cell_angle_gamma 135.345762
_cell_volume 709.828444
_symmetry_space_group_name_H-M "P -1"
_symmetry_group_IT_number 2
_symmetry_cell_setting 'triclinic'
loop_
_space_group_symop_operation_xyz
x,y,z
-x,-y,-z
loop_
_atom_site_type_symbol
_atom_site_label
_atom_site_fract_x
_atom_site_fract_y
_atom_site_fract_z
Si Si1 0.692971 0.768594 0.299956
Si Si2 0.596812 0.060409 0.860705
Si Si3 0.858288 0.924309 0.789624
Si Si4 0.218858 0.417837 0.773976
Si Si5 0.780545 0.182692 0.391293
Si Si6 0.945362 0.718104 0.673126
Si Si7 0.033393 0.469471 0.086850
Si Si8 0.403512 0.790203 0.307377
O O1 0.764549 0.693275 0.214676
O O2 0.627266 0.829117 0.567416
O O3 0.761865 0.027938 0.399885
O O4 0.618668 0.517454 0.011722
O O5 0.582442 0.100730 0.753914
O O6 0.681566 0.327212 0.124160
O O7 0.500000 0.000000 0.000000
O O8 0.811919 0.806557 0.559882
O O9 0.869394 0.711530 0.640916
O O10 0.789388 0.014416 0.058554
O O11 0.965928 0.169719 0.898312
O O12 0.142578 0.522273 0.007637
O O13 0.880749 0.472242 0.596243
O O14 0.689206 0.217724 0.504580
O O15 0.026473 0.676191 0.438501
O O16 0.000000 0.000000 0.000000
O O17 0.000000 0.500000 0.000000
O O18 0.500000 0.000000 0.500000
#
# Coordination Sequence:
#
# PCOD8024566 Si02
#       8
#     2   2   2   2   2   2   2   2
#     4  10  24  45  69 100 140 182 232 280 357 409
#     4  10  25  43  67 103 136 178 230 280 347 416
#     4  11  25  42  67 100 134 182 233 286 344 410
#     4  11  25  43  72 100 137 189 226 294 345 414
#     4  10  24  45  68  99 137 182 232 284 350 417
#     4  11  26  45  69 101 141 181 237 295 347 410
#     4  11  25  46  68 100 140 183 240 281 353 418
#     4  10  23  43  69 100 136 179 225 287 348 415
#
# _framework density 22.540656999999999
#
# number of rings (size 3 to 8) (size 9 to 14) (size 15 to 20)
#    0.000    1.500    1.250    1.125    1.750   18.000 
#    0.000    1.875    0.000    0.000    0.000    0.000 
#    0.000    0.000    0.000    0.000    0.000    0.000 
#
# Total GULP energy -198412.155023 kJ/mol
# GULP energy per Si atom -12400.759689 kJ/mol
# Density = 2.248935 g / cm^3
# Si number density = 22.540657 Si / 1000 Ang^3
#
#
#
# Elastic Constant Matrix: (Units=GPa)
#
#
# Indices 1 2 3 4 5 6 
#
# 1 98.4035 49.9794 57.5069 1.6012 -4.9535 16.6980
# 2 49.9794 121.8267 65.1231 -9.5301 -12.0982 20.6026
# 3 57.5069 65.1231 174.7012 -1.0054 -0.8892 23.7240
# 4 1.6012 -9.5301 -1.0054 38.6943 6.3426 -9.6531
# 5 -4.9535 -12.0982 -0.8892 6.3426 41.6445 0.9370
# 6 16.6980 20.6026 23.7240 -9.6531 0.9370 38.5518
#
#
#
# Elastic Compliance Matrix: (Units=1/GPa)
#
#
# Indices 1 2 3 4 5 6 
#
# 1 0.014476 -0.003995 -0.002874 -0.002572 0.000960 -0.003034
# 2 -0.003995 0.012259 -0.002873 0.002001 0.002779 -0.002619
# 3 -0.002874 -0.002873 0.008053 -0.000834 -0.000824 -0.002364
# 4 -0.002572 0.002001 -0.000834 0.029120 -0.004356 0.007955
# 5 0.000960 0.002779 -0.000824 -0.004356 0.025650 -0.003108
# 6 -0.003034 -0.002619 -0.002364 0.007955 -0.003108 0.032175
#
#
# Mechanical properties :
#
#
# Convention : Reuss Voigt Hill
#
# Bulk Modulus (GPa) = 65.34563 82.23893 73.79228
# Shear Modulus (GPa) = 34.17202 38.59958 36.38580
#
# Velocity S-wave (km/s) = 3.89783 4.14266 4.02211
# Velocity P-wave (km/s) = 7.02214 7.71013 7.37416
#
# Compressibility (1/GPa) = 0.01530324
#
# Stress axis : x y z
#
# Youngs Moduli (GPa) = 69.08072 81.57399 124.17584
#
# Poissons Ratio (x) = 0.32592 0.35684
# Poissons Ratio (y) = 0.27601 0.35678
# Poissons Ratio (z) = 0.19851 0.23438
#
# Static dielectric constant tensor:
#      x y z
#    x 4.146730 0.058810 -0.292210 
#    y 0.058810 4.296200 -0.075420 
#    z -0.292210 -0.075420 4.556950 
# 
# 
# High freq. dielectric constant tensor:
#      x y z
#    x 1.882630 0.000410 -0.009610 
#    y 0.000410 1.887770 -0.000040 
#    z -0.009610 -0.000040 1.909780 
# 
# From -- ./inp_files/346527.got.cif
#   From: 2010.06.25/outbox.cif.g09.slc.cpg/sg2_174_cif.got.tgz:346527.got - 2010.06.27 13:26:56.
