data_PCOD8024704
_publ_section_title
;
Structure prediction by ZEFSAII (Michael W. Deem and Ramdas Pophale) SiO2 
 PCOD8024704
Probable space group: P -1
;
_chemical_formula_sum "Si O2"
_cell_formula_units_Z 16
_cell_length_a 23.407850
_cell_length_b 6.628983
_cell_length_c 16.672511
_cell_angle_alpha 104.014318
_cell_angle_beta 159.155719
_cell_angle_gamma 64.797947
_cell_volume 728.942887
_symmetry_space_group_name_H-M "P -1"
_symmetry_group_IT_number 2
_symmetry_cell_setting 'triclinic'
loop_
_space_group_symop_operation_xyz
x,y,z
-x,-y,-z
loop_
_atom_site_type_symbol
_atom_site_label
_atom_site_fract_x
_atom_site_fract_y
_atom_site_fract_z
Si Si1 0.676747 0.271793 0.447333
Si Si2 0.398304 0.475221 0.244664
Si Si3 0.122581 0.409234 0.548154
Si Si4 0.430528 0.529150 0.000659
Si Si5 0.961609 0.685458 0.736779
Si Si6 0.985400 0.375671 0.889697
Si Si7 0.608126 0.120312 0.626269
Si Si8 0.143462 0.084227 0.682641
O O1 0.478680 0.391554 0.251541
O O2 0.780462 0.406856 0.623872
O O3 0.829411 0.968463 0.626457
O O4 0.612773 0.336392 0.277432
O O5 0.526733 0.220943 0.440547
O O6 0.448427 0.663604 0.362919
O O7 0.164725 0.611617 0.956049
O O8 0.276670 0.453850 0.794218
O O9 0.157821 0.342187 0.493702
O O10 0.134034 0.180919 0.588375
O O11 0.908741 0.683021 0.304799
O O12 0.351669 0.819216 0.950159
O O13 0.500000 0.500000 0.000000
O O14 0.009924 0.495904 0.854261
O O15 0.000000 0.500000 0.000000
O O16 0.157768 0.077128 0.088587
O O17 0.500000 0.000000 0.500000
O O18 0.000000 0.000000 0.500000
#
# Coordination Sequence:
#
# PCOD8024704 Si02
#       8
#     2   2   2   2   2   2   2   2
#     4  12  28  45  69 107 140 179 233 286 341 410
#     4  11  26  43  72 101 138 179 230 285 345 405
#     4  10  23  43  70  98 136 182 226 277 343 403
#     4  11  24  45  68  99 141 180 225 283 344 406
#     4  12  26  46  70 103 142 182 230 286 342 406
#     4  12  26  46  72 101 141 182 229 285 346 413
#     4  11  22  46  70  98 135 181 226 282 347 408
#     4   9  21  41  67  96 131 178 226 278 332 399
#
# _framework density 21.949593
#
# number of rings (size 3 to 8) (size 9 to 14) (size 15 to 20)
#    0.000    1.000    2.500    3.000    7.000    6.000 
#    2.250    0.000    0.000    0.000    0.000    0.000 
#    0.000    0.000    0.000    0.000    0.000    0.000 
#
# Total GULP energy -198379.910549 kJ/mol
# GULP energy per Si atom -12398.744409 kJ/mol
# Density = 2.189963 g / cm^3
# Si number density = 21.949593 Si / 1000 Ang^3
#
#
#
# Elastic Constant Matrix: (Units=GPa)
#
#
# Indices 1 2 3 4 5 6 
#
# 1 119.2517 39.1372 27.4396 -1.8332 -3.1047 -2.8365
# 2 39.1372 98.2814 34.8855 -1.5462 -3.5233 12.4692
# 3 27.4396 34.8855 91.6957 -7.9678 0.4500 0.8649
# 4 -1.8332 -1.5462 -7.9678 37.3408 -3.6247 -4.5612
# 5 -3.1047 -3.5233 0.4500 -3.6247 42.2728 -0.7197
# 6 -2.8365 12.4692 0.8649 -4.5612 -0.7197 33.2030
#
#
#
# Elastic Compliance Matrix: (Units=1/GPa)
#
#
# Indices 1 2 3 4 5 6 
#
# 1 0.010043 -0.003710 -0.001589 0.000337 0.000514 0.002350
# 2 -0.003710 0.013860 -0.004211 -0.001113 0.000738 -0.005549
# 3 -0.001589 -0.004211 0.013207 0.002711 -0.000351 0.001466
# 4 0.000337 -0.001113 0.002711 0.028084 0.002384 0.004286
# 5 0.000514 0.000738 -0.000351 0.002384 0.023974 0.000623
# 6 0.002350 -0.005549 0.001466 0.004286 0.000623 0.032966
#
#
# Mechanical properties :
#
#
# Convention : Reuss Voigt Hill
#
# Bulk Modulus (GPa) = 55.27945 56.90595 56.09270
# Shear Modulus (GPa) = 33.97107 36.41442 35.19275
#
# Velocity S-wave (km/s) = 3.93833 4.07750 4.00852
# Velocity P-wave (km/s) = 6.77643 6.93903 6.85821
#
# Compressibility (1/GPa) = 0.01808990
#
# Stress axis : x y z
#
# Youngs Moduli (GPa) = 99.56900 72.15165 75.71904
#
# Poissons Ratio (x) = 0.26765 0.12035
# Poissons Ratio (y) = 0.36936 0.31884
# Poissons Ratio (z) = 0.15826 0.30382
#
# Static dielectric constant tensor:
#      x y z
#    x 3.832860 -0.053960 0.101020 
#    y -0.053960 4.201120 -0.118920 
#    z 0.101020 -0.118920 3.734360 
# 
# 
# High freq. dielectric constant tensor:
#      x y z
#    x 1.866850 0.004550 0.005770 
#    y 0.004550 1.877450 -0.009330 
#    z 0.005770 -0.009330 1.861790 
# 
# From -- ./inp_files/578751.got.cif
#   From: 2010.06.25/outbox.cif.g09.slc.cpg/sg2_290_cif.got.tgz:578751.got - 2010.06.27 13:26:56.
