data_PCOD8024750
_publ_section_title
;
Structure prediction by ZEFSAII (Michael W. Deem and Ramdas Pophale) SiO2 
 PCOD8024750
Probable space group: P -1
;
_chemical_formula_sum "Si O2"
_cell_formula_units_Z 16
_cell_length_a 8.740417
_cell_length_b 10.743867
_cell_length_c 15.067532
_cell_angle_alpha 77.709079
_cell_angle_beta 40.584826
_cell_angle_gamma 56.655471
_cell_volume 712.424573
_symmetry_space_group_name_H-M "P -1"
_symmetry_group_IT_number 2
_symmetry_cell_setting 'triclinic'
loop_
_space_group_symop_operation_xyz
x,y,z
-x,-y,-z
loop_
_atom_site_type_symbol
_atom_site_label
_atom_site_fract_x
_atom_site_fract_y
_atom_site_fract_z
Si Si1 0.293226 0.190520 0.684215
Si Si2 0.946703 0.916719 0.457217
Si Si3 0.787592 0.490056 0.360103
Si Si4 0.801021 0.124033 0.147303
Si Si5 0.886719 0.121051 0.800937
Si Si6 0.107190 0.341975 0.420848
Si Si7 0.232436 0.358051 0.035633
Si Si8 0.984199 0.692242 0.032016
O O1 0.315141 0.330791 0.629577
O O2 0.225219 0.180845 0.818639
O O3 0.042460 0.207068 0.731882
O O4 0.610773 0.023354 0.553416
O O5 0.045866 0.740061 0.467016
O O6 0.130131 0.903867 0.292738
O O7 0.000000 0.000000 0.500000
O O8 0.500000 0.500000 0.500000
O O9 0.015886 0.398243 0.352583
O O10 0.963667 0.391316 0.208536
O O11 0.458313 0.198692 0.288127
O O12 0.939985 0.041905 0.193835
O O13 0.805627 0.273941 0.111421
O O14 0.000000 0.000000 0.000000
O O15 0.544808 0.234508 0.966740
O O16 0.000000 0.500000 0.500000
O O17 0.196135 0.520716 0.012609
O O18 0.230156 0.294850 0.949855
#
# Coordination Sequence:
#
# PCOD8024750 Si02
#       8
#     2   2   2   2   2   2   2   2
#     4  11  23  44  70 103 141 190 237 295 359 432
#     4  12  26  46  71 102 149 193 242 294 369 439
#     4  11  26  44  70 103 146 185 240 299 368 434
#     4  12  25  45  72 105 144 187 241 300 359 435
#     4  12  25  43  74 103 143 187 245 293 360 432
#     4  12  28  45  72 108 145 190 249 305 368 426
#     4  10  25  44  69 106 137 189 234 294 368 431
#     4  10  23  43  71  98 145 177 239 295 360 424
#
# _framework density 22.458518000000002
#
# number of rings (size 3 to 8) (size 9 to 14) (size 15 to 20)
#    0.000    0.750    2.500    3.375    7.000    3.500 
#    0.000    0.000    0.000    0.000    0.000    0.000 
#    0.000    0.000    0.000    0.000    0.000    0.000 
#
# Total GULP energy -198412.203710 kJ/mol
# GULP energy per Si atom -12400.762732 kJ/mol
# Density = 2.240740 g / cm^3
# Si number density = 22.458518 Si / 1000 Ang^3
#
#
#
# Elastic Constant Matrix: (Units=GPa)
#
#
# Indices 1 2 3 4 5 6 
#
# 1 100.0935 41.7040 48.0448 0.2001 5.8032 -5.5365
# 2 41.7040 111.1815 53.9234 -19.9285 -0.9534 -7.0023
# 3 48.0448 53.9234 123.5809 -6.5062 -2.8951 -2.7515
# 4 0.2001 -19.9285 -6.5062 47.7460 -4.3763 -4.2150
# 5 5.8032 -0.9534 -2.8951 -4.3763 45.8661 1.5804
# 6 -5.5365 -7.0023 -2.7515 -4.2150 1.5804 39.0372
#
#
#
# Elastic Compliance Matrix: (Units=1/GPa)
#
#
# Indices 1 2 3 4 5 6 
#
# 1 0.013503 -0.003559 -0.003846 -0.002198 -0.002265 0.000860
# 2 -0.003559 0.013429 -0.004127 0.005331 0.000903 0.002152
# 3 -0.003846 -0.004127 0.011397 -0.000097 0.001130 -0.000539
# 4 -0.002198 0.005331 -0.000097 0.023670 0.002535 0.003091
# 5 -0.002265 0.000903 0.001130 0.002535 0.022446 -0.000715
# 6 0.000860 0.002152 -0.000539 0.003091 -0.000715 0.026449
#
#
# Mechanical properties :
#
#
# Convention : Reuss Voigt Hill
#
# Bulk Modulus (GPa) = 65.50376 69.13338 67.31857
# Shear Modulus (GPa) = 35.95926 39.27544 37.61735
#
# Velocity S-wave (km/s) = 4.00577 4.18640 4.09708
# Velocity P-wave (km/s) = 7.11511 7.36325 7.24024
#
# Compressibility (1/GPa) = 0.01526630
#
# Stress axis : x y z
#
# Youngs Moduli (GPa) = 74.05850 74.46421 87.74114
#
# Poissons Ratio (x) = 0.26498 0.33749
# Poissons Ratio (y) = 0.26354 0.36207
# Poissons Ratio (z) = 0.28486 0.30728
#
# Static dielectric constant tensor:
#      x y z
#    x 4.057120 0.118530 0.069670 
#    y 0.118530 4.322180 -0.198740 
#    z 0.069670 -0.198740 4.167190 
# 
# 
# High freq. dielectric constant tensor:
#      x y z
#    x 1.885450 -0.005040 0.004030 
#    y -0.005040 1.894680 -0.007730 
#    z 0.004030 -0.007730 1.894430 
# 
# From -- ./inp_files/500237.got.cif
#   From: 2010.06.25/outbox.cif.g09.slc.cpg/sg2_251_cif.got.tgz:500237.got - 2010.06.27 13:26:56.
