data_PCOD8024564
_publ_section_title
;
Structure prediction by ZEFSAII (Michael W. Deem and Ramdas Pophale) SiO2 
 PCOD8024564
Probable space group: P -1
;
_chemical_formula_sum "Si O2"
_cell_formula_units_Z 16
_cell_length_a 18.388645
_cell_length_b 18.096317
_cell_length_c 9.399736
_cell_angle_alpha 28.423146
_cell_angle_beta 143.022489
_cell_angle_gamma 151.856189
_cell_volume 698.435022
_symmetry_space_group_name_H-M "P -1"
_symmetry_group_IT_number 2
_symmetry_cell_setting 'triclinic'
loop_
_space_group_symop_operation_xyz
x,y,z
-x,-y,-z
loop_
_atom_site_type_symbol
_atom_site_label
_atom_site_fract_x
_atom_site_fract_y
_atom_site_fract_z
Si Si1 0.687533 0.090307 0.987095
Si Si2 0.913534 0.561653 0.848240
Si Si3 0.086139 0.296034 0.106767
Si Si4 0.258080 0.555800 0.681176
Si Si5 0.143921 0.231160 0.821165
Si Si6 0.621696 0.809619 0.857428
Si Si7 0.776474 0.899317 0.245842
Si Si8 0.670043 0.130081 0.204592
O O1 0.767580 0.294751 0.678167
O O2 0.508762 0.985375 0.899026
O O3 0.749384 0.132957 0.174718
O O4 0.706483 0.939289 0.199829
O O5 0.992704 0.677519 0.925572
O O6 0.888449 0.693611 0.494755
O O7 0.748779 0.356104 0.986487
O O8 0.000000 0.500000 0.000000
O O9 0.211330 0.270597 0.401966
O O10 0.175999 0.488862 0.820000
O O11 0.948470 0.100784 0.136033
O O12 0.167777 0.356083 0.784657
O O13 0.438069 0.657544 0.805847
O O14 0.304832 0.271391 0.979540
O O15 0.000000 0.000000 0.000000
O O16 0.697929 0.028736 0.544798
O O17 0.662925 0.829505 0.053799
#
# Coordination Sequence:
#
# PCOD8024564 Si02
#       8
#     2   2   2   2   2   2   2   2
#     4  10  23  44  70  98 139 179 230 282 344 406
#     4  12  25  45  71 100 134 181 236 281 342 413
#     4  11  27  44  68  99 139 181 231 283 348 409
#     4  11  26  44  70 105 136 182 230 283 342 415
#     4  12  25  46  71 102 142 178 230 287 342 408
#     4  11  25  45  70 101 141 182 230 282 347 404
#     4  11  25  46  67  97 140 184 225 288 343 406
#     4  10  23  43  69 100 133 182 229 286 338 408
#
# _framework density 22.908359000000001
#
# number of rings (size 3 to 8) (size 9 to 14) (size 15 to 20)
#    0.000    1.000    2.500    2.625    7.000    3.000 
#    0.000    0.000    0.000    0.000    0.000    0.000 
#    0.000    0.000    0.000    0.000    0.000    0.000 
#
# Total GULP energy -198434.355404 kJ/mol
# GULP energy per Si atom -12402.147213 kJ/mol
# Density = 2.285622 g / cm^3
# Si number density = 22.908359 Si / 1000 Ang^3
#
#
#
# Elastic Constant Matrix: (Units=GPa)
#
#
# Indices 1 2 3 4 5 6 
#
# 1 107.7820 12.2909 19.5197 -4.2494 -1.4806 -7.7542
# 2 12.2909 82.5979 39.7726 -2.6117 -14.4019 -21.1745
# 3 19.5197 39.7726 93.9682 -12.0688 -11.7301 10.9378
# 4 -4.2494 -2.6117 -12.0688 39.5292 2.5597 -0.8992
# 5 -1.4806 -14.4019 -11.7301 2.5597 39.4916 -2.6245
# 6 -7.7542 -21.1745 10.9378 -0.8992 -2.6245 31.4749
#
#
#
# Elastic Compliance Matrix: (Units=1/GPa)
#
#
# Indices 1 2 3 4 5 6 
#
# 1 0.010012 0.001051 -0.002956 0.000330 0.000140 0.004222
# 2 0.001051 0.024782 -0.012653 -0.002063 0.006904 0.021844
# 3 -0.002956 -0.012653 0.018942 0.004299 -0.000423 -0.015735
# 4 0.000330 -0.002063 0.004299 0.026546 -0.001327 -0.002153
# 5 0.000140 0.006904 -0.000423 -0.001327 0.028280 0.007146
# 6 0.004222 0.021844 -0.015735 -0.002153 0.007146 0.053509
#
#
# Mechanical properties :
#
#
# Convention : Reuss Voigt Hill
#
# Bulk Modulus (GPa) = 40.61857 47.50161 44.06009
# Shear Modulus (GPa) = 25.07580 36.28347 30.67963
#
# Velocity S-wave (km/s) = 3.31208 3.98408 3.66352
# Velocity P-wave (km/s) = 5.69174 6.47645 6.09673
#
# Compressibility (1/GPa) = 0.02461928
#
# Stress axis : x y z
#
# Youngs Moduli (GPa) = 99.87830 40.35243 52.79189
#
# Poissons Ratio (x) = -0.04239 0.15605
# Poissons Ratio (y) = -0.10493 0.66797
# Poissons Ratio (z) = 0.29524 0.51058
#
# Static dielectric constant tensor:
#      x y z
#    x 4.275650 -0.003020 0.099080 
#    y -0.003020 4.319420 0.014600 
#    z 0.099080 0.014600 4.501230 
# 
# 
# High freq. dielectric constant tensor:
#      x y z
#    x 1.909650 0.003450 -0.002170 
#    y 0.003450 1.915790 0.002740 
#    z -0.002170 0.002740 1.911720 
# 
# From -- ./inp_files/207076.got.cif
#   From: 2010.06.25/outbox.cif.g09.slc.cpg/sg2_104_cif.got.tgz:207076.got - 2010.06.27 13:26:56.
