data_PCOD8024251
_publ_section_title
;
Structure prediction by ZEFSAII (Michael W. Deem and Ramdas Pophale) SiO2 
 PCOD8024251
Probable space group: P -1
;
_chemical_formula_sum "Si O2"
_cell_formula_units_Z 16
_cell_length_a 20.355008
_cell_length_b 29.283804
_cell_length_c 16.196857
_cell_angle_alpha 19.421617
_cell_angle_beta 18.306866
_cell_angle_gamma 15.650812
_cell_volume 769.017125
_symmetry_space_group_name_H-M "P -1"
_symmetry_group_IT_number 2
_symmetry_cell_setting 'triclinic'
loop_
_space_group_symop_operation_xyz
x,y,z
-x,-y,-z
loop_
_atom_site_type_symbol
_atom_site_label
_atom_site_fract_x
_atom_site_fract_y
_atom_site_fract_z
Si Si1 0.962592 0.174941 0.651112
Si Si2 0.394185 0.765110 0.883679
Si Si3 0.935279 0.174947 0.178418
Si Si4 0.860820 0.501075 0.284358
Si Si5 0.224540 0.765107 0.553331
Si Si6 0.819732 0.359350 0.344989
Si Si7 0.054072 0.359351 0.610644
Si Si8 0.656553 0.498933 0.698252
O O1 0.031201 0.297969 0.393673
O O2 0.923268 0.199196 0.558369
O O3 0.687866 0.244468 0.909421
O O4 0.196924 0.965964 0.742420
O O5 0.689547 0.709224 0.634660
O O6 0.395511 0.635293 0.041221
O O7 0.895186 0.244494 0.202060
O O8 0.629201 0.297962 0.295686
O O9 0.094559 0.965969 0.344790
O O10 0.117466 0.199197 0.864166
O O11 0.554560 0.635297 0.382162
O O12 0.841785 0.500007 0.408201
O O13 0.030970 0.560721 0.950843
O O14 0.115926 0.709220 0.708288
O O15 0.500000 0.500000 0.500000
O O16 0.000000 0.500000 0.500000
O O17 0.798205 0.439287 0.719963
#
# Coordination Sequence:
#
# PCOD8024251 Si02
#       8
#     2   2   2   2   2   2   2   2
#     4  10  23  45  65  91 134 168 209 268 315 379
#     4  10  24  45  63  94 131 168 211 265 318 380
#     4  10  23  45  65  91 134 168 209 268 315 379
#     4  10  23  43  63  92 129 165 212 261 317 382
#     4  10  24  45  63  94 131 168 211 265 318 380
#     4  12  25  37  70  93 125 169 215 262 321 379
#     4  12  25  37  70  93 125 169 215 262 321 379
#     4  10  23  43  63  92 129 165 212 261 317 382
#
# _framework density 20.805778
#
# number of rings (size 3 to 8) (size 9 to 14) (size 15 to 20)
#    0.000    1.500    2.500    0.750    7.000    0.000 
#    0.000    3.750    0.000    0.000    0.000    0.000 
#    0.000    0.000    0.000    0.000    0.000    0.000 
#
# Total GULP energy -198368.913950 kJ/mol
# GULP energy per Si atom -12398.057122 kJ/mol
# Density = 2.075842 g / cm^3
# Si number density = 20.805778 Si / 1000 Ang^3
#
#
#
# Elastic Constant Matrix: (Units=GPa)
#
#
# Indices 1 2 3 4 5 6 
#
# 1 107.6254 13.7152 42.1219 -7.3860 8.5943 -13.9056
# 2 13.7152 60.9039 30.3544 -11.3011 0.2501 -9.8552
# 3 42.1219 30.3544 114.4416 1.0982 15.8435 -17.0841
# 4 -7.3860 -11.3011 1.0982 29.5551 -2.9064 4.9278
# 5 8.5943 0.2501 15.8435 -2.9064 28.6884 -3.8899
# 6 -13.9056 -9.8552 -17.0841 4.9278 -3.8899 21.0693
#
#
#
# Elastic Compliance Matrix: (Units=1/GPa)
#
#
# Indices 1 2 3 4 5 6 
#
# 1 0.011403 0.000335 -0.003612 0.002369 -0.000631 0.004083
# 2 0.000335 0.021476 -0.005844 0.008206 0.004370 0.004415
# 3 -0.003612 -0.005844 0.013366 -0.005195 -0.005984 0.005831
# 4 0.002369 0.008206 -0.005195 0.039444 0.005122 -0.007090
# 5 -0.000631 0.004370 -0.005984 0.005122 0.039214 0.002817
# 6 0.004083 0.004415 0.005831 -0.007090 0.002817 0.059129
#
#
# Mechanical properties :
#
#
# Convention : Reuss Voigt Hill
#
# Bulk Modulus (GPa) = 35.70982 50.59488 43.15235
# Shear Modulus (GPa) = 23.62860 28.98119 26.30490
#
# Velocity S-wave (km/s) = 3.37363 3.73626 3.55957
# Velocity P-wave (km/s) = 5.68998 6.55617 6.13837
#
# Compressibility (1/GPa) = 0.02800350
#
# Stress axis : x y z
#
# Youngs Moduli (GPa) = 87.69733 46.56399 74.81475
#
# Poissons Ratio (x) = -0.01561 0.27021
# Poissons Ratio (y) = -0.02940 0.43723
# Poissons Ratio (z) = 0.31674 0.27213
#
# Static dielectric constant tensor:
#      x y z
#    x 3.536800 0.262120 0.785790 
#    y 0.262120 3.768850 -0.243900 
#    z 0.785790 -0.243900 3.458330 
# 
# 
# High freq. dielectric constant tensor:
#      x y z
#    x 1.819140 0.002870 0.024610 
#    y 0.002870 1.814690 -0.006780 
#    z 0.024610 -0.006780 1.818670 
# 
# From -- ./inp_files/539363.got.cif
#   From: 2010.06.25/outbox.cif.g09.slc.cpg/sg2_270_cif.got.tgz:539363.got - 2010.06.27 13:26:56.
