data_PCOD8024202
_publ_section_title
;
Structure prediction by ZEFSAII (Michael W. Deem and Ramdas Pophale) SiO2 
 PCOD8024202
Probable space group: P -1
;
_chemical_formula_sum "Si O2"
_cell_formula_units_Z 16
_cell_length_a 11.205299
_cell_length_b 18.337101
_cell_length_c 9.726298
_cell_angle_alpha 36.423661
_cell_angle_beta 101.615093
_cell_angle_gamma 128.070269
_cell_volume 724.898007
_symmetry_space_group_name_H-M "P -1"
_symmetry_group_IT_number 2
_symmetry_cell_setting 'triclinic'
loop_
_space_group_symop_operation_xyz
x,y,z
-x,-y,-z
loop_
_atom_site_type_symbol
_atom_site_label
_atom_site_fract_x
_atom_site_fract_y
_atom_site_fract_z
Si Si1 0.326313 0.933662 0.132633
Si Si2 0.000168 0.508324 0.824261
Si Si3 0.122664 0.955113 0.836472
Si Si4 0.280057 0.340204 0.235703
Si Si5 0.265341 0.300002 0.739281
Si Si6 0.675614 0.907733 0.856118
Si Si7 0.298189 0.523202 0.204858
Si Si8 0.056020 0.809031 0.756016
O O1 0.187007 0.720541 0.483487
O O2 0.408780 0.069305 0.081199
O O3 0.219902 0.940739 0.991210
O O4 0.500000 0.000000 0.000000
O O5 0.811956 0.438564 0.843697
O O6 0.000000 0.500000 0.000000
O O7 0.992273 0.370952 0.956782
O O8 0.175795 0.951954 0.699018
O O9 0.211629 0.161526 0.567245
O O10 0.883880 0.766460 0.076779
O O11 0.279503 0.467484 0.128105
O O12 0.136620 0.257115 0.201346
O O13 0.500000 0.500000 0.000000
O O14 0.500000 0.500000 0.500000
O O15 0.200665 0.327557 0.551327
O O16 0.217627 0.117646 0.995582
O O17 0.517284 0.719362 0.007259
O O18 0.825535 0.092970 0.508746
#
# Coordination Sequence:
#
# PCOD8024202 Si02
#       8
#     2   2   2   2   2   2   2   2
#     4  12  29  48  71 105 146 192 244 300 355 427
#     4  12  25  48  71 101 141 190 244 291 352 426
#     4  12  27  47  74 108 145 188 240 301 360 422
#     4  12  26  43  72 109 148 180 234 297 363 424
#     4  10  23  42  73 104 140 175 239 293 360 421
#     4  11  24  47  74 103 140 190 240 290 363 433
#     4  11  24  44  74 103 137 188 235 293 357 426
#     4  12  27  45  75 102 146 190 237 294 359 433
#
# _framework density 22.07207
#
# number of rings (size 3 to 8) (size 9 to 14) (size 15 to 20)
#    0.000    0.500    5.000    1.875    7.000    5.000 
#    0.000    0.000    0.000    0.000    0.000    0.000 
#    0.000    0.000    0.000    0.000    0.000    0.000 
#
# Total GULP energy -198264.749595 kJ/mol
# GULP energy per Si atom -12391.546850 kJ/mol
# Density = 2.202183 g / cm^3
# Si number density = 22.072070 Si / 1000 Ang^3
#
#
#
# Elastic Constant Matrix: (Units=GPa)
#
#
# Indices 1 2 3 4 5 6 
#
# 1 131.3174 36.7648 64.0888 -0.5959 -1.9119 -0.2963
# 2 36.7648 97.4162 39.9484 -2.3705 -0.9251 -9.3136
# 3 64.0888 39.9484 131.8401 0.3764 5.9174 7.6076
# 4 -0.5959 -2.3705 0.3764 25.8762 -4.4404 3.5037
# 5 -1.9119 -0.9251 5.9174 -4.4404 47.4926 0.7426
# 6 -0.2963 -9.3136 7.6076 3.5037 0.7426 34.5457
#
#
#
# Elastic Compliance Matrix: (Units=1/GPa)
#
#
# Indices 1 2 3 4 5 6 
#
# 1 0.010399 -0.002009 -0.004518 0.000217 0.000955 0.000500
# 2 -0.002009 0.012716 -0.003135 0.000717 0.000562 0.004017
# 3 -0.004518 -0.003135 0.010991 -0.000388 -0.001598 -0.003231
# 4 0.000217 0.000717 -0.000388 0.039906 0.003862 -0.003850
# 5 0.000955 0.000562 -0.001598 0.003862 0.021671 -0.000346
# 6 0.000500 0.004017 -0.003231 -0.003850 -0.000346 0.031144
#
#
# Mechanical properties :
#
#
# Convention : Reuss Voigt Hill
#
# Bulk Modulus (GPa) = 67.66218 71.35310 69.50764
# Shear Modulus (GPa) = 33.09520 36.23435 34.66478
#
# Velocity S-wave (km/s) = 3.87643 4.05611 3.96729
# Velocity P-wave (km/s) = 7.12441 7.37113 7.24882
#
# Compressibility (1/GPa) = 0.01477930
#
# Stress axis : x y z
#
# Youngs Moduli (GPa) = 96.16339 78.64037 90.98605
#
# Poissons Ratio (x) = 0.15803 0.41112
# Poissons Ratio (y) = 0.19324 0.28527
# Poissons Ratio (z) = 0.43451 0.24656
#
# Static dielectric constant tensor:
#      x y z
#    x 4.484880 -0.056200 0.149320 
#    y -0.056200 3.834640 0.209990 
#    z 0.149320 0.209990 4.279880 
# 
# 
# High freq. dielectric constant tensor:
#      x y z
#    x 1.880530 0.002590 0.010110 
#    y 0.002590 1.858070 0.004180 
#    z 0.010110 0.004180 1.883160 
# 
# From -- ./inp_files/278817.got.cif
#   From: 2010.06.25/outbox.cif.g09.slc.cpg/sg2_140_cif.got.tgz:278817.got - 2010.06.27 13:26:56.
