data_PCOD8024356
_publ_section_title
;
Structure prediction by ZEFSAII (Michael W. Deem and Ramdas Pophale) SiO2 
 PCOD8024356
Probable space group: P -1
;
_chemical_formula_sum "Si O2"
_cell_formula_units_Z 14
_cell_length_a 6.885810
_cell_length_b 21.473341
_cell_length_c 12.165654
_cell_angle_alpha 28.783287
_cell_angle_beta 123.290224
_cell_angle_gamma 132.133070
_cell_volume 638.454385
_symmetry_space_group_name_H-M "P -1"
_symmetry_group_IT_number 2
_symmetry_cell_setting 'triclinic'
loop_
_space_group_symop_operation_xyz
x,y,z
-x,-y,-z
loop_
_atom_site_type_symbol
_atom_site_label
_atom_site_fract_x
_atom_site_fract_y
_atom_site_fract_z
Si Si1 0.185338 0.153325 0.052085
Si Si2 0.969771 0.183535 0.490340
Si Si3 0.212560 0.165153 0.798955
Si Si4 0.788534 0.260912 0.780376
Si Si5 0.010581 0.477003 0.708229
Si Si6 0.433717 0.452462 0.174271
Si Si7 0.292656 0.649441 0.965793
O O1 0.408664 0.255940 0.047145
O O2 0.148016 0.989078 0.300517
O O3 0.280366 0.229054 0.844277
O O4 0.907132 0.147836 0.006232
O O5 0.769510 0.236757 0.297843
O O6 0.058102 0.229753 0.575047
O O7 0.251900 0.277317 0.374328
O O8 0.471613 0.177529 0.796215
O O9 0.000000 0.000000 0.000000
O O10 0.953651 0.366152 0.566553
O O11 0.823014 0.350219 0.764855
O O12 0.304154 0.498489 0.750192
O O13 0.905222 0.432963 0.867405
O O14 0.500000 0.500000 0.000000
O O15 0.266323 0.523023 0.069762
#
# Coordination Sequence:
#
# PCOD8024356 Si02
#       7
#     2   2   2   2   2   2   2
#     4  11  25  45  71  99 138 185 232 278 343 414
#     4  11  25  45  66 102 142 176 226 288 347 403
#     4  10  23  43  65  98 140 174 225 282 344 403
#     4  11  23  43  70 102 137 177 232 288 338 400
#     4  11  24  41  70 102 136 178 233 287 335 409
#     4  12  25  45  66 102 137 178 229 286 348 406
#     4  12  25  46  72  99 138 186 232 278 346 410
#
# _framework density 21.927956999999999
#
# number of rings (size 3 to 8) (size 9 to 14) (size 15 to 20)
#    0.000    0.857    5.714    0.857    2.000    2.857 
#    5.143    1.429    0.000    0.000    0.000    0.000 
#    0.000    0.000    0.000    0.000    0.000    0.000 
#
# Total GULP energy -173439.519597 kJ/mol
# GULP energy per Si atom -12388.537114 kJ/mol
# Density = 2.187805 g / cm^3
# Si number density = 21.927957 Si / 1000 Ang^3
#
#
#
# Elastic Constant Matrix: (Units=GPa)
#
#
# Indices 1 2 3 4 5 6 
#
# 1 108.2521 30.1132 42.1186 5.4302 4.4329 2.5943
# 2 30.1132 69.7270 27.5120 14.8931 1.5552 10.7153
# 3 42.1186 27.5120 98.1565 16.4611 2.6269 -13.3240
# 4 5.4302 14.8931 16.4611 41.2978 3.7437 -1.1370
# 5 4.4329 1.5552 2.6269 3.7437 33.0493 7.6332
# 6 2.5943 10.7153 -13.3240 -1.1370 7.6332 32.6604
#
#
#
# Elastic Compliance Matrix: (Units=1/GPa)
#
#
# Indices 1 2 3 4 5 6 
#
# 1 0.011983 -0.003449 -0.004604 0.001548 -0.000924 -0.001428
# 2 -0.003449 0.020103 -0.004521 -0.005473 0.002564 -0.008956
# 3 -0.004604 -0.004521 0.015192 -0.003414 -0.001925 0.008378
# 4 0.001548 -0.005473 -0.003414 0.027698 -0.003281 0.002011
# 5 -0.000924 0.002564 -0.001925 -0.003281 0.032950 -0.009368
# 6 -0.001428 -0.008956 0.008378 0.002011 -0.009368 0.039347
#
#
# Mechanical properties :
#
#
# Convention : Reuss Voigt Hill
#
# Bulk Modulus (GPa) = 45.18763 52.84704 49.01733
# Shear Modulus (GPa) = 27.80904 33.16095 30.48499
#
# Velocity S-wave (km/s) = 3.56504 3.89301 3.73263
# Velocity P-wave (km/s) = 6.13173 6.66033 6.40149
#
# Compressibility (1/GPa) = 0.02212995
#
# Stress axis : x y z
#
# Youngs Moduli (GPa) = 83.45281 49.74324 65.82468
#
# Poissons Ratio (x) = 0.17156 0.30304
# Poissons Ratio (y) = 0.28783 0.29761
# Poissons Ratio (z) = 0.38420 0.22490
#
# Static dielectric constant tensor:
#      x y z
#    x 4.429060 0.047260 0.150270 
#    y 0.047260 4.445000 0.689000 
#    z 0.150270 0.689000 4.473960 
# 
# 
# High freq. dielectric constant tensor:
#      x y z
#    x 1.850510 0.021060 -0.007480 
#    y 0.021060 1.875680 0.013720 
#    z -0.007480 0.013720 1.870950 
# 
# From -- ./inp_files/68614.got.cif
#   From: 2010.06.25/outbox.cif.g09.slc.cpg/sg2_35_cif.got.tgz:68614.got - 2010.06.27 13:26:56.
