data_PCOD8024319
_publ_section_title
;
Structure prediction by ZEFSAII (Michael W. Deem and Ramdas Pophale) SiO2 
 PCOD8024319
Probable space group: P -1
;
_chemical_formula_sum "Si O2"
_cell_formula_units_Z 16
_cell_length_a 13.117279
_cell_length_b 8.616619
_cell_length_c 12.734828
_cell_angle_alpha 70.226172
_cell_angle_beta 47.976259
_cell_angle_gamma 48.936486
_cell_volume 792.873153
_symmetry_space_group_name_H-M "P -1"
_symmetry_group_IT_number 2
_symmetry_cell_setting 'triclinic'
loop_
_space_group_symop_operation_xyz
x,y,z
-x,-y,-z
loop_
_atom_site_type_symbol
_atom_site_label
_atom_site_fract_x
_atom_site_fract_y
_atom_site_fract_z
Si Si1 0.014039 0.241271 0.622277
Si Si2 0.316670 0.220173 0.062217
Si Si3 0.297742 0.462233 0.629238
Si Si4 0.811228 0.072903 0.092895
Si Si5 0.316670 0.584269 0.062219
Si Si6 0.985960 0.391633 0.377720
Si Si7 0.188773 0.288251 0.907106
Si Si8 0.702263 0.186959 0.370761
O O1 0.841748 0.275847 0.777502
O O2 0.036857 0.400624 0.625033
O O3 0.000004 0.269458 0.499995
O O4 0.184583 0.007341 0.583120
O O5 0.326091 0.389144 0.069529
O O6 0.158247 0.236854 0.222494
O O7 0.293056 0.254434 0.946984
O O8 0.500000 0.000000 0.000000
O O9 0.275514 0.310579 0.743003
O O10 0.500003 0.320615 0.500002
O O11 0.238621 0.666281 0.690187
O O12 0.184588 0.540353 0.583121
O O13 0.724493 0.104605 0.256997
O O14 0.815042 0.903961 0.061993
O O15 0.706946 0.287536 0.053016
O O16 0.000000 0.000000 0.000000
O O17 0.500000 0.500000 0.000000
O O18 0.000000 0.500000 0.000000
#
# Coordination Sequence:
#
# PCOD8024319 Si02
#       8
#     2   2   2   2   2   2   2   2
#     4  10  23  43  65  92 127 170 216 260 315 381
#     4  11  24  42  65  96 131 170 213 265 320 380
#     4  11  25  43  65  97 130 167 215 265 320 382
#     4  12  24  42  68  95 127 169 215 269 323 380
#     4  11  24  42  65  96 131 170 213 265 320 380
#     4  10  23  43  65  92 127 170 216 260 315 381
#     4  12  24  42  68  95 127 169 215 269 323 380
#     4  11  25  43  65  97 130 167 215 265 320 382
#
# _framework density 20.179773000000001
#
# number of rings (size 3 to 8) (size 9 to 14) (size 15 to 20)
#    0.000    1.000    2.500    3.750    3.500    3.500 
#    0.000    0.000    0.000    0.000    0.000    0.000 
#    0.000    0.000    0.000    0.000    0.000    0.000 
#
# Total GULP energy -198449.241103 kJ/mol
# GULP energy per Si atom -12403.077569 kJ/mol
# Density = 2.013384 g / cm^3
# Si number density = 20.179773 Si / 1000 Ang^3
#
#
#
# Elastic Constant Matrix: (Units=GPa)
#
#
# Indices 1 2 3 4 5 6 
#
# 1 119.7155 39.9440 43.6992 4.2459 -3.3210 -29.9659
# 2 39.9440 115.3412 41.8924 4.3732 -3.7415 -29.3032
# 3 43.6992 41.8924 98.9364 -5.5692 6.3537 -15.7550
# 4 4.2459 4.3732 -5.5692 32.9267 -4.2526 3.6208
# 5 -3.3210 -3.7415 6.3537 -4.2526 34.3948 -3.7639
# 6 -29.9659 -29.3032 -15.7550 3.6208 -3.7639 43.0743
#
#
#
# Elastic Compliance Matrix: (Units=1/GPa)
#
#
# Indices 1 2 3 4 5 6 
#
# 1 0.011964 -0.000747 -0.004193 -0.002597 0.002260 0.006697
# 2 -0.000747 0.012332 -0.004116 -0.002670 0.002444 0.006802
# 3 -0.004193 -0.004116 0.013896 0.003159 -0.003158 -0.001176
# 4 -0.002597 -0.002670 0.003159 0.032445 0.002341 -0.004991
# 5 0.002260 0.002444 -0.003158 0.002341 0.030933 0.004586
# 6 0.006697 0.006802 -0.001176 -0.004991 0.004586 0.032893
#
#
# Mechanical properties :
#
#
# Convention : Reuss Voigt Hill
#
# Bulk Modulus (GPa) = 49.80053 65.00714 57.40383
# Shear Modulus (GPa) = 31.39361 35.97635 33.68498
#
# Velocity S-wave (km/s) = 3.94851 4.22689 4.09007
# Velocity P-wave (km/s) = 6.74683 7.49040 7.12832
#
# Compressibility (1/GPa) = 0.02008011
#
# Stress axis : x y z
#
# Youngs Moduli (GPa) = 83.58316 81.08796 71.96525
#
# Poissons Ratio (x) = 0.06059 0.30175
# Poissons Ratio (y) = 0.06245 0.29620
# Poissons Ratio (z) = 0.35046 0.33374
#
# Static dielectric constant tensor:
#      x y z
#    x 4.200190 -0.133380 0.390830 
#    y -0.133380 4.158130 -0.357040 
#    z 0.390830 -0.357040 4.481330 
# 
# 
# High freq. dielectric constant tensor:
#      x y z
#    x 1.800390 -0.004820 0.000760 
#    y -0.004820 1.799920 -0.000730 
#    z 0.000760 -0.000730 1.795350 
# 
# From -- ./inp_files/223453.got.cif
#   From: 2010.06.25/outbox.cif.g09.slc.cpg/sg2_112_cif.got.tgz:223453.got - 2010.06.27 13:26:56.
