data_PCOD8024747
_publ_section_title
;
Structure prediction by ZEFSAII (Michael W. Deem and Ramdas Pophale) SiO2 
 PCOD8024747
Probable space group: P -1
;
_chemical_formula_sum "Si O2"
_cell_formula_units_Z 14
_cell_length_a 5.997402
_cell_length_b 19.198104
_cell_length_c 8.255356
_cell_angle_alpha 132.976249
_cell_angle_beta 59.531283
_cell_angle_gamma 102.801210
_cell_volume 587.673386
_symmetry_space_group_name_H-M "P -1"
_symmetry_group_IT_number 2
_symmetry_cell_setting 'triclinic'
loop_
_space_group_symop_operation_xyz
x,y,z
-x,-y,-z
loop_
_atom_site_type_symbol
_atom_site_label
_atom_site_fract_x
_atom_site_fract_y
_atom_site_fract_z
Si Si1 0.905220 0.214109 0.057840
Si Si2 0.466114 0.104080 0.599258
Si Si3 0.877449 0.632548 0.591456
Si Si4 0.466985 0.896221 0.787034
Si Si5 0.790651 0.527014 0.962111
Si Si6 0.637960 0.283607 0.952598
Si Si7 0.853538 0.705475 0.370214
O O1 0.749389 0.139422 0.080386
O O2 0.758655 0.284804 0.087219
O O3 0.950587 0.288915 0.298033
O O4 0.157619 0.150198 0.776413
O O5 0.612196 0.094036 0.356429
O O6 0.500000 0.000000 0.500000
O O7 0.601867 0.173637 0.769694
O O8 0.637844 0.637125 0.816070
O O9 0.761258 0.670110 0.518641
O O10 0.044877 0.523068 0.334396
O O11 0.742649 0.819370 0.572235
O O12 0.500000 0.000000 0.000000
O O13 0.500000 0.500000 0.000000
O O14 0.740607 0.644690 0.170184
O O15 0.000000 0.500000 0.000000
O O16 0.826010 0.314922 0.795103
#
# Coordination Sequence:
#
# PCOD8024747 Si02
#       7
#     2   2   2   2   2   2   2
#     4  11  23  43  67  92 137 175 223 291 342 420
#     4  11  26  42  64  96 133 180 233 289 345 416
#     4  10  23  43  71  98 133 180 230 278 351 421
#     4  12  25  40  69  96 129 183 228 279 352 417
#     4  10  23  44  74 105 141 188 233 291 356 422
#     4  11  23  42  67  98 137 176 227 285 352 410
#     4  11  23  44  69  98 139 177 229 291 346 419
#
# _framework density 23.822758
#
# number of rings (size 3 to 8) (size 9 to 14) (size 15 to 20)
#    0.000    1.143    2.857    2.571    6.000    3.429 
#    0.000    0.714    0.000    0.000    0.000    0.000 
#    0.000    0.000    0.000    0.000    0.000    0.000 
#
# Total GULP energy -173436.361425 kJ/mol
# GULP energy per Si atom -12388.311530 kJ/mol
# Density = 2.376854 g / cm^3
# Si number density = 23.822758 Si / 1000 Ang^3
#
#
#
# Elastic Constant Matrix: (Units=GPa)
#
#
# Indices 1 2 3 4 5 6 
#
# 1 86.2161 10.1957 37.1767 6.2096 -4.1700 24.0618
# 2 10.1957 35.0107 22.3500 -8.1288 -9.8272 21.2054
# 3 37.1767 22.3500 166.0429 22.3259 -2.0018 20.8562
# 4 6.2096 -8.1288 22.3259 48.8300 3.8217 0.3477
# 5 -4.1700 -9.8272 -2.0018 3.8217 26.6620 -4.4982
# 6 24.0618 21.2054 20.8562 0.3477 -4.4982 42.9539
#
#
#
# Elastic Compliance Matrix: (Units=1/GPa)
#
#
# Indices 1 2 3 4 5 6 
#
# 1 0.014784 0.002727 -0.002584 -0.000326 0.001790 -0.008184
# 2 0.002727 0.051425 -0.005856 0.009983 0.013677 -0.022720
# 3 -0.002584 -0.005856 0.007880 -0.004150 -0.001307 0.000409
# 4 -0.000326 0.009983 -0.004150 0.024152 -0.000650 -0.002994
# 5 0.001790 0.013677 -0.001307 -0.000650 0.042371 -0.002678
# 6 -0.008184 -0.022720 0.000409 -0.002994 -0.002678 0.038627
#
#
# Mechanical properties :
#
#
# Convention : Reuss Voigt Hill
#
# Bulk Modulus (GPa) = 15.95807 47.41271 31.68539
# Shear Modulus (GPa) = 23.63466 38.19236 30.91351
#
# Velocity S-wave (km/s) = 3.15319 4.00833 3.60619
# Velocity P-wave (km/s) = 4.46878 6.43177 5.53795
#
# Compressibility (1/GPa) = 0.06266423
#
# Stress axis : x y z
#
# Youngs Moduli (GPa) = 67.63861 19.44569 126.90047
#
# Poissons Ratio (x) = -0.05303 0.32790
# Poissons Ratio (y) = -0.18447 0.74316
# Poissons Ratio (z) = 0.17477 0.11388
#
# Static dielectric constant tensor:
#      x y z
#    x 4.627750 0.195360 -0.097680 
#    y 0.195360 4.149590 0.064200 
#    z -0.097680 0.064200 4.918050 
# 
# 
# High freq. dielectric constant tensor:
#      x y z
#    x 1.941400 0.008830 0.002750 
#    y 0.008830 1.931740 -0.001530 
#    z 0.002750 -0.001530 1.973700 
# 
# From -- ./inp_files/38338.got.cif
#   From: 2010.06.25/outbox.cif.g09.slc.cpg/sg2_20_cif.got.tgz:38338.got - 2010.06.27 13:26:56.
