data_PCOD8024487
_publ_section_title
;
Structure prediction by ZEFSAII (Michael W. Deem and Ramdas Pophale) SiO2 
 PCOD8024487
Probable space group: P -1
;
_chemical_formula_sum "Si O2"
_cell_formula_units_Z 12
_cell_length_a 12.326453
_cell_length_b 9.810909
_cell_length_c 8.723250
_cell_angle_alpha 132.412527
_cell_angle_beta 47.688513
_cell_angle_gamma 103.568416
_cell_volume 527.410631
_symmetry_space_group_name_H-M "P -1"
_symmetry_group_IT_number 2
_symmetry_cell_setting 'triclinic'
loop_
_space_group_symop_operation_xyz
x,y,z
-x,-y,-z
loop_
_atom_site_type_symbol
_atom_site_label
_atom_site_fract_x
_atom_site_fract_y
_atom_site_fract_z
Si Si1 0.371775 0.786929 0.097887
Si Si2 0.650908 0.400255 0.494385
Si Si3 0.186056 0.236218 0.527989
Si Si4 0.517406 0.785227 0.273176
Si Si5 0.826970 0.365003 0.014003
Si Si6 0.830909 0.569658 0.633128
O O1 0.394853 0.786181 0.257902
O O2 0.320521 0.012842 0.254983
O O3 0.544178 0.641908 0.749916
O O4 0.242670 0.687402 0.116030
O O5 0.527747 0.313200 0.610679
O O6 0.734669 0.289519 0.174790
O O7 0.795538 0.381823 0.458865
O O8 0.217167 0.398115 0.731425
O O9 0.176065 0.287856 0.396729
O O10 0.016131 0.236394 0.742475
O O11 0.500000 0.000000 0.500000
O O12 0.701185 0.674982 0.966794
O O13 0.000000 0.500000 0.500000
#
# Coordination Sequence:
#
# PCOD8024487 Si02
#       6
#     2   2   2   2   2   2
#     4  11  23  43  70  95 135 181 223 278 330 401
#     4  10  24  45  66 102 134 178 226 278 340 395
#     4  10  24  41  70 105 134 174 230 271 345 396
#     4  11  27  44  67 100 135 181 230 276 336 401
#     4  10  23  43  68 101 137 173 220 285 333 403
#     4  10  23  44  69  96 138 179 216 281 338 404
#
# _framework density 22.752673000000001
#
# number of rings (size 3 to 8) (size 9 to 14) (size 15 to 20)
#    0.000    1.667    0.000    3.000    9.333    8.667 
#    0.000    1.667    0.000    0.000    0.000    0.000 
#    0.000    0.000    0.000    0.000    0.000    0.000 
#
# Total GULP energy -148724.251323 kJ/mol
# GULP energy per Si atom -12393.687610 kJ/mol
# Density = 2.270089 g / cm^3
# Si number density = 22.752673 Si / 1000 Ang^3
#
#
#
# Elastic Constant Matrix: (Units=GPa)
#
#
# Indices 1 2 3 4 5 6 
#
# 1 145.4963 32.5087 47.6121 7.7883 -10.4210 22.8905
# 2 32.5087 124.0533 71.6194 -12.6084 -13.6399 1.4488
# 3 47.6121 71.6194 95.7601 -20.9633 -7.1694 8.6758
# 4 7.7883 -12.6084 -20.9633 42.6953 0.8794 -1.3146
# 5 -10.4210 -13.6399 -7.1694 0.8794 29.1938 6.0309
# 6 22.8905 1.4488 8.6758 -1.3146 6.0309 25.0562
#
#
#
# Elastic Compliance Matrix: (Units=1/GPa)
#
#
# Indices 1 2 3 4 5 6 
#
# 1 0.010624 0.000579 -0.005600 -0.004897 0.004735 -0.009197
# 2 0.000579 0.014860 -0.011554 -0.001425 0.004031 0.001567
# 3 -0.005600 -0.011554 0.023958 0.009351 -0.001450 -0.001672
# 4 -0.004897 -0.001425 0.009351 0.028619 -0.001644 0.003216
# 5 0.004735 0.004031 -0.001450 -0.001644 0.040385 -0.013864
# 6 -0.009197 0.001567 -0.001672 0.003216 -0.013864 0.052307
#
#
# Mechanical properties :
#
#
# Convention : Reuss Voigt Hill
#
# Bulk Modulus (GPa) = 61.37452 74.30999 67.84226
# Shear Modulus (GPa) = 23.88536 33.62702 28.75619
#
# Velocity S-wave (km/s) = 3.24355 3.84857 3.55894
# Velocity P-wave (km/s) = 6.40786 7.24427 6.83886
#
# Compressibility (1/GPa) = 0.01629341
#
# Stress axis : x y z
#
# Youngs Moduli (GPa) = 94.12233 67.29636 41.73929
#
# Poissons Ratio (x) = -0.03898 0.23374
# Poissons Ratio (y) = -0.05451 0.48224
# Poissons Ratio (z) = 0.52708 0.77752
#
# Static dielectric constant tensor:
#      x y z
#    x 4.335990 0.239670 0.020740 
#    y 0.239670 3.751530 -0.072970 
#    z 0.020740 -0.072970 4.092410 
# 
# 
# High freq. dielectric constant tensor:
#      x y z
#    x 1.912830 0.014960 0.003060 
#    y 0.014960 1.884810 -0.018750 
#    z 0.003060 -0.018750 1.894510 
# 
# From -- ./inp_files/241194.got.cif
#   From: 2010.06.25/outbox.cif.g09.slc.cpg/sg2_121_cif.got.tgz:241194.got - 2010.06.27 13:26:56.
