data_PCOD8024712
_publ_section_title
;
Structure prediction by ZEFSAII (Michael W. Deem and Ramdas Pophale) SiO2 
 PCOD8024712
Probable space group: P -1
;
_chemical_formula_sum "Si O2"
_cell_formula_units_Z 12
_cell_length_a 9.133183
_cell_length_b 9.232652
_cell_length_c 14.408848
_cell_angle_alpha 73.883902
_cell_angle_beta 60.074005
_cell_angle_gamma 31.221469
_cell_volume 514.908863
_symmetry_space_group_name_H-M "P -1"
_symmetry_group_IT_number 2
_symmetry_cell_setting 'triclinic'
loop_
_space_group_symop_operation_xyz
x,y,z
-x,-y,-z
loop_
_atom_site_type_symbol
_atom_site_label
_atom_site_fract_x
_atom_site_fract_y
_atom_site_fract_z
Si Si1 0.538147 0.012047 0.758218
Si Si2 0.204597 0.461463 0.152952
Si Si3 0.358154 0.799082 0.437301
Si Si4 0.318078 0.723879 0.656728
Si Si5 0.370528 0.599072 0.205036
Si Si6 0.337330 0.329395 0.936751
O O1 0.773791 0.684839 0.749388
O O2 0.646875 0.030171 0.633616
O O3 0.588842 0.063354 0.830029
O O4 0.168196 0.234753 0.819436
O O5 0.322759 0.529471 0.144265
O O6 0.439750 0.235955 0.030094
O O7 0.434739 0.746148 0.532834
O O8 0.645950 0.477687 0.354257
O O9 0.000000 0.000000 0.500000
O O10 0.559200 0.557736 0.698749
O O11 0.945414 0.049575 0.744749
O O12 0.679446 0.476893 0.113087
O O13 0.000000 0.500000 0.000000
#
# Coordination Sequence:
#
# PCOD8024712 Si02
#       6
#     2   2   2   2   2   2
#     4  11  24  43  68  98 132 171 229 275 316 390
#     4  11  26  43  64  99 139 178 213 268 339 392
#     4  11  23  42  73 102 126 170 229 281 324 383
#     4  11  24  40  71  99 127 173 224 268 335 385
#     4  12  24  45  67  98 141 173 214 274 337 396
#     4  10  23  43  71 100 128 178 229 272 317 388
#
# _framework density 23.305095999999999
#
# number of rings (size 3 to 8) (size 9 to 14) (size 15 to 20)
#    0.000    1.000    3.333    2.000    7.000    2.667 
#    0.000   10.833    0.000    0.000    0.000    0.000 
#    0.000    0.000    0.000    0.000    0.000    0.000 
#
# Total GULP energy -148733.623853 kJ/mol
# GULP energy per Si atom -12394.468654 kJ/mol
# Density = 2.325205 g / cm^3
# Si number density = 23.305096 Si / 1000 Ang^3
#
#
#
# Elastic Constant Matrix: (Units=GPa)
#
#
# Indices 1 2 3 4 5 6 
#
# 1 154.4975 37.9327 66.9493 -8.1358 5.7590 4.7782
# 2 37.9327 114.7434 38.2128 -15.9528 6.8001 -1.4297
# 3 66.9493 38.2128 99.1598 -27.9359 1.0521 7.0133
# 4 -8.1358 -15.9528 -27.9359 33.5424 -4.4495 -1.0463
# 5 5.7590 6.8001 1.0521 -4.4495 24.0445 -12.0049
# 6 4.7782 -1.4297 7.0133 -1.0463 -12.0049 27.6298
#
#
#
# Elastic Compliance Matrix: (Units=1/GPa)
#
#
# Indices 1 2 3 4 5 6 
#
# 1 0.009932 -0.001308 -0.007437 -0.004901 -0.003361 -0.001543
# 2 -0.001308 0.010419 -0.002505 0.002347 -0.001718 0.000744
# 3 -0.007437 -0.002505 0.020173 0.014169 0.003216 -0.002030
# 4 -0.004901 0.002347 0.014169 0.042877 0.009352 0.003060
# 5 -0.003361 -0.001718 0.003216 0.009352 0.056809 0.024714
# 6 -0.001543 0.000744 -0.002030 0.003060 0.024714 0.047867
#
#
# Mechanical properties :
#
#
# Convention : Reuss Voigt Hill
#
# Bulk Modulus (GPa) = 55.48699 72.73225 64.10962
# Shear Modulus (GPa) = 23.08551 32.06373 27.57462
#
# Velocity S-wave (km/s) = 3.15076 3.71324 3.44350
# Velocity P-wave (km/s) = 6.09073 7.04703 6.58626
#
# Compressibility (1/GPa) = 0.01802224
#
# Stress axis : x y z
#
# Youngs Moduli (GPa) = 100.68948 95.97666 49.57131
#
# Poissons Ratio (x) = 0.12552 0.36869
# Poissons Ratio (y) = 0.13169 0.12420
# Poissons Ratio (z) = 0.74888 0.24046
#
# Static dielectric constant tensor:
#      x y z
#    x 4.086250 -0.016750 0.287290 
#    y -0.016750 4.131180 -0.222570 
#    z 0.287290 -0.222570 4.571090 
# 
# 
# High freq. dielectric constant tensor:
#      x y z
#    x 1.903690 -0.004520 0.008070 
#    y -0.004520 1.915060 -0.018680 
#    z 0.008070 -0.018680 1.927320 
# 
# From -- ./inp_files/24473.got.cif
#   From: 2010.06.25/outbox.cif.g09.slc.cpg/sg2_13_cif.got.tgz:24473.got - 2010.06.27 13:26:56.
