data_PCOD8024514
_publ_section_title
;
Structure prediction by ZEFSAII (Michael W. Deem and Ramdas Pophale) SiO2 
 PCOD8024514
Probable space group: P -1
;
_chemical_formula_sum "Si O2"
_cell_formula_units_Z 14
_cell_length_a 13.800876
_cell_length_b 9.760425
_cell_length_c 14.574346
_cell_angle_alpha 123.246025
_cell_angle_beta 151.660382
_cell_angle_gamma 75.256428
_cell_volume 637.992347
_symmetry_space_group_name_H-M "P -1"
_symmetry_group_IT_number 2
_symmetry_cell_setting 'triclinic'
loop_
_space_group_symop_operation_xyz
x,y,z
-x,-y,-z
loop_
_atom_site_type_symbol
_atom_site_label
_atom_site_fract_x
_atom_site_fract_y
_atom_site_fract_z
Si Si1 0.552926 0.049687 0.957406
Si Si2 0.774859 0.336498 0.960389
Si Si3 0.959756 0.834931 0.674586
Si Si4 0.345259 0.666721 0.525203
Si Si5 0.738568 0.939543 0.824470
Si Si6 0.524024 0.691032 0.131283
Si Si7 0.384708 0.359179 0.532040
O O1 0.848844 0.183339 0.231787
O O2 0.458884 0.182778 0.895370
O O3 0.500000 0.000000 0.000000
O O4 0.403828 0.840509 0.705696
O O5 0.710972 0.378328 0.023726
O O6 0.599453 0.338056 0.738386
O O7 0.740144 0.125428 0.857463
O O8 0.050574 0.505704 0.219583
O O9 0.778254 0.844015 0.456094
O O10 0.781394 0.644715 0.523290
O O11 0.109532 0.021937 0.939183
O O12 0.451148 0.760050 0.546800
O O13 0.483818 0.562942 0.635816
O O14 0.806422 0.839751 0.763766
O O15 0.500000 0.500000 0.000000
#
# Coordination Sequence:
#
# PCOD8024514 Si02
#       7
#     2   2   2   2   2   2   2
#     4  11  26  44  66  97 134 172 219 278 333 384
#     4  11  24  44  65  98 138 171 221 278 318 396
#     4  10  23  43  68  93 134 172 217 275 317 396
#     4  11  24  43  64  99 137 166 224 274 324 395
#     4  11  22  46  67  97 136 178 219 269 331 384
#     4  11  25  44  68  96 127 179 223 266 337 391
#     4  11  23  42  70  97 131 180 221 264 333 392
#
# _framework density 21.943836999999998
#
# number of rings (size 3 to 8) (size 9 to 14) (size 15 to 20)
#    0.000    1.143    4.286    1.286    6.000    4.000 
#    0.000    0.000    0.000    0.000    0.000    0.000 
#    0.000    0.000    0.000    0.000    0.000    0.000 
#
# Total GULP energy -173527.329722 kJ/mol
# GULP energy per Si atom -12394.809266 kJ/mol
# Density = 2.189389 g / cm^3
# Si number density = 21.943837 Si / 1000 Ang^3
#
#
#
# Elastic Constant Matrix: (Units=GPa)
#
#
# Indices 1 2 3 4 5 6 
#
# 1 97.7382 40.5290 30.7360 -6.9794 -4.6934 -5.4753
# 2 40.5290 147.6634 64.1796 3.2071 -6.2962 -9.2282
# 3 30.7360 64.1796 91.2398 -6.5360 17.1946 9.3901
# 4 -6.9794 3.2071 -6.5360 36.2414 -0.1283 -7.8493
# 5 -4.6934 -6.2962 17.1946 -0.1283 33.6998 1.3898
# 6 -5.4753 -9.2282 9.3901 -7.8493 1.3898 29.6687
#
#
#
# Elastic Compliance Matrix: (Units=1/GPa)
#
#
# Indices 1 2 3 4 5 6 
#
# 1 0.012670 -0.001321 -0.004203 0.002632 0.003516 0.003789
# 2 -0.001321 0.012357 -0.010351 -0.001881 0.007150 0.006043
# 3 -0.004203 -0.010351 0.023514 0.002082 -0.014087 -0.010226
# 4 0.002632 -0.001881 0.002082 0.030217 -0.001233 0.007294
# 5 0.003516 0.007150 -0.014087 -0.001233 0.038468 0.005203
# 6 0.003789 0.006043 -0.010226 0.007294 0.005203 0.041207
#
#
# Mechanical properties :
#
#
# Convention : Reuss Voigt Hill
#
# Bulk Modulus (GPa) = 59.55858 67.50343 63.53100
# Shear Modulus (GPa) = 25.53891 33.33511 29.43701
#
# Velocity S-wave (km/s) = 3.41520 3.90180 3.66658
# Velocity P-wave (km/s) = 6.53848 7.15035 6.85125
#
# Compressibility (1/GPa) = 0.01679019
#
# Stress axis : x y z
#
# Youngs Moduli (GPa) = 78.92658 80.92426 42.52874
#
# Poissons Ratio (x) = 0.10693 0.17873
# Poissons Ratio (y) = 0.10429 0.44023
# Poissons Ratio (z) = 0.33170 0.83767
#
# Static dielectric constant tensor:
#      x y z
#    x 28.740490 4.017490 -3.240230 
#    y 4.017490 4.550240 -0.627300 
#    z -3.240230 -0.627300 4.605760 
# 
# 
# High freq. dielectric constant tensor:
#      x y z
#    x 1.878580 0.007900 0.011050 
#    y 0.007900 1.858830 -0.003080 
#    z 0.011050 -0.003080 1.863300 
# 
# From -- ./inp_files/505834.got.cif
#   From: 2010.06.25/outbox.cif.g09.slc.cpg/sg2_253_cif.got.tgz:505834.got - 2010.06.27 13:26:56.
