data_PCOD8024848
_publ_section_title
;
Structure prediction by ZEFSAII (Michael W. Deem and Ramdas Pophale) SiO2 
 PCOD8024848
Probable space group: P -1
;
_chemical_formula_sum "Si O2"
_cell_formula_units_Z 16
_cell_length_a 8.680634
_cell_length_b 9.052524
_cell_length_c 15.895371
_cell_angle_alpha 49.269829
_cell_angle_beta 65.427628
_cell_angle_gamma 95.659045
_cell_volume 726.282667
_symmetry_space_group_name_H-M "P -1"
_symmetry_group_IT_number 2
_symmetry_cell_setting 'triclinic'
loop_
_space_group_symop_operation_xyz
x,y,z
-x,-y,-z
loop_
_atom_site_type_symbol
_atom_site_label
_atom_site_fract_x
_atom_site_fract_y
_atom_site_fract_z
Si Si1 0.582973 0.981139 0.347663
Si Si2 0.323719 0.165544 0.045062
Si Si3 0.521798 0.071226 0.794031
Si Si4 0.309050 0.518628 0.271774
Si Si5 0.026338 0.312987 0.111240
Si Si6 0.604820 0.852266 0.561973
Si Si7 0.036129 0.624009 0.717972
Si Si8 0.106695 0.868899 0.051306
O O1 0.451334 0.881048 0.330196
O O2 0.517185 0.792044 0.508374
O O3 0.563330 0.189864 0.314692
O O4 0.812891 0.073962 0.239377
O O5 0.198867 0.283641 0.045592
O O6 0.379199 0.075958 0.149021
O O7 0.201966 0.945451 0.093687
O O8 0.527673 0.355305 0.884212
O O9 0.641332 0.319090 0.719378
O O10 0.286176 0.927192 0.924456
O O11 0.293537 0.286941 0.390011
O O12 0.092799 0.432946 0.315846
O O13 0.082532 0.373613 0.173726
O O14 0.000000 0.500000 0.000000
O O15 0.760575 0.130252 0.430196
O O16 0.061964 0.405521 0.807281
O O17 0.000000 0.000000 0.000000
#
# Coordination Sequence:
#
# PCOD8024848 Si02
#       8
#     2   2   2   2   2   2   2   2
#     4  10  23  44  61  91 126 162 221 262 307 378
#     4  11  22  39  65  98 130 163 204 267 330 369
#     4  11  22  41  66  95 128 162 212 269 320 373
#     4  11  22  41  64  94 130 167 210 255 317 385
#     4  11  23  38  63  98 127 162 210 264 322 378
#     4  10  24  42  66  87 126 178 211 256 313 371
#     4  11  22  41  62  93 131 164 215 258 312 383
#     4  11  21  39  67  97 130 166 206 264 324 376
#
# _framework density 22.029990999999999
#
# number of rings (size 3 to 8) (size 9 to 14) (size 15 to 20)
#    0.000    1.250    2.500    4.125    1.750    6.000 
#    0.000    3.125    0.000    0.000    0.000    0.000 
#    0.000    0.000    0.000    0.000    0.000    0.000 
#
# Total GULP energy -198294.251257 kJ/mol
# GULP energy per Si atom -12393.390704 kJ/mol
# Density = 2.197985 g / cm^3
# Si number density = 22.029991 Si / 1000 Ang^3
#
#
#
# Elastic Constant Matrix: (Units=GPa)
#
#
# Indices 1 2 3 4 5 6 
#
# 1 114.3140 39.2401 28.1527 2.3762 26.1854 -3.7495
# 2 39.2401 84.3574 35.2568 2.3011 19.8779 9.8356
# 3 28.1527 35.2568 55.3474 -14.8340 17.0200 7.8972
# 4 2.3762 2.3011 -14.8340 39.5457 -4.5309 11.9621
# 5 26.1854 19.8779 17.0200 -4.5309 31.7590 3.1324
# 6 -3.7495 9.8356 7.8972 11.9621 3.1324 46.6313
#
#
#
# Elastic Compliance Matrix: (Units=1/GPa)
#
#
# Indices 1 2 3 4 5 6 
#
# 1 0.012608 -0.002763 -0.004000 -0.004114 -0.007487 0.003832
# 2 -0.002763 0.018806 -0.010431 -0.005120 -0.004553 -0.000803
# 3 -0.004000 -0.010431 0.033404 0.014979 -0.005221 -0.007270
# 4 -0.004114 -0.005120 0.014979 0.035373 0.004718 -0.011179
# 5 -0.007487 -0.004553 -0.005221 0.004718 0.044271 -0.002942
# 6 0.003832 -0.000803 -0.007270 -0.011179 -0.002942 0.026219
#
#
# Mechanical properties :
#
#
# Convention : Reuss Voigt Hill
#
# Bulk Modulus (GPa) = 32.86363 51.03534 41.94948
# Shear Modulus (GPa) = 23.23288 33.67849 28.45569
#
# Velocity S-wave (km/s) = 3.25099 3.91417 3.59789
# Velocity P-wave (km/s) = 5.38906 6.60638 6.02852
#
# Compressibility (1/GPa) = 0.03042878
#
# Stress axis : x y z
#
# Youngs Moduli (GPa) = 79.31698 53.17568 29.93612
#
# Poissons Ratio (x) = 0.14694 0.11974
# Poissons Ratio (y) = 0.21918 0.31227
# Poissons Ratio (z) = 0.31726 0.55469
#
# Static dielectric constant tensor:
#      x y z
#    x 4.139790 0.123990 0.101870 
#    y 0.123990 4.104540 0.130950 
#    z 0.101870 0.130950 3.922190 
# 
# 
# High freq. dielectric constant tensor:
#      x y z
#    x 1.879560 0.007120 0.012460 
#    y 0.007120 1.865780 0.004260 
#    z 0.012460 0.004260 1.852670 
# 
# From -- ./inp_files/239210.got.cif
#   From: 2010.06.25/outbox.cif.g09.slc.cpg/sg2_120_cif.got.tgz:239210.got - 2010.06.27 13:26:56.
