data_PCOD8024119
_publ_section_title
;
Structure prediction by ZEFSAII (Michael W. Deem and Ramdas Pophale) SiO2 
 PCOD8024119
Probable space group: P -1
;
_chemical_formula_sum "Si O2"
_cell_formula_units_Z 14
_cell_length_a 8.386197
_cell_length_b 8.299187
_cell_length_c 23.806862
_cell_angle_alpha 45.507260
_cell_angle_beta 41.577144
_cell_angle_gamma 76.408323
_cell_volume 620.917909
_symmetry_space_group_name_H-M "P -1"
_symmetry_group_IT_number 2
_symmetry_cell_setting 'triclinic'
loop_
_space_group_symop_operation_xyz
x,y,z
-x,-y,-z
loop_
_atom_site_type_symbol
_atom_site_label
_atom_site_fract_x
_atom_site_fract_y
_atom_site_fract_z
Si Si1 0.562461 0.562154 0.843949
Si Si2 0.417598 0.931652 0.314461
Si Si3 0.242192 0.173802 0.663170
Si Si4 0.754047 0.560241 0.596844
Si Si5 0.229706 0.010204 0.583487
Si Si6 0.665423 0.812241 0.110317
Si Si7 0.607390 0.939740 0.929013
O O1 0.358489 0.311957 0.913935
O O2 0.457651 0.762604 0.819744
O O3 0.486571 0.380964 0.965966
O O4 0.927094 0.754475 0.693026
O O5 0.661571 0.957415 0.284287
O O6 0.327692 0.733932 0.332535
O O7 0.105709 0.787571 0.466965
O O8 0.500000 0.500000 0.500000
O O9 0.155989 0.988724 0.674353
O O10 0.965327 0.155953 0.767460
O O11 0.666034 0.686550 0.540853
O O12 0.549364 0.475020 0.726248
O O13 0.500000 0.000000 0.500000
O O14 0.557979 0.013100 0.088268
O O15 0.000000 0.000000 0.000000
O O16 0.500000 0.000000 0.000000
#
# Coordination Sequence:
#
# PCOD8024119 Si02
#       7
#     2   2   2   2   2   2   2
#     4  10  26  46  65 104 142 185 235 295 348 422
#     4  10  23  42  70  99 141 177 238 293 344 421
#     4  12  25  44  77 104 136 196 237 286 358 419
#     4  10  23  44  66 101 141 183 231 292 357 411
#     4  11  27  42  72 106 145 183 235 299 352 419
#     4  11  26  43  74  96 138 192 230 287 361 420
#     4  10  26  47  70 101 146 182 235 295 351 420
#
# _framework density 22.547262
#
# number of rings (size 3 to 8) (size 9 to 14) (size 15 to 20)
#    0.000    1.429    1.429    0.857   18.000    2.286 
#    0.000    0.000    0.000    0.000    0.000    0.000 
#    0.000    0.000    0.000    0.000    0.000    0.000 
#
# Total GULP energy -173518.086993 kJ/mol
# GULP energy per Si atom -12394.149071 kJ/mol
# Density = 2.249594 g / cm^3
# Si number density = 22.547262 Si / 1000 Ang^3
#
#
#
# Elastic Constant Matrix: (Units=GPa)
#
#
# Indices 1 2 3 4 5 6 
#
# 1 153.3267 47.9439 52.4981 -8.7954 -12.1404 -29.9012
# 2 47.9439 86.5414 42.1480 -9.3429 -4.4551 -16.8813
# 3 52.4981 42.1480 121.2372 1.8972 -2.8065 -20.2035
# 4 -8.7954 -9.3429 1.8972 48.3379 -9.5633 5.8886
# 5 -12.1404 -4.4551 -2.8065 -9.5633 44.6576 -4.4251
# 6 -29.9012 -16.8813 -20.2035 5.8886 -4.4251 44.2291
#
#
#
# Elastic Compliance Matrix: (Units=1/GPa)
#
#
# Indices 1 2 3 4 5 6 
#
# 1 0.009349 -0.002967 -0.002260 0.001249 0.002794 0.004269
# 2 -0.002967 0.015852 -0.003899 0.002688 0.001307 0.002037
# 3 -0.002260 -0.003899 0.010969 -0.001966 -0.000517 0.002204
# 4 0.001249 0.002688 -0.001966 0.022727 0.005199 -0.001534
# 5 0.002794 0.001307 -0.000517 0.005199 0.024754 0.003936
# 6 0.004269 0.002037 0.002204 -0.001534 0.003936 0.027878
#
#
# Mechanical properties :
#
#
# Convention : Reuss Voigt Hill
#
# Bulk Modulus (GPa) = 55.81038 71.80946 63.80992
# Shear Modulus (GPa) = 36.83151 42.01259 39.42205
#
# Velocity S-wave (km/s) = 4.04607 4.32129 4.18595
# Velocity P-wave (km/s) = 6.82891 7.53762 7.19200
#
# Compressibility (1/GPa) = 0.01791781
#
# Stress axis : x y z
#
# Youngs Moduli (GPa) = 106.96202 63.08167 91.16971
#
# Poissons Ratio (x) = 0.18718 0.20607
# Poissons Ratio (y) = 0.31738 0.35544
# Poissons Ratio (z) = 0.24177 0.24593
#
# Static dielectric constant tensor:
#      x y z
#    x 4.357790 -0.324860 0.292120 
#    y -0.324860 3.976640 -0.153800 
#    z 0.292120 -0.153800 4.228640 
# 
# 
# High freq. dielectric constant tensor:
#      x y z
#    x 1.904410 -0.017660 0.009490 
#    y -0.017660 1.870670 -0.008140 
#    z 0.009490 -0.008140 1.891420 
# 
# From -- ./inp_files/590298.got.cif
#   From: 2010.06.25/outbox.cif.g09.slc.cpg/sg2_296_cif.got.tgz:590298.got - 2010.06.27 13:26:56.
