data_PCOD8024734
_publ_section_title
;
Structure prediction by ZEFSAII (Michael W. Deem and Ramdas Pophale) SiO2 
 PCOD8024734
Probable space group: P -1
;
_chemical_formula_sum "Si O2"
_cell_formula_units_Z 16
_cell_length_a 8.241736
_cell_length_b 14.987822
_cell_length_c 11.341883
_cell_angle_alpha 127.834477
_cell_angle_beta 140.014566
_cell_angle_gamma 49.013179
_cell_volume 661.607670
_symmetry_space_group_name_H-M "P -1"
_symmetry_group_IT_number 2
_symmetry_cell_setting 'triclinic'
loop_
_space_group_symop_operation_xyz
x,y,z
-x,-y,-z
loop_
_atom_site_type_symbol
_atom_site_label
_atom_site_fract_x
_atom_site_fract_y
_atom_site_fract_z
Si Si1 0.253676 0.952153 0.828538
Si Si2 0.605822 0.184649 0.967775
Si Si3 0.213155 0.596721 0.784512
Si Si4 0.563548 0.282204 0.395450
Si Si5 0.001230 0.407906 0.082594
Si Si6 0.650121 0.663004 0.419319
Si Si7 0.026790 0.337059 0.786941
Si Si8 0.664629 0.089774 0.677343
O O1 0.306519 0.860295 0.675028
O O2 0.247340 0.884898 0.891816
O O3 0.946182 0.051572 0.728005
O O4 0.500000 0.000000 0.000000
O O5 0.739555 0.097440 0.861972
O O6 0.283827 0.212276 0.814926
O O7 0.630147 0.315532 0.085260
O O8 0.408768 0.454594 0.759552
O O9 0.118416 0.622005 0.888126
O O10 0.974088 0.625112 0.578205
O O11 0.330610 0.353833 0.230972
O O12 0.460415 0.293721 0.479174
O O13 0.798093 0.337590 0.567167
O O14 0.890759 0.550579 0.113107
O O15 0.926201 0.344919 0.874546
O O16 0.530502 0.774508 0.354660
O O17 0.500000 0.000000 0.500000
#
# Coordination Sequence:
#
# PCOD8024734 Si02
#       8
#     2   2   2   2   2   2   2   2
#     4  12  30  50  75 104 151 204 254 318 371 440
#     4  12  27  46  76 106 148 192 247 313 377 447
#     4  10  24  47  73 111 150 189 237 314 387 445
#     4  11  25  45  74 101 150 191 250 305 367 441
#     4  10  23  43  71 108 153 191 238 302 371 456
#     4  10  25  44  77 109 144 195 246 303 379 453
#     4  11  24  41  72 111 145 195 242 294 381 451
#     4  12  28  48  76 109 149 198 263 310 369 453
#
# _framework density 24.183515
#
# number of rings (size 3 to 8) (size 9 to 14) (size 15 to 20)
#    0.000    1.000    1.250    3.000   12.250    4.500 
#    0.000    0.000    0.000    0.000    0.000    0.000 
#    0.000    0.000    0.000    0.000    0.000    0.000 
#
# Total GULP energy -198428.969286 kJ/mol
# GULP energy per Si atom -12401.810580 kJ/mol
# Density = 2.412847 g / cm^3
# Si number density = 24.183515 Si / 1000 Ang^3
#
#
#
# Elastic Constant Matrix: (Units=GPa)
#
#
# Indices 1 2 3 4 5 6 
#
# 1 85.8881 35.2705 26.5698 12.1469 0.3874 -8.7811
# 2 35.2705 117.5356 41.1370 9.5150 1.7607 -7.3231
# 3 26.5698 41.1370 118.1235 20.8184 2.1098 -2.3227
# 4 12.1469 9.5150 20.8184 46.2804 -3.0744 -1.5519
# 5 0.3874 1.7607 2.1098 -3.0744 28.9387 -1.6477
# 6 -8.7811 -7.3231 -2.3227 -1.5519 -1.6477 46.7649
#
#
#
# Elastic Compliance Matrix: (Units=1/GPa)
#
#
# Indices 1 2 3 4 5 6 
#
# 1 0.014018 -0.003362 -0.001552 -0.002224 0.000005 0.001955
# 2 -0.003362 0.010594 -0.002914 0.000022 -0.000335 0.000872
# 3 -0.001552 -0.002914 0.010510 -0.003800 -0.000994 -0.000387
# 4 -0.002224 0.000022 -0.003800 0.024097 0.002883 0.000298
# 5 0.000005 -0.000335 -0.000994 0.002883 0.035025 0.001229
# 6 0.001955 0.000872 -0.000387 0.000298 0.001229 0.021921
#
#
# Mechanical properties :
#
#
# Convention : Reuss Voigt Hill
#
# Bulk Modulus (GPa) = 51.37082 58.61130 54.99106
# Shear Modulus (GPa) = 36.15073 38.96814 37.55943
#
# Velocity S-wave (km/s) = 3.87052 4.01852 3.94522
# Velocity P-wave (km/s) = 6.42361 6.76905 6.59859
#
# Compressibility (1/GPa) = 0.01946630
#
# Stress axis : x y z
#
# Youngs Moduli (GPa) = 71.33658 94.39020 95.15140
#
# Poissons Ratio (x) = 0.31730 0.14769
# Poissons Ratio (y) = 0.23980 0.27728
# Poissons Ratio (z) = 0.11072 0.27507
#
# Static dielectric constant tensor:
#      x y z
#    x 4.214360 -0.231360 -0.050650 
#    y -0.231360 4.376860 -0.221880 
#    z -0.050650 -0.221880 4.697780 
# 
# 
# High freq. dielectric constant tensor:
#      x y z
#    x 1.961740 -0.017630 -0.002700 
#    y -0.017630 1.961350 -0.007970 
#    z -0.002700 -0.007970 1.973460 
# 
# From -- ./inp_files/399690.got.cif
#   From: 2010.06.25/outbox.cif.g09.slc.cpg/sg2_200_cif.got.tgz:399690.got - 2010.06.27 13:26:56.
