data_PCOD8024187
_publ_section_title
;
Structure prediction by ZEFSAII (Michael W. Deem and Ramdas Pophale) SiO2 
 PCOD8024187
Probable space group: P -1
;
_chemical_formula_sum "Si O2"
_cell_formula_units_Z 12
_cell_length_a 7.206508
_cell_length_b 8.842611
_cell_length_c 11.022070
_cell_angle_alpha 49.197713
_cell_angle_beta 63.810916
_cell_angle_gamma 65.958754
_cell_volume 469.716062
_symmetry_space_group_name_H-M "P -1"
_symmetry_group_IT_number 2
_symmetry_cell_setting 'triclinic'
loop_
_space_group_symop_operation_xyz
x,y,z
-x,-y,-z
loop_
_atom_site_type_symbol
_atom_site_label
_atom_site_fract_x
_atom_site_fract_y
_atom_site_fract_z
Si Si1 0.267522 0.385946 0.090153
Si Si2 0.145607 0.168724 0.690237
Si Si3 0.137717 0.468219 0.342071
Si Si4 0.304784 0.671797 0.501234
Si Si5 0.499358 0.013678 0.848839
Si Si6 0.829749 0.249600 0.236801
O O1 0.283021 0.441283 0.197526
O O2 0.056298 0.305551 0.163075
O O3 0.463486 0.212892 0.094722
O O4 0.297266 0.583395 0.903167
O O5 0.251226 0.324083 0.492621
O O6 0.277096 0.125188 0.799633
O O7 0.913443 0.292228 0.730958
O O8 0.134819 0.969676 0.720618
O O9 0.912649 0.402043 0.420465
O O10 0.500000 0.500000 0.500000
O O11 0.317989 0.868482 0.312079
O O12 0.303881 0.743873 0.604428
O O13 0.500000 0.000000 0.000000
#
# Coordination Sequence:
#
# PCOD8024187 Si02
#       6
#     2   2   2   2   2   2
#     4  10  23  44  68  96 135 177 218 264 335 401
#     4  11  24  44  64 104 132 169 229 273 328 383
#     4  10  23  45  68  98 132 176 219 271 331 394
#     4  11  21  43  69  95 134 180 216 263 333 399
#     4  12  26  43  68  99 134 175 222 276 332 390
#     4  10  23  42  72  97 133 176 222 269 327 396
#
# _framework density 25.547346000000001
#
# number of rings (size 3 to 8) (size 9 to 14) (size 15 to 20)
#    0.000    1.333    1.667    3.000    4.667    6.667 
#    6.000    0.000    0.000    0.000    0.000    0.000 
#    0.000    0.000    0.000    0.000    0.000    0.000 
#
# Total GULP energy -148760.293002 kJ/mol
# GULP energy per Si atom -12396.691083 kJ/mol
# Density = 2.548920 g / cm^3
# Si number density = 25.547346 Si / 1000 Ang^3
#
#
#
# Elastic Constant Matrix: (Units=GPa)
#
#
# Indices 1 2 3 4 5 6 
#
# 1 56.3558 29.9802 34.8523 2.5865 9.8102 7.4234
# 2 29.9802 228.8153 100.2257 -3.0813 21.6708 19.2585
# 3 34.8523 100.2257 199.0814 14.0690 48.3797 7.6134
# 4 2.5865 -3.0813 14.0690 56.3493 5.1789 13.2257
# 5 9.8102 21.6708 48.3797 5.1789 46.2446 -0.2331
# 6 7.4234 19.2585 7.6134 13.2257 -0.2331 34.3764
#
#
#
# Elastic Compliance Matrix: (Units=1/GPa)
#
#
# Indices 1 2 3 4 5 6 
#
# 1 0.020625 -0.001123 -0.002680 0.000577 -0.001128 -0.003461
# 2 -0.001123 0.006072 -0.002923 0.001849 0.000228 -0.003222
# 3 -0.002680 -0.002923 0.008762 -0.001795 -0.007023 0.000919
# 4 0.000577 0.001849 -0.001795 0.020428 -0.001442 -0.008632
# 5 -0.001128 0.000228 -0.007023 -0.001442 0.029278 0.002425
# 6 -0.003461 -0.003222 0.000919 -0.008632 0.002425 0.034776
#
#
# Mechanical properties :
#
#
# Convention : Reuss Voigt Hill
#
# Bulk Modulus (GPa) = 45.43857 90.48542 67.96200
# Shear Modulus (GPa) = 35.52957 48.67371 42.10164
#
# Velocity S-wave (km/s) = 3.73330 4.36964 4.06394
# Velocity P-wave (km/s) = 6.03391 7.80730 6.97717
#
# Compressibility (1/GPa) = 0.02200773
#
# Stress axis : x y z
#
# Youngs Moduli (GPa) = 48.48573 164.67953 114.12566
#
# Poissons Ratio (x) = 0.18487 0.30584
# Poissons Ratio (y) = 0.05443 0.33362
# Poissons Ratio (z) = 0.12994 0.48141
#
# Static dielectric constant tensor:
#      x y z
#    x 4.451410 0.138450 0.291340 
#    y 0.138450 4.959450 -0.098730 
#    z 0.291340 -0.098730 5.027320 
# 
# 
# High freq. dielectric constant tensor:
#      x y z
#    x 2.019140 0.008260 0.015610 
#    y 0.008260 2.039740 -0.004360 
#    z 0.015610 -0.004360 2.025330 
# 
# From -- ./inp_files/148048.got.cif
#   From: 2010.06.25/outbox.cif.g09.slc.cpg/sg2_75_cif.got.tgz:148048.got - 2010.06.27 13:26:56.
