data_PCOD8024628
_publ_section_title
;
Structure prediction by ZEFSAII (Michael W. Deem and Ramdas Pophale) SiO2 
 PCOD8024628
Probable space group: P -1
;
_chemical_formula_sum "Si O2"
_cell_formula_units_Z 14
_cell_length_a 5.433574
_cell_length_b 10.497207
_cell_length_c 11.381998
_cell_angle_alpha 74.920826
_cell_angle_beta 87.851276
_cell_angle_gamma 69.501325
_cell_volume 586.121304
_symmetry_space_group_name_H-M "P -1"
_symmetry_group_IT_number 2
_symmetry_cell_setting 'triclinic'
loop_
_space_group_symop_operation_xyz
x,y,z
-x,-y,-z
loop_
_atom_site_type_symbol
_atom_site_label
_atom_site_fract_x
_atom_site_fract_y
_atom_site_fract_z
Si Si1 0.989920 0.918492 0.638182
Si Si2 0.309583 0.783400 0.026488
Si Si3 0.911371 0.961372 0.178264
Si Si4 0.161032 0.523999 0.102180
Si Si5 0.404168 0.255765 0.315717
Si Si6 0.736720 0.724525 0.219718
Si Si7 0.689823 0.585935 0.479666
O O1 0.892908 0.026799 0.724345
O O2 0.292421 0.834907 0.687216
O O3 0.799853 0.828427 0.661715
O O4 0.000000 0.000000 0.500000
O O5 0.319180 0.625254 0.031239
O O6 0.570379 0.770537 0.093544
O O7 0.289020 0.881573 0.889736
O O8 0.056914 0.869995 0.086371
O O9 0.756270 0.862849 0.250061
O O10 0.340920 0.371759 0.184906
O O11 0.000182 0.600979 0.201456
O O12 0.000000 0.500000 0.000000
O O13 0.386091 0.312631 0.433299
O O14 0.606581 0.664496 0.338451
O O15 0.500000 0.500000 0.500000
O O16 0.000000 0.500000 0.500000
#
# Coordination Sequence:
#
# PCOD8024628 Si02
#       7
#     2   2   2   2   2   2   2
#     4  12  28  47  72 101 143 185 234 291 350 418
#     4  10  23  43  69  97 138 181 238 288 345 423
#     4  10  24  44  67 100 135 188 237 284 349 414
#     4  11  25  43  68 106 142 183 233 293 364 419
#     4  12  27  46  72 106 142 184 233 291 355 417
#     4  11  24  41  73  98 136 186 237 290 349 421
#     4  12  25  45  71 103 144 181 233 288 348 420
#
# _framework density 23.885839000000001
#
# number of rings (size 3 to 8) (size 9 to 14) (size 15 to 20)
#    0.000    0.857    1.429    4.286   10.000    0.571 
#    0.000    0.000    0.000    0.000    0.000    0.000 
#    0.000    0.000    0.000    0.000    0.000    0.000 
#
# Total GULP energy -173487.535869 kJ/mol
# GULP energy per Si atom -12391.966848 kJ/mol
# Density = 2.383147 g / cm^3
# Si number density = 23.885839 Si / 1000 Ang^3
#
#
#
# Elastic Constant Matrix: (Units=GPa)
#
#
# Indices 1 2 3 4 5 6 
#
# 1 123.6601 50.1450 13.5339 -12.5164 15.4555 33.7308
# 2 50.1450 149.0711 52.6787 -10.8937 8.4373 46.4357
# 3 13.5339 52.6787 110.8012 -5.5649 13.6900 14.1831
# 4 -12.5164 -10.8937 -5.5649 50.5830 9.4230 11.2811
# 5 15.4555 8.4373 13.6900 9.4230 35.1976 -4.5222
# 6 33.7308 46.4357 14.1831 11.2811 -4.5222 49.3620
#
#
#
# Elastic Compliance Matrix: (Units=1/GPa)
#
#
# Indices 1 2 3 4 5 6 
#
# 1 0.013434 -0.000053 0.001661 0.008189 -0.010321 -0.012424
# 2 -0.000053 0.012618 -0.003459 0.006065 -0.004908 -0.012675
# 3 0.001661 -0.003459 0.011533 0.002425 -0.005323 -0.002237
# 4 0.008189 0.006065 0.002425 0.031143 -0.016986 -0.020672
# 5 -0.010321 -0.004908 -0.005323 -0.016986 0.043443 0.021061
# 6 -0.012424 -0.012675 -0.002237 -0.020672 0.021061 0.047969
#
#
# Mechanical properties :
#
#
# Convention : Reuss Voigt Hill
#
# Bulk Modulus (GPa) = 29.51361 68.47195 48.99278
# Shear Modulus (GPa) = 28.54927 44.84019 36.69473
#
# Velocity S-wave (km/s) = 3.46097 4.33745 3.92376
# Velocity P-wave (km/s) = 5.32485 7.33575 6.40965
#
# Compressibility (1/GPa) = 0.03388267
#
# Stress axis : x y z
#
# Youngs Moduli (GPa) = 74.43621 79.25339 86.71143
#
# Poissons Ratio (x) = 0.00423 -0.14405
# Poissons Ratio (y) = 0.00397 0.29993
# Poissons Ratio (z) = -0.12366 0.27413
#
# Static dielectric constant tensor:
#      x y z
#    x 4.561160 0.020210 -0.011640 
#    y 0.020210 4.766130 -0.032080 
#    z -0.011640 -0.032080 4.691860 
# 
# 
# High freq. dielectric constant tensor:
#      x y z
#    x 1.942230 0.005950 -0.001960 
#    y 0.005950 1.967530 0.004400 
#    z -0.001960 0.004400 1.970250 
# 
# From -- ./inp_files/28506.got.cif
#   From: 2010.06.25/outbox.cif.g09.slc.cpg/sg2_15_cif.got.tgz:28506.got - 2010.06.27 13:26:56.
