data_PCOD8024072
_publ_section_title
;
Structure prediction by ZEFSAII (Michael W. Deem and Ramdas Pophale) SiO2 
 PCOD8024072
Probable space group: P -1
;
_chemical_formula_sum "Si O2"
_cell_formula_units_Z 16
_cell_length_a 9.524095
_cell_length_b 19.059527
_cell_length_c 11.339210
_cell_angle_alpha 129.552311
_cell_angle_beta 121.228904
_cell_angle_gamma 30.625536
_cell_volume 806.212001
_symmetry_space_group_name_H-M "P -1"
_symmetry_group_IT_number 2
_symmetry_cell_setting 'triclinic'
loop_
_space_group_symop_operation_xyz
x,y,z
-x,-y,-z
loop_
_atom_site_type_symbol
_atom_site_label
_atom_site_fract_x
_atom_site_fract_y
_atom_site_fract_z
Si Si1 0.248788 0.274163 0.399451
Si Si2 0.341983 0.430010 0.602395
Si Si3 0.293417 0.914349 0.059302
Si Si4 0.715852 0.575612 0.951298
Si Si5 0.757762 0.448773 0.062276
Si Si6 0.721973 0.897841 0.590190
Si Si7 0.299617 0.592277 0.401366
Si Si8 0.354070 0.155395 0.063195
O O1 0.427360 0.286781 0.505701
O O2 0.352054 0.148522 0.397324
O O3 0.291844 0.234962 0.240201
O O4 0.922389 0.439282 0.460729
O O5 0.232446 0.509320 0.764117
O O6 0.599013 0.375070 0.610391
O O7 0.263965 0.013012 0.239630
O O8 0.472012 0.755554 0.023944
O O9 0.435218 0.881077 0.963666
O O10 0.000000 0.000000 0.000000
O O11 0.707503 0.501791 0.767921
O O12 0.682832 0.552587 0.041296
O O13 0.000000 0.500000 0.000000
O O14 0.064533 0.266637 0.984490
O O15 0.500000 0.500000 0.000000
O O16 0.003667 0.752262 0.490325
O O17 0.500000 0.000000 0.500000
O O18 0.500000 0.500000 0.500000
O O19 0.500000 0.000000 0.000000
#
# Coordination Sequence:
#
# PCOD8024072 Si02
#       8
#     2   2   2   2   2   2   2   2
#     4  10  23  43  70  96 132 174 223 277 344 399
#     4  10  23  42  70 100 126 173 229 282 329 403
#     4  12  28  45  69 102 142 186 231 279 350 414
#     4  12  26  45  71 101 138 183 233 289 339 406
#     4  11  24  43  70  99 132 174 232 287 338 397
#     4  12  27  45  66 102 146 180 218 285 353 406
#     4  12  25  43  72 100 137 178 236 277 334 414
#     4  11  24  44  70  95 135 179 229 278 342 412
#
# _framework density 19.845897000000001
#
# number of rings (size 3 to 8) (size 9 to 14) (size 15 to 20)
#    0.000    0.750    5.000    1.500    8.750    0.000 
#    0.000    0.625    0.000    0.000    0.000    0.000 
#    0.000    0.000    0.000    0.000    0.000    0.000 
#
# Total GULP energy -198308.811660 kJ/mol
# GULP energy per Si atom -12394.300729 kJ/mol
# Density = 1.980073 g / cm^3
# Si number density = 19.845897 Si / 1000 Ang^3
#
#
#
# Elastic Constant Matrix: (Units=GPa)
#
#
# Indices 1 2 3 4 5 6 
#
# 1 163.5990 79.2497 50.0504 0.1747 9.4331 8.3242
# 2 79.2497 154.8395 36.7209 3.8934 10.6396 7.5548
# 3 50.0504 36.7209 86.9942 4.3101 20.8692 3.3724
# 4 0.1747 3.8934 4.3101 36.1760 1.1208 1.6509
# 5 9.4331 10.6396 20.8692 1.1208 43.4794 -1.8344
# 6 8.3242 7.5548 3.3724 1.6509 -1.8344 37.1925
#
#
#
# Elastic Compliance Matrix: (Units=1/GPa)
#
#
# Indices 1 2 3 4 5 6 
#
# 1 0.009123 -0.003787 -0.003830 0.000840 0.000725 -0.000927
# 2 -0.003787 0.008813 -0.001299 -0.000715 -0.000728 -0.000829
# 3 -0.003830 -0.001299 0.015895 -0.001509 -0.006466 -0.000572
# 4 0.000840 -0.000715 -0.001509 0.027949 -0.000052 -0.001149
# 5 0.000725 -0.000728 -0.006466 -0.000052 0.026204 0.001867
# 6 -0.000927 -0.000829 -0.000572 -0.001149 0.001867 0.027458
#
#
# Mechanical properties :
#
#
# Convention : Reuss Voigt Hill
#
# Bulk Modulus (GPa) = 62.50310 81.94162 72.22236
# Shear Modulus (GPa) = 36.07330 39.33036 37.70183
#
# Velocity S-wave (km/s) = 4.26804 4.45656 4.36332
# Velocity P-wave (km/s) = 7.47334 8.23771 7.86481
#
# Compressibility (1/GPa) = 0.01599921
#
# Stress axis : x y z
#
# Youngs Moduli (GPa) = 109.61278 113.46893 62.91336
#
# Poissons Ratio (x) = 0.42968 0.24095
# Poissons Ratio (y) = 0.41508 0.08174
# Poissons Ratio (z) = 0.41981 0.14742
#
# Static dielectric constant tensor:
#      x y z
#    x 3.648020 0.350850 -0.240560 
#    y 0.350850 3.416800 0.680040 
#    z -0.240560 0.680040 3.370470 
# 
# 
# High freq. dielectric constant tensor:
#      x y z
#    x 1.793580 0.003600 -0.003160 
#    y 0.003600 1.779150 -0.001210 
#    z -0.003160 -0.001210 1.782960 
# 
# From -- ./inp_files/280266.got.cif
#   From: 2010.06.25/outbox.cif.g09.slc.cpg/sg2_141_cif.got.tgz:280266.got - 2010.06.27 13:26:56.
