data_PCOD8024100
_publ_section_title
;
Structure prediction by ZEFSAII (Michael W. Deem and Ramdas Pophale) SiO2 
 PCOD8024100
Probable space group: P -1
;
_chemical_formula_sum "Si O2"
_cell_formula_units_Z 14
_cell_length_a 12.106552
_cell_length_b 11.427112
_cell_length_c 13.968104
_cell_angle_alpha 148.111648
_cell_angle_beta 126.801745
_cell_angle_gamma 66.548792
_cell_volume 788.906515
_symmetry_space_group_name_H-M "P -1"
_symmetry_group_IT_number 2
_symmetry_cell_setting 'triclinic'
loop_
_space_group_symop_operation_xyz
x,y,z
-x,-y,-z
loop_
_atom_site_type_symbol
_atom_site_label
_atom_site_fract_x
_atom_site_fract_y
_atom_site_fract_z
Si Si1 0.991079 0.502626 0.200168
Si Si2 0.094349 0.158416 0.897971
Si Si3 0.617242 0.519210 0.751820
Si Si4 0.777978 0.707905 0.137608
Si Si5 0.721827 0.166441 0.463737
Si Si6 0.920947 0.357425 0.447633
Si Si7 0.607676 0.239852 0.248992
O O1 0.839288 0.562172 0.146053
O O2 0.113707 0.695856 0.346729
O O3 0.022565 0.495917 0.325051
O O4 0.984696 0.264067 0.975522
O O5 0.095218 0.190484 0.804566
O O6 0.045510 0.888838 0.704624
O O7 0.256598 0.291231 0.107797
O O8 0.627330 0.259779 0.556953
O O9 0.467844 0.554185 0.661308
O O10 0.639669 0.553951 0.902148
O O11 0.719289 0.902492 0.295494
O O12 0.657532 0.213447 0.362714
O O13 0.751030 0.310362 0.309115
O O14 0.000000 0.500000 0.500000
O O15 0.500000 0.000000 0.000000
#
# Coordination Sequence:
#
# PCOD8024100 Si02
#       7
#     2   2   2   2   2   2   2
#     4  10  19  31  51  76 108 136 168 213 265 302
#     4   9  18  31  50  78 103 130 168 215 255 300
#     4   9  18  28  49  78 101 131 163 212 261 301
#     4  10  17  29  50  82 107 129 165 221 265 301
#     4  10  18  26  48  78 106 129 164 210 263 301
#     4  11  23  36  52  75 106 143 173 207 252 310
#     4  11  16  35  51  73 106 135 171 216 253 297
#
# _framework density 17.746082999999999
#
# number of rings (size 3 to 8) (size 9 to 14) (size 15 to 20)
#    0.857    1.143    5.714    1.286    0.000    0.571 
#    0.000    0.000    0.000    0.857    0.000    2.000 
#    0.000    0.000    0.000    0.000    0.000    0.000 
#
# Total GULP energy -173437.314479 kJ/mol
# GULP energy per Si atom -12388.379606 kJ/mol
# Density = 1.770569 g / cm^3
# Si number density = 17.746083 Si / 1000 Ang^3
#
#
#
# Elastic Constant Matrix: (Units=GPa)
#
#
# Indices 1 2 3 4 5 6 
#
# 1 60.0421 35.3162 28.4702 12.0189 -10.3407 -9.4442
# 2 35.3162 77.3450 18.4748 -2.6821 -2.8100 -22.1942
# 3 28.4702 18.4748 60.8995 12.7356 -18.5378 -8.4604
# 4 12.0189 -2.6821 12.7356 18.9300 -14.7499 -0.2471
# 5 -10.3407 -2.8100 -18.5378 -14.7499 28.8345 8.2775
# 6 -9.4442 -22.1942 -8.4604 -0.2471 8.2775 29.9299
#
#
#
# Elastic Compliance Matrix: (Units=1/GPa)
#
#
# Indices 1 2 3 4 5 6 
#
# 1 0.031653 -0.013778 -0.008093 -0.020983 -0.005600 -0.001142
# 2 -0.013778 0.023893 -0.001988 0.012720 -0.001185 0.013240
# 3 -0.008093 -0.001988 0.024885 -0.002983 0.011428 -0.000179
# 4 -0.020983 0.012720 -0.002983 0.109637 0.051114 -0.011262
# 5 -0.005600 -0.001185 0.011428 0.051114 0.071433 -0.018749
# 6 -0.001142 0.013240 -0.000179 -0.011262 -0.018749 0.047911
#
#
# Mechanical properties :
#
#
# Convention : Reuss Voigt Hill
#
# Bulk Modulus (GPa) = 30.57082 40.31209 35.44146
# Shear Modulus (GPa) = 13.58569 23.27392 18.42980
#
# Velocity S-wave (km/s) = 2.76988 3.62539 3.22612
# Velocity P-wave (km/s) = 5.24346 6.34744 5.82167
#
# Compressibility (1/GPa) = 0.03271093
#
# Stress axis : x y z
#
# Youngs Moduli (GPa) = 31.59269 41.85365 40.18535
#
# Poissons Ratio (x) = 0.57668 0.32522
# Poissons Ratio (y) = 0.43530 0.07990
# Poissons Ratio (z) = 0.25568 0.08322
#
# Static dielectric constant tensor:
#      x y z
#    x 3.051260 -0.366430 -0.303410 
#    y -0.366430 3.288370 -0.388520 
#    z -0.303410 -0.388520 3.948920 
# 
# 
# High freq. dielectric constant tensor:
#      x y z
#    x 1.638140 -0.037770 -0.037120 
#    y -0.037770 1.676210 -0.012550 
#    z -0.037120 -0.012550 1.684490 
# 
# From -- ./inp_files/407282.got.cif
#   From: 2010.06.25/outbox.cif.g09.slc.cpg/sg2_204_cif.got.tgz:407282.got - 2010.06.27 13:26:56.
