data_PCOD8024310
_publ_section_title
;
Structure prediction by ZEFSAII (Michael W. Deem and Ramdas Pophale) SiO2 
 PCOD8024310
Probable space group: P -1
;
_chemical_formula_sum "Si O2"
_cell_formula_units_Z 12
_cell_length_a 6.746060
_cell_length_b 8.801377
_cell_length_c 12.347817
_cell_angle_alpha 95.634060
_cell_angle_beta 70.628985
_cell_angle_gamma 129.829730
_cell_volume 524.500042
_symmetry_space_group_name_H-M "P -1"
_symmetry_group_IT_number 2
_symmetry_cell_setting 'triclinic'
loop_
_space_group_symop_operation_xyz
x,y,z
-x,-y,-z
loop_
_atom_site_type_symbol
_atom_site_label
_atom_site_fract_x
_atom_site_fract_y
_atom_site_fract_z
Si Si1 0.840090 0.024461 0.118386
Si Si2 0.751788 0.768568 0.534887
Si Si3 0.152447 0.510116 0.578379
Si Si4 0.263600 0.601221 0.170901
Si Si5 0.284032 0.279507 0.213760
Si Si6 0.325299 0.784036 0.959090
O O1 0.871444 0.217335 0.088426
O O2 0.984337 0.080663 0.213115
O O3 0.525478 0.825488 0.175604
O O4 0.000000 0.000000 0.000000
O O5 0.469788 0.718185 0.542351
O O6 0.830904 0.665427 0.435771
O O7 0.718375 0.688656 0.656593
O O8 0.000000 0.000000 0.500000
O O9 0.000000 0.500000 0.500000
O O10 0.993536 0.490693 0.711466
O O11 0.361121 0.471338 0.149760
O O12 0.169573 0.611117 0.067791
O O13 0.495387 0.246022 0.146395
O O14 0.500000 0.000000 0.000000
#
# Coordination Sequence:
#
# PCOD8024310 Si02
#       6
#     2   2   2   2   2   2
#     4  11  25  44  70 104 145 184 231 286 355 419
#     4  11  29  46  75 102 141 188 237 299 348 426
#     4  11  26  52  68 105 140 185 242 290 363 406
#     4  11  25  45  72 100 144 185 231 299 341 424
#     4  12  25  45  69 107 136 185 245 277 360 421
#     4  10  23  43  65 105 139 182 229 286 351 412
#
# _framework density 22.878931999999999
#
# number of rings (size 3 to 8) (size 9 to 14) (size 15 to 20)
#    0.000    1.000    5.000    0.500    9.333    2.667 
#    0.000    0.000    0.000    0.000    0.000    0.000 
#    0.000    0.000    0.000    0.000    0.000    0.000 
#
# Total GULP energy -148809.428482 kJ/mol
# GULP energy per Si atom -12400.785707 kJ/mol
# Density = 2.282686 g / cm^3
# Si number density = 22.878932 Si / 1000 Ang^3
#
#
#
# Elastic Constant Matrix: (Units=GPa)
#
#
# Indices 1 2 3 4 5 6 
#
# 1 160.4883 40.5673 45.4062 -4.7442 -5.0890 -1.6612
# 2 40.5673 90.0909 17.3583 -13.2764 -13.7341 -6.9342
# 3 45.4062 17.3583 83.1009 2.1955 -10.0723 -8.5284
# 4 -4.7442 -13.2764 2.1955 36.2869 -1.0508 -3.3392
# 5 -5.0890 -13.7341 -10.0723 -1.0508 45.1892 8.4405
# 6 -1.6612 -6.9342 -8.5284 -3.3392 8.4405 51.7016
#
#
#
# Elastic Compliance Matrix: (Units=1/GPa)
#
#
# Indices 1 2 3 4 5 6 
#
# 1 0.008087 -0.003033 -0.003949 0.000103 -0.000764 -0.000667
# 2 -0.003033 0.014018 -0.000826 0.005014 0.003593 0.001384
# 3 -0.003949 -0.000826 0.014856 -0.001491 0.002254 0.001749
# 4 0.000103 0.005014 -0.001491 0.029733 0.001501 0.002105
# 5 -0.000764 0.003593 0.002254 0.001501 0.024239 -0.003031
# 6 -0.000667 0.001384 0.001749 0.002105 -0.003031 0.020425
#
#
# Mechanical properties :
#
#
# Convention : Reuss Voigt Hill
#
# Bulk Modulus (GPa) = 46.84967 60.03818 53.44392
# Shear Modulus (GPa) = 37.28890 41.99209 39.64049
#
# Velocity S-wave (km/s) = 4.04150 4.28881 4.16699
# Velocity P-wave (km/s) = 6.50384 7.12908 6.82363
#
# Compressibility (1/GPa) = 0.02134487
#
# Stress axis : x y z
#
# Youngs Moduli (GPa) = 123.65744 71.33727 67.31394
#
# Poissons Ratio (x) = 0.21639 0.26581
# Poissons Ratio (y) = 0.37509 0.05558
# Poissons Ratio (z) = 0.48831 0.05890
#
# Static dielectric constant tensor:
#      x y z
#    x 4.730340 -0.059340 0.223010 
#    y -0.059340 4.335000 0.111990 
#    z 0.223010 0.111990 4.211550 
# 
# 
# High freq. dielectric constant tensor:
#      x y z
#    x 1.924230 0.000920 0.002450 
#    y 0.000920 1.912860 0.014740 
#    z 0.002450 0.014740 1.894960 
# 
# From -- ./inp_files/480514.got.cif
#   From: 2010.06.25/outbox.cif.g09.slc.cpg/sg2_241_cif.got.tgz:480514.got - 2010.06.27 13:26:56.
