data_PCOD8024809
_publ_section_title
;
Structure prediction by ZEFSAII (Michael W. Deem and Ramdas Pophale) SiO2 
 PCOD8024809
Probable space group: P -1
;
_chemical_formula_sum "Si O2"
_cell_formula_units_Z 16
_cell_length_a 13.670786
_cell_length_b 10.556280
_cell_length_c 9.188484
_cell_angle_alpha 84.006785
_cell_angle_beta 76.253559
_cell_angle_gamma 33.040185
_cell_volume 690.931218
_symmetry_space_group_name_H-M "P -1"
_symmetry_group_IT_number 2
_symmetry_cell_setting 'triclinic'
loop_
_space_group_symop_operation_xyz
x,y,z
-x,-y,-z
loop_
_atom_site_type_symbol
_atom_site_label
_atom_site_fract_x
_atom_site_fract_y
_atom_site_fract_z
Si Si1 0.522747 0.839775 0.947742
Si Si2 0.791877 0.938769 0.129709
Si Si3 0.307579 0.317633 0.407538
Si Si4 0.816673 0.388271 0.086886
Si Si5 0.870160 0.284700 0.402449
Si Si6 0.409846 0.595275 0.862353
Si Si7 0.269005 0.820937 0.415330
Si Si8 0.307564 0.045685 0.542645
O O1 0.638867 0.712698 0.773309
O O2 0.309698 0.019905 0.976097
O O3 0.628721 0.648467 0.056386
O O4 0.500000 0.000000 0.000000
O O5 0.648982 0.202957 0.193889
O O6 0.806358 0.833686 0.278973
O O7 0.998687 0.757985 0.036937
O O8 0.152658 0.587936 0.473939
O O9 0.474145 0.167811 0.479009
O O10 0.236083 0.247122 0.455926
O O11 0.822680 0.407119 0.254605
O O12 0.787410 0.269909 0.080690
O O13 0.742311 0.292919 0.463373
O O14 0.085873 0.012396 0.355412
O O15 0.550725 0.382627 0.724295
O O16 0.500000 0.500000 0.000000
O O17 0.277276 0.945638 0.481802
#
# Coordination Sequence:
#
# PCOD8024809 Si02
#       8
#     2   2   2   2   2   2   2   2
#     4  11  27  47  73 103 147 187 235 294 353 422
#     4  11  25  47  70 108 139 187 238 292 356 427
#     4  10  24  46  71 101 138 186 238 287 352 424
#     4  12  27  45  74 105 144 186 235 293 358 425
#     4  11  26  44  71 109 141 184 241 294 351 428
#     4  12  24  43  73 100 140 187 230 288 362 421
#     4  11  25  45  72 104 145 183 238 298 356 417
#     4  10  23  43  73  98 137 183 239 289 355 415
#
# _framework density 23.157154999999999
#
# number of rings (size 3 to 8) (size 9 to 14) (size 15 to 20)
#    0.000    1.000    1.250    4.125    8.750    3.500 
#    0.000    0.000    0.000    0.000    0.000    0.000 
#    0.000    0.000    0.000    0.000    0.000    0.000 
#
# Total GULP energy -198393.104087 kJ/mol
# GULP energy per Si atom -12399.569005 kJ/mol
# Density = 2.310445 g / cm^3
# Si number density = 23.157155 Si / 1000 Ang^3
#
#
#
# Elastic Constant Matrix: (Units=GPa)
#
#
# Indices 1 2 3 4 5 6 
#
# 1 144.5283 29.9183 33.9942 13.0347 -4.2850 7.9659
# 2 29.9183 33.7403 18.8078 0.6827 -2.9803 -4.7333
# 3 33.9942 18.8078 88.9966 -6.4057 -9.7582 -14.3845
# 4 13.0347 0.6827 -6.4057 38.9682 0.5739 -4.5619
# 5 -4.2850 -2.9803 -9.7582 0.5739 39.8625 1.6769
# 6 7.9659 -4.7333 -14.3845 -4.5619 1.6769 43.1898
#
#
#
# Elastic Compliance Matrix: (Units=1/GPa)
#
#
# Indices 1 2 3 4 5 6 
#
# 1 0.009793 -0.007431 -0.003135 -0.004140 -0.000038 -0.004101
# 2 -0.007431 0.039436 -0.004603 0.001528 0.000821 0.004289
# 3 -0.003135 -0.004603 0.014866 0.004161 0.002673 0.005361
# 4 -0.004140 0.001528 0.004161 0.028325 0.000057 0.005307
# 5 -0.000038 0.000821 0.002673 0.000057 0.025797 -0.000009
# 6 -0.004101 0.004289 0.005361 0.005307 -0.000009 0.026726
#
#
# Mechanical properties :
#
#
# Convention : Reuss Voigt Hill
#
# Bulk Modulus (GPa) = 29.62310 48.07842 38.85076
# Shear Modulus (GPa) = 26.80495 36.70709 31.75602
#
# Velocity S-wave (km/s) = 3.40593 3.98569 3.70716
# Velocity P-wave (km/s) = 5.31856 6.47980 5.92769
#
# Compressibility (1/GPa) = 0.03375744
#
# Stress axis : x y z
#
# Youngs Moduli (GPa) = 102.11339 25.35746 67.26925
#
# Poissons Ratio (x) = 0.18843 0.21091
# Poissons Ratio (y) = 0.75879 0.30961
# Poissons Ratio (z) = 0.32015 0.11671
#
# Static dielectric constant tensor:
#      x y z
#    x 4.411530 -0.045770 -0.065280 
#    y -0.045770 3.647710 -0.188710 
#    z -0.065280 -0.188710 4.047790 
# 
# 
# High freq. dielectric constant tensor:
#      x y z
#    x 1.932640 -0.000940 -0.006670 
#    y -0.000940 1.911260 -0.009500 
#    z -0.006670 -0.009500 1.916270 
# 
# From -- ./inp_files/307301.got.cif
#   From: 2010.06.25/outbox.cif.g09.slc.cpg/sg2_154_cif.got.tgz:307301.got - 2010.06.27 13:26:56.
