data_PCOD8024630
_publ_section_title
;
Structure prediction by ZEFSAII (Michael W. Deem and Ramdas Pophale) SiO2 
 PCOD8024630
Probable space group: P -1
;
_chemical_formula_sum "Si O2"
_cell_formula_units_Z 16
_cell_length_a 27.787872
_cell_length_b 18.362643
_cell_length_c 15.133174
_cell_angle_alpha 19.891289
_cell_angle_beta 160.564011
_cell_angle_gamma 161.098089
_cell_volume 744.612011
_symmetry_space_group_name_H-M "P -1"
_symmetry_group_IT_number 2
_symmetry_cell_setting 'triclinic'
loop_
_space_group_symop_operation_xyz
x,y,z
-x,-y,-z
loop_
_atom_site_type_symbol
_atom_site_label
_atom_site_fract_x
_atom_site_fract_y
_atom_site_fract_z
Si Si1 0.397324 0.101585 0.655504
Si Si2 0.671741 0.616438 0.463196
Si Si3 0.026603 0.401900 0.065851
Si Si4 0.335478 0.010481 0.094302
Si Si5 0.564010 0.323410 0.283949
Si Si6 0.906586 0.401022 0.358595
Si Si7 0.178760 0.194716 0.305149
Si Si8 0.927690 0.642721 0.472951
O O1 0.519066 0.335835 0.537358
O O2 0.321092 0.194146 0.492959
O O3 0.251600 0.887644 0.584363
O O4 0.500000 0.000000 0.000000
O O5 0.768063 0.773913 0.536647
O O6 0.801247 0.601837 0.636105
O O7 0.594269 0.769422 0.107865
O O8 0.034260 0.578371 0.798395
O O9 0.000000 0.500000 0.000000
O O10 0.867178 0.119622 0.100847
O O11 0.407501 0.107736 0.204960
O O12 0.388912 0.800219 0.410888
O O13 0.728313 0.482682 0.325629
O O14 0.500000 0.500000 0.000000
O O15 0.000000 0.500000 0.500000
O O16 0.043765 0.420830 0.503855
O O17 0.832394 0.569289 0.009920
O O18 0.998117 0.938068 0.270713
#
# Coordination Sequence:
#
# PCOD8024630 Si02
#       8
#     2   2   2   2   2   2   2   2
#     4  11  24  46  67 103 141 175 230 292 343 409
#     4  12  23  41  72 100 134 182 224 288 350 397
#     4  11  23  43  66 101 139 174 227 281 340 411
#     4  10  25  41  64  98 131 173 235 268 335 410
#     4  10  24  45  65  93 141 179 221 280 335 413
#     4  11  25  46  71  99 137 181 231 284 345 421
#     4  11  23  43  72  98 135 176 225 288 348 403
#     4  10  23  43  69  98 132 178 225 278 346 405
#
# _framework density 21.4877
#
# number of rings (size 3 to 8) (size 9 to 14) (size 15 to 20)
#    0.000    1.250    2.500    2.250    5.250    5.000 
#    2.250    0.000    0.000    0.000    0.000    0.000 
#    0.000    0.000    0.000    0.000    0.000    0.000 
#
# Total GULP energy -198389.928856 kJ/mol
# GULP energy per Si atom -12399.370554 kJ/mol
# Density = 2.143879 g / cm^3
# Si number density = 21.487700 Si / 1000 Ang^3
#
#
#
# Elastic Constant Matrix: (Units=GPa)
#
#
# Indices 1 2 3 4 5 6 
#
# 1 130.2673 69.0686 61.3969 -2.2404 1.0336 -8.1420
# 2 69.0686 142.1120 56.5269 -4.5334 8.9392 11.1511
# 3 61.3969 56.5269 134.8263 -16.0707 2.1080 11.2227
# 4 -2.2404 -4.5334 -16.0707 35.9898 0.6873 -5.5030
# 5 1.0336 8.9392 2.1080 0.6873 38.9495 -1.3857
# 6 -8.1420 11.1511 11.2227 -5.5030 -1.3857 39.0895
#
#
#
# Elastic Compliance Matrix: (Units=1/GPa)
#
#
# Indices 1 2 3 4 5 6 
#
# 1 0.012586 -0.004952 -0.004218 -0.000959 0.001231 0.005154
# 2 -0.004952 0.010620 -0.001897 -0.000331 -0.002327 -0.003645
# 3 -0.004218 -0.001897 0.010843 0.003900 -0.000212 -0.002909
# 4 -0.000959 -0.000331 0.003900 0.029889 -0.000532 0.002964
# 5 0.001231 -0.002327 -0.000212 -0.000532 0.026262 0.001837
# 6 0.005154 -0.003645 -0.002909 0.002964 0.001837 0.029013
#
#
# Mechanical properties :
#
#
# Convention : Reuss Voigt Hill
#
# Bulk Modulus (GPa) = 83.92330 86.79892 85.36111
# Shear Modulus (GPa) = 34.40743 37.48666 35.94704
#
# Velocity S-wave (km/s) = 4.00592 4.18133 4.09456
# Velocity P-wave (km/s) = 7.78060 7.98710 7.88452
#
# Compressibility (1/GPa) = 0.01191564
#
# Stress axis : x y z
#
# Youngs Moduli (GPa) = 79.45583 94.16451 92.22281
#
# Poissons Ratio (x) = 0.46626 0.38898
# Poissons Ratio (y) = 0.39343 0.17496
# Poissons Ratio (z) = 0.33513 0.17865
#
# Static dielectric constant tensor:
#      x y z
#    x 3.748990 -0.012260 0.086890 
#    y -0.012260 4.005570 -0.157490 
#    z 0.086890 -0.157490 4.163660 
# 
# 
# High freq. dielectric constant tensor:
#      x y z
#    x 1.831310 -0.002040 0.002660 
#    y -0.002040 1.862280 -0.009780 
#    z 0.002660 -0.009780 1.852320 
# 
# From -- ./inp_files/519057.got.cif
#   From: 2010.06.25/outbox.cif.g09.slc.cpg/sg2_260_cif.got.tgz:519057.got - 2010.06.27 13:26:56.
