data_PCOD8024033
_publ_section_title
;
Structure prediction by ZEFSAII (Michael W. Deem and Ramdas Pophale) SiO2 
 PCOD8024033
Probable space group: P -1
;
_chemical_formula_sum "Si O2"
_cell_formula_units_Z 14
_cell_length_a 8.326025
_cell_length_b 13.673698
_cell_length_c 15.740270
_cell_angle_alpha 26.628524
_cell_angle_beta 62.076723
_cell_angle_gamma 54.347578
_cell_volume 645.753579
_symmetry_space_group_name_H-M "P -1"
_symmetry_group_IT_number 2
_symmetry_cell_setting 'triclinic'
loop_
_space_group_symop_operation_xyz
x,y,z
-x,-y,-z
loop_
_atom_site_type_symbol
_atom_site_label
_atom_site_fract_x
_atom_site_fract_y
_atom_site_fract_z
Si Si1 0.930635 0.526072 0.866866
Si Si2 0.649042 0.616840 0.393827
Si Si3 0.391732 0.958654 0.478162
Si Si4 0.398612 0.002908 0.767923
Si Si5 0.710156 0.483019 0.113453
Si Si6 0.938188 0.221678 0.749481
Si Si7 0.934169 0.743626 0.126304
O O1 0.153512 0.467505 0.888230
O O2 0.933378 0.400915 0.873437
O O3 0.813146 0.811698 0.667240
O O4 0.822199 0.421200 0.042731
O O5 0.500000 0.500000 0.500000
O O6 0.821135 0.454887 0.541917
O O7 0.756311 0.656450 0.252124
O O8 0.530353 0.872001 0.270710
O O9 0.339133 0.734212 0.677276
O O10 0.500000 0.000000 0.500000
O O11 0.544332 0.908557 0.402160
O O12 0.504681 0.717645 0.974057
O O13 0.162989 0.082456 0.768238
O O14 0.929153 0.304820 0.785138
O O15 0.838546 0.031446 0.910669
#
# Coordination Sequence:
#
# PCOD8024033 Si02
#       7
#     2   2   2   2   2   2   2
#     4  10  24  43  66  95 130 173 216 259 325 374
#     4  11  26  43  66  99 130 165 215 265 327 380
#     4  11  26  39  69  97 127 170 216 264 326 380
#     4  10  24  43  65  96 129 171 212 264 319 380
#     4  10  24  45  64  94 136 166 217 268 313 386
#     4  10  24  44  67  93 134 165 217 265 316 387
#     4  10  23  42  69  94 123 177 210 262 325 377
#
# _framework density 21.680095999999999
#
# number of rings (size 3 to 8) (size 9 to 14) (size 15 to 20)
#    0.000    1.714    0.000    2.143   12.000    4.000 
#    0.000    0.000    0.000    0.000    0.000    0.000 
#    0.000    0.000    0.000    0.000    0.000    0.000 
#
# Total GULP energy -173639.002252 kJ/mol
# GULP energy per Si atom -12402.785875 kJ/mol
# Density = 2.163075 g / cm^3
# Si number density = 21.680096 Si / 1000 Ang^3
#
#
#
# Elastic Constant Matrix: (Units=GPa)
#
#
# Indices 1 2 3 4 5 6 
#
# 1 77.8576 41.3920 21.4108 4.1866 -6.1088 -5.1716
# 2 41.3920 141.2058 42.9676 11.7077 1.6349 15.0990
# 3 21.4108 42.9676 126.5376 14.9725 -12.7077 -3.0237
# 4 4.1866 11.7077 14.9725 25.6375 1.3991 -0.3834
# 5 -6.1088 1.6349 -12.7077 1.3991 33.1511 -3.2413
# 6 -5.1716 15.0990 -3.0237 -0.3834 -3.2413 21.4615
#
#
#
# Elastic Compliance Matrix: (Units=1/GPa)
#
#
# Indices 1 2 3 4 5 6 
#
# 1 0.016956 -0.005889 -0.000233 -0.000040 0.004191 0.008828
# 2 -0.005889 0.011084 -0.003125 -0.002224 -0.003739 -0.010262
# 3 -0.000233 -0.003125 0.010112 -0.004628 0.004591 0.004178
# 4 -0.000040 -0.002224 -0.004628 0.042932 -0.003370 0.001161
# 5 0.004191 -0.003739 0.004591 -0.003370 0.033938 0.009353
# 6 0.008828 -0.010262 0.004178 0.001161 0.009353 0.057964
#
#
# Mechanical properties :
#
#
# Convention : Reuss Voigt Hill
#
# Bulk Modulus (GPa) = 50.86718 61.90464 56.38591
# Shear Modulus (GPa) = 25.24853 32.03872 28.64363
#
# Velocity S-wave (km/s) = 3.41632 3.84838 3.63877
# Velocity P-wave (km/s) = 6.25102 6.95431 6.61202
#
# Compressibility (1/GPa) = 0.01965904
#
# Stress axis : x y z
#
# Youngs Moduli (GPa) = 58.97610 90.22125 98.89419
#
# Poissons Ratio (x) = 0.53128 0.02303
# Poissons Ratio (y) = 0.34729 0.30902
# Poissons Ratio (z) = 0.01373 0.28192
#
# Static dielectric constant tensor:
#      x y z
#    x 3.491040 0.105410 0.066490 
#    y 0.105410 3.971740 0.077440 
#    z 0.066490 0.077440 4.241380 
# 
# 
# High freq. dielectric constant tensor:
#      x y z
#    x 1.839840 0.001080 -0.008040 
#    y 0.001080 1.858940 0.006060 
#    z -0.008040 0.006060 1.871520 
# 
# From -- ./inp_files/499635.got.cif
#   From: 2010.06.25/outbox.cif.g09.slc.cpg/sg2_250_cif.got.tgz:499635.got - 2010.06.27 13:26:56.
