data_PCOD8024865
_publ_section_title
;
Structure prediction by ZEFSAII (Michael W. Deem and Ramdas Pophale) SiO2 
 PCOD8024865
Probable space group: P -1
;
_chemical_formula_sum "Si O2"
_cell_formula_units_Z 16
_cell_length_a 18.762807
_cell_length_b 6.649089
_cell_length_c 5.462312
_cell_angle_alpha 96.752189
_cell_angle_beta 84.418283
_cell_angle_gamma 96.594998
_cell_volume 669.821571
_symmetry_space_group_name_H-M "P -1"
_symmetry_group_IT_number 2
_symmetry_cell_setting 'triclinic'
loop_
_space_group_symop_operation_xyz
x,y,z
-x,-y,-z
loop_
_atom_site_type_symbol
_atom_site_label
_atom_site_fract_x
_atom_site_fract_y
_atom_site_fract_z
Si Si1 0.286534 0.510548 0.689361
Si Si2 0.085007 0.912576 0.712105
Si Si3 0.664010 0.791746 0.022146
Si Si4 0.840024 0.435481 0.575260
Si Si5 0.272770 0.809179 0.121501
Si Si6 0.914960 0.857091 0.758717
Si Si7 0.520971 0.896320 0.231200
Si Si8 0.396042 0.580766 0.288498
O O1 0.280624 0.328733 0.861289
O O2 0.225453 0.451704 0.500537
O O3 0.369262 0.543167 0.571351
O O4 0.268390 0.724737 0.835376
O O5 0.114863 0.689418 0.649346
O O6 0.000070 0.867745 0.753777
O O7 0.106772 0.042846 0.477068
O O8 0.113923 0.031460 0.970632
O O9 0.607583 0.902130 0.220542
O O10 0.610677 0.641831 0.856662
O O11 0.714408 0.946444 0.857769
O O12 0.803620 0.260117 0.741216
O O13 0.887284 0.615308 0.730162
O O14 0.341248 0.727624 0.215231
O O15 0.478109 0.671280 0.237166
O O16 0.500000 0.000000 0.500000
O O17 0.500000 0.000000 0.000000
#
# Coordination Sequence:
#
# PCOD8024865 Si02
#       8
#     2   2   2   2   2   2   2   2
#     4  10  25  42  65 100 138 185 236 293 350 440
#     4  10  24  45  76 109 150 188 243 302 365 416
#     4  11  24  44  72  95 142 180 235 297 359 415
#     4  11  25  44  72 103 147 193 247 290 367 432
#     4  10  23  44  63  98 140 181 234 290 352 426
#     4  10  24  46  73 113 146 190 244 303 355 433
#     4  12  26  44  77 101 134 181 236 295 360 431
#     4  10  23  44  66 100 131 179 234 288 360 422
#
# _framework density 23.886958
#
# number of rings (size 3 to 8) (size 9 to 14) (size 15 to 20)
#    0.000    1.500    1.250    1.500    7.000    6.500 
#    0.000    3.750    0.000    0.000    0.000    0.000 
#    0.000    0.000    0.000    0.000    0.000    0.000 
#
# Total GULP energy -198290.957861 kJ/mol
# GULP energy per Si atom -12393.184866 kJ/mol
# Density = 2.383259 g / cm^3
# Si number density = 23.886958 Si / 1000 Ang^3
#
#
#
# Elastic Constant Matrix: (Units=GPa)
#
#
# Indices 1 2 3 4 5 6 
#
# 1 48.5945 36.2238 23.0164 1.1505 -3.7998 13.9977
# 2 36.2238 163.8128 54.7031 4.6192 0.4028 27.6619
# 3 23.0164 54.7031 145.3761 13.5026 -1.3822 10.8162
# 4 1.1505 4.6192 13.5026 35.8254 -2.9896 -4.4328
# 5 -3.7998 0.4028 -1.3822 -2.9896 29.6908 1.7038
# 6 13.9977 27.6619 10.8162 -4.4328 1.7038 35.0920
#
#
#
# Elastic Compliance Matrix: (Units=1/GPa)
#
#
# Indices 1 2 3 4 5 6 
#
# 1 0.026967 -0.004046 -0.002175 -0.000085 0.003803 -0.007092
# 2 -0.004046 0.008501 -0.002159 -0.000754 -0.000552 -0.004490
# 3 -0.002175 -0.002159 0.008324 -0.002843 -0.000128 -0.000349
# 4 -0.000085 -0.000754 -0.002843 0.029939 0.002586 0.005161
# 5 0.003803 -0.000552 -0.000128 0.002586 0.034566 -0.002394
# 6 -0.007092 -0.004490 -0.000349 0.005161 -0.002394 0.035741
#
#
# Mechanical properties :
#
#
# Convention : Reuss Voigt Hill
#
# Bulk Modulus (GPa) = 36.99444 65.07445 51.03444
# Shear Modulus (GPa) = 29.44445 36.37764 32.91105
#
# Velocity S-wave (km/s) = 3.51473 3.90668 3.71588
# Velocity P-wave (km/s) = 5.65615 6.90299 6.31044
#
# Compressibility (1/GPa) = 0.02703109
#
# Stress axis : x y z
#
# Youngs Moduli (GPa) = 37.08199 117.63047 120.12753
#
# Poissons Ratio (x) = 0.47595 0.26132
# Poissons Ratio (y) = 0.15004 0.25941
# Poissons Ratio (z) = 0.08067 0.25402
#
# Static dielectric constant tensor:
#      x y z
#    x 4.304030 0.109020 -0.033270 
#    y 0.109020 4.202460 0.020980 
#    z -0.033270 0.020980 4.657600 
# 
# 
# High freq. dielectric constant tensor:
#      x y z
#    x 1.942730 0.005060 -0.011820 
#    y 0.005060 1.947640 0.003500 
#    z -0.011820 0.003500 1.953670 
# 
# From -- ./inp_files/13267.got.cif
#   From: 2010.06.25/outbox.cif.g09.slc.cpg/sg2_7_cif.got.tgz:13267.got - 2010.06.27 13:26:56.
