data_PCOD8024768
_publ_section_title
;
Structure prediction by ZEFSAII (Michael W. Deem and Ramdas Pophale) SiO2 
 PCOD8024768
Probable space group: P -1
;
_chemical_formula_sum "Si O2"
_cell_formula_units_Z 10
_cell_length_a 14.987243
_cell_length_b 9.110325
_cell_length_c 12.003446
_cell_angle_alpha 144.402911
_cell_angle_beta 149.845395
_cell_angle_gamma 27.698439
_cell_volume 374.664945
_symmetry_space_group_name_H-M "P -1"
_symmetry_group_IT_number 2
_symmetry_cell_setting 'triclinic'
loop_
_space_group_symop_operation_xyz
x,y,z
-x,-y,-z
loop_
_atom_site_type_symbol
_atom_site_label
_atom_site_fract_x
_atom_site_fract_y
_atom_site_fract_z
Si Si1 0.518403 0.761197 0.755863
Si Si2 0.260995 0.825189 0.971842
Si Si3 0.768246 0.532363 0.095033
Si Si4 0.191020 0.436910 0.248641
Si Si5 0.976567 0.837559 0.480847
O O1 0.601643 0.615135 0.630531
O O2 0.471022 0.109113 0.912861
O O3 0.732117 0.497054 0.903550
O O4 0.286632 0.837488 0.596538
O O5 0.173955 0.760801 0.949592
O O6 0.102866 0.910635 0.747377
O O7 0.500000 0.500000 0.000000
O O8 0.282555 0.100625 0.199024
O O9 0.980634 0.540324 0.341610
O O10 0.086876 0.734125 0.409166
O O11 0.000000 0.500000 0.000000
#
# Coordination Sequence:
#
# PCOD8024768 Si02
#       5
#     2   2   2   2   2
#     4   9  19  44  67  93 142 170 209 287 327 384
#     4  12  25  42  70 100 134 175 226 275 327 393
#     4   9  18  42  65  90 138 169 206 278 327 378
#     4  12  23  45  70 100 132 175 225 273 328 400
#     4  10  23  43  72  93 136 180 214 271 341 388
#
# _framework density 26.690514
#
# number of rings (size 3 to 8) (size 9 to 14) (size 15 to 20)
#    1.200    0.400    4.000    0.600    0.000    2.400 
#    0.000    5.000    0.000    0.000    0.000    0.000 
#    0.000    0.000    0.000    0.000    0.000    0.000 
#
# Total GULP energy -123885.995145 kJ/mol
# GULP energy per Si atom -12388.599515 kJ/mol
# Density = 2.662977 g / cm^3
# Si number density = 26.690514 Si / 1000 Ang^3
#
#
#
# Elastic Constant Matrix: (Units=GPa)
#
#
# Indices 1 2 3 4 5 6 
#
# 1 227.2145 74.2848 65.0696 31.7489 7.0231 3.2644
# 2 74.2848 111.6789 50.6421 40.3377 -8.9164 2.0338
# 3 65.0696 50.6421 99.4619 8.0790 -15.1774 -17.6113
# 4 31.7489 40.3377 8.0790 39.3418 -9.2727 -8.5207
# 5 7.0231 -8.9164 -15.1774 -9.2727 47.0288 -6.5270
# 6 3.2644 2.0338 -17.6113 -8.5207 -6.5270 39.9178
#
#
#
# Elastic Compliance Matrix: (Units=1/GPa)
#
#
# Indices 1 2 3 4 5 6 
#
# 1 0.007385 0.000312 -0.006231 -0.007528 -0.005351 -0.005851
# 2 0.000312 0.025138 -0.014526 -0.028066 -0.007576 -0.014945
# 3 -0.006231 -0.014526 0.025175 0.022060 0.013322 0.019244
# 4 -0.007528 -0.028066 0.022060 0.066851 0.020177 0.029347
# 5 -0.005351 -0.007576 0.013322 0.020177 0.031138 0.016099
# 6 -0.005851 -0.014945 0.019244 0.029347 0.016099 0.043678
#
#
# Mechanical properties :
#
#
# Convention : Reuss Voigt Hill
#
# Bulk Modulus (GPa) = 59.49705 90.92758 75.21231
# Shear Modulus (GPa) = 20.33687 41.81495 31.07591
#
# Velocity S-wave (km/s) = 2.76334 3.96240 3.41589
# Velocity P-wave (km/s) = 5.70274 7.42129 6.61803
#
# Compressibility (1/GPa) = 0.01680756
#
# Stress axis : x y z
#
# Youngs Moduli (GPa) = 135.40814 39.78014 39.72177
#
# Poissons Ratio (x) = -0.01241 0.24752
# Poissons Ratio (y) = -0.04223 0.57700
# Poissons Ratio (z) = 0.84377 0.57785
#
# Static dielectric constant tensor:
#      x y z
#    x 5.243430 0.488300 -0.317540 
#    y 0.488300 4.591280 1.539320 
#    z -0.317540 1.539320 1.860740 
# 
# 
# High freq. dielectric constant tensor:
#      x y z
#    x 2.095310 -0.000920 0.019430 
#    y -0.000920 2.084350 0.041320 
#    z 0.019430 0.041320 2.057510 
# 
# From -- ./inp_files/156556.got.cif
#   From: 2010.06.25/outbox.cif.g09.slc.cpg/sg2_79_cif.got.tgz:156556.got - 2010.06.27 13:26:56.
