data_PCOD8024759
_publ_section_title
;
Structure prediction by ZEFSAII (Michael W. Deem and Ramdas Pophale) SiO2 
 PCOD8024759
Probable space group: P -1
;
_chemical_formula_sum "Si O2"
_cell_formula_units_Z 16
_cell_length_a 11.048868
_cell_length_b 8.808338
_cell_length_c 20.138267
_cell_angle_alpha 63.502640
_cell_angle_beta 22.617672
_cell_angle_gamma 64.861997
_cell_volume 674.083703
_symmetry_space_group_name_H-M "P -1"
_symmetry_group_IT_number 2
_symmetry_cell_setting 'triclinic'
loop_
_space_group_symop_operation_xyz
x,y,z
-x,-y,-z
loop_
_atom_site_type_symbol
_atom_site_label
_atom_site_fract_x
_atom_site_fract_y
_atom_site_fract_z
Si Si1 0.677032 0.999326 0.262124
Si Si2 0.566614 0.362295 0.259903
Si Si3 0.623250 0.034741 0.037632
Si Si4 0.470794 0.358228 0.597296
Si Si5 0.061019 0.511674 0.074572
Si Si6 0.597480 0.261956 0.879293
Si Si7 0.299252 0.110492 0.317337
Si Si8 0.961065 0.452179 0.441143
O O1 0.491634 0.166790 0.352806
O O2 0.597322 0.014052 0.220673
O O3 0.518151 0.830183 0.404251
O O4 0.044744 0.013092 0.087292
O O5 0.257796 0.492683 0.394584
O O6 0.796033 0.408534 0.193510
O O7 0.740828 0.377930 0.098017
O O8 0.388600 0.127288 0.191449
O O9 0.464064 0.863493 0.126717
O O10 0.678835 0.160601 0.924458
O O11 0.500000 0.500000 0.500000
O O12 0.745335 0.374567 0.508462
O O13 0.119065 0.365517 0.805760
O O14 0.286771 0.380229 0.026073
O O15 0.890392 0.377029 0.693287
O O16 0.221787 0.299154 0.353367
O O17 0.000000 0.000000 0.500000
#
# Coordination Sequence:
#
# PCOD8024759 Si02
#       8
#     2   2   2   2   2   2   2   2
#     4  12  25  47  74 103 143 185 233 297 354 418
#     4  10  24  44  74 106 140 183 242 290 352 418
#     4  11  28  47  70 107 140 188 239 289 355 428
#     4  11  26  45  69 104 146 185 236 286 361 427
#     4  10  23  43  72 101 140 192 230 291 350 424
#     4  11  25  48  73 100 145 189 240 286 351 430
#     4  12  28  45  73 108 143 183 236 303 357 413
#     4  11  26  47  68 107 141 187 234 297 355 411
#
# _framework density 23.735924000000001
#
# number of rings (size 3 to 8) (size 9 to 14) (size 15 to 20)
#    0.000    1.000    2.500    1.875   10.500    1.500 
#    2.250    1.875    0.000    0.000    0.000    0.000 
#    0.000    0.000    0.000    0.000    0.000    0.000 
#
# Total GULP energy -198402.772727 kJ/mol
# GULP energy per Si atom -12400.173295 kJ/mol
# Density = 2.368190 g / cm^3
# Si number density = 23.735924 Si / 1000 Ang^3
#
#
#
# Elastic Constant Matrix: (Units=GPa)
#
#
# Indices 1 2 3 4 5 6 
#
# 1 84.5138 46.7014 50.5071 9.7851 -4.2017 -3.8805
# 2 46.7014 179.4441 60.5876 -14.1973 -0.6362 0.3471
# 3 50.5071 60.5876 116.8350 2.0374 -3.7964 5.1550
# 4 9.7851 -14.1973 2.0374 38.2169 -4.8879 -8.6462
# 5 -4.2017 -0.6362 -3.7964 -4.8879 35.0856 0.1457
# 6 -3.8805 0.3471 5.1550 -8.6462 0.1457 33.0962
#
#
#
# Elastic Compliance Matrix: (Units=1/GPa)
#
#
# Indices 1 2 3 4 5 6 
#
# 1 0.017808 -0.002942 -0.006145 -0.004821 0.000735 0.001813
# 2 -0.002942 0.007587 -0.002777 0.003960 0.000032 0.001042
# 3 -0.006145 -0.002777 0.012812 -0.000727 0.000511 -0.002879
# 4 -0.004821 0.003960 -0.000727 0.031110 0.003718 0.007617
# 5 0.000735 0.000032 0.000511 0.003718 0.029160 0.000849
# 6 0.001813 0.001042 -0.002879 0.007617 0.000849 0.032851
#
#
# Mechanical properties :
#
#
# Convention : Reuss Voigt Hill
#
# Bulk Modulus (GPa) = 69.06069 77.37615 73.21842
# Shear Modulus (GPa) = 31.27290 36.14619 33.70955
#
# Velocity S-wave (km/s) = 3.63372 3.90660 3.77263
# Velocity P-wave (km/s) = 6.83841 7.28136 7.06336
#
# Compressibility (1/GPa) = 0.01448002
#
# Stress axis : x y z
#
# Youngs Moduli (GPa) = 56.15298 131.79619 78.05408
#
# Poissons Ratio (x) = 0.38780 0.47962
# Poissons Ratio (y) = 0.16522 0.21673
# Poissons Ratio (z) = 0.34504 0.36596
#
# Static dielectric constant tensor:
#      x y z
#    x 4.426890 0.143900 -0.305800 
#    y 0.143900 4.572190 0.119390 
#    z -0.305800 0.119390 4.344210 
# 
# 
# High freq. dielectric constant tensor:
#      x y z
#    x 1.953660 0.007630 -0.032720 
#    y 0.007630 1.960140 -0.004120 
#    z -0.032720 -0.004120 1.934280 
# 
# From -- ./inp_files/594088.got.cif
#   From: 2010.06.25/outbox.cif.g09.slc.cpg/sg2_298_cif.got.tgz:594088.got - 2010.06.27 13:26:56.
