data_PCOD8024480
_publ_section_title
;
Structure prediction by ZEFSAII (Michael W. Deem and Ramdas Pophale) SiO2 
 PCOD8024480
Probable space group: P -1
;
_chemical_formula_sum "Si O2"
_cell_formula_units_Z 14
_cell_length_a 12.716537
_cell_length_b 9.623358
_cell_length_c 15.461127
_cell_angle_alpha 122.975925
_cell_angle_beta 153.150317
_cell_angle_gamma 48.879668
_cell_volume 638.729810
_symmetry_space_group_name_H-M "P -1"
_symmetry_group_IT_number 2
_symmetry_cell_setting 'triclinic'
loop_
_space_group_symop_operation_xyz
x,y,z
-x,-y,-z
loop_
_atom_site_type_symbol
_atom_site_label
_atom_site_fract_x
_atom_site_fract_y
_atom_site_fract_z
Si Si1 0.947643 0.080950 0.393106
Si Si2 0.489349 0.982729 0.244144
Si Si3 0.177073 0.800442 0.018510
Si Si4 0.666742 0.828526 0.624245
Si Si5 0.406433 0.581480 0.366258
Si Si6 0.153382 0.176580 0.902836
Si Si7 0.421323 0.411107 0.153910
O O1 0.703635 0.284877 0.277581
O O2 0.198290 0.100718 0.549873
O O3 0.875108 0.950980 0.234746
O O4 0.000000 0.000000 0.500000
O O5 0.401469 0.818264 0.133366
O O6 0.372123 0.126982 0.286420
O O7 0.392210 0.070224 0.108034
O O8 0.318362 0.626764 0.127217
O O9 0.970857 0.758574 0.797154
O O10 0.000000 0.000000 0.000000
O O11 0.587559 0.667855 0.490396
O O12 0.500000 0.000000 0.500000
O O13 0.500000 0.500000 0.500000
O O14 0.444080 0.409850 0.274733
O O15 0.106578 0.735318 0.200681
O O16 0.215128 0.331622 0.952667
#
# Coordination Sequence:
#
# PCOD8024480 Si02
#       7
#     2   2   2   2   2   2   2
#     4  12  26  47  73 104 146 186 235 289 353 422
#     4  11  23  45  73  99 140 190 235 282 355 419
#     4  10  23  43  67  99 141 180 228 290 351 409
#     4  11  21  41  69 102 137 181 230 288 351 407
#     4  12  22  38  67 104 134 176 239 292 340 406
#     4  12  24  46  73  99 143 186 238 294 349 411
#     4  12  25  43  68 105 141 185 234 290 353 419
#
# _framework density 21.918500000000002
#
# number of rings (size 3 to 8) (size 9 to 14) (size 15 to 20)
#    0.000    0.571    2.857    7.714    0.000    0.571 
#    0.000    0.714    0.000    0.000    0.000    0.000 
#    0.000    0.000    0.000    0.000    0.000    0.000 
#
# Total GULP energy -173576.420976 kJ/mol
# GULP energy per Si atom -12398.315784 kJ/mol
# Density = 2.186861 g / cm^3
# Si number density = 21.918500 Si / 1000 Ang^3
#
#
#
# Elastic Constant Matrix: (Units=GPa)
#
#
# Indices 1 2 3 4 5 6 
#
# 1 73.4767 51.1108 45.5606 13.0603 3.8973 -1.2691
# 2 51.1108 124.9619 67.3092 11.5722 18.5037 4.3172
# 3 45.5606 67.3092 147.9081 16.1100 15.4370 -3.7417
# 4 13.0603 11.5722 16.1100 21.6454 1.6375 -0.4957
# 5 3.8973 18.5037 15.4370 1.6375 42.0076 2.8395
# 6 -1.2691 4.3172 -3.7417 -0.4957 2.8395 43.1835
#
#
#
# Elastic Compliance Matrix: (Units=1/GPa)
#
#
# Indices 1 2 3 4 5 6 
#
# 1 0.021364 -0.006893 -0.002881 -0.007219 0.002338 0.000831
# 2 -0.006893 0.013391 -0.003605 -0.000064 -0.003823 -0.001603
# 3 -0.002881 -0.003605 0.009884 -0.003533 -0.001721 0.001205
# 4 -0.007219 -0.000064 -0.003533 0.053228 -0.000086 0.000105
# 5 0.002338 -0.003823 -0.001721 -0.000086 0.026003 -0.001409
# 6 0.000831 -0.001603 0.001205 0.000105 -0.001409 0.023540
#
#
# Mechanical properties :
#
#
# Convention : Reuss Voigt Hill
#
# Bulk Modulus (GPa) = 55.92390 74.92310 65.42350
# Shear Modulus (GPa) = 27.75793 33.52505 30.64149
#
# Velocity S-wave (km/s) = 3.56253 3.91517 3.74301
# Velocity P-wave (km/s) = 6.51859 7.39560 6.97090
#
# Compressibility (1/GPa) = 0.01788144
#
# Stress axis : x y z
#
# Youngs Moduli (GPa) = 46.80689 74.67646 101.17556
#
# Poissons Ratio (x) = 0.51474 0.29147
# Poissons Ratio (y) = 0.32263 0.36476
# Poissons Ratio (z) = 0.13484 0.26922
#
# Static dielectric constant tensor:
#      x y z
#    x 3.989820 0.028610 0.333800 
#    y 0.028610 3.952480 0.140230 
#    z 0.333800 0.140230 4.600150 
# 
# 
# High freq. dielectric constant tensor:
#      x y z
#    x 1.846960 0.016290 0.009590 
#    y 0.016290 1.850730 0.013020 
#    z 0.009590 0.013020 1.891780 
# 
# From -- ./inp_files/258738.got.cif
#   From: 2010.06.25/outbox.cif.g09.slc.cpg/sg2_130_cif.got.tgz:258738.got - 2010.06.27 13:26:56.
