data_PCOD8024009
_publ_section_title
;
Structure prediction by ZEFSAII (Michael W. Deem and Ramdas Pophale) SiO2 
 PCOD8024009
Probable space group: P -1
;
_chemical_formula_sum "Si O2"
_cell_formula_units_Z 12
_cell_length_a 11.950903
_cell_length_b 6.896476
_cell_length_c 8.549626
_cell_angle_alpha 127.196521
_cell_angle_beta 94.466943
_cell_angle_gamma 65.722393
_cell_volume 497.327054
_symmetry_space_group_name_H-M "P -1"
_symmetry_group_IT_number 2
_symmetry_cell_setting 'triclinic'
loop_
_space_group_symop_operation_xyz
x,y,z
-x,-y,-z
loop_
_atom_site_type_symbol
_atom_site_label
_atom_site_fract_x
_atom_site_fract_y
_atom_site_fract_z
Si Si1 0.452859 0.744517 0.738963
Si Si2 0.686996 0.421931 0.779040
Si Si3 0.748368 0.168766 0.988652
Si Si4 0.370287 0.047312 0.587324
Si Si5 0.875649 0.543437 0.679920
Si Si6 0.879258 0.430627 0.276161
O O1 0.500000 0.500000 0.500000
O O2 0.571164 0.707851 0.844201
O O3 0.393848 0.026158 0.768977
O O4 0.348240 0.729469 0.829436
O O5 0.685735 0.384082 0.946001
O O6 0.818027 0.418634 0.740536
O O7 0.673341 0.175809 0.576615
O O8 0.783435 0.862648 0.788691
O O9 0.878525 0.167307 0.062935
O O10 0.259206 0.337654 0.672015
O O11 0.500000 0.000000 0.500000
O O12 0.895349 0.381825 0.440526
O O13 0.009864 0.503823 0.742946
#
# Coordination Sequence:
#
# PCOD8024009 Si02
#       6
#     2   2   2   2   2   2
#     4  10  23  42  69 100 138 179 225 287 345 410
#     4  11  24  45  69 105 140 181 233 288 349 411
#     4  12  25  46  71 105 140 181 235 289 347 413
#     4  11  22  44  75 102 139 185 230 286 355 412
#     4  11  26  48  70 102 142 186 235 283 344 419
#     4  11  24  47  72 102 142 186 232 286 345 413
#
# _framework density 24.128993999999999
#
# number of rings (size 3 to 8) (size 9 to 14) (size 15 to 20)
#    0.000    1.000    1.667    6.000    2.333    2.000 
#    3.000    0.000    0.000    0.000    0.000    0.000 
#    0.000    0.000    0.000    0.000    0.000    0.000 
#
# Total GULP energy -148801.787909 kJ/mol
# GULP energy per Si atom -12400.148992 kJ/mol
# Density = 2.407408 g / cm^3
# Si number density = 24.128994 Si / 1000 Ang^3
#
#
#
# Elastic Constant Matrix: (Units=GPa)
#
#
# Indices 1 2 3 4 5 6 
#
# 1 169.9178 45.3995 22.0658 -25.6354 -5.0984 20.8512
# 2 45.3995 101.5878 13.6601 -36.2596 -8.9086 16.2552
# 3 22.0658 13.6601 50.8372 -31.5223 12.2684 10.4641
# 4 -25.6354 -36.2596 -31.5223 42.2316 2.9894 -4.3819
# 5 -5.0984 -8.9086 12.2684 2.9894 39.2869 -2.4143
# 6 20.8512 16.2552 10.4641 -4.3819 -2.4143 41.4446
#
#
#
# Elastic Compliance Matrix: (Units=1/GPa)
#
#
# Indices 1 2 3 4 5 6 
#
# 1 0.007118 -0.002239 -0.001697 0.000857 0.000749 -0.002140
# 2 -0.002239 0.018257 0.012098 0.022788 -0.002080 -0.006801
# 3 -0.001697 0.012098 0.057109 0.051957 -0.020124 -0.013989
# 4 0.000857 0.022788 0.051957 0.082288 -0.018120 -0.014842
# 5 0.000749 -0.002080 -0.020124 -0.018120 0.033082 0.005531
# 6 -0.002140 -0.006801 -0.013989 -0.014842 0.005531 0.030158
#
#
# Mechanical properties :
#
#
# Convention : Reuss Voigt Hill
#
# Bulk Modulus (GPa) = 10.12072 53.84374 31.98223
# Shear Modulus (GPa) = 20.43954 40.67379 30.55667
#
# Velocity S-wave (km/s) = 2.91365 4.11016 3.56250
# Velocity P-wave (km/s) = 3.93988 6.69985 5.49593
#
# Compressibility (1/GPa) = 0.09880719
#
# Stress axis : x y z
#
# Youngs Moduli (GPa) = 140.48533 54.77402 17.51044
#
# Poissons Ratio (x) = 0.12264 0.02972
# Poissons Ratio (y) = 0.31454 -0.21184
# Poissons Ratio (z) = 0.23842 -0.66264
#
# Static dielectric constant tensor:
#      x y z
#    x 4.546680 -0.109310 0.213030 
#    y -0.109310 4.900780 -0.078050 
#    z 0.213030 -0.078050 4.349790 
# 
# 
# High freq. dielectric constant tensor:
#      x y z
#    x 1.970360 0.000980 0.012780 
#    y 0.000980 1.956290 -0.004890 
#    z 0.012780 -0.004890 1.962740 
# 
# From -- ./inp_files/36722.got.cif
#   From: 2010.06.25/outbox.cif.g09.slc.cpg/sg2_19_cif.got.tgz:36722.got - 2010.06.27 13:26:56.
