data_PCOD8024081
_publ_section_title
;
Structure prediction by ZEFSAII (Michael W. Deem and Ramdas Pophale) SiO2 
 PCOD8024081
Probable space group: P -1
;
_chemical_formula_sum "Si O2"
_cell_formula_units_Z 16
_cell_length_a 13.415325
_cell_length_b 11.593152
_cell_length_c 13.466139
_cell_angle_alpha 30.886856
_cell_angle_beta 137.766047
_cell_angle_gamma 126.376902
_cell_volume 717.195026
_symmetry_space_group_name_H-M "P -1"
_symmetry_group_IT_number 2
_symmetry_cell_setting 'triclinic'
loop_
_space_group_symop_operation_xyz
x,y,z
-x,-y,-z
loop_
_atom_site_type_symbol
_atom_site_label
_atom_site_fract_x
_atom_site_fract_y
_atom_site_fract_z
Si Si1 0.659920 0.587298 0.038012
Si Si2 0.109337 0.969625 0.512524
Si Si3 0.167334 0.444907 0.199696
Si Si4 0.667208 0.426303 0.960619
Si Si5 0.968143 0.309906 0.499898
Si Si6 0.217346 0.077330 0.980343
Si Si7 0.816794 0.430447 0.659181
Si Si8 0.584636 0.816005 0.124389
O O1 0.681442 0.821243 0.935871
O O2 0.794671 0.408256 0.316411
O O3 0.500000 0.500000 0.000000
O O4 0.659211 0.630195 0.885082
O O5 0.021844 0.932135 0.373097
O O6 0.208446 0.174913 0.433683
O O7 0.209115 0.737411 0.771859
O O8 0.000000 0.000000 0.500000
O O9 0.288020 0.521916 0.156257
O O10 0.168535 0.570485 0.211276
O O11 0.000000 0.500000 0.000000
O O12 0.521829 0.298944 0.943724
O O13 0.059966 0.243323 0.719834
O O14 0.043375 0.492260 0.353788
O O15 0.304353 0.056588 0.954794
O O16 0.194688 0.829376 0.187557
O O17 0.669721 0.604259 0.402253
O O18 0.500000 0.000000 0.000000
#
# Coordination Sequence:
#
# PCOD8024081 Si02
#       8
#     2   2   2   2   2   2   2   2
#     4  11  23  48  70  94 134 185 235 278 335 404
#     4  11  20  37  64  97 133 171 211 268 340 406
#     4  12  21  36  64  98 136 164 210 273 335 401
#     4  11  24  40  64  94 131 173 224 272 330 402
#     4  10  23  42  70 101 131 176 229 280 340 401
#     4  11  24  44  72  94 134 183 227 284 336 390
#     4  11  24  41  67 105 136 169 227 276 339 413
#     4  11  24  42  65  99 138 177 215 270 347 411
#
# _framework density 22.309135000000001
#
# number of rings (size 3 to 8) (size 9 to 14) (size 15 to 20)
#    0.000    1.000    3.750    3.375    1.750    3.500 
#    0.000    5.625    0.000    0.000    0.000    0.000 
#    0.000    0.000    0.000    0.000    0.000    0.000 
#
# Total GULP energy -198271.465974 kJ/mol
# GULP energy per Si atom -12391.966623 kJ/mol
# Density = 2.225836 g / cm^3
# Si number density = 22.309135 Si / 1000 Ang^3
#
#
#
# Elastic Constant Matrix: (Units=GPa)
#
#
# Indices 1 2 3 4 5 6 
#
# 1 72.5775 29.4596 43.4328 5.6867 10.5485 6.1269
# 2 29.4596 154.1440 43.0192 -2.7436 5.1507 -4.4809
# 3 43.4328 43.0192 86.4495 -10.6684 2.2911 7.3771
# 4 5.6867 -2.7436 -10.6684 37.6692 5.6184 -5.1007
# 5 10.5485 5.1507 2.2911 5.6184 27.5734 3.0415
# 6 6.1269 -4.4809 7.3771 -5.1007 3.0415 37.8724
#
#
#
# Elastic Compliance Matrix: (Units=1/GPa)
#
#
# Indices 1 2 3 4 5 6 
#
# 1 0.022380 -0.001144 -0.011088 -0.005967 -0.005999 -0.001918
# 2 -0.001144 0.007742 -0.003389 0.000173 -0.000967 0.001862
# 3 -0.011088 -0.003389 0.019715 0.006459 0.002114 -0.001747
# 4 -0.005967 0.000173 0.006459 0.030610 -0.004992 0.004251
# 5 -0.005999 -0.000967 0.002114 -0.004992 0.039963 -0.003437
# 6 -0.001918 0.001862 -0.001747 0.004251 -0.003437 0.028124
#
#
# Mechanical properties :
#
#
# Convention : Reuss Voigt Hill
#
# Bulk Modulus (GPa) = 53.78408 60.55490 57.16949
# Shear Modulus (GPa) = 26.88543 33.77364 30.32954
#
# Velocity S-wave (km/s) = 3.47527 3.89510 3.69116
# Velocity P-wave (km/s) = 6.34541 6.88706 6.62177
#
# Compressibility (1/GPa) = 0.01859286
#
# Stress axis : x y z
#
# Youngs Moduli (GPa) = 44.68348 129.17224 50.72283
#
# Poissons Ratio (x) = 0.14779 0.56242
# Poissons Ratio (y) = 0.05112 0.17192
# Poissons Ratio (z) = 0.49545 0.43783
#
# Static dielectric constant tensor:
#      x y z
#    x 3.853520 -0.523270 0.423860 
#    y -0.523270 -1.676810 4.010080 
#    z 0.423860 4.010080 1.248160 
# 
# 
# High freq. dielectric constant tensor:
#      x y z
#    x 1.875430 -0.008860 0.008250 
#    y -0.008860 1.902990 0.007010 
#    z 0.008250 0.007010 1.863110 
# 
# From -- ./inp_files/531545.got.cif
#   From: 2010.06.25/outbox.cif.g09.slc.cpg/sg2_266_cif.got.tgz:531545.got - 2010.06.27 13:26:56.
