data_PCOD8024952
_publ_section_title
;
Structure prediction by ZEFSAII (Michael W. Deem and Ramdas Pophale) SiO2 
 PCOD8024952
Probable space group: P -1
;
_chemical_formula_sum "Si O2"
_cell_formula_units_Z 16
_cell_length_a 13.658824
_cell_length_b 23.569688
_cell_length_c 9.950907
_cell_angle_alpha 25.374848
_cell_angle_beta 138.351714
_cell_angle_gamma 146.193082
_cell_volume 763.759206
_symmetry_space_group_name_H-M "P -1"
_symmetry_group_IT_number 2
_symmetry_cell_setting 'triclinic'
loop_
_space_group_symop_operation_xyz
x,y,z
-x,-y,-z
loop_
_atom_site_type_symbol
_atom_site_label
_atom_site_fract_x
_atom_site_fract_y
_atom_site_fract_z
Si Si1 0.237808 0.600249 0.669067
Si Si2 0.449705 0.055084 0.701731
Si Si3 0.467834 0.085183 0.164386
Si Si4 0.686664 0.559593 0.694546
Si Si5 0.863745 0.911267 0.166175
Si Si6 0.958149 0.087194 0.379568
Si Si7 0.651796 0.458206 0.590989
Si Si8 0.896149 0.590236 0.314070
O O1 0.420041 0.755216 0.573935
O O2 0.230341 0.563717 0.579945
O O3 0.070132 0.607308 0.513365
O O4 0.218521 0.459439 0.040064
O O5 0.476155 0.968525 0.792575
O O6 0.249315 0.003577 0.613099
O O7 0.500000 0.000000 0.000000
O O8 0.500000 0.000000 0.500000
O O9 0.261437 0.022552 0.080973
O O10 0.581967 0.276085 0.878874
O O11 0.751772 0.739267 0.356857
O O12 0.728778 0.493346 0.746461
O O13 0.480474 0.481674 0.677729
O O14 0.953648 0.914471 0.389247
O O15 0.000000 0.000000 0.000000
O O16 0.000000 0.000000 0.500000
O O17 0.045045 0.262649 0.037053
O O18 0.791536 0.575009 0.373379
#
# Coordination Sequence:
#
# PCOD8024952 Si02
#       8
#     2   2   2   2   2   2   2   2
#     4  11  24  43  68  99 134 176 218 276 334 401
#     4  12  24  43  69  96 138 177 222 276 336 400
#     4  11  24  44  68 102 135 178 226 277 340 399
#     4  10  23  44  66  97 132 175 226 268 340 393
#     4  11  25  44  69  98 137 181 228 279 332 400
#     4  12  27  45  67 103 136 177 226 281 338 402
#     4  10  24  42  68  97 133 175 220 280 332 400
#     4  11  25  44  67 100 137 171 225 275 336 402
#
# _framework density 20.949010999999999
#
# number of rings (size 3 to 8) (size 9 to 14) (size 15 to 20)
#    0.000    1.000    2.500    3.000    5.250    4.000 
#    0.000    0.000    0.000    0.000    0.000    0.000 
#    0.000    0.000    0.000    0.000    0.000    0.000 
#
# Total GULP energy -198339.362149 kJ/mol
# GULP energy per Si atom -12396.210134 kJ/mol
# Density = 2.090133 g / cm^3
# Si number density = 20.949011 Si / 1000 Ang^3
#
#
#
# Elastic Constant Matrix: (Units=GPa)
#
#
# Indices 1 2 3 4 5 6 
#
# 1 193.7608 75.8292 55.6856 8.7684 -3.1799 1.4628
# 2 75.8292 115.2922 44.2171 10.4589 3.4313 3.8968
# 3 55.6856 44.2171 112.2273 26.5909 -3.0846 6.1856
# 4 8.7684 10.4589 26.5909 41.7476 -3.5876 6.2195
# 5 -3.1799 3.4313 -3.0846 -3.5876 34.4153 -0.4999
# 6 1.4628 3.8968 6.1856 6.2195 -0.4999 35.8072
#
#
#
# Elastic Compliance Matrix: (Units=1/GPa)
#
#
# Indices 1 2 3 4 5 6 
#
# 1 0.007397 -0.004126 -0.002264 0.000950 0.000997 0.000387
# 2 -0.004126 0.012592 -0.002795 -0.000580 -0.001957 -0.000646
# 3 -0.002264 -0.002795 0.012804 -0.006845 0.000495 -0.000619
# 4 0.000950 -0.000580 -0.006845 0.029041 0.002504 -0.003802
# 5 0.000997 -0.001957 0.000495 0.002504 0.029650 0.000066
# 6 0.000387 -0.000646 -0.000619 -0.003802 0.000066 0.028750
#
#
# Mechanical properties :
#
#
# Convention : Reuss Voigt Hill
#
# Bulk Modulus (GPa) = 69.32563 85.86046 77.59304
# Shear Modulus (GPa) = 34.86498 38.76390 36.81444
#
# Velocity S-wave (km/s) = 4.08398 4.30629 4.19661
# Velocity P-wave (km/s) = 7.44332 8.11171 7.78469
#
# Compressibility (1/GPa) = 0.01442468
#
# Stress axis : x y z
#
# Youngs Moduli (GPa) = 135.19808 79.41807 78.09796
#
# Poissons Ratio (x) = 0.32765 0.17678
# Poissons Ratio (y) = 0.55777 0.21827
# Poissons Ratio (z) = 0.30603 0.22196
#
# Static dielectric constant tensor:
#      x y z
#    x 4.015940 0.945460 -0.454120 
#    y 0.945460 10.153360 -3.409920 
#    z -0.454120 -3.409920 5.540410 
# 
# 
# High freq. dielectric constant tensor:
#      x y z
#    x 1.832200 -0.006650 0.000190 
#    y -0.006650 1.830080 0.005000 
#    z 0.000190 0.005000 1.832180 
# 
# From -- ./inp_files/190706.got.cif
#   From: 2010.06.25/outbox.cif.g09.slc.cpg/sg2_96_cif.got.tgz:190706.got - 2010.06.27 13:26:56.
