data_PCOD8024153
_publ_section_title
;
Structure prediction by ZEFSAII (Michael W. Deem and Ramdas Pophale) SiO2 
 PCOD8024153
Probable space group: P -1
;
_chemical_formula_sum "Si O2"
_cell_formula_units_Z 16
_cell_length_a 9.167411
_cell_length_b 12.188031
_cell_length_c 9.557167
_cell_angle_alpha 88.361085
_cell_angle_beta 129.568016
_cell_angle_gamma 70.703104
_cell_volume 733.770837
_symmetry_space_group_name_H-M "P -1"
_symmetry_group_IT_number 2
_symmetry_cell_setting 'triclinic'
loop_
_space_group_symop_operation_xyz
x,y,z
-x,-y,-z
loop_
_atom_site_type_symbol
_atom_site_label
_atom_site_fract_x
_atom_site_fract_y
_atom_site_fract_z
Si Si1 0.727327 0.799774 0.527148
Si Si2 0.188288 0.036077 0.623151
Si Si3 0.483531 0.537124 0.329295
Si Si4 0.795147 0.576134 0.963361
Si Si5 0.923938 0.518852 0.606159
Si Si6 0.896365 0.952876 0.113148
Si Si7 0.639375 0.852289 0.783633
Si Si8 0.287708 0.824301 0.190057
O O1 0.849352 0.653193 0.622441
O O2 0.681765 0.866539 0.646202
O O3 0.497400 0.842618 0.318623
O O4 0.863499 0.841227 0.503363
O O5 0.402924 0.934073 0.691181
O O6 0.199098 0.055911 0.794714
O O7 0.000000 0.000000 0.500000
O O8 0.500000 0.500000 0.500000
O O9 0.378821 0.474097 0.165256
O O10 0.732019 0.486302 0.460162
O O11 0.343911 0.682379 0.210093
O O12 0.679672 0.715179 0.840753
O O13 0.000000 0.500000 0.000000
O O14 0.879890 0.571502 0.173576
O O15 0.000000 0.500000 0.500000
O O16 0.151952 0.875259 0.249879
O O17 0.806745 0.885671 0.957625
O O18 0.835770 0.093350 0.023752
#
# Coordination Sequence:
#
# PCOD8024153 Si02
#       8
#     2   2   2   2   2   2   2   2
#     4  11  24  46  67  95 139 179 227 283 343 416
#     4  12  28  43  66 101 141 176 230 284 344 401
#     4  11  23  43  72 103 135 181 238 279 341 421
#     4  12  23  45  73 103 137 182 235 285 344 419
#     4  11  27  44  70 104 139 184 231 295 351 402
#     4  11  25  42  69 102 131 178 226 282 342 402
#     4  12  25  44  72  98 137 182 229 276 346 416
#     4  10  23  42  71  95 135 177 230 273 344 406
#
# _framework density 21.805173
#
# number of rings (size 3 to 8) (size 9 to 14) (size 15 to 20)
#    0.000    0.750    3.750    3.000    5.250    2.500 
#    0.000    0.000    0.000    0.000    0.000    0.000 
#    0.000    0.000    0.000    0.000    0.000    0.000 
#
# Total GULP energy -198249.609114 kJ/mol
# GULP energy per Si atom -12390.600570 kJ/mol
# Density = 2.175554 g / cm^3
# Si number density = 21.805173 Si / 1000 Ang^3
#
#
#
# Elastic Constant Matrix: (Units=GPa)
#
#
# Indices 1 2 3 4 5 6 
#
# 1 140.3294 19.3065 33.9600 5.6072 -12.5975 15.2397
# 2 19.3065 75.0354 31.0808 10.2569 3.3247 25.3534
# 3 33.9600 31.0808 88.8083 1.5451 -5.6595 11.7505
# 4 5.6072 10.2569 1.5451 19.9813 3.8888 -3.4003
# 5 -12.5975 3.3247 -5.6595 3.8888 49.6648 7.0874
# 6 15.2397 25.3534 11.7505 -3.4003 7.0874 34.9453
#
#
#
# Elastic Compliance Matrix: (Units=1/GPa)
#
#
# Indices 1 2 3 4 5 6 
#
# 1 0.008545 0.000799 -0.002736 -0.003860 0.002720 -0.004314
# 2 0.000799 0.023264 -0.005833 -0.014923 0.001581 -0.017039
# 3 -0.002736 -0.005833 0.014281 0.002571 0.001028 0.000665
# 4 -0.003860 -0.014923 0.002571 0.063317 -0.007400 0.019307
# 5 0.002720 0.001581 0.001028 -0.007400 0.022553 -0.007973
# 6 -0.004314 -0.017039 0.000665 0.019307 -0.007973 0.046131
#
#
# Mechanical properties :
#
#
# Convention : Reuss Voigt Hill
#
# Bulk Modulus (GPa) = 32.73231 52.54085 42.63658
# Shear Modulus (GPa) = 24.53207 35.57334 30.05270
#
# Velocity S-wave (km/s) = 3.35783 4.04346 3.71649
# Velocity P-wave (km/s) = 5.48427 6.77845 6.16541
#
# Compressibility (1/GPa) = 0.03055085
#
# Stress axis : x y z
#
# Youngs Moduli (GPa) = 117.02543 42.98433 70.02483
#
# Poissons Ratio (x) = -0.03436 0.19160
# Poissons Ratio (y) = -0.09355 0.40845
# Poissons Ratio (z) = 0.32020 0.25072
#
# Static dielectric constant tensor:
#      x y z
#    x 3.814660 1.398000 0.006320 
#    y 1.398000 3.032520 -0.699460 
#    z 0.006320 -0.699460 4.143430 
# 
# 
# High freq. dielectric constant tensor:
#      x y z
#    x 1.869640 0.009640 0.005970 
#    y 0.009640 1.862670 -0.004660 
#    z 0.005970 -0.004660 1.862650 
# 
# From -- ./inp_files/187943.got.cif
#   From: 2010.06.25/outbox.cif.g09.slc.cpg/sg2_94_cif.got.tgz:187943.got - 2010.06.27 13:26:56.
