data_PCOD8024238
_publ_section_title
;
Structure prediction by ZEFSAII (Michael W. Deem and Ramdas Pophale) SiO2 
 PCOD8024238
Probable space group: P -1
;
_chemical_formula_sum "Si O2"
_cell_formula_units_Z 16
_cell_length_a 7.445647
_cell_length_b 8.453228
_cell_length_c 15.081156
_cell_angle_alpha 85.466637
_cell_angle_beta 92.303497
_cell_angle_gamma 52.966469
_cell_volume 750.751907
_symmetry_space_group_name_H-M "P -1"
_symmetry_group_IT_number 2
_symmetry_cell_setting 'triclinic'
loop_
_space_group_symop_operation_xyz
x,y,z
-x,-y,-z
loop_
_atom_site_type_symbol
_atom_site_label
_atom_site_fract_x
_atom_site_fract_y
_atom_site_fract_z
Si Si1 0.866668 0.732403 0.974108
Si Si2 0.491841 0.640504 0.420075
Si Si3 0.384192 0.980201 0.888391
Si Si4 0.694425 0.332421 0.075586
Si Si5 0.796456 0.937667 0.639579
Si Si6 0.363272 0.986118 0.691477
Si Si7 0.814043 0.731455 0.474592
Si Si8 0.708555 0.336228 0.279560
O O1 0.659332 0.841094 0.895145
O O2 0.053197 0.757785 0.945824
O O3 0.000000 0.500000 0.000000
O O4 0.739401 0.827198 0.060657
O O5 0.500000 0.500000 0.500000
O O6 0.586139 0.751105 0.463312
O O7 0.614047 0.518942 0.337841
O O8 0.249736 0.845294 0.378527
O O9 0.306969 0.853245 0.928344
O O10 0.284314 0.064392 0.785705
O O11 0.637862 0.413203 0.173068
O O12 0.500000 0.500000 0.000000
O O13 0.605287 0.937534 0.683970
O O14 0.833855 0.844216 0.548293
O O15 0.021153 0.803011 0.707934
O O16 0.384889 0.785016 0.685458
O O17 0.170182 0.168978 0.617753
O O18 0.000000 0.500000 0.500000
#
# Coordination Sequence:
#
# PCOD8024238 Si02
#       8
#     2   2   2   2   2   2   2   2
#     4  11  22  41  69  95 124 171 210 267 327 378
#     4  11  23  40  65  97 126 167 215 261 313 380
#     4  10  23  44  64  94 130 165 215 265 321 383
#     4  11  23  45  66  95 133 168 213 270 323 384
#     4  11  23  43  64  91 131 168 210 262 316 375
#     4  10  23  43  61  93 129 164 215 260 309 385
#     4  11  22  40  63  89 129 169 204 261 319 368
#     4  11  24  43  66  94 127 169 215 261 318 375
#
# _framework density 21.311968
#
# number of rings (size 3 to 8) (size 9 to 14) (size 15 to 20)
#    0.000    1.250    2.500    4.125    1.750    3.000 
#    9.000    0.000    0.000    0.000    0.000    0.000 
#    0.000    0.000    0.000    0.000    0.000    0.000 
#
# Total GULP energy -198286.061812 kJ/mol
# GULP energy per Si atom -12392.878863 kJ/mol
# Density = 2.126346 g / cm^3
# Si number density = 21.311968 Si / 1000 Ang^3
#
#
#
# Elastic Constant Matrix: (Units=GPa)
#
#
# Indices 1 2 3 4 5 6 
#
# 1 112.6674 33.3448 32.6096 -11.1603 -4.0497 2.4480
# 2 33.3448 126.5250 55.5182 -13.4264 0.3620 -14.0433
# 3 32.6096 55.5182 141.2673 -17.8850 -1.5717 -0.2389
# 4 -11.1603 -13.4264 -17.8850 27.1456 5.6791 -1.1273
# 5 -4.0497 0.3620 -1.5717 5.6791 27.3899 0.8032
# 6 2.4480 -14.0433 -0.2389 -1.1273 0.8032 26.7204
#
#
#
# Elastic Compliance Matrix: (Units=1/GPa)
#
#
# Indices 1 2 3 4 5 6 
#
# 1 0.010150 -0.002149 -0.001239 0.001978 0.001107 -0.002020
# 2 -0.002149 0.010968 -0.003464 0.002810 -0.001423 0.006092
# 3 -0.001239 -0.003464 0.009209 0.003861 -0.000367 -0.001451
# 4 0.001978 0.002810 0.003861 0.043537 -0.008651 0.003427
# 5 0.001107 -0.001423 -0.000367 -0.008651 0.038535 -0.002376
# 6 -0.002020 0.006092 -0.001451 0.003427 -0.002376 0.041014
#
#
# Mechanical properties :
#
#
# Convention : Reuss Voigt Hill
#
# Bulk Modulus (GPa) = 60.15991 69.26723 64.71357
# Shear Modulus (GPa) = 28.95896 33.51697 31.23797
#
# Velocity S-wave (km/s) = 3.69021 3.97001 3.83266
# Velocity P-wave (km/s) = 6.81515 7.32030 7.07224
#
# Compressibility (1/GPa) = 0.01662237
#
# Stress axis : x y z
#
# Youngs Moduli (GPa) = 98.52328 91.17142 108.59440
#
# Poissons Ratio (x) = 0.19589 0.13457
# Poissons Ratio (y) = 0.21169 0.37621
# Poissons Ratio (z) = 0.12209 0.31585
#
# Static dielectric constant tensor:
#      x y z
#    x 4.273740 -0.227810 -0.233360 
#    y -0.227810 4.192380 0.050530 
#    z -0.233360 0.050530 3.328900 
# 
# 
# High freq. dielectric constant tensor:
#      x y z
#    x 1.840110 0.009180 0.005700 
#    y 0.009180 1.838680 -0.005130 
#    z 0.005700 -0.005130 1.847160 
# 
# From -- ./inp_files/492782.got.cif
#   From: 2010.06.25/outbox.cif.g09.slc.cpg/sg2_247_cif.got.tgz:492782.got - 2010.06.27 13:26:56.
