data_PCOD8024870
_publ_section_title
;
Structure prediction by ZEFSAII (Michael W. Deem and Ramdas Pophale) SiO2 
 PCOD8024870
Probable space group: P -1
;
_chemical_formula_sum "Si O2"
_cell_formula_units_Z 14
_cell_length_a 27.422720
_cell_length_b 8.523781
_cell_length_c 9.600439
_cell_angle_alpha 128.333289
_cell_angle_beta 42.178119
_cell_angle_gamma 150.933905
_cell_volume 729.398565
_symmetry_space_group_name_H-M "P -1"
_symmetry_group_IT_number 2
_symmetry_cell_setting 'triclinic'
loop_
_space_group_symop_operation_xyz
x,y,z
-x,-y,-z
loop_
_atom_site_type_symbol
_atom_site_label
_atom_site_fract_x
_atom_site_fract_y
_atom_site_fract_z
Si Si1 0.720055 0.182397 0.198066
Si Si2 0.129417 0.193333 0.315503
Si Si3 0.961933 0.117475 0.225599
Si Si4 0.934313 0.385852 0.931832
Si Si5 0.812864 0.425540 0.850967
Si Si6 0.267785 0.459821 0.439048
Si Si7 0.624791 0.722918 0.922807
O O1 0.661213 0.208334 0.447384
O O2 0.828032 0.313833 0.125224
O O3 0.770704 0.419111 0.088201
O O4 0.630532 0.821922 0.125056
O O5 0.195316 0.425247 0.168512
O O6 0.210280 0.425722 0.403023
O O7 0.122518 0.941145 0.181209
O O8 0.000000 0.000000 0.500000
O O9 0.968625 0.322358 0.221219
O O10 0.051539 0.349225 0.293451
O O11 0.832488 0.830556 0.403327
O O12 0.000000 0.000000 0.000000
O O13 0.000000 0.500000 0.000000
O O14 0.728234 0.051058 0.791559
O O15 0.357794 0.477606 0.222919
O O16 0.500000 0.500000 0.000000
#
# Coordination Sequence:
#
# PCOD8024870 Si02
#       7
#     2   2   2   2   2   2   2
#     4   9  21  41  58  87 118 157 203 243 296 359
#     4  12  22  32  55  95 125 159 192 233 310 373
#     4  11  18  35  56  88 125 156 191 239 303 375
#     4  11  21  32  53  86 130 159 182 240 294 363
#     4   9  20  38  55  85 126 150 196 246 294 360
#     4  12  21  36  65  88 121 160 195 248 305 366
#     4  10  23  44  64  83 114 162 217 256 287 340
#
# _framework density 19.193895000000001
#
# number of rings (size 3 to 8) (size 9 to 14) (size 15 to 20)
#    0.857    0.571    5.714    1.714    2.000    1.714 
#    0.000    0.714    0.000    0.857    0.000    0.000 
#    0.000    0.000    0.000    0.000    0.000    0.000 
#
# Total GULP energy -173468.386761 kJ/mol
# GULP energy per Si atom -12390.599054 kJ/mol
# Density = 1.915021 g / cm^3
# Si number density = 19.193895 Si / 1000 Ang^3
#
#
#
# Elastic Constant Matrix: (Units=GPa)
#
#
# Indices 1 2 3 4 5 6 
#
# 1 132.9991 29.3544 52.6908 11.2375 11.7872 4.5306
# 2 29.3544 56.2195 34.4122 16.6598 -3.7881 18.8828
# 3 52.6908 34.4122 102.5651 33.0361 -5.7334 11.3244
# 4 11.2375 16.6598 33.0361 25.7813 1.1439 -0.3122
# 5 11.7872 -3.7881 -5.7334 1.1439 29.1276 0.1505
# 6 4.5306 18.8828 11.3244 -0.3122 0.1505 41.5620
#
#
#
# Elastic Compliance Matrix: (Units=1/GPa)
#
#
# Indices 1 2 3 4 5 6 
#
# 1 0.011592 -0.005607 -0.007702 0.008806 -0.007300 0.003475
# 2 -0.005607 0.031131 0.000357 -0.018616 0.007190 -0.013796
# 3 -0.007702 0.000357 0.023659 -0.027660 0.008938 -0.006009
# 4 0.008806 -0.018616 -0.027660 0.083269 -0.014780 0.015713
# 5 -0.007300 0.007190 0.008938 -0.014780 0.040587 -0.005164
# 6 0.003475 -0.013796 -0.006009 0.015713 -0.005164 0.031723
#
#
# Mechanical properties :
#
#
# Convention : Reuss Voigt Hill
#
# Bulk Modulus (GPa) = 24.70455 58.29985 41.50220
# Shear Modulus (GPa) = 19.13071 30.98258 25.05665
#
# Velocity S-wave (km/s) = 3.16049 4.02206 3.61702
# Velocity P-wave (km/s) = 5.12028 7.21175 6.25406
#
# Compressibility (1/GPa) = 0.04047838
#
# Stress axis : x y z
#
# Youngs Moduli (GPa) = 86.26381 32.12206 42.26645
#
# Poissons Ratio (x) = 0.18010 0.32555
# Poissons Ratio (y) = 0.48365 -0.01508
# Poissons Ratio (z) = 0.66443 -0.01146
#
# Static dielectric constant tensor:
#      x y z
#    x 3.530210 -0.068760 0.064290 
#    y -0.068760 3.383600 0.347650 
#    z 0.064290 0.347650 3.464180 
# 
# 
# High freq. dielectric constant tensor:
#      x y z
#    x 1.746670 0.000520 0.005600 
#    y 0.000520 1.720980 0.032780 
#    z 0.005600 0.032780 1.730140 
# 
# From -- ./inp_files/352405.got.cif
#   From: 2010.06.25/outbox.cif.g09.slc.cpg/sg2_177_cif.got.tgz:352405.got - 2010.06.27 13:26:56.
