data_PCOD8024232
_publ_section_title
;
Structure prediction by ZEFSAII (Michael W. Deem and Ramdas Pophale) SiO2 
 PCOD8024232
Probable space group: P -1
;
_chemical_formula_sum "Si O2"
_cell_formula_units_Z 16
_cell_length_a 11.654310
_cell_length_b 17.226411
_cell_length_c 10.681150
_cell_angle_alpha 136.724829
_cell_angle_beta 111.199898
_cell_angle_gamma 37.473982
_cell_volume 764.789451
_symmetry_space_group_name_H-M "P -1"
_symmetry_group_IT_number 2
_symmetry_cell_setting 'triclinic'
loop_
_space_group_symop_operation_xyz
x,y,z
-x,-y,-z
loop_
_atom_site_type_symbol
_atom_site_label
_atom_site_fract_x
_atom_site_fract_y
_atom_site_fract_z
Si Si1 0.482430 0.835802 0.775718
Si Si2 0.277090 0.372920 0.627702
Si Si3 0.396449 0.925926 0.388341
Si Si4 0.787848 0.757843 0.938390
Si Si5 0.345664 0.580357 0.917997
Si Si6 0.588818 0.370851 0.508975
Si Si7 0.047861 0.994282 0.365690
Si Si8 0.767897 0.736343 0.178582
O O1 0.648431 0.714526 0.583254
O O2 0.410732 0.761985 0.680725
O O3 0.271226 0.079969 0.965407
O O4 0.621065 0.780359 0.879427
O O5 0.434567 0.184442 0.560278
O O6 0.289258 0.494074 0.814558
O O7 0.025088 0.528486 0.724560
O O8 0.563227 0.802081 0.188760
O O9 0.252279 0.923858 0.346457
O O10 0.244796 0.154195 0.593466
O O11 0.764797 0.805935 0.129909
O O12 0.444414 0.519421 0.745618
O O13 0.500000 0.500000 0.000000
O O14 0.120470 0.824127 0.124570
O O15 0.500000 0.500000 0.500000
O O16 0.839543 0.206611 0.459060
O O17 0.000000 0.000000 0.500000
O O18 0.000000 0.500000 0.000000
#
# Coordination Sequence:
#
# PCOD8024232 Si02
#       8
#     2   2   2   2   2   2   2   2
#     4  10  23  43  60  93 128 169 226 268 318 413
#     4  11  20  39  64  95 129 158 220 275 321 397
#     4  11  24  39  61  99 135 164 219 279 333 402
#     4  11  22  38  69  89 122 179 218 263 336 394
#     4  11  22  40  69 103 130 176 230 275 340 416
#     4  11  26  46  66  98 142 180 227 289 349 401
#     4  12  24  42  72 101 134 182 230 286 339 410
#     4  11  24  41  61  94 135 170 208 277 341 389
#
# _framework density 20.920791000000001
#
# number of rings (size 3 to 8) (size 9 to 14) (size 15 to 20)
#    0.000    1.000    5.000    1.875    1.750    3.500 
#    0.000    2.500    0.000    0.000    0.000    0.000 
#    0.000    0.000    0.000    0.000    0.000    0.000 
#
# Total GULP energy -198250.845050 kJ/mol
# GULP energy per Si atom -12390.677816 kJ/mol
# Density = 2.087317 g / cm^3
# Si number density = 20.920791 Si / 1000 Ang^3
#
#
#
# Elastic Constant Matrix: (Units=GPa)
#
#
# Indices 1 2 3 4 5 6 
#
# 1 70.3258 21.7654 13.9845 11.8327 -3.5519 -0.3500
# 2 21.7654 115.2130 28.0293 14.4780 -5.3832 3.8518
# 3 13.9845 28.0293 109.5981 17.3204 0.5570 -4.0450
# 4 11.8327 14.4780 17.3204 30.6467 -6.8386 -5.5777
# 5 -3.5519 -5.3832 0.5570 -6.8386 30.5336 0.3355
# 6 -0.3500 3.8518 -4.0450 -5.5777 0.3355 28.1389
#
#
#
# Elastic Compliance Matrix: (Units=1/GPa)
#
#
# Indices 1 2 3 4 5 6 
#
# 1 0.015849 -0.002188 -0.000748 -0.004665 0.000433 -0.000541
# 2 -0.002188 0.010057 -0.001900 -0.003050 0.000895 -0.002292
# 3 -0.000748 -0.001900 0.010536 -0.005014 -0.001746 0.000792
# 4 -0.004665 -0.003050 -0.005014 0.041996 0.008330 0.007864
# 5 0.000433 0.000895 -0.001746 0.008330 0.034847 0.000868
# 6 -0.000541 -0.002292 0.000792 0.007864 0.000868 0.037507
#
#
# Mechanical properties :
#
#
# Convention : Reuss Voigt Hill
#
# Bulk Modulus (GPa) = 37.35341 46.96615 42.15978
# Shear Modulus (GPa) = 29.51821 33.28768 31.40295
#
# Velocity S-wave (km/s) = 3.76034 3.99322 3.87853
# Velocity P-wave (km/s) = 6.06193 6.61509 6.34454
#
# Compressibility (1/GPa) = 0.02677132
#
# Stress axis : x y z
#
# Youngs Moduli (GPa) = 63.09378 99.43487 94.91243
#
# Poissons Ratio (x) = 0.21754 0.07097
# Poissons Ratio (y) = 0.13803 0.18033
# Poissons Ratio (z) = 0.04718 0.18893
#
# Static dielectric constant tensor:
#      x y z
#    x 3.819160 -0.003700 -0.067640 
#    y -0.003700 3.976140 0.152970 
#    z -0.067640 0.152970 4.044560 
# 
# 
# High freq. dielectric constant tensor:
#      x y z
#    x 1.814300 -0.000510 -0.003170 
#    y -0.000510 1.811490 0.012830 
#    z -0.003170 0.012830 1.837780 
# 
# From -- ./inp_files/437402.got.cif
#   From: 2010.06.25/outbox.cif.g09.slc.cpg/sg2_219_cif.got.tgz:437402.got - 2010.06.27 13:26:56.
