data_PCOD8024861
_publ_section_title
;
Structure prediction by ZEFSAII (Michael W. Deem and Ramdas Pophale) SiO2 
 PCOD8024861
Probable space group: P -1
;
_chemical_formula_sum "Si O2"
_cell_formula_units_Z 16
_cell_length_a 19.027067
_cell_length_b 10.288313
_cell_length_c 11.445873
_cell_angle_alpha 76.074206
_cell_angle_beta 136.983736
_cell_angle_gamma 137.895428
_cell_volume 770.131335
_symmetry_space_group_name_H-M "P -1"
_symmetry_group_IT_number 2
_symmetry_cell_setting 'triclinic'
loop_
_space_group_symop_operation_xyz
x,y,z
-x,-y,-z
loop_
_atom_site_type_symbol
_atom_site_label
_atom_site_fract_x
_atom_site_fract_y
_atom_site_fract_z
Si Si1 0.067576 0.689024 0.627324
Si Si2 0.653763 0.075013 0.884527
Si Si3 0.416250 0.197455 0.797774
Si Si4 0.738900 0.698878 0.484541
Si Si5 0.397636 0.194163 0.313427
Si Si6 0.879944 0.856963 0.003414
Si Si7 0.306575 0.552675 0.715111
Si Si8 0.437197 0.726996 0.272367
O O1 0.000000 0.500000 0.500000
O O2 0.887430 0.579731 0.468246
O O3 0.225218 0.954750 0.694576
O O4 0.155767 0.723102 0.844464
O O5 0.636331 0.208459 0.791258
O O6 0.688125 0.019355 0.825794
O O7 0.460082 0.817352 0.776573
O O8 0.395564 0.319967 0.690193
O O9 0.446000 0.128769 0.740094
O O10 0.609139 0.406159 0.068681
O O11 0.621792 0.479529 0.484867
O O12 0.752532 0.641522 0.389604
O O13 0.961745 0.977937 0.735222
O O14 0.252574 0.158870 0.136380
O O15 0.411084 0.160432 0.470518
O O16 0.748779 0.577877 0.905948
O O17 0.000000 0.000000 0.000000
#
# Coordination Sequence:
#
# PCOD8024861 Si02
#       8
#     2   2   2   2   2   2   2   2
#     4  11  23  41  64  91 129 166 208 261 313 369
#     4  10  24  43  67  93 126 170 208 257 317 372
#     4  11  24  39  65  95 125 167 212 256 314 373
#     4  11  23  41  66  94 125 167 208 260 319 370
#     4  11  23  46  65  91 132 164 207 264 315 371
#     4  12  24  41  66  94 128 167 211 258 314 372
#     4  10  23  44  63  92 129 165 211 260 311 374
#     4  12  23  43  66  94 129 165 212 260 311 377
#
# _framework density 20.775677000000002
#
# number of rings (size 3 to 8) (size 9 to 14) (size 15 to 20)
#    0.000    1.000    2.500    4.125    3.500    2.500 
#    2.250    0.625    0.000    0.000    0.000    0.000 
#    0.000    0.000    0.000    0.000    0.000    0.000 
#
# Total GULP energy -198489.806604 kJ/mol
# GULP energy per Si atom -12405.612913 kJ/mol
# Density = 2.072839 g / cm^3
# Si number density = 20.775677 Si / 1000 Ang^3
#
#
#
# Elastic Constant Matrix: (Units=GPa)
#
#
# Indices 1 2 3 4 5 6 
#
# 1 101.9269 24.3501 0.8495 2.4122 5.7735 -11.6275
# 2 24.3501 73.1767 26.8346 -11.2468 -0.8345 -24.7175
# 3 0.8495 26.8346 16.4849 -6.9659 20.5084 0.4694
# 4 2.4122 -11.2468 -6.9659 28.0214 -0.5733 -4.2838
# 5 5.7735 -0.8345 20.5084 -0.5733 36.7759 -4.0441
# 6 -11.6275 -24.7175 0.4694 -4.2838 -4.0441 38.9250
#
#
#
# Elastic Compliance Matrix: (Units=1/GPa)
#
#
# Indices 1 2 3 4 5 6 
#
# 1 0.009741 0.001860 -0.010406 -0.001892 0.004781 0.004505
# 2 0.001860 -0.006479 0.049975 0.008114 -0.028871 -0.006268
# 3 -0.010406 0.049975 -0.089470 0.005406 0.056726 0.036193
# 4 -0.001892 0.008114 0.005406 0.041813 -0.000889 0.009031
# 5 0.004781 -0.028871 0.056726 -0.000889 -0.007897 -0.018507
# 6 0.004505 -0.006268 0.036193 0.009031 -0.018507 0.021691
#
#
# Mechanical properties :
#
#
# Convention : Reuss Voigt Hill
#
# Bulk Modulus (GPa) = -298.55844 32.85078 -132.85383
# Shear Modulus (GPa) = -43.63934 30.04807 -6.79563
#
# Velocity S-wave (km/s) = -4.58809 3.80716 -1.81054
# Velocity P-wave (km/s) = 13.11813 5.93064 8.27384
#
# Compressibility (1/GPa) = -0.00334943
#
# Stress axis : x y z
#
# Youngs Moduli (GPa) = 102.65617 -154.34806 -11.17690
#
# Poissons Ratio (x) = 0.28702 -0.11630
# Poissons Ratio (y) = -0.19090 0.55857
# Poissons Ratio (z) = 1.06819 7.71357
#
# Static dielectric constant tensor:
#      x y z
#    x 3.820190 0.033620 -0.097120 
#    y 0.033620 3.818360 0.171650 
#    z -0.097120 0.171650 4.049650 
# 
# 
# High freq. dielectric constant tensor:
#      x y z
#    x 1.829560 -0.005450 -0.006050 
#    y -0.005450 1.808650 -0.004260 
#    z -0.006050 -0.004260 1.825700 
# 
# From -- ./inp_files/68670.got.cif
#   From: 2010.06.25/outbox.cif.g09.slc.cpg/sg2_35_cif.got.tgz:68670.got - 2010.06.27 13:26:56.
