data_PCOD8024102
_publ_section_title
;
Structure prediction by ZEFSAII (Michael W. Deem and Ramdas Pophale) SiO2 
 PCOD8024102
Probable space group: P -1
;
_chemical_formula_sum "Si O2"
_cell_formula_units_Z 14
_cell_length_a 5.065384
_cell_length_b 17.824056
_cell_length_c 14.537935
_cell_angle_alpha 30.465823
_cell_angle_beta 68.528046
_cell_angle_gamma 68.561693
_cell_volume 615.829476
_symmetry_space_group_name_H-M "P -1"
_symmetry_group_IT_number 2
_symmetry_cell_setting 'triclinic'
loop_
_space_group_symop_operation_xyz
x,y,z
-x,-y,-z
loop_
_atom_site_type_symbol
_atom_site_label
_atom_site_fract_x
_atom_site_fract_y
_atom_site_fract_z
Si Si1 0.221467 0.767015 0.985396
Si Si2 0.990006 0.672438 0.295243
Si Si3 0.393291 0.837613 0.198665
Si Si4 0.952601 0.899395 0.349376
Si Si5 0.630459 0.227042 0.427865
Si Si6 0.691397 0.547395 0.096945
Si Si7 0.745383 0.338764 0.100846
O O1 0.540380 0.675635 0.048875
O O2 0.014868 0.690150 0.162777
O O3 0.127984 0.760251 0.897890
O O4 0.205588 0.940373 0.827459
O O5 0.676984 0.737217 0.299514
O O6 0.000000 0.500000 0.500000
O O7 0.241085 0.763456 0.209885
O O8 0.163622 0.839269 0.305997
O O9 0.500000 0.000000 0.000000
O O10 0.143482 0.896074 0.421879
O O11 0.698504 0.797562 0.497122
O O12 0.654944 0.383077 0.312524
O O13 0.709540 0.231763 0.304833
O O14 0.544998 0.562314 0.997928
O O15 0.018455 0.551414 0.028371
#
# Coordination Sequence:
#
# PCOD8024102 Si02
#       7
#     2   2   2   2   2   2   2
#     4  10  28  43  72  98 148 177 233 278 364 403
#     4  12  28  48  77 108 139 183 242 303 351 425
#     4  12  27  49  75 101 144 191 234 286 371 421
#     4  12  28  43  70 103 143 182 233 287 344 422
#     4  12  25  44  71 104 140 182 240 282 341 416
#     4  10  23  42  70  96 141 184 233 281 346 402
#     4  10  23  43  73  99 141 186 230 284 349 410
#
# _framework density 22.733564000000001
#
# number of rings (size 3 to 8) (size 9 to 14) (size 15 to 20)
#    0.857    0.000    1.429    4.286   10.000    1.143 
#    0.000    0.000    0.000    0.000    0.000    0.000 
#    0.000    0.000    0.000    0.000    0.000    0.000 
#
# Total GULP energy -173473.837806 kJ/mol
# GULP energy per Si atom -12390.988415 kJ/mol
# Density = 2.268182 g / cm^3
# Si number density = 22.733564 Si / 1000 Ang^3
#
#
#
# Elastic Constant Matrix: (Units=GPa)
#
#
# Indices 1 2 3 4 5 6 
#
# 1 132.7249 38.6972 49.6430 -5.0875 -24.2625 -10.1859
# 2 38.6972 92.5216 65.7342 3.2699 -4.8463 -15.3432
# 3 49.6430 65.7342 152.9320 11.0441 -11.4550 -11.2145
# 4 -5.0875 3.2699 11.0441 40.2762 -7.4424 4.3994
# 5 -24.2625 -4.8463 -11.4550 -7.4424 45.7541 0.3052
# 6 -10.1859 -15.3432 -11.2145 4.3994 0.3052 29.8368
#
#
#
# Elastic Compliance Matrix: (Units=1/GPa)
#
#
# Indices 1 2 3 4 5 6 
#
# 1 0.010107 -0.002515 -0.001957 0.002849 0.005060 0.000950
# 2 -0.002515 0.017169 -0.006168 -0.000883 -0.001242 0.005795
# 3 -0.001957 -0.006168 0.010056 -0.002458 0.000425 0.000298
# 4 0.002849 -0.000883 -0.002458 0.027403 0.005289 -0.004500
# 5 0.005060 -0.001242 0.000425 0.005289 0.025373 0.000209
# 6 0.000950 0.005795 0.000298 -0.004500 0.000209 0.037593
#
#
# Mechanical properties :
#
#
# Convention : Reuss Voigt Hill
#
# Bulk Modulus (GPa) = 62.29244 76.25859 69.27551
# Shear Modulus (GPa) = 32.39772 38.11370 35.25571
#
# Velocity S-wave (km/s) = 3.77915 4.09900 3.94232
# Velocity P-wave (km/s) = 6.81933 7.48463 7.15971
#
# Compressibility (1/GPa) = 0.01605331
#
# Stress axis : x y z
#
# Youngs Moduli (GPa) = 98.94514 58.24301 99.44031
#
# Poissons Ratio (x) = 0.14648 0.19458
# Poissons Ratio (y) = 0.24885 0.61332
# Poissons Ratio (z) = 0.19361 0.35923
#
# Static dielectric constant tensor:
#      x y z
#    x 4.168540 -0.110650 0.012010 
#    y -0.110650 4.395810 0.162570 
#    z 0.012010 0.162570 4.038190 
# 
# 
# High freq. dielectric constant tensor:
#      x y z
#    x 1.905660 -0.010660 -0.002030 
#    y -0.010660 1.904630 0.006880 
#    z -0.002030 0.006880 1.897170 
# 
# From -- ./inp_files/484855.got.cif
#   From: 2010.06.25/outbox.cif.g09.slc.cpg/sg2_243_cif.got.tgz:484855.got - 2010.06.27 13:26:56.
