data_PCOD8024608
_publ_section_title
;
Structure prediction by ZEFSAII (Michael W. Deem and Ramdas Pophale) SiO2 
 PCOD8024608
Probable space group: P -1
;
_chemical_formula_sum "Si O2"
_cell_formula_units_Z 16
_cell_length_a 8.537511
_cell_length_b 16.392200
_cell_length_c 9.191381
_cell_angle_alpha 46.722523
_cell_angle_beta 80.318059
_cell_angle_gamma 107.010095
_cell_volume 759.612145
_symmetry_space_group_name_H-M "P -1"
_symmetry_group_IT_number 2
_symmetry_cell_setting 'triclinic'
loop_
_space_group_symop_operation_xyz
x,y,z
-x,-y,-z
loop_
_atom_site_type_symbol
_atom_site_label
_atom_site_fract_x
_atom_site_fract_y
_atom_site_fract_z
Si Si1 0.418107 0.234930 0.122669
Si Si2 0.363994 0.019348 0.598596
Si Si3 0.547500 0.847431 0.075584
Si Si4 0.355936 0.876623 0.322693
Si Si5 0.001188 0.632862 0.831511
Si Si6 0.658902 0.642123 0.377202
Si Si7 0.651721 0.531600 0.814511
Si Si8 0.933237 0.759613 0.949293
O O1 0.374897 0.151661 0.379008
O O2 0.219618 0.213228 0.127308
O O3 0.507935 0.189130 0.040782
O O4 0.593578 0.389653 0.931291
O O5 0.435645 0.042276 0.726365
O O6 0.500000 0.000000 0.500000
O O7 0.142257 0.895724 0.770224
O O8 0.368406 0.806364 0.260153
O O9 0.635379 0.765997 0.214272
O O10 0.692455 0.014033 0.850349
O O11 0.207642 0.765960 0.595602
O O12 0.861780 0.616496 0.745908
O O13 0.938322 0.654155 0.971951
O O14 0.000000 0.500000 0.000000
O O15 0.500000 0.500000 0.500000
O O16 0.660868 0.624814 0.569897
O O17 0.858041 0.689940 0.205090
O O18 0.500000 0.500000 0.000000
#
# Coordination Sequence:
#
# PCOD8024608 Si02
#       8
#     2   2   2   2   2   2   2   2
#     4  11  22  44  68  96 135 179 225 280 339 402
#     4  12  23  41  70  99 132 180 229 274 345 403
#     4  10  23  43  69  92 138 182 212 285 344 391
#     4  11  25  43  64  99 145 174 228 279 339 403
#     4  12  26  42  67 103 138 179 225 283 337 406
#     4  11  23  45  70  98 136 176 228 283 341 405
#     4  12  25  44  71 101 132 178 231 277 349 410
#     4  11  24  44  67  97 139 174 231 278 344 403
#
# _framework density 21.063382000000001
#
# number of rings (size 3 to 8) (size 9 to 14) (size 15 to 20)
#    0.000    0.750    6.250    1.125    5.250    3.000 
#    0.000    4.375    0.000    0.000    0.000    0.000 
#    0.000    0.000    0.000    0.000    0.000    0.000 
#
# Total GULP energy -198323.774107 kJ/mol
# GULP energy per Si atom -12395.235882 kJ/mol
# Density = 2.101544 g / cm^3
# Si number density = 21.063382 Si / 1000 Ang^3
#
#
#
# Elastic Constant Matrix: (Units=GPa)
#
#
# Indices 1 2 3 4 5 6 
#
# 1 64.9901 48.7534 44.1880 -0.5314 3.2046 -1.4888
# 2 48.7534 123.6195 54.2367 7.7250 0.6367 -18.6343
# 3 44.1880 54.2367 151.4939 9.1798 11.7803 -12.1098
# 4 -0.5314 7.7250 9.1798 42.1062 -0.9502 -3.2450
# 5 3.2046 0.6367 11.7803 -0.9502 38.0687 -0.3004
# 6 -1.4888 -18.6343 -12.1098 -3.2450 -0.3004 45.3555
#
#
#
# Elastic Compliance Matrix: (Units=1/GPa)
#
#
# Indices 1 2 3 4 5 6 
#
# 1 0.024868 -0.008498 -0.004628 0.002584 -0.000484 -0.003729
# 2 -0.008498 0.013005 -0.001796 -0.001734 0.001046 0.004468
# 3 -0.004628 -0.001796 0.008989 -0.001636 -0.002392 0.001377
# 4 0.002584 -0.001734 -0.001636 0.024532 0.000936 0.000697
# 5 -0.000484 0.001046 -0.002392 0.000936 0.027055 0.000021
# 6 -0.003729 0.004468 0.001377 0.000697 0.000021 0.024179
#
#
# Mechanical properties :
#
#
# Convention : Reuss Voigt Hill
#
# Bulk Modulus (GPa) = 58.76348 70.49550 64.62949
# Shear Modulus (GPa) = 31.61609 37.96778 34.79194
#
# Velocity S-wave (km/s) = 3.87847 4.25025 4.06861
# Velocity P-wave (km/s) = 6.92934 7.59125 7.26783
#
# Compressibility (1/GPa) = 0.01701737
#
# Stress axis : x y z
#
# Youngs Moduli (GPa) = 40.21166 76.89075 111.24313
#
# Poissons Ratio (x) = 0.65343 0.51486
# Poissons Ratio (y) = 0.34173 0.19985
# Poissons Ratio (z) = 0.18611 0.13813
#
# Static dielectric constant tensor:
#      x y z
#    x 3.572330 -0.223860 0.083120 
#    y -0.223860 4.045040 0.189480 
#    z 0.083120 0.189480 4.134220 
# 
# 
# High freq. dielectric constant tensor:
#      x y z
#    x 1.806250 -0.010440 0.009950 
#    y -0.010440 1.840890 0.006760 
#    z 0.009950 0.006760 1.841270 
# 
# From -- ./inp_files/205605.got.cif
#   From: 2010.06.25/outbox.cif.g09.slc.cpg/sg2_103_cif.got.tgz:205605.got - 2010.06.27 13:26:56.
