data_PCOD8024527
_publ_section_title
;
Structure prediction by ZEFSAII (Michael W. Deem and Ramdas Pophale) SiO2 
 PCOD8024527
Probable space group: P -1
;
_chemical_formula_sum "Si O2"
_cell_formula_units_Z 16
_cell_length_a 5.644045
_cell_length_b 13.462771
_cell_length_c 14.223597
_cell_angle_alpha 44.839185
_cell_angle_beta 87.542737
_cell_angle_gamma 107.368083
_cell_volume 673.293656
_symmetry_space_group_name_H-M "P -1"
_symmetry_group_IT_number 2
_symmetry_cell_setting 'triclinic'
loop_
_space_group_symop_operation_xyz
x,y,z
-x,-y,-z
loop_
_atom_site_type_symbol
_atom_site_label
_atom_site_fract_x
_atom_site_fract_y
_atom_site_fract_z
Si Si1 0.289017 0.042997 0.920424
Si Si2 0.386010 0.604379 0.378142
Si Si3 0.104203 0.894915 0.829713
Si Si4 0.506563 0.348230 0.314653
Si Si5 0.968863 0.096640 0.576889
Si Si6 0.878483 0.375439 0.449080
Si Si7 0.439262 0.811705 0.753783
Si Si8 0.551469 0.606681 0.017890
O O1 0.395838 0.231411 0.779333
O O2 0.262921 0.946690 0.889445
O O3 0.500000 0.000000 0.000000
O O4 0.000000 0.000000 0.000000
O O5 0.500000 0.500000 0.500000
O O6 0.225079 0.650821 0.425465
O O7 0.192651 0.504235 0.362034
O O8 0.263801 0.897211 0.728895
O O9 0.862162 0.717899 0.962072
O O10 0.024175 0.034675 0.716643
O O11 0.237739 0.190306 0.449819
O O12 0.705525 0.425265 0.348093
O O13 0.661877 0.305453 0.256496
O O14 0.428505 0.484947 0.189165
O O15 0.833267 0.206958 0.526262
O O16 0.742347 0.940551 0.633151
O O17 0.420709 0.719627 0.915613
O O18 0.500000 0.500000 0.000000
#
# Coordination Sequence:
#
# PCOD8024527 Si02
#       8
#     2   2   2   2   2   2   2   2
#     4  12  31  49  77 112 148 192 255 315 373 446
#     4  11  26  50  73 100 144 190 243 303 382 434
#     4  11  25  46  70  95 141 188 232 295 366 429
#     4  11  23  40  65 106 135 178 238 288 348 431
#     4  11  23  42  67  99 137 183 229 289 354 434
#     4  11  25  41  75  99 139 182 237 297 359 434
#     4  10  23  43  68  95 141 187 227 284 359 431
#     4   9  23  42  65  96 140 181 229 286 363 425
#
# _framework density 23.763777999999999
#
# number of rings (size 3 to 8) (size 9 to 14) (size 15 to 20)
#    0.000    1.250    0.000    4.125   10.500    9.000 
#    0.000    0.000    0.000    0.000    0.000    0.000 
#    0.000    0.000    0.000    0.000    0.000    0.000 
#
# Total GULP energy -198239.787360 kJ/mol
# GULP energy per Si atom -12389.986710 kJ/mol
# Density = 2.370969 g / cm^3
# Si number density = 23.763778 Si / 1000 Ang^3
#
#
#
# Elastic Constant Matrix: (Units=GPa)
#
#
# Indices 1 2 3 4 5 6 
#
# 1 70.7946 8.8981 29.8911 -2.6480 2.5497 11.7264
# 2 8.8981 78.3491 39.8175 -5.9937 -0.7246 17.7991
# 3 29.8911 39.8175 146.1878 -19.3462 7.1390 18.9784
# 4 -2.6480 -5.9937 -19.3462 32.0442 -1.0477 -1.2338
# 5 2.5497 -0.7246 7.1390 -1.0477 32.3716 1.6113
# 6 11.7264 17.7991 18.9784 -1.2338 1.6113 42.2492
#
#
#
# Elastic Compliance Matrix: (Units=1/GPa)
#
#
# Indices 1 2 3 4 5 6 
#
# 1 0.015866 0.000403 -0.002987 -0.000555 -0.000439 -0.003232
# 2 0.000403 0.015836 -0.003717 0.000599 0.001418 -0.005150
# 3 -0.002987 -0.003717 0.009363 0.004594 -0.001684 -0.001613
# 4 -0.000555 0.000599 0.004594 0.034008 0.000203 -0.001176
# 5 -0.000439 0.001418 -0.001684 0.000203 0.031381 -0.000910
# 6 -0.003232 -0.005150 -0.001613 -0.001176 -0.000910 0.027460
#
#
# Mechanical properties :
#
#
# Convention : Reuss Voigt Hill
#
# Bulk Modulus (GPa) = 35.13149 50.28276 42.70712
# Shear Modulus (GPa) = 32.05090 35.78135 33.91613
#
# Velocity S-wave (km/s) = 3.67649 3.88456 3.78195
# Velocity P-wave (km/s) = 5.73043 6.42846 6.08945
#
# Compressibility (1/GPa) = 0.02846449
#
# Stress axis : x y z
#
# Youngs Moduli (GPa) = 63.02806 63.14915 106.80246
#
# Poissons Ratio (x) = -0.02548 0.31897
# Poissons Ratio (y) = -0.02543 0.39698
# Poissons Ratio (z) = 0.18823 0.23472
#
# Static dielectric constant tensor:
#      x y z
#    x 4.010640 0.426410 -0.215960 
#    y 0.426410 3.992350 0.432940 
#    z -0.215960 0.432940 3.770370 
# 
# 
# High freq. dielectric constant tensor:
#      x y z
#    x 1.933180 0.008250 0.008840 
#    y 0.008250 1.950510 -0.010560 
#    z 0.008840 -0.010560 1.948990 
# 
# From -- ./inp_files/484258.got.cif
#   From: 2010.06.25/outbox.cif.g09.slc.cpg/sg2_243_cif.got.tgz:484258.got - 2010.06.27 13:26:56.
