data_PCOD8024094
_publ_section_title
;
Structure prediction by ZEFSAII (Michael W. Deem and Ramdas Pophale) SiO2 
 PCOD8024094
Probable space group: P -1
;
_chemical_formula_sum "Si O2"
_cell_formula_units_Z 12
_cell_length_a 9.407788
_cell_length_b 16.279459
_cell_length_c 9.771428
_cell_angle_alpha 126.485522
_cell_angle_beta 115.689513
_cell_angle_gamma 29.548361
_cell_volume 579.977760
_symmetry_space_group_name_H-M "P -1"
_symmetry_group_IT_number 2
_symmetry_cell_setting 'triclinic'
loop_
_space_group_symop_operation_xyz
x,y,z
-x,-y,-z
loop_
_atom_site_type_symbol
_atom_site_label
_atom_site_fract_x
_atom_site_fract_y
_atom_site_fract_z
Si Si1 0.838893 0.058736 0.354437
Si Si2 0.844203 0.483015 0.871990
Si Si3 0.097985 0.212786 0.185712
Si Si4 0.248127 0.133009 0.871653
Si Si5 0.186333 0.841172 0.031799
Si Si6 0.662194 0.516763 0.536033
O O1 0.570875 0.280256 0.428505
O O2 0.726959 0.003431 0.248945
O O3 0.000000 0.000000 0.500000
O O4 0.096783 0.936659 0.233148
O O5 0.815088 0.485470 0.699640
O O6 0.018637 0.290679 0.815246
O O7 0.529342 0.666172 0.989200
O O8 0.000000 0.500000 0.000000
O O9 0.923143 0.368190 0.385136
O O10 0.425955 0.003043 0.167693
O O11 0.150405 0.236315 0.080393
O O12 0.884408 0.237827 0.087572
O O13 0.000000 0.000000 0.000000
O O14 0.500000 0.500000 0.500000
#
# Coordination Sequence:
#
# PCOD8024094 Si02
#       6
#     2   2   2   2   2   2
#     4  11  25  40  68 100 133 172 224 275 335 390
#     4  12  26  41  70 102 134 174 226 274 336 394
#     4  10  23  42  70  89 136 176 222 272 330 392
#     4  10  25  44  65  98 134 176 222 273 337 393
#     4  11  21  42  66  93 133 178 216 270 333 400
#     4  12  24  44  69 101 133 176 226 274 328 396
#
# _framework density 20.690449000000001
#
# number of rings (size 3 to 8) (size 9 to 14) (size 15 to 20)
#    0.000    1.000    3.333    2.000    7.000    4.000 
#    0.000    0.000    0.000    0.000    0.000    0.000 
#    0.000    0.000    0.000    0.000    0.000    0.000 
#
# Total GULP energy -148721.693869 kJ/mol
# GULP energy per Si atom -12393.474489 kJ/mol
# Density = 2.064336 g / cm^3
# Si number density = 20.690449 Si / 1000 Ang^3
#
#
#
# Elastic Constant Matrix: (Units=GPa)
#
#
# Indices 1 2 3 4 5 6 
#
# 1 97.8870 61.1379 56.3486 8.7958 -6.0303 -18.0005
# 2 61.1379 191.6831 80.6480 -1.7892 -15.7696 -3.7692
# 3 56.3486 80.6480 181.9934 -7.8599 -29.5708 -14.1692
# 4 8.7958 -1.7892 -7.8599 44.1480 -8.4083 -3.6455
# 5 -6.0303 -15.7696 -29.5708 -8.4083 36.7504 5.3699
# 6 -18.0005 -3.7692 -14.1692 -3.6455 5.3699 45.8204
#
#
#
# Elastic Compliance Matrix: (Units=1/GPa)
#
#
# Indices 1 2 3 4 5 6 
#
# 1 0.015643 -0.003721 -0.003581 -0.004188 -0.003573 0.004818
# 2 -0.003721 0.007315 -0.001952 0.000823 0.001374 -0.001559
# 3 -0.003581 -0.001952 0.008683 0.003425 0.006249 0.000658
# 4 -0.004188 0.000823 0.003425 0.025742 0.008229 0.000565
# 5 -0.003573 0.001374 0.006249 0.008229 0.034526 -0.002750
# 6 0.004818 -0.001559 0.000658 0.000565 -0.002750 0.024159
#
#
# Mechanical properties :
#
#
# Convention : Reuss Voigt Hill
#
# Bulk Modulus (GPa) = 76.14323 96.42585 86.28454
# Shear Modulus (GPa) = 35.98269 43.57237 39.77753
#
# Velocity S-wave (km/s) = 4.17477 4.59401 4.38940
# Velocity P-wave (km/s) = 7.75367 8.65130 8.21475
#
# Compressibility (1/GPa) = 0.01313314
#
# Stress axis : x y z
#
# Youngs Moduli (GPa) = 63.92439 136.70138 115.16906
#
# Poissons Ratio (x) = 0.50870 0.41240
# Poissons Ratio (y) = 0.23788 0.22482
# Poissons Ratio (z) = 0.22890 0.26685
#
# Static dielectric constant tensor:
#      x y z
#    x 4.994380 -0.858850 -0.713610 
#    y -0.858850 4.505440 0.368710 
#    z -0.713610 0.368710 4.320310 
# 
# 
# High freq. dielectric constant tensor:
#      x y z
#    x 1.811010 -0.009050 -0.007130 
#    y -0.009050 1.821450 -0.003190 
#    z -0.007130 -0.003190 1.823040 
# 
# From -- ./inp_files/147779.got.cif
#   From: 2010.06.25/outbox.cif.g09.slc.cpg/sg2_74_cif.got.tgz:147779.got - 2010.06.27 13:26:56.
