data_PCOD8024084
_publ_section_title
;
Structure prediction by ZEFSAII (Michael W. Deem and Ramdas Pophale) SiO2 
 PCOD8024084
Probable space group: P -1
;
_chemical_formula_sum "Si O2"
_cell_formula_units_Z 12
_cell_length_a 9.852841
_cell_length_b 8.401801
_cell_length_c 8.163982
_cell_angle_alpha 128.137574
_cell_angle_beta 83.623004
_cell_angle_gamma 107.288250
_cell_volume 505.176346
_symmetry_space_group_name_H-M "P -1"
_symmetry_group_IT_number 2
_symmetry_cell_setting 'triclinic'
loop_
_space_group_symop_operation_xyz
x,y,z
-x,-y,-z
loop_
_atom_site_type_symbol
_atom_site_label
_atom_site_fract_x
_atom_site_fract_y
_atom_site_fract_z
Si Si1 0.344451 0.276016 0.311455
Si Si2 0.076783 0.722869 0.220527
Si Si3 0.169973 0.472536 0.673319
Si Si4 0.442980 0.598556 0.913506
Si Si5 0.883883 0.090507 0.996875
Si Si6 0.394906 0.950517 0.331548
O O1 0.240275 0.417090 0.463029
O O2 0.477731 0.420034 0.281181
O O3 0.386588 0.176047 0.409148
O O4 0.267186 0.088225 0.077234
O O5 0.242125 0.780873 0.296124
O O6 0.973793 0.719654 0.388030
O O7 0.079050 0.897485 0.194206
O O8 0.000000 0.500000 0.000000
O O9 0.275558 0.491801 0.828610
O O10 0.128889 0.690363 0.786327
O O11 0.500000 0.500000 0.000000
O O12 0.462564 0.842812 0.110252
O O13 0.000000 0.000000 0.000000
O O14 0.500000 0.000000 0.500000
#
# Coordination Sequence:
#
# PCOD8024084 Si02
#       6
#     2   2   2   2   2   2
#     4  11  25  46  67 101 148 185 235 295 355 420
#     4   9  19  43  71  96 142 180 232 289 353 415
#     4  11  23  45  71 101 142 183 234 294 350 433
#     4  12  25  44  70 101 144 190 235 295 355 422
#     4  10  23  42  70 102 138 185 232 295 357 416
#     4  11  23  44  72 106 139 189 240 292 356 424
#
# _framework density 23.754080999999999
#
# number of rings (size 3 to 8) (size 9 to 14) (size 15 to 20)
#    0.000    1.333    5.000    2.000    2.333    3.333 
#    3.000    0.000    0.000    0.000    0.000    0.000 
#    0.000    0.000    0.000    0.000    0.000    0.000 
#
# Total GULP energy -148683.017497 kJ/mol
# GULP energy per Si atom -12390.251458 kJ/mol
# Density = 2.370002 g / cm^3
# Si number density = 23.754081 Si / 1000 Ang^3
#
#
#
# Elastic Constant Matrix: (Units=GPa)
#
#
# Indices 1 2 3 4 5 6 
#
# 1 170.1427 77.5997 52.8381 -5.8121 4.1619 2.7746
# 2 77.5997 89.5594 36.2187 1.9838 -7.1952 7.5088
# 3 52.8381 36.2187 91.7729 -4.7883 -21.2582 10.9682
# 4 -5.8121 1.9838 -4.7883 31.1457 1.6226 -3.1257
# 5 4.1619 -7.1952 -21.2582 1.6226 56.8989 1.1170
# 6 2.7746 7.5088 10.9682 -3.1257 1.1170 47.6947
#
#
#
# Elastic Compliance Matrix: (Units=1/GPa)
#
#
# Indices 1 2 3 4 5 6 
#
# 1 0.011130 -0.008537 -0.003938 0.002381 -0.003469 0.001839
# 2 -0.008537 0.019970 -0.002300 -0.003588 0.002440 -0.002411
# 3 -0.003938 -0.002300 0.015890 0.001231 0.005960 -0.003122
# 4 0.002381 -0.003588 0.001231 0.033266 -0.001163 0.002351
# 5 -0.003469 0.002440 0.005960 -0.001163 0.020439 -0.002108
# 6 0.001839 -0.002411 -0.003122 0.002351 -0.002108 0.022161
#
#
# Mechanical properties :
#
#
# Convention : Reuss Voigt Hill
#
# Bulk Modulus (GPa) = 57.34107 76.08755 66.71431
# Shear Modulus (GPa) = 31.60181 39.46909 35.53545
#
# Velocity S-wave (km/s) = 3.65139 4.08066 3.87198
# Velocity P-wave (km/s) = 6.47832 7.36908 6.93801
#
# Compressibility (1/GPa) = 0.01743951
#
# Stress axis : x y z
#
# Youngs Moduli (GPa) = 89.84600 50.07391 62.93437
#
# Poissons Ratio (x) = 0.42747 0.24785
# Poissons Ratio (y) = 0.76700 0.14477
# Poissons Ratio (z) = 0.35384 0.11518
#
# Static dielectric constant tensor:
#      x y z
#    x 4.646200 0.498730 -0.162720 
#    y 0.498730 4.222460 -0.021460 
#    z -0.162720 -0.021460 4.475420 
# 
# 
# High freq. dielectric constant tensor:
#      x y z
#    x 1.950370 0.012940 -0.000440 
#    y 0.012940 1.927200 0.015480 
#    z -0.000440 0.015480 1.942120 
# 
# From -- ./inp_files/160327.got.cif
#   From: 2010.06.25/outbox.cif.g09.slc.cpg/sg2_81_cif.got.tgz:160327.got - 2010.06.27 13:26:56.
