data_PCOD8024984
_publ_section_title
;
Structure prediction by ZEFSAII (Michael W. Deem and Ramdas Pophale) SiO2 
 PCOD8024984
Probable space group: P -1
;
_chemical_formula_sum "Si O2"
_cell_formula_units_Z 16
_cell_length_a 17.504977
_cell_length_b 11.971503
_cell_length_c 8.712523
_cell_angle_alpha 91.971943
_cell_angle_beta 126.596386
_cell_angle_gamma 43.571476
_cell_volume 702.866068
_symmetry_space_group_name_H-M "P -1"
_symmetry_group_IT_number 2
_symmetry_cell_setting 'triclinic'
loop_
_space_group_symop_operation_xyz
x,y,z
-x,-y,-z
loop_
_atom_site_type_symbol
_atom_site_label
_atom_site_fract_x
_atom_site_fract_y
_atom_site_fract_z
Si Si1 0.571877 0.088696 0.361368
Si Si2 0.386132 0.209189 0.633119
Si Si3 0.135427 0.080357 0.112469
Si Si4 0.294336 0.682646 0.336652
Si Si5 0.602907 0.491276 0.216085
Si Si6 0.753260 0.517073 0.811089
Si Si7 0.072671 0.669938 0.442161
Si Si8 0.311895 0.979922 0.843947
O O1 0.334840 0.345579 0.126367
O O2 0.630655 0.079670 0.269014
O O3 0.643830 0.887911 0.454427
O O4 0.656009 0.078254 0.601398
O O5 0.372427 0.301534 0.472029
O O6 0.218316 0.416516 0.566333
O O7 0.601929 0.998820 0.965154
O O8 0.137464 0.944226 0.133017
O O9 0.076108 0.157665 0.869388
O O10 0.985013 0.306342 0.053847
O O11 0.500000 0.500000 0.500000
O O12 0.313091 0.650115 0.538429
O O13 0.230923 0.632900 0.181492
O O14 0.791269 0.361441 0.356025
O O15 0.500000 0.500000 0.000000
O O16 0.428867 0.758395 0.055845
O O17 0.925902 0.789322 0.412807
#
# Coordination Sequence:
#
# PCOD8024984 Si02
#       8
#     2   2   2   2   2   2   2   2
#     4  12  25  40  66 101 128 169 220 271 315 386
#     4  10  23  45  68  91 130 174 218 263 329 377
#     4  11  23  40  66  99 127 165 221 261 324 382
#     4  12  21  42  69  94 129 172 209 268 326 381
#     4  11  24  43  64  96 131 171 215 261 321 390
#     4  11  23  42  65  95 131 168 214 269 323 383
#     4  10  23  44  67  92 132 172 212 265 326 385
#     4  11  23  44  63  94 133 170 215 264 328 378
#
# _framework density 22.763938
#
# number of rings (size 3 to 8) (size 9 to 14) (size 15 to 20)
#    0.000    1.000    5.000    3.375    0.000    6.000 
#    0.000    0.000    0.000    0.000    0.000    0.000 
#    0.000    0.000    0.000    0.000    0.000    0.000 
#
# Total GULP energy -198303.756993 kJ/mol
# GULP energy per Si atom -12393.984812 kJ/mol
# Density = 2.271213 g / cm^3
# Si number density = 22.763938 Si / 1000 Ang^3
#
#
#
# Elastic Constant Matrix: (Units=GPa)
#
#
# Indices 1 2 3 4 5 6 
#
# 1 80.6971 52.0896 14.7009 -11.5772 11.7136 -12.1688
# 2 52.0896 115.2289 21.9652 -12.0274 2.0623 -6.2131
# 3 14.7009 21.9652 51.9485 -4.9121 13.0505 4.1120
# 4 -11.5772 -12.0274 -4.9121 35.7554 1.7132 15.2689
# 5 11.7136 2.0623 13.0505 1.7132 20.1918 -7.0239
# 6 -12.1688 -6.2131 4.1120 15.2689 -7.0239 54.3933
#
#
#
# Elastic Compliance Matrix: (Units=1/GPa)
#
#
# Indices 1 2 3 4 5 6 
#
# 1 0.020154 -0.008672 0.001201 0.003988 -0.011640 0.000805
# 2 -0.008672 0.013523 -0.005108 0.000341 0.007209 0.000826
# 3 0.001201 -0.005108 0.027455 0.006377 -0.020852 -0.006873
# 4 0.003988 0.000341 0.006377 0.035725 -0.013436 -0.011315
# 5 -0.011640 0.007209 -0.020852 -0.013436 0.074757 0.013221
# 6 0.000805 0.000826 -0.006873 -0.011315 0.013221 0.024062
#
#
# Mechanical properties :
#
#
# Convention : Reuss Voigt Hill
#
# Bulk Modulus (GPa) = 27.79749 47.26508 37.53129
# Shear Modulus (GPa) = 21.47521 32.67603 27.07562
#
# Velocity S-wave (km/s) = 3.07479 3.79282 3.45252
# Velocity P-wave (km/s) = 4.98433 6.32367 5.69352
#
# Compressibility (1/GPa) = 0.03597447
#
# Stress axis : x y z
#
# Youngs Moduli (GPa) = 49.61836 73.94667 36.42288
#
# Poissons Ratio (x) = 0.64123 -0.04374
# Poissons Ratio (y) = 0.43027 0.18606
# Poissons Ratio (z) = -0.05958 0.37774
#
# Static dielectric constant tensor:
#      x y z
#    x 4.393290 0.167580 0.231120 
#    y 0.167580 4.164070 -0.125900 
#    z 0.231120 -0.125900 4.105200 
# 
# 
# High freq. dielectric constant tensor:
#      x y z
#    x 1.900100 -0.001760 0.010360 
#    y -0.001760 1.894770 -0.012940 
#    z 0.010360 -0.012940 1.896290 
# 
# From -- ./inp_files/333418.got.cif
#   From: 2010.06.25/outbox.cif.g09.slc.cpg/sg2_167_cif.got.tgz:333418.got - 2010.06.27 13:26:56.
