data_PCOD8024672
_publ_section_title
;
Structure prediction by ZEFSAII (Michael W. Deem and Ramdas Pophale) SiO2 
 PCOD8024672
Probable space group: P -1
;
_chemical_formula_sum "Si O2"
_cell_formula_units_Z 12
_cell_length_a 16.203609
_cell_length_b 4.991091
_cell_length_c 11.851466
_cell_angle_alpha 64.672874
_cell_angle_beta 38.041102
_cell_angle_gamma 65.121906
_cell_volume 527.790482
_symmetry_space_group_name_H-M "P -1"
_symmetry_group_IT_number 2
_symmetry_cell_setting 'triclinic'
loop_
_space_group_symop_operation_xyz
x,y,z
-x,-y,-z
loop_
_atom_site_type_symbol
_atom_site_label
_atom_site_fract_x
_atom_site_fract_y
_atom_site_fract_z
Si Si1 0.873679 0.257855 0.119429
Si Si2 0.578170 0.277083 0.367272
Si Si3 0.053245 0.355054 0.584043
Si Si4 0.480369 0.463804 0.857061
Si Si5 0.994485 0.266155 0.215762
Si Si6 0.356897 0.164510 0.236473
O O1 0.731535 0.154700 0.262136
O O2 0.876238 0.332830 0.236634
O O3 0.881349 0.567742 0.988054
O O4 0.000000 0.000000 0.000000
O O5 0.500000 0.500000 0.500000
O O6 0.582953 0.437046 0.212722
O O7 0.500000 0.000000 0.500000
O O8 0.053304 0.606382 0.633803
O O9 0.205498 0.191297 0.438402
O O10 0.000000 0.500000 0.500000
O O11 0.962331 0.095031 0.759151
O O12 0.542192 0.739944 0.794943
O O13 0.600532 0.184848 0.771865
O O14 0.362383 0.367030 0.081359
#
# Coordination Sequence:
#
# PCOD8024672 Si02
#       6
#     2   2   2   2   2   2
#     4  11  27  50  76 105 146 198 238 297 373 421
#     4  12  30  44  74 108 144 184 244 299 349 424
#     4  12  26  43  71 108 138 182 239 299 348 428
#     4  10  23  45  65  99 131 187 225 285 350 423
#     4  11  26  45  73 101 145 188 235 289 367 430
#     4  10  23  43  70  93 138 180 227 285 356 407
#
# _framework density 22.736294999999998
#
# number of rings (size 3 to 8) (size 9 to 14) (size 15 to 20)
#    0.000    1.000    1.667    2.500   14.000    0.000 
#    6.000    0.000    0.000    0.000    0.000    0.000 
#    0.000    0.000    0.000    0.000    0.000    0.000 
#
# Total GULP energy -148820.511529 kJ/mol
# GULP energy per Si atom -12401.709294 kJ/mol
# Density = 2.268455 g / cm^3
# Si number density = 22.736295 Si / 1000 Ang^3
#
#
#
# Elastic Constant Matrix: (Units=GPa)
#
#
# Indices 1 2 3 4 5 6 
#
# 1 149.1822 39.4245 65.9413 0.1119 19.2457 5.0633
# 2 39.4245 91.5198 30.2211 -13.3189 -3.1813 14.5685
# 3 65.9413 30.2211 77.5917 -8.5748 -0.9934 -2.5965
# 4 0.1119 -13.3189 -8.5748 44.2439 2.4284 3.4729
# 5 19.2457 -3.1813 -0.9934 2.4284 50.3880 -0.3157
# 6 5.0633 14.5685 -2.5965 3.4729 -0.3157 37.4144
#
#
#
# Elastic Compliance Matrix: (Units=1/GPa)
#
#
# Indices 1 2 3 4 5 6 
#
# 1 0.012446 -0.002356 -0.010021 -0.002307 -0.004997 -0.001290
# 2 -0.002356 0.014693 -0.003443 0.004150 0.001522 -0.006014
# 3 -0.010021 -0.003443 0.023260 0.002960 0.003952 0.004070
# 4 -0.002307 0.004150 0.002960 0.024698 -0.000010 -0.003391
# 5 -0.004997 0.001522 0.003952 -0.000010 0.021932 0.000544
# 6 -0.001290 -0.006014 0.004070 -0.003391 0.000544 0.029846
#
#
# Mechanical properties :
#
#
# Convention : Reuss Voigt Hill
#
# Bulk Modulus (GPa) = 53.31554 65.49640 59.40597
# Shear Modulus (GPa) = 30.34571 38.58971 34.46771
#
# Velocity S-wave (km/s) = 3.65729 4.12427 3.89778
# Velocity P-wave (km/s) = 6.42922 7.17976 6.81483
#
# Compressibility (1/GPa) = 0.01875626
#
# Stress axis : x y z
#
# Youngs Moduli (GPa) = 80.34906 68.06065 42.99270
#
# Poissons Ratio (x) = 0.16036 0.43085
# Poissons Ratio (y) = 0.18932 0.14804
# Poissons Ratio (z) = 0.80521 0.23436
#
# Static dielectric constant tensor:
#      x y z
#    x 4.224680 0.200810 0.202450 
#    y 0.200810 4.093030 -0.232520 
#    z 0.202450 -0.232520 4.331370 
# 
# 
# High freq. dielectric constant tensor:
#      x y z
#    x 1.904470 0.019200 0.018600 
#    y 0.019200 1.899230 -0.018130 
#    z 0.018600 -0.018130 1.902220 
# 
# From -- ./inp_files/133937.got.cif
#   From: 2010.06.25/outbox.cif.g09.slc.cpg/sg2_67_cif.got.tgz:133937.got - 2010.06.27 13:26:56.
