data_PCOD8024073
_publ_section_title
;
Structure prediction by ZEFSAII (Michael W. Deem and Ramdas Pophale) SiO2 
 PCOD8024073
Probable space group: P -1
;
_chemical_formula_sum "Si O2"
_cell_formula_units_Z 16
_cell_length_a 14.125630
_cell_length_b 18.078735
_cell_length_c 27.520652
_cell_angle_alpha 19.707082
_cell_angle_beta 20.533214
_cell_angle_gamma 20.591852
_cell_volume 737.785605
_symmetry_space_group_name_H-M "P -1"
_symmetry_group_IT_number 2
_symmetry_cell_setting 'triclinic'
loop_
_space_group_symop_operation_xyz
x,y,z
-x,-y,-z
loop_
_atom_site_type_symbol
_atom_site_label
_atom_site_fract_x
_atom_site_fract_y
_atom_site_fract_z
Si Si1 0.566500 0.844308 0.980165
Si Si2 0.373092 0.205421 0.475190
Si Si3 0.784094 0.434706 0.438277
Si Si4 0.214558 0.617947 0.775077
Si Si5 0.787465 0.904376 0.185956
Si Si6 0.978113 0.252874 0.722989
Si Si7 0.103943 0.200102 0.342114
Si Si8 0.399950 0.389178 0.728242
O O1 0.848785 0.782275 0.845971
O O2 0.426612 0.124644 0.893563
O O3 0.700399 0.655075 0.077222
O O4 0.300458 0.812590 0.100814
O O5 0.645135 0.241905 0.346338
O O6 0.138391 0.454557 0.407049
O O7 0.199607 0.125875 0.648820
O O8 0.500000 0.000000 0.500000
O O9 0.500000 0.500000 0.500000
O O10 0.839603 0.668152 0.275992
O O11 0.715598 0.340448 0.580531
O O12 0.076153 0.227271 0.397769
O O13 0.357534 0.567987 0.683633
O O14 0.845308 0.841141 0.253811
O O15 0.445057 0.118431 0.212380
O O16 0.000000 0.000000 0.000000
O O17 0.891535 0.466803 0.255491
O O18 0.000000 0.000000 0.500000
#
# Coordination Sequence:
#
# PCOD8024073 Si02
#       8
#     2   2   2   2   2   2   2   2
#     4  10  24  42  66 102 135 168 221 281 338 402
#     4  10  23  46  70  96 132 177 222 277 341 410
#     4  10  23  43  68  97 125 179 232 272 326 400
#     4  10  23  42  70 100 131 173 225 273 343 403
#     4  12  27  45  69 101 145 178 224 289 345 400
#     4  10  25  44  66  99 140 170 221 281 345 396
#     4  11  25  45  68  98 133 180 234 276 329 402
#     4  11  23  39  75  94 133 173 230 277 330 395
#
# _framework density 21.686516000000001
#
# number of rings (size 3 to 8) (size 9 to 14) (size 15 to 20)
#    0.000    1.500    2.500    1.125    7.000    8.500 
#    0.000    0.000    0.000    0.000    0.000    0.000 
#    0.000    0.000    0.000    0.000    0.000    0.000 
#
# Total GULP energy -198396.727779 kJ/mol
# GULP energy per Si atom -12399.795486 kJ/mol
# Density = 2.163716 g / cm^3
# Si number density = 21.686516 Si / 1000 Ang^3
#
#
#
# Elastic Constant Matrix: (Units=GPa)
#
#
# Indices 1 2 3 4 5 6 
#
# 1 107.7194 62.2926 55.5255 4.5237 -0.0435 25.4348
# 2 62.2926 140.6732 65.8731 14.0319 -5.4053 24.9444
# 3 55.5255 65.8731 130.8873 14.4463 -10.5754 11.5629
# 4 4.5237 14.0319 14.4463 37.7362 3.8250 2.4748
# 5 -0.0435 -5.4053 -10.5754 3.8250 31.2992 4.5010
# 6 25.4348 24.9444 11.5629 2.4748 4.5010 47.0483
#
#
#
# Elastic Compliance Matrix: (Units=1/GPa)
#
#
# Indices 1 2 3 4 5 6 
#
# 1 0.014798 -0.003987 -0.004174 0.001784 -0.001606 -0.004801
# 2 -0.003987 0.011264 -0.003321 -0.002397 0.001545 -0.003022
# 3 -0.004174 -0.003321 0.011633 -0.003147 0.003595 0.000980
# 4 0.001784 -0.002397 -0.003147 0.028887 -0.005011 0.000040
# 5 -0.001606 0.001545 0.003595 -0.005011 0.034599 -0.003881
# 6 -0.004801 -0.003022 0.000980 0.000040 -0.003881 0.025581
#
#
# Mechanical properties :
#
#
# Convention : Reuss Voigt Hill
#
# Bulk Modulus (GPa) = 67.87930 82.96247 75.42089
# Shear Modulus (GPa) = 32.33370 36.25599 34.29485
#
# Velocity S-wave (km/s) = 3.86548 4.09323 3.98098
# Velocity P-wave (km/s) = 7.16176 7.78959 7.48226
#
# Compressibility (1/GPa) = 0.01473203
#
# Stress axis : x y z
#
# Youngs Moduli (GPa) = 67.57480 88.78117 85.95881
#
# Poissons Ratio (x) = 0.35396 0.35878
# Poissons Ratio (y) = 0.26941 0.28547
# Poissons Ratio (z) = 0.28205 0.29484
#
# Static dielectric constant tensor:
#      x y z
#    x 4.023430 0.100520 0.219960 
#    y 0.100520 4.155250 0.207350 
#    z 0.219960 0.207350 4.032280 
# 
# 
# High freq. dielectric constant tensor:
#      x y z
#    x 1.848190 0.007410 0.004470 
#    y 0.007410 1.859340 0.006890 
#    z 0.004470 0.006890 1.854260 
# 
# From -- ./inp_files/619722.got.cif
#   From: 2010.06.25/outbox.cif.g09.slc.cpg/sg2_310_cif.got.tgz:619722.got - 2010.06.27 13:26:56.
