data_PCOD8024668
_publ_section_title
;
Structure prediction by ZEFSAII (Michael W. Deem and Ramdas Pophale) SiO2 
 PCOD8024668
Probable space group: P -1
;
_chemical_formula_sum "Si O2"
_cell_formula_units_Z 16
_cell_length_a 17.574062
_cell_length_b 11.325507
_cell_length_c 8.589803
_cell_angle_alpha 71.986618
_cell_angle_beta 27.810308
_cell_angle_gamma 64.058307
_cell_volume 704.864694
_symmetry_space_group_name_H-M "P -1"
_symmetry_group_IT_number 2
_symmetry_cell_setting 'triclinic'
loop_
_space_group_symop_operation_xyz
x,y,z
-x,-y,-z
loop_
_atom_site_type_symbol
_atom_site_label
_atom_site_fract_x
_atom_site_fract_y
_atom_site_fract_z
Si Si1 0.482942 0.789697 0.553856
Si Si2 0.847263 0.197481 0.019380
Si Si3 0.652067 0.723896 0.710604
Si Si4 0.390582 0.054426 0.498049
Si Si5 0.023831 0.061097 0.266075
Si Si6 0.722509 0.278759 0.549698
Si Si7 0.759114 0.549330 0.296646
Si Si8 0.969149 0.595918 0.374390
O O1 0.300772 0.768184 0.863083
O O2 0.487203 0.876474 0.664871
O O3 0.631241 0.642246 0.354864
O O4 0.494606 0.893425 0.353897
O O5 0.765476 0.207685 0.334169
O O6 0.948729 0.296192 0.774257
O O7 0.979247 0.045637 0.816617
O O8 0.646227 0.875357 0.633329
O O9 0.763692 0.641026 0.395214
O O10 0.760703 0.666960 0.693844
O O11 0.462780 0.717411 0.057928
O O12 0.209685 0.081803 0.911380
O O13 0.867780 0.201056 0.448347
O O14 0.000000 0.000000 0.500000
O O15 0.698065 0.432928 0.516084
O O16 0.947477 0.484675 0.900620
O O17 0.000000 0.500000 0.500000
#
# Coordination Sequence:
#
# PCOD8024668 Si02
#       8
#     2   2   2   2   2   2   2   2
#     4   9  20  37  71  94 124 173 218 267 331 370
#     4  10  24  45  66  91 145 174 214 273 340 392
#     4  11  24  43  68  99 132 177 229 270 325 394
#     4   9  20  42  67  95 138 161 226 275 324 386
#     4  11  25  44  71  98 131 175 225 270 332 398
#     4  11  25  42  68 100 136 174 220 272 340 394
#     4  10  23  43  70  89 138 177 222 272 333 390
#     4  11  26  43  66 100 136 176 223 271 337 394
#
# _framework density 22.699390000000001
#
# number of rings (size 3 to 8) (size 9 to 14) (size 15 to 20)
#    0.000    1.750    0.000    2.625   12.250    6.000 
#    0.000    3.125    0.000    0.000    0.000    0.000 
#    0.000    0.000    0.000    0.000    0.000    0.000 
#
# Total GULP energy -198245.843177 kJ/mol
# GULP energy per Si atom -12390.365199 kJ/mol
# Density = 2.264773 g / cm^3
# Si number density = 22.699390 Si / 1000 Ang^3
#
#
#
# Elastic Constant Matrix: (Units=GPa)
#
#
# Indices 1 2 3 4 5 6 
#
# 1 96.3930 49.8834 32.4162 -2.0365 -20.3387 -24.5244
# 2 49.8834 168.4993 35.2963 1.7411 -8.3023 -40.9140
# 3 32.4162 35.2963 75.1325 -13.1823 -13.7448 -18.0820
# 4 -2.0365 1.7411 -13.1823 29.4876 -8.5249 3.9387
# 5 -20.3387 -8.3023 -13.7448 -8.5249 37.2506 9.7114
# 6 -24.5244 -40.9140 -18.0820 3.9387 9.7114 48.8652
#
#
#
# Elastic Compliance Matrix: (Units=1/GPa)
#
#
# Indices 1 2 3 4 5 6 
#
# 1 0.014829 -0.002800 -0.003174 0.001108 0.005859 0.002670
# 2 -0.002800 0.008573 -0.002576 -0.003424 -0.002827 0.005658
# 3 -0.003174 -0.002576 0.019245 0.010363 0.006859 0.001173
# 4 0.001108 -0.003424 0.010363 0.043825 0.014995 -0.004989
# 5 0.005859 -0.002827 0.006859 0.014995 0.036787 -0.005408
# 6 0.002670 0.005658 0.001173 -0.004989 -0.005408 0.028452
#
#
# Mechanical properties :
#
#
# Convention : Reuss Voigt Hill
#
# Bulk Modulus (GPa) = 39.14221 63.91294 51.52757
# Shear Modulus (GPa) = 28.19649 37.94929 33.07289
#
# Velocity S-wave (km/s) = 3.52827 4.09323 3.82120
# Velocity P-wave (km/s) = 5.82060 7.11032 6.49754
#
# Compressibility (1/GPa) = 0.02554787
#
# Stress axis : x y z
#
# Youngs Moduli (GPa) = 67.43332 116.64572 51.96220
#
# Poissons Ratio (x) = 0.32657 0.16493
# Poissons Ratio (y) = 0.18879 0.13385
# Poissons Ratio (z) = 0.21404 0.30046
#
# Static dielectric constant tensor:
#      x y z
#    x 4.077370 -0.326130 -0.082710 
#    y -0.326130 4.655320 0.093390 
#    z -0.082710 0.093390 3.891880 
# 
# 
# High freq. dielectric constant tensor:
#      x y z
#    x 1.890510 -0.017770 -0.016520 
#    y -0.017770 1.918790 -0.002790 
#    z -0.016520 -0.002790 1.875740 
# 
# From -- ./inp_files/331804.got.cif
#   From: 2010.06.25/outbox.cif.g09.slc.cpg/sg2_166_cif.got.tgz:331804.got - 2010.06.27 13:26:56.
