data_PCOD8024430
_publ_section_title
;
Structure prediction by ZEFSAII (Michael W. Deem and Ramdas Pophale) SiO2 
 PCOD8024430
Probable space group: P -1
;
_chemical_formula_sum "Si O2"
_cell_formula_units_Z 14
_cell_length_a 19.599417
_cell_length_b 8.143079
_cell_length_c 8.434984
_cell_angle_alpha 120.911517
_cell_angle_beta 128.139725
_cell_angle_gamma 30.945855
_cell_volume 544.046404
_symmetry_space_group_name_H-M "P -1"
_symmetry_group_IT_number 2
_symmetry_cell_setting 'triclinic'
loop_
_space_group_symop_operation_xyz
x,y,z
-x,-y,-z
loop_
_atom_site_type_symbol
_atom_site_label
_atom_site_fract_x
_atom_site_fract_y
_atom_site_fract_z
Si Si1 0.798944 0.682241 0.352897
Si Si2 0.135056 0.061590 0.590593
Si Si3 0.257264 0.239728 0.335394
Si Si4 0.638189 0.583643 0.555114
Si Si5 0.433045 0.634501 0.144437
Si Si6 0.706024 0.460435 0.951458
Si Si7 0.946918 0.805355 0.114563
O O1 0.776098 0.902410 0.312472
O O2 0.732247 0.849904 0.512223
O O3 0.969953 0.350072 0.444270
O O4 0.719760 0.635521 0.149682
O O5 0.152338 0.004475 0.775793
O O6 0.208001 0.756132 0.458604
O O7 0.385517 0.168610 0.446922
O O8 0.105245 0.620762 0.277830
O O9 0.275262 0.020696 0.133511
O O10 0.523878 0.617168 0.377777
O O11 0.655339 0.596449 0.770744
O O12 0.421094 0.441422 0.099898
O O13 0.500000 0.500000 0.000000
O O14 0.859221 0.072446 0.983494
O O15 0.000000 0.500000 0.000000
#
# Coordination Sequence:
#
# PCOD8024430 Si02
#       7
#     2   2   2   2   2   2   2
#     4  10  23  43  72 101 141 175 226 287 340 406
#     4  10  23  43  67 104 138 178 226 282 341 399
#     4  11  24  46  71 101 133 180 231 283 342 402
#     4  12  27  43  70 102 142 180 230 279 336 414
#     4  12  26  48  71  95 136 185 233 284 337 404
#     4  12  26  43  68 105 139 180 227 280 346 402
#     4  11  23  41  72  98 139 175 225 280 341 401
#
# _framework density 25.733098999999999
#
# number of rings (size 3 to 8) (size 9 to 14) (size 15 to 20)
#    0.000    0.857    1.429    5.143    6.000    3.429 
#    0.000    2.143    0.000    0.000    0.000    0.000 
#    0.000    0.000    0.000    0.000    0.000    0.000 
#
# Total GULP energy -173565.175219 kJ/mol
# GULP energy per Si atom -12397.512516 kJ/mol
# Density = 2.567453 g / cm^3
# Si number density = 25.733099 Si / 1000 Ang^3
#
#
#
# Elastic Constant Matrix: (Units=GPa)
#
#
# Indices 1 2 3 4 5 6 
#
# 1 163.9396 14.4985 62.7057 9.5592 13.4079 -10.5967
# 2 14.4985 24.3318 9.7132 18.2800 -12.8488 -8.1458
# 3 62.7057 9.7132 146.7237 14.9721 3.7799 -3.5676
# 4 9.5592 18.2800 14.9721 39.5117 2.0400 -7.6229
# 5 13.4079 -12.8488 3.7799 2.0400 49.0500 12.0262
# 6 -10.5967 -8.1458 -3.5676 -7.6229 12.0262 33.7196
#
#
#
# Elastic Compliance Matrix: (Units=1/GPa)
#
#
# Indices 1 2 3 4 5 6 
#
# 1 0.008483 -0.008434 -0.003262 0.003936 -0.005181 0.003021
# 2 -0.008434 0.092747 0.001099 -0.042718 0.028260 0.000135
# 3 -0.003262 0.001099 0.008411 -0.003124 0.000879 -0.000889
# 4 0.003936 -0.042718 -0.003124 0.047447 -0.015693 0.006910
# 5 -0.005181 0.028260 0.000879 -0.015693 0.032178 -0.009732
# 6 0.003021 0.000135 -0.000889 0.006910 -0.009732 0.035577
#
#
# Mechanical properties :
#
#
# Convention : Reuss Voigt Hill
#
# Bulk Modulus (GPa) = 11.30617 56.53665 33.92141
# Shear Modulus (GPa) = 18.14750 40.99476 29.57113
#
# Velocity S-wave (km/s) = 2.65848 3.99566 3.39359
# Velocity P-wave (km/s) = 3.71840 6.58067 5.34470
#
# Compressibility (1/GPa) = 0.08844731
#
# Stress axis : x y z
#
# Youngs Moduli (GPa) = 117.88565 10.78197 118.88930
#
# Poissons Ratio (x) = 0.09094 0.38778
# Poissons Ratio (y) = 0.99430 -0.13066
# Poissons Ratio (z) = 0.38450 -0.01185
#
# Static dielectric constant tensor:
#      x y z
#    x 5.042140 -0.380540 0.378560 
#    y -0.380540 5.860450 -0.166810 
#    z 0.378560 -0.166810 4.681380 
# 
# 
# High freq. dielectric constant tensor:
#      x y z
#    x 2.043950 -0.018440 0.023600 
#    y -0.018440 2.044630 0.001750 
#    z 0.023600 0.001750 2.035150 
# 
# From -- ./inp_files/189753.got.cif
#   From: 2010.06.25/outbox.cif.g09.slc.cpg/sg2_95_cif.got.tgz:189753.got - 2010.06.27 13:26:56.
