data_PCOD8024082
_publ_section_title
;
Structure prediction by ZEFSAII (Michael W. Deem and Ramdas Pophale) SiO2 
 PCOD8024082
Probable space group: P -1
;
_chemical_formula_sum "Si O2"
_cell_formula_units_Z 16
_cell_length_a 16.952029
_cell_length_b 19.406246
_cell_length_c 9.775285
_cell_angle_alpha 32.625034
_cell_angle_beta 31.954796
_cell_angle_gamma 24.864292
_cell_volume 676.699172
_symmetry_space_group_name_H-M "P -1"
_symmetry_group_IT_number 2
_symmetry_cell_setting 'triclinic'
loop_
_space_group_symop_operation_xyz
x,y,z
-x,-y,-z
loop_
_atom_site_type_symbol
_atom_site_label
_atom_site_fract_x
_atom_site_fract_y
_atom_site_fract_z
Si Si1 0.924934 0.495418 0.259195
Si Si2 0.116569 0.761164 0.315544
Si Si3 0.664761 0.144227 0.668053
Si Si4 0.347797 0.225510 0.197364
Si Si5 0.116258 0.243052 0.967608
Si Si6 0.437061 0.159333 0.466071
Si Si7 0.708389 0.132249 0.314522
Si Si8 0.267282 0.671885 0.545149
O O1 0.108482 0.374627 0.297445
O O2 0.819292 0.419944 0.519043
O O3 0.796304 0.689676 0.181449
O O4 0.000000 0.500000 0.000000
O O5 0.217666 0.737403 0.352098
O O6 0.194032 0.800960 0.010366
O O7 0.874515 0.921227 0.421333
O O8 0.637856 0.209554 0.443186
O O9 0.778844 0.182173 0.530783
O O10 0.447753 0.239304 0.897197
O O11 0.796703 0.940854 0.800886
O O12 0.430947 0.236045 0.201096
O O13 0.396458 0.047697 0.429188
O O14 0.213759 0.223297 0.710607
O O15 0.872217 0.366892 0.130511
O O16 0.506134 0.216833 0.386083
O O17 0.500000 0.500000 0.500000
#
# Coordination Sequence:
#
# PCOD8024082 Si02
#       8
#     2   2   2   2   2   2   2   2
#     4  12  23  43  70 102 143 180 232 286 348 416
#     4  11  25  44  70 104 139 187 230 287 358 408
#     4  11  24  43  73 104 136 183 240 283 346 418
#     4  10  23  42  70 101 139 187 225 287 354 412
#     4  11  25  41  72 103 139 185 234 286 346 419
#     4  10  23  44  68 104 140 177 234 292 348 411
#     4  11  23  43  72 104 138 182 234 294 342 416
#     4  12  25  46  70 103 144 182 232 289 356 414
#
# _framework density 23.644183000000002
#
# number of rings (size 3 to 8) (size 9 to 14) (size 15 to 20)
#    0.000    1.000    3.750    1.875    1.750    2.500 
#    0.000    3.750    0.000    0.000    0.000    0.000 
#    0.000    0.000    0.000    0.000    0.000    0.000 
#
# Total GULP energy -198281.924102 kJ/mol
# GULP energy per Si atom -12392.620256 kJ/mol
# Density = 2.359037 g / cm^3
# Si number density = 23.644183 Si / 1000 Ang^3
#
#
#
# Elastic Constant Matrix: (Units=GPa)
#
#
# Indices 1 2 3 4 5 6 
#
# 1 171.8778 35.2223 57.2173 -3.3880 13.4876 20.4871
# 2 35.2223 69.3626 30.7475 4.8970 -2.7222 8.9735
# 3 57.2173 30.7475 108.4343 7.6249 16.8276 12.9425
# 4 -3.3880 4.8970 7.6249 37.2905 9.9154 -13.0959
# 5 13.4876 -2.7222 16.8276 9.9154 42.7984 -3.3550
# 6 20.4871 8.9735 12.9425 -13.0959 -3.3550 39.8751
#
#
#
# Elastic Compliance Matrix: (Units=1/GPa)
#
#
# Indices 1 2 3 4 5 6 
#
# 1 0.007744 -0.002540 -0.002901 0.001386 -0.001953 -0.002175
# 2 -0.002540 0.018183 -0.003912 -0.003775 0.004181 -0.002405
# 3 -0.002901 -0.003912 0.013027 -0.002358 -0.004144 -0.002981
# 4 0.001386 -0.003775 -0.002358 0.033699 -0.006662 0.011410
# 5 -0.001953 0.004181 -0.004144 -0.006662 0.027540 0.001537
# 6 -0.002175 -0.002405 -0.002981 0.011410 0.001537 0.031581
#
#
# Mechanical properties :
#
#
# Convention : Reuss Voigt Hill
#
# Bulk Modulus (GPa) = 49.38698 66.22766 57.80732
# Shear Modulus (GPa) = 31.80099 39.09196 35.44647
#
# Velocity S-wave (km/s) = 3.67138 4.07054 3.87610
# Velocity P-wave (km/s) = 6.23738 7.08261 6.67339
#
# Compressibility (1/GPa) = 0.02024825
#
# Stress axis : x y z
#
# Youngs Moduli (GPa) = 129.13183 54.99783 76.76437
#
# Poissons Ratio (x) = 0.13967 0.22269
# Poissons Ratio (y) = 0.32794 0.30031
# Poissons Ratio (z) = 0.37460 0.21516
#
# Static dielectric constant tensor:
#      x y z
#    x 1.597210 4.975960 1.549430 
#    y 4.975960 -5.108020 -2.778080 
#    z 1.549430 -2.778080 3.350480 
# 
# 
# High freq. dielectric constant tensor:
#      x y z
#    x 1.936920 0.010020 0.002400 
#    y 0.010020 1.932220 0.003760 
#    z 0.002400 0.003760 1.937620 
# 
# From -- ./inp_files/317965.got.cif
#   From: 2010.06.25/outbox.cif.g09.slc.cpg/sg2_159_cif.got.tgz:317965.got - 2010.06.27 13:26:56.
