data_PCOD8024555
_publ_section_title
;
Structure prediction by ZEFSAII (Michael W. Deem and Ramdas Pophale) SiO2 
 PCOD8024555
Probable space group: P -1
;
_chemical_formula_sum "Si O2"
_cell_formula_units_Z 16
_cell_length_a 11.866531
_cell_length_b 6.517686
_cell_length_c 24.469853
_cell_angle_alpha 64.008735
_cell_angle_beta 152.634378
_cell_angle_gamma 123.627769
_cell_volume 717.227873
_symmetry_space_group_name_H-M "P -1"
_symmetry_group_IT_number 2
_symmetry_cell_setting 'triclinic'
loop_
_space_group_symop_operation_xyz
x,y,z
-x,-y,-z
loop_
_atom_site_type_symbol
_atom_site_label
_atom_site_fract_x
_atom_site_fract_y
_atom_site_fract_z
Si Si1 0.317568 0.243730 0.020408
Si Si2 0.920227 0.583945 0.513004
Si Si3 0.646583 0.287321 0.531677
Si Si4 0.392874 0.664798 0.267398
Si Si5 0.476863 0.820582 0.775014
Si Si6 0.803211 0.506346 0.684738
Si Si7 0.650105 0.265637 0.059922
Si Si8 0.119569 0.314095 0.099341
O O1 0.536976 0.255243 0.158701
O O2 0.428112 0.273421 0.004298
O O3 0.256221 0.495889 0.969857
O O4 0.069347 0.978263 0.950109
O O5 0.810615 0.366207 0.536683
O O6 0.703096 0.701031 0.396866
O O7 0.000000 0.500000 0.500000
O O8 0.189835 0.782318 0.632052
O O9 0.829207 0.372292 0.655174
O O10 0.414840 0.382365 0.427282
O O11 0.500000 0.000000 0.500000
O O12 0.292105 0.684628 0.282942
O O13 0.209816 0.402178 0.190283
O O14 0.353730 0.883290 0.191342
O O15 0.613845 0.659218 0.821651
O O16 0.090214 0.724078 0.796322
O O17 0.500000 0.000000 0.000000
O O18 0.000000 0.500000 0.000000
#
# Coordination Sequence:
#
# PCOD8024555 Si02
#       8
#     2   2   2   2   2   2   2   2
#     4  11  26  42  66 101 136 181 237 280 345 423
#     4  11  24  45  67 105 136 180 234 286 355 414
#     4  10  24  45  70  98 136 177 231 288 348 412
#     4  11  24  43  72 101 141 185 227 294 354 423
#     4  12  25  43  69  99 141 179 232 293 351 420
#     4  10  23  43  68  99 131 180 233 279 349 418
#     4  11  25  44  68  97 139 185 230 289 344 413
#     4  12  25  43  67 103 139 182 231 286 355 419
#
# _framework density 22.308112999999999
#
# number of rings (size 3 to 8) (size 9 to 14) (size 15 to 20)
#    0.000    1.000    2.500    3.000    5.250    5.000 
#    4.500    0.000    0.000    0.000    0.000    0.000 
#    0.000    0.000    0.000    0.000    0.000    0.000 
#
# Total GULP energy -198275.065189 kJ/mol
# GULP energy per Si atom -12392.191574 kJ/mol
# Density = 2.225734 g / cm^3
# Si number density = 22.308113 Si / 1000 Ang^3
#
#
#
# Elastic Constant Matrix: (Units=GPa)
#
#
# Indices 1 2 3 4 5 6 
#
# 1 120.3365 54.6632 36.1134 2.5291 -21.6732 2.9989
# 2 54.6632 146.5412 49.3078 14.1090 -19.7666 13.3475
# 3 36.1134 49.3078 132.4014 20.3727 -16.6542 -1.5333
# 4 2.5291 14.1090 20.3727 34.9096 -0.4822 -5.6749
# 5 -21.6732 -19.7666 -16.6542 -0.4822 41.9117 1.6592
# 6 2.9989 13.3475 -1.5333 -5.6749 1.6592 23.8855
#
#
#
# Elastic Compliance Matrix: (Units=1/GPa)
#
#
# Indices 1 2 3 4 5 6 
#
# 1 0.010825 -0.003247 -0.001543 0.001555 0.003452 0.000486
# 2 -0.003247 0.009971 -0.002043 -0.003596 0.002420 -0.006318
# 3 -0.001543 -0.002043 0.009700 -0.004577 0.002012 0.000731
# 4 0.001555 -0.003596 -0.004577 0.034219 -0.002706 0.009838
# 5 0.003452 0.002420 0.002012 -0.002706 0.027722 -0.004225
# 6 0.000486 -0.006318 0.000731 0.009838 -0.004225 0.048014
#
#
# Mechanical properties :
#
#
# Convention : Reuss Voigt Hill
#
# Bulk Modulus (GPa) = 59.41770 75.49421 67.45596
# Shear Modulus (GPa) = 31.30356 37.42101 34.36229
#
# Velocity S-wave (km/s) = 3.75004 4.10013 3.92899
# Velocity P-wave (km/s) = 6.74116 7.50532 7.13348
#
# Compressibility (1/GPa) = 0.01683000
#
# Stress axis : x y z
#
# Youngs Moduli (GPa) = 92.37874 100.29230 103.09127
#
# Poissons Ratio (x) = 0.32568 0.15904
# Poissons Ratio (y) = 0.29998 0.21061
# Poissons Ratio (z) = 0.14252 0.20490
#
# Static dielectric constant tensor:
#      x y z
#    x 4.174120 -0.156080 -0.085770 
#    y -0.156080 3.313520 0.292030 
#    z -0.085770 0.292030 4.122350 
# 
# 
# High freq. dielectric constant tensor:
#      x y z
#    x 1.885510 0.001170 -0.004390 
#    y 0.001170 1.871090 0.000170 
#    z -0.004390 0.000170 1.894550 
# 
# From -- ./inp_files/72218.got.cif
#   From: 2010.06.25/outbox.cif.g09.slc.cpg/sg2_37_cif.got.tgz:72218.got - 2010.06.27 13:26:56.
