data_PCOD8024061
_publ_section_title
;
Structure prediction by ZEFSAII (Michael W. Deem and Ramdas Pophale) SiO2 
 PCOD8024061
Probable space group: P -1
;
_chemical_formula_sum "Si O2"
_cell_formula_units_Z 14
_cell_length_a 13.560877
_cell_length_b 13.205162
_cell_length_c 8.891825
_cell_angle_alpha 75.125459
_cell_angle_beta 122.707585
_cell_angle_gamma 149.261502
_cell_volume 599.625550
_symmetry_space_group_name_H-M "P -1"
_symmetry_group_IT_number 2
_symmetry_cell_setting 'triclinic'
loop_
_space_group_symop_operation_xyz
x,y,z
-x,-y,-z
loop_
_atom_site_type_symbol
_atom_site_label
_atom_site_fract_x
_atom_site_fract_y
_atom_site_fract_z
Si Si1 0.400051 0.098485 0.183616
Si Si2 0.129642 0.558193 0.387016
Si Si3 0.581059 0.288068 0.696454
Si Si4 0.693742 0.059302 0.155567
Si Si5 0.262629 0.330329 0.975226
Si Si6 0.274844 0.177450 0.270071
Si Si7 0.953335 0.630953 0.125712
O O1 0.700625 0.312200 0.370944
O O2 0.332791 0.159428 0.169729
O O3 0.240869 0.892286 0.234795
O O4 0.317426 0.022326 0.970945
O O5 0.325788 0.721514 0.347147
O O6 0.968283 0.324371 0.318358
O O7 0.953443 0.521886 0.259480
O O8 0.463072 0.296482 0.514270
O O9 0.372246 0.066400 0.710753
O O10 0.824837 0.515498 0.902765
O O11 0.500000 0.000000 0.000000
O O12 0.316422 0.330683 0.190730
O O13 0.500000 0.500000 0.000000
O O14 0.207739 0.411294 0.898028
O O15 0.010648 0.069216 0.812113
#
# Coordination Sequence:
#
# PCOD8024061 Si02
#       7
#     2   2   2   2   2   2   2
#     4  10  23  42  69  98 135 183 218 275 343 399
#     4  11  23  45  66 100 144 178 217 276 338 407
#     4  11  23  42  68 101 139 174 218 281 340 403
#     4  12  24  39  63 101 140 176 224 269 326 409
#     4  10  23  43  69  95 127 177 231 279 328 395
#     4   9  23  45  66  96 134 171 227 279 335 398
#     4  11  21  42  70  96 136 179 223 276 339 397
#
# _framework density 23.347902999999999
#
# number of rings (size 3 to 8) (size 9 to 14) (size 15 to 20)
#    0.000    1.429    2.857    1.714    2.000    5.714 
#    5.143    0.714    0.000    0.000    0.000    0.000 
#    0.000    0.000    0.000    0.000    0.000    0.000 
#
# Total GULP energy -173565.579630 kJ/mol
# GULP energy per Si atom -12397.541402 kJ/mol
# Density = 2.329476 g / cm^3
# Si number density = 23.347903 Si / 1000 Ang^3
#
#
#
# Elastic Constant Matrix: (Units=GPa)
#
#
# Indices 1 2 3 4 5 6 
#
# 1 80.9779 40.8845 43.9223 -0.0001 5.6964 8.9319
# 2 40.8845 96.0557 56.9443 1.5577 -3.6047 8.7697
# 3 43.9223 56.9443 116.9074 18.1044 21.1213 -1.6328
# 4 -0.0001 1.5577 18.1044 25.1186 -2.6571 -5.4625
# 5 5.6964 -3.6047 21.1213 -2.6571 38.0382 -2.7240
# 6 8.9319 8.7697 -1.6328 -5.4625 -2.7240 29.7698
#
#
#
# Elastic Compliance Matrix: (Units=1/GPa)
#
#
# Indices 1 2 3 4 5 6 
#
# 1 0.017665 -0.004250 -0.005033 0.003032 -0.000314 -0.003797
# 2 -0.004250 0.018567 -0.009924 0.006243 0.008138 -0.002849
# 3 -0.005033 -0.009924 0.019718 -0.014486 -0.012022 0.001757
# 4 0.003032 0.006243 -0.014486 0.052757 0.012387 0.007271
# 5 -0.000314 0.008138 -0.012022 0.012387 0.034827 0.002497
# 6 -0.003797 -0.002849 0.001757 0.007271 0.002497 0.037228
#
#
# Mechanical properties :
#
#
# Convention : Reuss Voigt Hill
#
# Bulk Modulus (GPa) = 57.02071 64.16035 60.59053
# Shear Modulus (GPa) = 22.22011 28.73132 25.47572
#
# Velocity S-wave (km/s) = 3.08830 3.51176 3.30682
# Velocity P-wave (km/s) = 6.09853 6.63197 6.37084
#
# Compressibility (1/GPa) = 0.01753749
#
# Stress axis : x y z
#
# Youngs Moduli (GPa) = 56.60819 53.85935 50.71414
#
# Poissons Ratio (x) = 0.22888 0.25524
# Poissons Ratio (y) = 0.24056 0.50329
# Poissons Ratio (z) = 0.28490 0.53450
#
# Static dielectric constant tensor:
#      x y z
#    x 4.180360 -0.033440 0.079150 
#    y -0.033440 4.242650 0.146140 
#    z 0.079150 0.146140 4.236060 
# 
# 
# High freq. dielectric constant tensor:
#      x y z
#    x 1.911190 0.007590 0.009710 
#    y 0.007590 1.930460 0.005570 
#    z 0.009710 0.005570 1.921650 
# 
# From -- ./inp_files/313199.got.cif
#   From: 2010.06.25/outbox.cif.g09.slc.cpg/sg2_157_cif.got.tgz:313199.got - 2010.06.27 13:26:56.
