data_PCOD8024611
_publ_section_title
;
Structure prediction by ZEFSAII (Michael W. Deem and Ramdas Pophale) SiO2 
 PCOD8024611
Probable space group: P -1
;
_chemical_formula_sum "Si O2"
_cell_formula_units_Z 16
_cell_length_a 12.030511
_cell_length_b 25.807567
_cell_length_c 6.387493
_cell_angle_alpha 119.613747
_cell_angle_beta 130.614740
_cell_angle_gamma 28.348844
_cell_volume 697.571054
_symmetry_space_group_name_H-M "P -1"
_symmetry_group_IT_number 2
_symmetry_cell_setting 'triclinic'
loop_
_space_group_symop_operation_xyz
x,y,z
-x,-y,-z
loop_
_atom_site_type_symbol
_atom_site_label
_atom_site_fract_x
_atom_site_fract_y
_atom_site_fract_z
Si Si1 0.678832 0.186424 0.957818
Si Si2 0.076007 0.646540 0.826564
Si Si3 0.189215 0.378227 0.433270
Si Si4 0.459403 0.680151 0.595675
Si Si5 0.097865 0.175143 0.903850
Si Si6 0.514782 0.955953 0.223362
Si Si7 0.141404 0.978774 0.840254
Si Si8 0.408053 0.493858 0.571592
O O1 0.669999 0.248604 0.210166
O O2 0.743388 0.110609 0.042196
O O3 0.388085 0.286679 0.680454
O O4 0.921944 0.100383 0.914757
O O5 0.126629 0.612423 0.575887
O O6 0.003031 0.613872 0.815697
O O7 0.348123 0.584214 0.120850
O O8 0.854015 0.776464 0.830288
O O9 0.356059 0.336497 0.342868
O O10 0.000000 0.500000 0.500000
O O11 0.634880 0.561523 0.643402
O O12 0.205671 0.746389 0.274044
O O13 0.174612 0.153430 0.706204
O O14 0.308130 0.056194 0.009926
O O15 0.500000 0.000000 0.500000
O O16 0.417679 0.921096 0.035929
O O17 0.000000 0.000000 0.500000
O O18 0.500000 0.500000 0.500000
#
# Coordination Sequence:
#
# PCOD8024611 Si02
#       8
#     2   2   2   2   2   2   2   2
#     4  11  26  41  74 100 139 183 236 284 359 416
#     4  10  24  43  64  99 133 181 228 289 340 410
#     4  12  26  44  69 100 147 184 233 289 345 417
#     4  11  24  46  66 100 133 189 228 289 347 418
#     4  10  24  42  68  95 137 172 230 280 355 406
#     4  11  24  41  69  99 134 176 227 291 346 425
#     4  11  25  47  70 105 141 182 236 298 359 420
#     4  10  23  43  69  93 133 177 233 283 348 409
#
# _framework density 22.936731999999999
#
# number of rings (size 3 to 8) (size 9 to 14) (size 15 to 20)
#    0.000    1.250    1.250    3.000    7.000    6.500 
#    0.000    0.000    0.000    0.000    0.000    0.000 
#    0.000    0.000    0.000    0.000    0.000    0.000 
#
# Total GULP energy -198215.284451 kJ/mol
# GULP energy per Si atom -12388.455278 kJ/mol
# Density = 2.288453 g / cm^3
# Si number density = 22.936732 Si / 1000 Ang^3
#
#
#
# Elastic Constant Matrix: (Units=GPa)
#
#
# Indices 1 2 3 4 5 6 
#
# 1 127.1773 22.1294 22.7531 23.4723 -0.0185 -14.6519
# 2 22.1294 94.9839 17.1905 27.2433 -12.2185 -7.3995
# 3 22.7531 17.1905 69.0782 23.7881 -3.2772 -4.7846
# 4 23.4723 27.2433 23.7881 46.5256 2.3677 -3.4691
# 5 -0.0185 -12.2185 -3.2772 2.3677 37.6968 2.1129
# 6 -14.6519 -7.3995 -4.7846 -3.4691 2.1129 38.0900
#
#
#
# Elastic Compliance Matrix: (Units=1/GPa)
#
#
# Indices 1 2 3 4 5 6 
#
# 1 0.009196 -0.000772 -0.001566 -0.003151 -0.000348 0.002923
# 2 -0.000772 0.013665 -0.000185 -0.007660 0.004817 0.001369
# 3 -0.001566 -0.000185 0.018074 -0.008388 0.001995 0.000758
# 4 -0.003151 -0.007660 -0.008388 0.032081 -0.005198 -0.000544
# 5 -0.000348 0.004817 0.001995 -0.005198 0.028645 -0.001010
# 6 0.002923 0.001369 0.000758 -0.000544 -0.001010 0.027746
#
#
# Mechanical properties :
#
#
# Convention : Reuss Voigt Hill
#
# Bulk Modulus (GPa) = 27.86401 46.15392 37.00896
# Shear Modulus (GPa) = 34.14941 39.74023 36.94482
#
# Velocity S-wave (km/s) = 3.86275 4.16697 4.01774
# Velocity P-wave (km/s) = 5.66295 6.58160 6.13948
#
# Compressibility (1/GPa) = 0.03588859
#
# Stress axis : x y z
#
# Youngs Moduli (GPa) = 108.74553 73.17956 55.32915
#
# Poissons Ratio (x) = 0.05652 0.08663
# Poissons Ratio (y) = 0.08399 0.01023
# Poissons Ratio (z) = 0.17027 0.01352
#
# Static dielectric constant tensor:
#      x y z
#    x 4.586920 -0.305050 -0.100200 
#    y -0.305050 4.800000 0.428120 
#    z -0.100200 0.428120 4.103960 
# 
# 
# High freq. dielectric constant tensor:
#      x y z
#    x 1.914520 0.000540 0.004410 
#    y 0.000540 1.924410 0.016420 
#    z 0.004410 0.016420 1.887620 
# 
# From -- ./inp_files/85109.got.cif
#   From: 2010.06.25/outbox.cif.g09.slc.cpg/sg2_43_cif.got.tgz:85109.got - 2010.06.27 13:26:56.
