data_PCOD8024216
_publ_section_title
;
Structure prediction by ZEFSAII (Michael W. Deem and Ramdas Pophale) SiO2 
 PCOD8024216
Probable space group: P -1
;
_chemical_formula_sum "Si O2"
_cell_formula_units_Z 14
_cell_length_a 13.920809
_cell_length_b 8.845968
_cell_length_c 15.430670
_cell_angle_alpha 39.818205
_cell_angle_beta 139.053756
_cell_angle_gamma 148.294879
_cell_volume 609.478924
_symmetry_space_group_name_H-M "P -1"
_symmetry_group_IT_number 2
_symmetry_cell_setting 'triclinic'
loop_
_space_group_symop_operation_xyz
x,y,z
-x,-y,-z
loop_
_atom_site_type_symbol
_atom_site_label
_atom_site_fract_x
_atom_site_fract_y
_atom_site_fract_z
Si Si1 0.449293 0.355225 0.624616
Si Si2 0.062786 0.664786 0.108017
Si Si3 0.856999 0.676962 0.812874
Si Si4 0.104794 0.374433 0.655426
Si Si5 0.539696 0.307351 0.365773
Si Si6 0.236481 0.209702 0.080531
Si Si7 0.211094 0.641351 0.795051
O O1 0.500000 0.500000 0.500000
O O2 0.633966 0.479440 0.749290
O O3 0.365829 0.469770 0.582092
O O4 0.321728 0.990479 0.689253
O O5 0.961405 0.455361 0.217107
O O6 0.107169 0.505018 0.144082
O O7 0.915501 0.690343 0.946475
O O8 0.258272 0.009740 0.116017
O O9 0.967043 0.013001 0.699442
O O10 0.306089 0.532161 0.676695
O O11 0.131178 0.424100 0.753303
O O12 0.000000 0.500000 0.500000
O O13 0.340778 0.228231 0.232076
O O14 0.500000 0.000000 0.500000
O O15 0.333920 0.559764 0.963183
O O16 0.000000 0.000000 0.000000
#
# Coordination Sequence:
#
# PCOD8024216 Si02
#       7
#     2   2   2   2   2   2   2
#     4  12  27  46  68 105 145 187 238 300 356 431
#     4  10  23  42  74 102 138 181 234 301 353 423
#     4  11  24  45  69 102 144 183 236 292 364 418
#     4  12  27  45  69 104 146 193 237 293 359 432
#     4  12  28  46  74 106 148 191 240 296 364 427
#     4  10  23  44  76 106 141 185 239 301 353 422
#     4  11  24  44  73 102 142 189 242 295 360 422
#
# _framework density 22.970441999999998
#
# number of rings (size 3 to 8) (size 9 to 14) (size 15 to 20)
#    0.000    0.857    1.429    5.143   10.000    5.143 
#    0.000    2.857    0.000    0.000    0.000    0.000 
#    0.000    0.000    0.000    0.000    0.000    0.000 
#
# Total GULP energy -173437.597010 kJ/mol
# GULP energy per Si atom -12388.399786 kJ/mol
# Density = 2.291816 g / cm^3
# Si number density = 22.970442 Si / 1000 Ang^3
#
#
#
# Elastic Constant Matrix: (Units=GPa)
#
#
# Indices 1 2 3 4 5 6 
#
# 1 88.3180 18.5423 27.9611 8.1650 -23.4698 -8.5714
# 2 18.5423 70.3866 21.1307 -19.9269 9.5672 -14.8074
# 3 27.9611 21.1307 117.0999 -15.7566 -2.0477 -15.5046
# 4 8.1650 -19.9269 -15.7566 46.1946 -3.5308 -4.0680
# 5 -23.4698 9.5672 -2.0477 -3.5308 35.3419 2.3698
# 6 -8.5714 -14.8074 -15.5046 -4.0680 2.3698 40.0223
#
#
#
# Elastic Compliance Matrix: (Units=1/GPa)
#
#
# Indices 1 2 3 4 5 6 
#
# 1 0.018270 -0.007919 -0.003932 -0.007138 0.013474 -0.002064
# 2 -0.007919 0.022659 0.000252 0.011186 -0.010835 0.008563
# 3 -0.003932 0.000252 0.010537 0.004599 -0.001871 0.003911
# 4 -0.007138 0.011186 0.004599 0.029594 -0.005062 0.007699
# 5 0.013474 -0.010835 -0.001871 -0.005062 0.039879 -0.004724
# 6 -0.002064 0.008563 0.003911 0.007699 -0.004724 0.030290
#
#
# Mechanical properties :
#
#
# Convention : Reuss Voigt Hill
#
# Bulk Modulus (GPa) = 35.37590 45.67475 40.52533
# Shear Modulus (GPa) = 27.19600 38.18979 32.69290
#
# Velocity S-wave (km/s) = 3.44460 4.08188 3.77670
# Velocity P-wave (km/s) = 5.59056 6.49176 6.05794
#
# Compressibility (1/GPa) = 0.02826783
#
# Stress axis : x y z
#
# Youngs Moduli (GPa) = 54.73323 44.13277 94.90263
#
# Poissons Ratio (x) = 0.34950 0.37313
# Poissons Ratio (y) = 0.43345 -0.02388
# Poissons Ratio (z) = 0.21519 -0.01111
#
# Static dielectric constant tensor:
#      x y z
#    x 4.254980 -0.396070 -0.225820 
#    y -0.396070 4.354820 0.037040 
#    z -0.225820 0.037040 3.573580 
# 
# 
# High freq. dielectric constant tensor:
#      x y z
#    x 1.923360 -0.036350 -0.004420 
#    y -0.036350 1.909130 -0.007650 
#    z -0.004420 -0.007650 1.917880 
# 
# From -- ./inp_files/529313.got.cif
#   From: 2010.06.25/outbox.cif.g09.slc.cpg/sg2_265_cif.got.tgz:529313.got - 2010.06.27 13:26:56.
