data_PCOD8024731
_publ_section_title
;
Structure prediction by ZEFSAII (Michael W. Deem and Ramdas Pophale) SiO2 
 PCOD8024731
Probable space group: P -1
;
_chemical_formula_sum "Si O2"
_cell_formula_units_Z 16
_cell_length_a 9.093341
_cell_length_b 11.758154
_cell_length_c 19.482228
_cell_angle_alpha 158.360075
_cell_angle_beta 67.638140
_cell_angle_gamma 112.946128
_cell_volume 706.387933
_symmetry_space_group_name_H-M "P -1"
_symmetry_group_IT_number 2
_symmetry_cell_setting 'triclinic'
loop_
_space_group_symop_operation_xyz
x,y,z
-x,-y,-z
loop_
_atom_site_type_symbol
_atom_site_label
_atom_site_fract_x
_atom_site_fract_y
_atom_site_fract_z
Si Si1 0.992216 0.289659 0.611761
Si Si2 0.191197 0.802263 0.549124
Si Si3 0.460824 0.237111 0.697271
Si Si4 0.771983 0.312862 0.991843
Si Si5 0.699954 0.384291 0.328981
Si Si6 0.662312 0.611124 0.612163
Si Si7 0.756651 0.697939 0.944861
Si Si8 0.112889 0.283224 0.925626
O O1 0.874930 0.206229 0.520861
O O2 0.921850 0.583236 0.824128
O O3 0.170020 0.392170 0.610700
O O4 0.000000 0.000000 0.500000
O O5 0.232981 0.475229 0.388719
O O6 0.357321 0.030335 0.655774
O O7 0.071292 0.961389 0.709752
O O8 0.620077 0.417311 0.799871
O O9 0.500000 0.000000 0.500000
O O10 0.346733 0.492184 0.834141
O O11 0.939325 0.344670 0.021168
O O12 0.684696 0.976316 0.805893
O O13 0.809513 0.438290 0.978811
O O14 0.723200 0.441657 0.438761
O O15 0.526650 0.479265 0.391703
O O16 0.720696 0.027099 0.104083
O O17 0.766218 0.755051 0.056128
#
# Coordination Sequence:
#
# PCOD8024731 Si02
#       8
#     2   2   2   2   2   2   2   2
#     4  12  30  48  74 105 154 200 245 301 365 443
#     4  11  25  47  73 109 142 200 242 305 364 436
#     4  11  24  46  69 101 149 190 247 291 369 443
#     4  10  23  43  71 105 144 188 245 299 362 429
#     4  11  26  48  70 117 147 190 246 303 378 425
#     4  11  24  45  79 107 150 187 242 315 362 438
#     4  12  25  47  73 105 148 195 238 305 366 437
#     4  10  24  42  73 108 143 188 251 300 358 433
#
# _framework density 22.650442999999999
#
# number of rings (size 3 to 8) (size 9 to 14) (size 15 to 20)
#    0.000    1.000    3.750    1.125   10.500    4.000 
#    0.000    1.250    0.000    0.000    0.000    0.000 
#    0.000    0.000    0.000    0.000    0.000    0.000 
#
# Total GULP energy -198316.465687 kJ/mol
# GULP energy per Si atom -12394.779105 kJ/mol
# Density = 2.259889 g / cm^3
# Si number density = 22.650443 Si / 1000 Ang^3
#
#
#
# Elastic Constant Matrix: (Units=GPa)
#
#
# Indices 1 2 3 4 5 6 
#
# 1 103.0922 63.1391 41.3931 1.9312 -5.3262 -3.7411
# 2 63.1391 92.1229 44.1579 2.1180 -4.1608 3.9898
# 3 41.3931 44.1579 143.8924 -7.9897 -14.1507 -0.5091
# 4 1.9312 2.1180 -7.9897 34.5214 3.3385 1.3932
# 5 -5.3262 -4.1608 -14.1507 3.3385 41.1565 -0.4468
# 6 -3.7411 3.9898 -0.5091 1.3932 -0.4468 47.9482
#
#
#
# Elastic Compliance Matrix: (Units=1/GPa)
#
#
# Indices 1 2 3 4 5 6 
#
# 1 0.017281 -0.011170 -0.001513 -0.000789 0.000676 0.002291
# 2 -0.011170 0.020101 -0.003069 -0.001177 -0.000401 -0.002546
# 3 -0.001513 -0.003069 0.008668 0.002048 0.002310 0.000191
# 4 -0.000789 -0.001177 0.002048 0.029779 -0.001942 -0.000825
# 5 0.000676 -0.000401 0.002310 -0.001942 0.025301 0.000403
# 6 0.002291 -0.002546 0.000191 -0.000825 0.000403 0.021276
#
#
# Mechanical properties :
#
#
# Convention : Reuss Voigt Hill
#
# Bulk Modulus (GPa) = 68.74172 70.72086 69.73129
# Shear Modulus (GPa) = 31.49442 37.41971 34.45707
#
# Velocity S-wave (km/s) = 3.73293 4.06895 3.90456
# Velocity P-wave (km/s) = 6.99961 7.30518 7.15403
#
# Compressibility (1/GPa) = 0.01454721
#
# Stress axis : x y z
#
# Youngs Moduli (GPa) = 57.86672 49.74909 115.36294
#
# Poissons Ratio (x) = 0.55567 0.17451
# Poissons Ratio (y) = 0.64634 0.35408
# Poissons Ratio (z) = 0.08754 0.15269
#
# Static dielectric constant tensor:
#      x y z
#    x 4.517760 0.380760 -0.222420 
#    y 0.380760 4.018320 -0.147850 
#    z -0.222420 -0.147850 4.332000 
# 
# 
# High freq. dielectric constant tensor:
#      x y z
#    x 1.899860 0.016640 -0.011810 
#    y 0.016640 1.877600 -0.000140 
#    z -0.011810 -0.000140 1.909710 
# 
# From -- ./inp_files/589776.got.cif
#   From: 2010.06.25/outbox.cif.g09.slc.cpg/sg2_295_cif.got.tgz:589776.got - 2010.06.27 13:26:56.
