data_PCOD8024330
_publ_section_title
;
Structure prediction by ZEFSAII (Michael W. Deem and Ramdas Pophale) SiO2 
 PCOD8024330
Probable space group: P -1
;
_chemical_formula_sum "Si O2"
_cell_formula_units_Z 12
_cell_length_a 15.981101
_cell_length_b 8.826815
_cell_length_c 9.553628
_cell_angle_alpha 148.503013
_cell_angle_beta 59.586559
_cell_angle_gamma 107.088702
_cell_volume 578.106686
_symmetry_space_group_name_H-M "P -1"
_symmetry_group_IT_number 2
_symmetry_cell_setting 'triclinic'
loop_
_space_group_symop_operation_xyz
x,y,z
-x,-y,-z
loop_
_atom_site_type_symbol
_atom_site_label
_atom_site_fract_x
_atom_site_fract_y
_atom_site_fract_z
Si Si1 0.239093 0.361977 0.608216
Si Si2 0.472690 0.354164 0.773020
Si Si3 0.075879 0.753419 0.541918
Si Si4 0.252104 0.699687 0.139263
Si Si5 0.939762 0.391287 0.253735
Si Si6 0.552720 0.639917 0.680006
O O1 0.141888 0.410097 0.628719
O O2 0.326960 0.451836 0.522535
O O3 0.280392 0.004252 0.322316
O O4 0.209956 0.563851 0.933031
O O5 0.540930 0.463757 0.690426
O O6 0.500000 0.000000 0.500000
O O7 0.500000 0.500000 0.000000
O O8 0.354341 0.454326 0.911674
O O9 0.170693 0.786482 0.401502
O O10 0.113649 0.626004 0.564790
O O11 0.030891 0.531512 0.314691
O O12 0.986564 0.067642 0.884888
O O13 0.500000 0.500000 0.500000
O O14 0.500000 0.000000 0.000000
#
# Coordination Sequence:
#
# PCOD8024330 Si02
#       6
#     2   2   2   2   2   2
#     4  12  24  42  68  98 127 174 217 260 327 388
#     4  12  26  44  66  99 131 173 219 269 327 385
#     4  10  23  44  64  93 133 165 210 272 316 386
#     4  12  25  43  66  98 132 166 219 270 321 381
#     4  10  23  43  65  94 127 171 214 257 330 385
#     4  12  23  46  67  93 137 173 211 271 325 389
#
# _framework density 20.757415000000002
#
# number of rings (size 3 to 8) (size 9 to 14) (size 15 to 20)
#    0.000    0.667    3.333    4.000    2.333    4.000 
#    6.000    0.000    0.000    0.000    0.000    0.000 
#    0.000    0.000    0.000    0.000    0.000    0.000 
#
# Total GULP energy -148806.627264 kJ/mol
# GULP energy per Si atom -12400.552272 kJ/mol
# Density = 2.071017 g / cm^3
# Si number density = 20.757415 Si / 1000 Ang^3
#
#
#
# Elastic Constant Matrix: (Units=GPa)
#
#
# Indices 1 2 3 4 5 6 
#
# 1 102.8421 48.0832 31.6927 -11.6978 7.3114 -13.3885
# 2 48.0832 157.5628 58.4273 -3.2185 -1.2870 -3.7658
# 3 31.6927 58.4273 102.6169 3.8036 20.7864 -5.6475
# 4 -11.6978 -3.2185 3.8036 47.2461 4.9200 0.1822
# 5 7.3114 -1.2870 20.7864 4.9200 39.1591 -2.3229
# 6 -13.3885 -3.7658 -5.6475 0.1822 -2.3229 26.1195
#
#
#
# Elastic Compliance Matrix: (Units=1/GPa)
#
#
# Indices 1 2 3 4 5 6 
#
# 1 0.012936 -0.003139 -0.001673 0.003280 -0.001708 0.005642
# 2 -0.003139 0.009164 -0.005011 -0.000110 0.003498 -0.001060
# 3 -0.001673 -0.005011 0.014722 -0.001167 -0.007464 0.000948
# 4 0.003280 -0.000110 -0.001167 0.022346 -0.002744 0.001013
# 5 -0.001708 0.003498 -0.007464 -0.002744 0.030321 0.000731
# 6 0.005642 -0.001060 0.000948 0.001013 0.000731 0.041288
#
#
# Mechanical properties :
#
#
# Convention : Reuss Voigt Hill
#
# Bulk Modulus (GPa) = 58.22219 71.04758 64.63488
# Shear Modulus (GPa) = 32.02091 37.49284 34.75687
#
# Velocity S-wave (km/s) = 3.93189 4.25460 4.09642
# Velocity P-wave (km/s) = 6.98017 7.64443 7.31984
#
# Compressibility (1/GPa) = 0.01717558
#
# Stress axis : x y z
#
# Youngs Moduli (GPa) = 77.30418 109.12418 67.92514
#
# Poissons Ratio (x) = 0.34259 0.11363
# Poissons Ratio (y) = 0.24269 0.34037
# Poissons Ratio (z) = 0.12931 0.54681
#
# Static dielectric constant tensor:
#      x y z
#    x 3.693700 -0.079450 0.209600 
#    y -0.079450 4.064510 -0.135400 
#    z 0.209600 -0.135400 3.919320 
# 
# 
# High freq. dielectric constant tensor:
#      x y z
#    x 1.816680 0.000630 0.013960 
#    y 0.000630 1.827590 0.001040 
#    z 0.013960 0.001040 1.827490 
# 
# From -- ./inp_files/36031.got.cif
#   From: 2010.06.25/outbox.cif.g09.slc.cpg/sg2_19_cif.got.tgz:36031.got - 2010.06.27 13:26:56.
