data_PCOD8024006
_publ_section_title
;
Structure prediction by ZEFSAII (Michael W. Deem and Ramdas Pophale) SiO2 
 PCOD8024006
Probable space group: P -1
;
_chemical_formula_sum "Si O2"
_cell_formula_units_Z 16
_cell_length_a 10.991498
_cell_length_b 14.287386
_cell_length_c 13.264334
_cell_angle_alpha 33.300312
_cell_angle_beta 41.277626
_cell_angle_gamma 62.992109
_cell_volume 661.692238
_symmetry_space_group_name_H-M "P -1"
_symmetry_group_IT_number 2
_symmetry_cell_setting 'triclinic'
loop_
_space_group_symop_operation_xyz
x,y,z
-x,-y,-z
loop_
_atom_site_type_symbol
_atom_site_label
_atom_site_fract_x
_atom_site_fract_y
_atom_site_fract_z
Si Si1 0.727799 0.530908 0.585928
Si Si2 0.238103 0.021246 0.609581
Si Si3 0.634725 0.175711 0.582307
Si Si4 0.963207 0.685030 0.688108
Si Si5 0.046238 0.697106 0.402543
Si Si6 0.388076 0.740241 0.711104
Si Si7 0.793597 0.891074 0.088702
Si Si8 0.687838 0.831013 0.792142
O O1 0.824833 0.419919 0.559887
O O2 0.768672 0.732980 0.329309
O O3 0.824980 0.560779 0.610312
O O4 0.481456 0.389396 0.876380
O O5 0.370444 0.179349 0.472752
O O6 0.330020 0.121952 0.355186
O O7 0.282445 0.840149 0.754630
O O8 0.986609 0.931078 0.858683
O O9 0.612840 0.220797 0.440906
O O10 0.433677 0.172847 0.767401
O O11 0.848984 0.339070 0.354097
O O12 0.653696 0.976992 0.756272
O O13 0.910484 0.827009 0.664075
O O14 0.025129 0.771624 0.459187
O O15 0.752094 0.486293 0.980324
O O16 0.159589 0.897391 0.084393
#
# Coordination Sequence:
#
# PCOD8024006 Si02
#       8
#     2   2   2   2   2   2   2   2
#     4  11  25  43  72 104 137 172 227 287 356 404
#     4  10  23  42  70 102 136 167 225 293 354 391
#     4  11  26  43  65  97 142 186 232 278 334 409
#     4  12  24  44  67  97 137 190 230 274 339 413
#     4  11  25  43  69 102 139 174 224 288 342 415
#     4  10  23  42  69 100 136 174 227 288 340 411
#     4  12  24  44  70 103 136 182 220 285 348 405
#     4  11  23  44  66  99 133 183 229 287 340 398
#
# _framework density 24.180427999999999
#
# number of rings (size 3 to 8) (size 9 to 14) (size 15 to 20)
#    0.000    1.000    2.500    3.375    5.250    3.500 
#    0.000    2.500    0.000    0.000    0.000    0.000 
#    0.000    0.000    0.000    0.000    0.000    0.000 
#
# Total GULP energy -198224.519044 kJ/mol
# GULP energy per Si atom -12389.032440 kJ/mol
# Density = 2.412539 g / cm^3
# Si number density = 24.180428 Si / 1000 Ang^3
#
#
#
# Elastic Constant Matrix: (Units=GPa)
#
#
# Indices 1 2 3 4 5 6 
#
# 1 -34.6768 39.8876 40.5983 0.7815 4.2641 -30.6471
# 2 39.8876 119.5069 45.9768 11.7259 -10.8368 -34.3303
# 3 40.5983 45.9768 100.5297 8.4556 5.5782 -15.5995
# 4 0.7815 11.7259 8.4556 32.0637 -13.0978 -4.4315
# 5 4.2641 -10.8368 5.5782 -13.0978 29.1436 5.5922
# 6 -30.6471 -34.3303 -15.5995 -4.4315 5.5922 40.2114
#
#
#
# Elastic Compliance Matrix: (Units=1/GPa)
#
#
# Indices 1 2 3 4 5 6 
#
# 1 -0.014555 0.001119 0.003860 -0.001083 0.003083 -0.009188
# 2 0.001119 0.013061 -0.005094 -0.000709 0.003534 0.009458
# 3 0.003860 -0.005094 0.012037 -0.003823 -0.007219 0.003845
# 4 -0.001083 -0.000709 -0.003823 0.040017 0.018826 -0.001122
# 5 0.003083 0.003534 -0.007219 0.018826 0.045338 -0.001664
# 6 -0.009188 0.009458 0.003845 -0.001122 -0.001664 0.027540
#
#
# Mechanical properties :
#
#
# Convention : Reuss Voigt Hill
#
# Bulk Modulus (GPa) = 96.95980 48.69835 72.82908
# Shear Modulus (GPa) = 39.33780 24.21021 31.77401
#
# Velocity S-wave (km/s) = 4.03779 3.16766 3.62890
# Velocity P-wave (km/s) = 7.86917 5.79327 6.90963
#
# Compressibility (1/GPa) = 0.01031355
#
# Stress axis : x y z
#
# Youngs Moduli (GPa) = -68.70335 76.56372 83.07776
#
# Poissons Ratio (x) = -0.08570 -0.32071
# Poissons Ratio (y) = 0.07690 0.42322
# Poissons Ratio (z) = 0.26522 0.39003
#
# Static dielectric constant tensor:
#      x y z
#    x 4.151570 -0.470200 -0.130130 
#    y -0.470200 4.668750 -0.000100 
#    z -0.130130 -0.000100 4.426810 
# 
# 
# High freq. dielectric constant tensor:
#      x y z
#    x 1.944350 -0.033540 -0.003620 
#    y -0.033540 1.967750 -0.000510 
#    z -0.003620 -0.000510 1.964740 
# 
# From -- ./inp_files/522108.got.cif
#   From: 2010.06.25/outbox.cif.g09.slc.cpg/sg2_262_cif.got.tgz:522108.got - 2010.06.27 13:26:56.
