data_PCOD8024255
_publ_section_title
;
Structure prediction by ZEFSAII (Michael W. Deem and Ramdas Pophale) SiO2 
 PCOD8024255
Probable space group: P -1
;
_chemical_formula_sum "Si O2"
_cell_formula_units_Z 14
_cell_length_a 21.893868
_cell_length_b 9.496184
_cell_length_c 9.233271
_cell_angle_alpha 132.045569
_cell_angle_beta 29.140747
_cell_angle_gamma 121.832992
_cell_volume 685.358115
_symmetry_space_group_name_H-M "P -1"
_symmetry_group_IT_number 2
_symmetry_cell_setting 'triclinic'
loop_
_space_group_symop_operation_xyz
x,y,z
-x,-y,-z
loop_
_atom_site_type_symbol
_atom_site_label
_atom_site_fract_x
_atom_site_fract_y
_atom_site_fract_z
Si Si1 0.502911 0.535332 0.350075
Si Si2 0.887567 0.667795 0.315802
Si Si3 0.324699 0.265723 0.404854
Si Si4 0.055683 0.875691 0.936867
Si Si5 0.256277 0.130045 0.758923
Si Si6 0.515035 0.042087 0.332846
Si Si7 0.212038 0.459847 0.284389
O O1 0.500000 0.500000 0.500000
O O2 0.424697 0.402542 0.329998
O O3 0.436616 0.754188 0.624975
O O4 0.645428 0.494477 0.964630
O O5 0.799245 0.611216 0.328317
O O6 0.808948 0.686356 0.641599
O O7 0.000000 0.500000 0.000000
O O8 0.945496 0.856183 0.270881
O O9 0.287727 0.149827 0.539429
O O10 0.379027 0.111129 0.065743
O O11 0.115727 0.659814 0.614377
O O12 0.159169 0.979999 0.874531
O O13 0.000000 0.000000 0.000000
O O14 0.383116 0.047646 0.525396
O O15 0.196433 0.340593 0.088000
O O16 0.500000 0.000000 0.500000
#
# Coordination Sequence:
#
# PCOD8024255 Si02
#       7
#     2   2   2   2   2   2   2
#     4  11  23  40  67 101 128 171 211 259 336 392
#     4  10  24  45  63  92 131 171 218 270 317 375
#     4  12  22  41  71  93 133 172 213 268 323 383
#     4  11  23  42  67  93 123 176 223 263 316 373
#     4  11  23  40  67  99 124 170 217 263 326 384
#     4  11  25  41  65 102 135 162 213 272 328 390
#     4  10  23  43  63  93 140 156 215 278 316 386
#
# _framework density 20.427275999999999
#
# number of rings (size 3 to 8) (size 9 to 14) (size 15 to 20)
#    0.000    1.143    4.286    3.000    2.000    5.714 
#    0.000    0.000    0.000    0.000    0.000    0.000 
#    0.000    0.000    0.000    0.000    0.000    0.000 
#
# Total GULP energy -173557.018112 kJ/mol
# GULP energy per Si atom -12396.929865 kJ/mol
# Density = 2.038078 g / cm^3
# Si number density = 20.427276 Si / 1000 Ang^3
#
#
#
# Elastic Constant Matrix: (Units=GPa)
#
#
# Indices 1 2 3 4 5 6 
#
# 1 111.9599 47.7449 59.5670 -3.2687 7.2581 -32.3177
# 2 47.7449 144.0872 56.9219 -14.6775 9.0859 -12.5089
# 3 59.5670 56.9219 98.5720 -10.5118 4.4036 -0.5453
# 4 -3.2687 -14.6775 -10.5118 43.8305 -3.9284 5.3534
# 5 7.2581 9.0859 4.4036 -3.9284 32.3689 1.7774
# 6 -32.3177 -12.5089 -0.5453 5.3534 1.7774 34.1499
#
#
#
# Elastic Compliance Matrix: (Units=1/GPa)
#
#
# Indices 1 2 3 4 5 6 
#
# 1 0.023322 -0.000393 -0.014047 -0.004994 -0.005063 0.022748
# 2 -0.000393 0.009583 -0.005042 0.001442 -0.001902 0.002931
# 3 -0.014047 -0.005042 0.021822 0.004685 0.003026 -0.015683
# 4 -0.004994 0.001442 0.004685 0.025386 0.003614 -0.008290
# 5 -0.005063 -0.001902 0.003026 0.003614 0.033014 -0.007725
# 6 0.022748 0.002931 -0.015683 -0.008290 -0.007725 0.053335
#
#
# Mechanical properties :
#
#
# Convention : Reuss Voigt Hill
#
# Bulk Modulus (GPa) = 63.43347 75.89852 69.66600
# Shear Modulus (GPa) = 23.73267 34.76223 29.24745
#
# Velocity S-wave (km/s) = 3.41224 4.12971 3.78800
# Velocity P-wave (km/s) = 6.82973 7.74438 7.30139
#
# Compressibility (1/GPa) = 0.01576455
#
# Stress axis : x y z
#
# Youngs Moduli (GPa) = 42.87851 104.34621 45.82493
#
# Poissons Ratio (x) = 0.04103 0.64369
# Poissons Ratio (y) = 0.01686 0.23103
# Poissons Ratio (z) = 0.60230 0.52606
#
# Static dielectric constant tensor:
#      x y z
#    x 3.867320 0.036160 -0.022320 
#    y 0.036160 4.031020 -0.400770 
#    z -0.022320 -0.400770 4.028690 
# 
# 
# High freq. dielectric constant tensor:
#      x y z
#    x 1.804310 -0.009440 -0.002750 
#    y -0.009440 1.809280 -0.015080 
#    z -0.002750 -0.015080 1.801470 
# 
# From -- ./inp_files/178605.got.cif
#   From: 2010.06.25/outbox.cif.g09.slc.cpg/sg2_90_cif.got.tgz:178605.got - 2010.06.27 13:26:56.
