data_PCOD8024563
_publ_section_title
;
Structure prediction by ZEFSAII (Michael W. Deem and Ramdas Pophale) SiO2 
 PCOD8024563
Probable space group: P -1
;
_chemical_formula_sum "Si O2"
_cell_formula_units_Z 16
_cell_length_a 14.637231
_cell_length_b 5.576333
_cell_length_c 11.062867
_cell_angle_alpha 116.991468
_cell_angle_beta 118.037885
_cell_angle_gamma 88.951177
_cell_volume 688.002382
_symmetry_space_group_name_H-M "P -1"
_symmetry_group_IT_number 2
_symmetry_cell_setting 'triclinic'
loop_
_space_group_symop_operation_xyz
x,y,z
-x,-y,-z
loop_
_atom_site_type_symbol
_atom_site_label
_atom_site_fract_x
_atom_site_fract_y
_atom_site_fract_z
Si Si1 0.966676 0.774006 0.074616
Si Si2 0.778897 0.312981 0.502074
Si Si3 0.820837 0.834803 0.796961
Si Si4 0.332240 0.936664 0.101918
Si Si5 0.002009 0.244007 0.647698
Si Si6 0.193738 0.595667 0.739790
Si Si7 0.647045 0.758358 0.236229
Si Si8 0.434869 0.421926 0.107667
O O1 0.936854 0.798448 0.201365
O O2 0.855333 0.754877 0.932599
O O3 0.067397 0.027929 0.166052
O O4 0.000000 0.500000 0.000000
O O5 0.756326 0.581802 0.614693
O O6 0.806940 0.333272 0.383680
O O7 0.884831 0.264024 0.621006
O O8 0.674584 0.055775 0.390547
O O9 0.737806 0.022568 0.815111
O O10 0.406181 0.237494 0.170349
O O11 0.391447 0.702596 0.129298
O O12 0.260207 0.844905 0.918309
O O13 0.071307 0.526209 0.694056
O O14 0.000000 0.000000 0.500000
O O15 0.241406 0.327457 0.724988
O O16 0.563729 0.534317 0.214533
O O17 0.598313 0.775210 0.075812
#
# Coordination Sequence:
#
# PCOD8024563 Si02
#       8
#     2   2   2   2   2   2   2   2
#     4  11  24  45  62  90 138 188 231 266 338 412
#     4  12  24  43  62 100 141 180 223 279 355 408
#     4  11  27  41  66  95 137 189 225 281 341 415
#     4  11  25  44  72 104 128 182 234 293 333 415
#     4  12  24  39  65  99 137 178 227 282 335 409
#     4  11  24  40  68  99 136 175 229 284 343 410
#     4  10  23  43  69 100 131 180 219 295 355 403
#     4  10  24  45  74 101 136 171 241 290 350 407
#
# _framework density 23.255732999999999
#
# number of rings (size 3 to 8) (size 9 to 14) (size 15 to 20)
#    0.000    1.000    3.750    1.875   10.500    1.500 
#    0.000    1.250    0.000    0.000    0.000    0.000 
#    0.000    0.000    0.000    0.000    0.000    0.000 
#
# Total GULP energy -198331.473893 kJ/mol
# GULP energy per Si atom -12395.717118 kJ/mol
# Density = 2.320280 g / cm^3
# Si number density = 23.255733 Si / 1000 Ang^3
#
#
#
# Elastic Constant Matrix: (Units=GPa)
#
#
# Indices 1 2 3 4 5 6 
#
# 1 75.7135 9.6896 31.5057 15.8108 -4.6550 1.6533
# 2 9.6896 78.8031 27.5855 16.2705 -0.0248 5.4927
# 3 31.5057 27.5855 108.3120 24.6637 -8.4672 0.0159
# 4 15.8108 16.2705 24.6637 33.8326 3.0891 -1.1830
# 5 -4.6550 -0.0248 -8.4672 3.0891 40.9280 8.5360
# 6 1.6533 5.4927 0.0159 -1.1830 8.5360 33.6878
#
#
#
# Elastic Compliance Matrix: (Units=1/GPa)
#
#
# Indices 1 2 3 4 5 6 
#
# 1 0.015811 0.000443 -0.003343 -0.005384 0.001826 -0.001498
# 2 0.000443 0.014901 -0.002602 -0.005621 0.000525 -0.002781
# 3 -0.003343 -0.002602 0.012598 -0.006639 0.002801 -0.000360
# 4 -0.005384 -0.005621 -0.006639 0.040296 -0.005884 0.004090
# 5 0.001826 0.000525 0.002801 -0.005884 0.027181 -0.007270
# 6 -0.001498 -0.002781 -0.000360 0.004090 -0.007270 0.032197
#
#
# Mechanical properties :
#
#
# Convention : Reuss Voigt Hill
#
# Bulk Modulus (GPa) = 30.95453 44.48779 37.72116
# Shear Modulus (GPa) = 30.34731 34.62621 32.48676
#
# Velocity S-wave (km/s) = 3.61631 3.86285 3.74161
# Velocity P-wave (km/s) = 5.54764 6.25035 5.90945
#
# Compressibility (1/GPa) = 0.03230545
#
# Stress axis : x y z
#
# Youngs Moduli (GPa) = 63.24553 67.10983 79.37454
#
# Poissons Ratio (x) = -0.02971 0.26535
# Poissons Ratio (y) = -0.02800 0.20657
# Poissons Ratio (z) = 0.21143 0.17465
#
# Static dielectric constant tensor:
#      x y z
#    x 4.318800 0.052580 0.225830 
#    y 0.052580 4.089340 0.162640 
#    z 0.225830 0.162640 4.354590 
# 
# 
# High freq. dielectric constant tensor:
#      x y z
#    x 1.910640 0.003110 0.002080 
#    y 0.003110 1.913680 0.011720 
#    z 0.002080 0.011720 1.918200 
# 
# From -- ./inp_files/39850.got.cif
#   From: 2010.06.25/outbox.cif.g09.slc.cpg/sg2_20_cif.got.tgz:39850.got - 2010.06.27 13:26:56.
