data_PCOD8024911
_publ_section_title
;
Structure prediction by ZEFSAII (Michael W. Deem and Ramdas Pophale) SiO2 
 PCOD8024911
Probable space group: P -1
;
_chemical_formula_sum "Si O2"
_cell_formula_units_Z 16
_cell_length_a 18.779618
_cell_length_b 15.710815
_cell_length_c 5.186899
_cell_angle_alpha 78.511883
_cell_angle_beta 101.840417
_cell_angle_gamma 155.031096
_cell_volume 631.938992
_symmetry_space_group_name_H-M "P -1"
_symmetry_group_IT_number 2
_symmetry_cell_setting 'triclinic'
loop_
_space_group_symop_operation_xyz
x,y,z
-x,-y,-z
loop_
_atom_site_type_symbol
_atom_site_label
_atom_site_fract_x
_atom_site_fract_y
_atom_site_fract_z
Si Si1 0.793898 0.315763 0.184668
Si Si2 0.190431 0.760206 0.258153
Si Si3 0.112338 0.238093 0.853530
Si Si4 0.695691 0.405482 0.012871
Si Si5 0.613087 0.690482 0.177617
Si Si6 0.229313 0.207398 0.261293
Si Si7 0.613277 0.455410 0.540621
Si Si8 0.365696 0.119871 0.182312
O O1 0.723155 0.203127 0.470963
O O2 0.993894 0.530352 0.229679
O O3 0.728360 0.181590 0.989036
O O4 0.729355 0.340929 0.048432
O O5 0.216595 0.890746 0.258372
O O6 0.246467 0.354387 0.661137
O O7 0.146983 0.375922 0.866610
O O8 0.141599 0.207637 0.144590
O O9 0.918186 0.022978 0.754264
O O10 0.672286 0.425421 0.705384
O O11 0.527396 0.236885 0.154023
O O12 0.717465 0.748105 0.426497
O O13 0.424160 0.512246 0.273012
O O14 0.618361 0.648342 0.922783
O O15 0.689616 0.870168 0.082968
O O16 0.427967 0.243633 0.400539
#
# Coordination Sequence:
#
# PCOD8024911 Si02
#       8
#     2   2   2   2   2   2   2   2
#     4  10  24  43  64  98 127 168 216 266 336 384
#     4  10  24  43  66  95 130 165 217 276 314 400
#     4  10  26  44  66 100 138 173 223 282 329 401
#     4  10  24  42  66  96 134 176 217 270 336 392
#     4  11  24  44  68 100 130 177 226 272 331 395
#     4  11  26  44  69 101 132 175 229 274 336 390
#     4  10  23  45  65 101 134 181 226 270 328 399
#     4  10  23  44  65  98 134 173 224 267 327 394
#
# _framework density 25.318902000000001
#
# number of rings (size 3 to 8) (size 9 to 14) (size 15 to 20)
#    0.000    1.750    1.250    0.000   12.250    3.000 
#    2.250    0.000    0.000    0.000    0.000    0.000 
#    0.000    0.000    0.000    0.000    0.000    0.000 
#
# Total GULP energy -198338.362255 kJ/mol
# GULP energy per Si atom -12396.147641 kJ/mol
# Density = 2.526127 g / cm^3
# Si number density = 25.318902 Si / 1000 Ang^3
#
#
#
# Elastic Constant Matrix: (Units=GPa)
#
#
# Indices 1 2 3 4 5 6 
#
# 1 98.1636 3.8150 55.2030 -2.3207 3.1232 -26.3018
# 2 3.8150 82.0434 29.5366 -2.2298 -14.9312 -23.8990
# 3 55.2030 29.5366 185.5372 2.3080 6.2671 -16.7090
# 4 -2.3207 -2.2298 2.3080 29.8974 -9.5515 7.4806
# 5 3.1232 -14.9312 6.2671 -9.5515 47.7583 -4.1852
# 6 -26.3018 -23.8990 -16.7090 7.4806 -4.1852 30.3918
#
#
#
# Elastic Compliance Matrix: (Units=1/GPa)
#
#
# Indices 1 2 3 4 5 6 
#
# 1 0.017399 0.006777 -0.004661 -0.001504 0.002921 0.018596
# 2 0.006777 0.021028 -0.003699 -0.000330 0.008444 0.021611
# 3 -0.004661 -0.003699 0.007185 -0.001169 -0.002293 -0.003020
# 4 -0.001504 -0.000330 -0.001169 0.038261 0.006865 -0.010676
# 5 0.002921 0.008444 -0.002293 0.006865 0.025919 0.009787
# 6 0.018596 0.021611 -0.003020 -0.010676 0.009787 0.068307
#
#
# Mechanical properties :
#
#
# Convention : Reuss Voigt Hill
#
# Bulk Modulus (GPa) = 23.55885 60.31703 41.93794
# Shear Modulus (GPa) = 25.58667 40.08884 32.83776
#
# Velocity S-wave (km/s) = 3.18240 3.98346 3.60525
# Velocity P-wave (km/s) = 4.77793 6.71058 5.82497
#
# Compressibility (1/GPa) = 0.04244690
#
# Stress axis : x y z
#
# Youngs Moduli (GPa) = 57.47485 47.55520 139.17205
#
# Poissons Ratio (x) = -0.32227 0.64865
# Poissons Ratio (y) = -0.38949 0.51477
# Poissons Ratio (z) = 0.26788 0.17590
#
# Static dielectric constant tensor:
#      x y z
#    x 4.365500 -0.182640 -0.224940 
#    y -0.182640 4.793580 0.028680 
#    z -0.224940 0.028680 4.891260 
# 
# 
# High freq. dielectric constant tensor:
#      x y z
#    x 2.003510 -0.018470 -0.000580 
#    y -0.018470 2.015500 0.000310 
#    z -0.000580 0.000310 2.025180 
# 
# From -- ./inp_files/110762.got.cif
#   From: 2010.06.25/outbox.cif.g09.slc.cpg/sg2_56_cif.got.tgz:110762.got - 2010.06.27 13:26:56.
