data_PCOD8024705
_publ_section_title
;
Structure prediction by ZEFSAII (Michael W. Deem and Ramdas Pophale) SiO2 
 PCOD8024705
Probable space group: P -1
;
_chemical_formula_sum "Si O2"
_cell_formula_units_Z 12
_cell_length_a 14.770546
_cell_length_b 10.194190
_cell_length_c 8.698641
_cell_angle_alpha 111.625283
_cell_angle_beta 30.096930
_cell_angle_gamma 120.811854
_cell_volume 555.572129
_symmetry_space_group_name_H-M "P -1"
_symmetry_group_IT_number 2
_symmetry_cell_setting 'triclinic'
loop_
_space_group_symop_operation_xyz
x,y,z
-x,-y,-z
loop_
_atom_site_type_symbol
_atom_site_label
_atom_site_fract_x
_atom_site_fract_y
_atom_site_fract_z
Si Si1 0.491933 0.937485 0.154527
Si Si2 0.448428 0.631768 0.559893
Si Si3 0.119916 0.926728 0.192303
Si Si4 0.598475 0.391091 0.749656
Si Si5 0.214214 0.041246 0.771017
Si Si6 0.022370 0.584622 0.163433
O O1 0.499644 0.770365 0.083110
O O2 0.294478 0.921719 0.528730
O O3 0.500000 0.000000 0.000000
O O4 0.686611 0.065249 0.001009
O O5 0.500000 0.500000 0.500000
O O6 0.436680 0.631963 0.392081
O O7 0.623818 0.787791 0.433153
O O8 0.235232 0.611383 0.934554
O O9 0.997152 0.746298 0.252865
O O10 0.000000 0.000000 0.500000
O O11 0.193110 0.028901 0.977957
O O12 0.831378 0.470768 0.491190
O O13 0.500000 0.500000 0.000000
O O14 0.000000 0.000000 0.000000
O O15 0.000000 0.500000 0.000000
#
# Coordination Sequence:
#
# PCOD8024705 Si02
#       6
#     2   2   2   2   2   2
#     4  12  26  47  72 104 141 187 240 297 352 425
#     4  11  25  44  69 101 139 183 234 288 357 424
#     4  12  24  46  73 104 139 184 239 299 357 424
#     4  11  25  45  71 103 142 181 231 291 358 424
#     4  12  26  44  71 102 142 185 240 291 355 422
#     4  10  23  43  70  98 137 185 228 286 359 420
#
# _framework density 21.599354999999999
#
# number of rings (size 3 to 8) (size 9 to 14) (size 15 to 20)
#    0.000    0.667    3.333    4.500    9.333    0.000 
#    0.000    1.667    0.000    0.000    0.000    0.000 
#    0.000    0.000    0.000    0.000    0.000    0.000 
#
# Total GULP energy -148775.501407 kJ/mol
# GULP energy per Si atom -12397.958451 kJ/mol
# Density = 2.155019 g / cm^3
# Si number density = 21.599355 Si / 1000 Ang^3
#
#
#
# Elastic Constant Matrix: (Units=GPa)
#
#
# Indices 1 2 3 4 5 6 
#
# 1 128.6810 39.6292 55.8495 -6.7271 -9.5218 -10.7543
# 2 39.6292 157.7476 43.9650 4.3225 -3.3588 -4.8124
# 3 55.8495 43.9650 140.3025 13.8904 -13.9767 4.2218
# 4 -6.7271 4.3225 13.8904 47.6401 3.6177 -1.5362
# 5 -9.5218 -3.3588 -13.9767 3.6177 45.9932 -9.3437
# 6 -10.7543 -4.8124 4.2218 -1.5362 -9.3437 37.9032
#
#
#
# Elastic Compliance Matrix: (Units=1/GPa)
#
#
# Indices 1 2 3 4 5 6 
#
# 1 0.010503 -0.001466 -0.003970 0.002787 0.001392 0.003692
# 2 -0.001466 0.007199 -0.001670 -0.000343 -0.000129 0.000638
# 3 -0.003970 -0.001670 0.009828 -0.003486 0.001888 -0.002109
# 4 0.002787 -0.000343 -0.003486 0.022632 -0.001969 0.001567
# 5 0.001392 -0.000129 0.001888 -0.001969 0.023968 0.005997
# 6 0.003692 0.000638 -0.002109 0.001567 0.005997 0.029288
#
#
# Mechanical properties :
#
#
# Convention : Reuss Voigt Hill
#
# Bulk Modulus (GPa) = 75.09072 78.40205 76.74639
# Shear Modulus (GPa) = 40.96012 45.45979 43.20995
#
# Velocity S-wave (km/s) = 4.35944 4.59266 4.47757
# Velocity P-wave (km/s) = 7.75760 8.03122 7.89560
#
# Compressibility (1/GPa) = 0.01331722
#
# Stress axis : x y z
#
# Youngs Moduli (GPa) = 95.21218 138.90309 101.75232
#
# Poissons Ratio (x) = 0.20366 0.40393
# Poissons Ratio (y) = 0.13960 0.16997
# Poissons Ratio (z) = 0.37797 0.23202
#
# Static dielectric constant tensor:
#      x y z
#    x 3.823530 0.137640 -0.263910 
#    y 0.137640 3.996910 -0.111620 
#    z -0.263910 -0.111620 4.455770 
# 
# 
# High freq. dielectric constant tensor:
#      x y z
#    x 1.833960 0.007860 -0.016070 
#    y 0.007860 1.866220 0.000450 
#    z -0.016070 0.000450 1.864490 
# 
# From -- ./inp_files/148880.got.cif
#   From: 2010.06.25/outbox.cif.g09.slc.cpg/sg2_75_cif.got.tgz:148880.got - 2010.06.27 13:26:56.
