data_PCOD8024959
_publ_section_title
;
Structure prediction by ZEFSAII (Michael W. Deem and Ramdas Pophale) SiO2 
 PCOD8024959
Probable space group: P -1
;
_chemical_formula_sum "Si O2"
_cell_formula_units_Z 16
_cell_length_a 12.594096
_cell_length_b 9.772406
_cell_length_c 19.822707
_cell_angle_alpha 28.268759
_cell_angle_beta 134.264327
_cell_angle_gamma 134.658660
_cell_volume 799.009320
_symmetry_space_group_name_H-M "P -1"
_symmetry_group_IT_number 2
_symmetry_cell_setting 'triclinic'
loop_
_space_group_symop_operation_xyz
x,y,z
-x,-y,-z
loop_
_atom_site_type_symbol
_atom_site_label
_atom_site_fract_x
_atom_site_fract_y
_atom_site_fract_z
Si Si1 0.399271 0.587904 0.359008
Si Si2 0.592664 0.451554 0.386038
Si Si3 0.599669 0.748702 0.888600
Si Si4 0.934211 0.719864 0.047467
Si Si5 0.400667 0.201934 0.284357
Si Si6 0.060881 0.173284 0.382906
Si Si7 0.063780 0.230139 0.621754
Si Si8 0.947535 0.779950 0.877431
O O1 0.500000 0.500000 0.500000
O O2 0.482646 0.588849 0.324189
O O3 0.239839 0.334901 0.398530
O O4 0.374032 0.916328 0.216200
O O5 0.521099 0.412544 0.296493
O O6 0.759228 0.680670 0.360069
O O7 0.612394 0.143347 0.557938
O O8 0.532187 0.728419 0.791604
O O9 0.500000 0.500000 0.000000
O O10 0.753505 0.646204 0.996722
O O11 0.971382 0.422166 0.220459
O O12 0.001874 0.829966 0.956660
O O13 0.000000 0.000000 0.000000
O O14 0.233797 0.258260 0.196329
O O15 0.000000 0.000000 0.500000
O O16 0.036557 0.941016 0.410832
O O17 0.000000 0.500000 0.500000
O O18 0.049951 0.039848 0.765464
O O19 0.000000 0.500000 0.000000
#
# Coordination Sequence:
#
# PCOD8024959 Si02
#       8
#     2   2   2   2   2   2   2   2
#     4  12  25  45  70 100 141 181 220 285 346 403
#     4  11  24  41  71 100 135 172 229 283 340 396
#     4  11  26  44  70  99 139 181 225 275 346 414
#     4  11  25  45  69  97 137 184 226 284 344 404
#     4  10  23  44  66  98 136 175 221 284 341 398
#     4  12  28  45  72 104 138 180 239 284 338 416
#     4  12  26  44  70 101 133 182 236 279 334 412
#     4  11  23  44  68  93 138 178 224 279 345 405
#
# _framework density 20.024798000000001
#
# number of rings (size 3 to 8) (size 9 to 14) (size 15 to 20)
#    0.000    0.750    5.000    1.500    7.000    1.000 
#    0.000    1.250    0.000    0.000    0.000    0.000 
#    0.000    0.000    0.000    0.000    0.000    0.000 
#
# Total GULP energy -198401.154550 kJ/mol
# GULP energy per Si atom -12400.072159 kJ/mol
# Density = 1.997922 g / cm^3
# Si number density = 20.024798 Si / 1000 Ang^3
#
#
#
# Elastic Constant Matrix: (Units=GPa)
#
#
# Indices 1 2 3 4 5 6 
#
# 1 150.8105 72.8502 66.6560 -0.0194 -18.7629 -10.2513
# 2 72.8502 152.9071 64.0525 3.0593 -13.7066 -12.6800
# 3 66.6560 64.0525 142.3511 3.4171 -11.3023 -13.2665
# 4 -0.0194 3.0593 3.4171 32.2344 -4.1037 -1.3185
# 5 -18.7629 -13.7066 -11.3023 -4.1037 51.0609 -1.6660
# 6 -10.2513 -12.6800 -13.2665 -1.3185 -1.6660 41.6535
#
#
#
# Elastic Compliance Matrix: (Units=1/GPa)
#
#
# Indices 1 2 3 4 5 6 
#
# 1 0.009790 -0.003208 -0.002932 0.000924 0.002182 0.000615
# 2 -0.003208 0.009294 -0.002490 -0.000471 0.000768 0.001263
# 3 -0.002932 -0.002490 0.009717 -0.000678 0.000403 0.001610
# 4 0.000924 -0.000471 -0.000678 0.031514 0.002628 0.000971
# 5 0.002182 0.000768 0.000403 0.002628 0.020952 0.001820
# 6 0.000615 0.001263 0.001610 0.000971 0.001820 0.025160
#
#
# Mechanical properties :
#
#
# Convention : Reuss Voigt Hill
#
# Bulk Modulus (GPa) = 86.65161 94.79846 90.72503
# Shear Modulus (GPa) = 39.20535 41.15710 40.18123
#
# Velocity S-wave (km/s) = 4.42955 4.53847 4.48434
# Velocity P-wave (km/s) = 8.33830 8.65488 8.49806
#
# Compressibility (1/GPa) = 0.01154047
#
# Stress axis : x y z
#
# Youngs Moduli (GPa) = 102.14737 107.59311 102.91596
#
# Poissons Ratio (x) = 0.34513 0.30178
# Poissons Ratio (y) = 0.32766 0.25627
# Poissons Ratio (z) = 0.29953 0.26791
#
# Static dielectric constant tensor:
#      x y z
#    x 4.020850 -0.402080 -0.019920 
#    y -0.402080 3.606030 0.195260 
#    z -0.019920 0.195260 3.901390 
# 
# 
# High freq. dielectric constant tensor:
#      x y z
#    x 1.799900 -0.010920 0.002590 
#    y -0.010920 1.788020 0.005350 
#    z 0.002590 0.005350 1.795800 
# 
# From -- ./inp_files/186775.got.cif
#   From: 2010.06.25/outbox.cif.g09.slc.cpg/sg2_94_cif.got.tgz:186775.got - 2010.06.27 13:26:56.
