data_PCOD8024567
_publ_section_title
;
Structure prediction by ZEFSAII (Michael W. Deem and Ramdas Pophale) SiO2 
 PCOD8024567
Probable space group: P -1
;
_chemical_formula_sum "Si O2"
_cell_formula_units_Z 16
_cell_length_a 9.332188
_cell_length_b 9.277785
_cell_length_c 28.457463
_cell_angle_alpha 35.187794
_cell_angle_beta 37.556312
_cell_angle_gamma 63.910115
_cell_volume 697.193559
_symmetry_space_group_name_H-M "P -1"
_symmetry_group_IT_number 2
_symmetry_cell_setting 'triclinic'
loop_
_space_group_symop_operation_xyz
x,y,z
-x,-y,-z
loop_
_atom_site_type_symbol
_atom_site_label
_atom_site_fract_x
_atom_site_fract_y
_atom_site_fract_z
Si Si1 0.034036 0.228334 0.055684
Si Si2 0.321844 0.226767 0.418839
Si Si3 0.495394 0.444813 0.624440
Si Si4 0.976244 0.466823 0.449010
Si Si5 0.286408 0.216207 0.899104
Si Si6 0.078363 0.245424 0.142721
Si Si7 0.520136 0.911495 0.878553
Si Si8 0.583700 0.228717 0.525109
O O1 0.133438 0.182606 0.092376
O O2 0.734740 0.906504 0.206432
O O3 0.000000 0.500000 0.000000
O O4 0.255354 0.301942 0.936966
O O5 0.486327 0.340334 0.396058
O O6 0.506282 0.455423 0.267397
O O7 0.015725 0.189092 0.513345
O O8 0.269204 0.904402 0.506761
O O9 0.795685 0.473280 0.537057
O O10 0.426404 0.536252 0.568606
O O11 0.798959 0.434882 0.456552
O O12 0.303823 0.788233 0.281299
O O13 0.430959 0.028716 0.915076
O O14 0.000000 0.000000 0.000000
O O15 0.253265 0.167730 0.150714
O O16 0.222304 0.614218 0.012217
O O17 0.739086 0.046929 0.298450
#
# Coordination Sequence:
#
# PCOD8024567 Si02
#       8
#     2   2   2   2   2   2   2   2
#     4  12  25  41  69 101 130 180 239 275 336 412
#     4  11  25  42  68 101 138 177 229 282 342 404
#     4  12  24  43  71 100 136 182 227 280 343 412
#     4  11  23  44  68 101 139 180 222 284 342 404
#     4  11  22  43  67  93 137 183 223 282 339 402
#     4  11  23  43  71 101 137 178 231 281 335 413
#     4  10  23  43  69 100 137 180 224 280 347 398
#     4  12  23  45  72 102 137 182 225 279 346 412
#
# _framework density 22.949151000000001
#
# number of rings (size 3 to 8) (size 9 to 14) (size 15 to 20)
#    0.000    0.750    3.750    4.500    1.750    0.500 
#    0.000    0.000    0.000    0.000    0.000    0.000 
#    0.000    0.000    0.000    0.000    0.000    0.000 
#
# Total GULP energy -198336.396728 kJ/mol
# GULP energy per Si atom -12396.024795 kJ/mol
# Density = 2.289692 g / cm^3
# Si number density = 22.949151 Si / 1000 Ang^3
#
#
#
# Elastic Constant Matrix: (Units=GPa)
#
#
# Indices 1 2 3 4 5 6 
#
# 1 47.0536 4.0403 9.2200 5.3905 -0.0112 3.0436
# 2 4.0403 147.2588 29.2246 13.0695 7.0360 -1.3251
# 3 9.2200 29.2246 86.9167 1.9862 -3.6155 1.7166
# 4 5.3905 13.0695 1.9862 35.6217 7.1903 3.2102
# 5 -0.0112 7.0360 -3.6155 7.1903 21.9839 3.0969
# 6 3.0436 -1.3251 1.7166 3.2102 3.0969 43.8712
#
#
#
# Elastic Compliance Matrix: (Units=1/GPa)
#
#
# Indices 1 2 3 4 5 6 
#
# 1 0.022146 0.000077 -0.002238 -0.003319 0.000882 -0.001266
# 2 0.000077 0.007623 -0.002625 -0.002273 -0.002220 0.000651
# 3 -0.002238 -0.002625 0.012762 0.000039 0.003015 -0.000639
# 4 -0.003319 -0.002273 0.000039 0.031425 -0.009338 -0.001480
# 5 0.000882 -0.002220 0.003015 -0.009338 0.050186 -0.003106
# 6 -0.001266 0.000651 -0.000639 -0.001480 -0.003106 0.023254
#
#
# Mechanical properties :
#
#
# Convention : Reuss Voigt Hill
#
# Bulk Modulus (GPa) = 30.33786 40.68877 35.51331
# Shear Modulus (GPa) = 29.77000 36.21164 32.99082
#
# Velocity S-wave (km/s) = 3.60560 3.97660 3.79563
# Velocity P-wave (km/s) = 5.53010 6.23321 5.89215
#
# Compressibility (1/GPa) = 0.03296211
#
# Stress axis : x y z
#
# Youngs Moduli (GPa) = 45.15387 131.17933 78.35579
#
# Poissons Ratio (x) = -0.01016 0.17534
# Poissons Ratio (y) = -0.00350 0.20566
# Poissons Ratio (z) = 0.10104 0.34430
#
# Static dielectric constant tensor:
#      x y z
#    x 4.074900 -0.008650 -0.016390 
#    y -0.008650 4.537700 0.010850 
#    z -0.016390 0.010850 4.179960 
# 
# 
# High freq. dielectric constant tensor:
#      x y z
#    x 1.904500 -0.001380 -0.001070 
#    y -0.001380 1.926910 -0.001030 
#    z -0.001070 -0.001030 1.898520 
# 
# From -- ./inp_files/354415.got.cif
#   From: 2010.06.25/outbox.cif.g09.slc.cpg/sg2_178_cif.got.tgz:354415.got - 2010.06.27 13:26:56.
