data_PCOD8024175
_publ_section_title
;
Structure prediction by ZEFSAII (Michael W. Deem and Ramdas Pophale) SiO2 
 PCOD8024175
Probable space group: P -1
;
_chemical_formula_sum "Si O2"
_cell_formula_units_Z 16
_cell_length_a 9.405653
_cell_length_b 14.577014
_cell_length_c 12.147099
_cell_angle_alpha 151.149388
_cell_angle_beta 70.384552
_cell_angle_gamma 97.440868
_cell_volume 705.647746
_symmetry_space_group_name_H-M "P -1"
_symmetry_group_IT_number 2
_symmetry_cell_setting 'triclinic'
loop_
_space_group_symop_operation_xyz
x,y,z
-x,-y,-z
loop_
_atom_site_type_symbol
_atom_site_label
_atom_site_fract_x
_atom_site_fract_y
_atom_site_fract_z
Si Si1 0.977608 0.289784 0.763340
Si Si2 0.458721 0.304500 0.049613
Si Si3 0.432408 0.737033 0.571060
Si Si4 0.074978 0.722002 0.991338
Si Si5 0.356030 0.703726 0.212974
Si Si6 0.650123 0.151217 0.044567
Si Si7 0.224166 0.263052 0.506562
Si Si8 0.739356 0.950081 0.224658
O O1 0.816028 0.325915 0.772383
O O2 0.136494 0.167026 0.520293
O O3 0.970498 0.187403 0.776748
O O4 0.000000 0.500000 0.000000
O O5 0.388832 0.546790 0.340996
O O6 0.507735 0.187389 0.030021
O O7 0.612289 0.242178 0.862675
O O8 0.323314 0.237614 0.955922
O O9 0.424419 0.746503 0.714707
O O10 0.614333 0.711557 0.458879
O O11 0.298233 0.935604 0.762507
O O12 0.237046 0.737677 0.917976
O O13 0.101445 0.481894 0.727249
O O14 0.931382 0.853226 0.087544
O O15 0.349795 0.889343 0.488569
O O16 0.500000 0.500000 0.000000
O O17 0.732886 0.905598 0.779352
#
# Coordination Sequence:
#
# PCOD8024175 Si02
#       8
#     2   2   2   2   2   2   2   2
#     4  10  23  42  72 102 143 186 232 285 357 423
#     4  12  25  45  74 103 142 190 235 296 355 419
#     4  12  26  48  73 107 140 188 252 296 343 424
#     4  11  26  46  69 107 145 189 234 291 363 428
#     4  12  25  45  73 109 150 183 234 298 361 427
#     4  12  25  45  80 102 137 193 251 292 346 427
#     4  11  24  43  73 104 138 184 241 295 348 416
#     4  12  29  43  71 109 148 186 234 294 368 422
#
# _framework density 22.674204
#
# number of rings (size 3 to 8) (size 9 to 14) (size 15 to 20)
#    0.000    0.500    5.000    2.625    5.250    2.500 
#    0.000    1.250    0.000    0.000    0.000    0.000 
#    0.000    0.000    0.000    0.000    0.000    0.000 
#
# Total GULP energy -198421.573750 kJ/mol
# GULP energy per Si atom -12401.348359 kJ/mol
# Density = 2.262260 g / cm^3
# Si number density = 22.674204 Si / 1000 Ang^3
#
#
#
# Elastic Constant Matrix: (Units=GPa)
#
#
# Indices 1 2 3 4 5 6 
#
# 1 130.3180 44.7766 36.6865 -2.4293 4.0483 -0.3804
# 2 44.7766 96.3761 24.0005 -7.7451 -2.6856 -6.2655
# 3 36.6865 24.0005 83.8456 6.9918 17.1055 9.5750
# 4 -2.4293 -7.7451 6.9918 36.0288 -3.7730 -3.0817
# 5 4.0483 -2.6856 17.1055 -3.7730 38.9268 7.6029
# 6 -0.3804 -6.2655 9.5750 -3.0817 7.6029 33.0935
#
#
#
# Elastic Compliance Matrix: (Units=1/GPa)
#
#
# Indices 1 2 3 4 5 6 
#
# 1 0.009903 -0.003668 -0.003421 0.000600 0.000196 0.000420
# 2 -0.003668 0.013554 -0.003506 0.003901 0.002589 0.003307
# 3 -0.003421 -0.003506 0.016794 -0.005350 -0.006911 -0.004473
# 4 0.000600 0.003901 -0.005350 0.030514 0.004724 0.004049
# 5 0.000196 0.002589 -0.006911 0.004724 0.030121 -0.003988
# 6 0.000420 0.003307 -0.004473 0.004049 -0.003988 0.033436
#
#
# Mechanical properties :
#
#
# Convention : Reuss Voigt Hill
#
# Bulk Modulus (GPa) = 52.46434 57.94074 55.20254
# Shear Modulus (GPa) = 30.88978 35.28156 33.08567
#
# Velocity S-wave (km/s) = 3.69498 3.94892 3.82406
# Velocity P-wave (km/s) = 6.43369 6.81183 6.62546
#
# Compressibility (1/GPa) = 0.01906057
#
# Stress axis : x y z
#
# Youngs Moduli (GPa) = 100.97621 73.77932 59.54527
#
# Poissons Ratio (x) = 0.27063 0.20372
# Poissons Ratio (y) = 0.37040 0.20876
# Poissons Ratio (z) = 0.34546 0.25867
#
# Static dielectric constant tensor:
#      x y z
#    x 4.096820 0.228160 -0.039860 
#    y 0.228160 4.389660 -0.241070 
#    z -0.039860 -0.241070 4.424740 
# 
# 
# High freq. dielectric constant tensor:
#      x y z
#    x 1.888780 0.009950 0.010000 
#    y 0.009950 1.891580 0.009830 
#    z 0.010000 0.009830 1.905570 
# 
# From -- ./inp_files/399940.got.cif
#   From: 2010.06.25/outbox.cif.g09.slc.cpg/sg2_200_cif.got.tgz:399940.got - 2010.06.27 13:26:56.
