data_PCOD8024290
_publ_section_title
;
Structure prediction by ZEFSAII (Michael W. Deem and Ramdas Pophale) SiO2 
 PCOD8024290
Probable space group: P -1
;
_chemical_formula_sum "Si O2"
_cell_formula_units_Z 16
_cell_length_a 13.184298
_cell_length_b 8.843725
_cell_length_c 8.913152
_cell_angle_alpha 102.209284
_cell_angle_beta 98.135310
_cell_angle_gamma 47.668733
_cell_volume 750.908082
_symmetry_space_group_name_H-M "P -1"
_symmetry_group_IT_number 2
_symmetry_cell_setting 'triclinic'
loop_
_space_group_symop_operation_xyz
x,y,z
-x,-y,-z
loop_
_atom_site_type_symbol
_atom_site_label
_atom_site_fract_x
_atom_site_fract_y
_atom_site_fract_z
Si Si1 0.342880 0.296493 0.982774
Si Si2 0.026746 0.800446 0.520012
Si Si3 0.385354 0.911907 0.884607
Si Si4 0.524591 0.295212 0.439305
Si Si5 0.834211 0.005211 0.950107
Si Si6 0.132101 0.699706 0.855391
Si Si7 0.756875 0.949391 0.621576
Si Si8 0.253875 0.384416 0.321463
O O1 0.479312 0.265683 0.024959
O O2 0.265563 0.358472 0.139153
O O3 0.244639 0.459687 0.867870
O O4 0.394769 0.082765 0.879990
O O5 0.107804 0.725640 0.678508
O O6 0.117811 0.619105 0.379012
O O7 0.883659 0.850817 0.513894
O O8 0.000000 0.000000 0.500000
O O9 0.385582 0.809398 0.714256
O O10 0.243843 0.034702 0.967857
O O11 0.500000 0.500000 0.500000
O O12 0.383371 0.343393 0.409449
O O13 0.610825 0.133936 0.557837
O O14 0.773627 0.056391 0.781346
O O15 0.807710 0.200489 0.051376
O O16 0.993760 0.799378 0.938464
O O17 0.759662 0.771421 0.642754
#
# Coordination Sequence:
#
# PCOD8024290 Si02
#       8
#     2   2   2   2   2   2   2   2
#     4  10  23  44  67  96 131 172 219 271 329 388
#     4  11  26  44  68  96 136 175 223 275 332 392
#     4  10  23  43  66  95 131 171 218 270 326 392
#     4  11  26  42  68  98 133 176 222 269 336 395
#     4  10  23  43  64  96 131 169 220 271 322 389
#     4  10  25  41  67  99 130 172 222 267 331 389
#     4  11  24  45  66  97 134 174 225 271 332 394
#     4  11  24  44  67  97 134 177 219 275 330 392
#
# _framework density 21.307535000000001
#
# number of rings (size 3 to 8) (size 9 to 14) (size 15 to 20)
#    0.000    1.500    1.250    1.500   14.000    2.000 
#    0.000    0.000    0.000    0.000    0.000    0.000 
#    0.000    0.000    0.000    0.000    0.000    0.000 
#
# Total GULP energy -198433.109601 kJ/mol
# GULP energy per Si atom -12402.069350 kJ/mol
# Density = 2.125904 g / cm^3
# Si number density = 21.307535 Si / 1000 Ang^3
#
#
#
# Elastic Constant Matrix: (Units=GPa)
#
#
# Indices 1 2 3 4 5 6 
#
# 1 92.2228 21.1983 15.0040 -5.7859 4.8496 8.3451
# 2 21.1983 124.4979 43.5181 -12.2407 5.8658 9.0409
# 3 15.0040 43.5181 76.8267 2.6174 15.9104 7.2240
# 4 -5.7859 -12.2407 2.6174 44.4065 -1.4797 -0.4775
# 5 4.8496 5.8658 15.9104 -1.4797 24.2267 -2.0921
# 6 8.3451 9.0409 7.2240 -0.4775 -2.0921 21.0269
#
#
#
# Elastic Compliance Matrix: (Units=1/GPa)
#
#
# Indices 1 2 3 4 5 6 
#
# 1 0.011795 -0.001197 -0.000930 0.001161 -0.001734 -0.003993
# 2 -0.001197 0.010751 -0.006153 0.003208 0.001719 -0.001790
# 3 -0.000930 -0.006153 0.019746 -0.003433 -0.011936 -0.005034
# 4 0.001161 0.003208 -0.003433 0.023849 0.002715 0.000151
# 5 -0.001734 0.001719 -0.011936 0.002715 0.049997 0.009086
# 6 -0.003993 -0.001790 -0.005034 0.000151 0.009086 0.052549
#
#
# Mechanical properties :
#
#
# Convention : Reuss Voigt Hill
#
# Bulk Modulus (GPa) = 38.86445 50.33205 44.59825
# Shear Modulus (GPa) = 25.79627 32.18716 28.99171
#
# Velocity S-wave (km/s) = 3.48323 3.89086 3.69268
# Velocity P-wave (km/s) = 5.86997 6.62254 6.25758
#
# Compressibility (1/GPa) = 0.02573046
#
# Stress axis : x y z
#
# Youngs Moduli (GPa) = 84.78010 93.01083 50.64402
#
# Poissons Ratio (x) = 0.11137 0.04711
# Poissons Ratio (y) = 0.10151 0.31163
# Poissons Ratio (z) = 0.07887 0.57232
#
# Static dielectric constant tensor:
#      x y z
#    x 3.995850 -0.128940 0.098720 
#    y -0.128940 3.789960 0.136930 
#    z 0.098720 0.136930 3.924650 
# 
# 
# High freq. dielectric constant tensor:
#      x y z
#    x 1.845700 -0.008890 0.007060 
#    y -0.008890 1.836230 0.010190 
#    z 0.007060 0.010190 1.840500 
# 
# From -- ./inp_files/190668.got.cif
#   From: 2010.06.25/outbox.cif.g09.slc.cpg/sg2_96_cif.got.tgz:190668.got - 2010.06.27 13:26:56.
