data_PCOD8024226
_publ_section_title
;
Structure prediction by ZEFSAII (Michael W. Deem and Ramdas Pophale) SiO2 
 PCOD8024226
Probable space group: P -1
;
_chemical_formula_sum "Si O2"
_cell_formula_units_Z 16
_cell_length_a 5.097696
_cell_length_b 14.938429
_cell_length_c 9.274149
_cell_angle_alpha 67.002282
_cell_angle_beta 87.141583
_cell_angle_gamma 97.631046
_cell_volume 640.332179
_symmetry_space_group_name_H-M "P -1"
_symmetry_group_IT_number 2
_symmetry_cell_setting 'triclinic'
loop_
_space_group_symop_operation_xyz
x,y,z
-x,-y,-z
loop_
_atom_site_type_symbol
_atom_site_label
_atom_site_fract_x
_atom_site_fract_y
_atom_site_fract_z
Si Si1 0.479524 0.692110 0.238754
Si Si2 0.049219 0.980092 0.174939
Si Si3 0.718066 0.400497 0.186902
Si Si4 0.027586 0.231842 0.325873
Si Si5 0.993794 0.241490 0.643651
Si Si6 0.418041 0.180853 0.125611
Si Si7 0.278244 0.948414 0.642154
Si Si8 0.736909 0.492235 0.815216
O O1 0.776472 0.711889 0.281666
O O2 0.388737 0.579812 0.262752
O O3 0.266084 0.708773 0.355058
O O4 0.480912 0.765252 0.057463
O O5 0.128285 0.873004 0.252254
O O6 0.784344 0.975228 0.283545
O O7 0.256063 0.070770 0.172823
O O8 0.000000 0.000000 0.000000
O O9 0.427267 0.415276 0.244674
O O10 0.780717 0.289247 0.255201
O O11 0.950004 0.465410 0.237166
O O12 0.713739 0.433729 0.001455
O O13 0.112815 0.262977 0.466962
O O14 0.264886 0.251794 0.186201
O O15 0.959946 0.110075 0.413675
O O16 0.670495 0.152517 0.217792
O O17 0.500000 0.000000 0.500000
#
# Coordination Sequence:
#
# PCOD8024226 Si02
#       8
#     2   2   2   2   2   2   2   2
#     4  12  27  46  71 104 141 183 232 295 350 407
#     4  11  23  42  63 101 136 185 238 279 345 404
#     4  10  23  42  75 104 135 180 226 294 341 422
#     4  11  27  44  68 106 140 183 237 280 360 412
#     4  12  28  45  69 102 147 189 228 288 350 423
#     4  11  25  41  72  98 140 184 240 295 334 415
#     4  11  24  41  69  98 141 182 232 296 339 407
#     4  10  23  44  71 107 136 172 236 290 349 404
#
# _framework density 24.987027999999999
#
# number of rings (size 3 to 8) (size 9 to 14) (size 15 to 20)
#    0.000    1.000    1.250    3.750   15.750    3.000 
#    0.000    3.750    0.000    0.000    0.000    0.000 
#    0.000    0.000    0.000    0.000    0.000    0.000 
#
# Total GULP energy -198264.691656 kJ/mol
# GULP energy per Si atom -12391.543228 kJ/mol
# Density = 2.493016 g / cm^3
# Si number density = 24.987028 Si / 1000 Ang^3
#
#
#
# Elastic Constant Matrix: (Units=GPa)
#
#
# Indices 1 2 3 4 5 6 
#
# 1 71.8286 7.0869 3.6018 19.2815 -1.1672 -12.7633
# 2 7.0869 129.8262 3.5792 20.8704 2.7553 0.2573
# 3 3.6018 3.5792 67.8950 20.3032 -9.6723 -0.7274
# 4 19.2815 20.8704 20.3032 31.7262 -6.9568 -0.7991
# 5 -1.1672 2.7553 -9.6723 -6.9568 33.2485 -3.3340
# 6 -12.7633 0.2573 -0.7274 -0.7991 -3.3340 36.4768
#
#
#
# Elastic Compliance Matrix: (Units=1/GPa)
#
#
# Indices 1 2 3 4 5 6 
#
# 1 0.018492 0.001165 0.003092 -0.014019 -0.000866 0.006137
# 2 0.001165 0.008924 0.001593 -0.008016 -0.001910 0.000026
# 3 0.003092 0.001593 0.019248 -0.014628 0.002653 0.001377
# 4 -0.014019 -0.008016 -0.014628 0.056205 0.007352 -0.003237
# 5 -0.000866 -0.001910 0.002653 0.007352 0.032808 0.002923
# 6 0.006137 0.000026 0.001377 -0.003237 0.002923 0.029786
#
#
# Mechanical properties :
#
#
# Convention : Reuss Voigt Hill
#
# Bulk Modulus (GPa) = 17.13363 33.12062 25.12713
# Shear Modulus (GPa) = 28.86567 37.30910 33.08738
#
# Velocity S-wave (km/s) = 3.40255 3.86831 3.64288
# Velocity P-wave (km/s) = 4.72317 5.76504 5.26991
#
# Compressibility (1/GPa) = 0.05836474
#
# Stress axis : x y z
#
# Youngs Moduli (GPa) = 54.07836 112.05422 51.95401
#
# Poissons Ratio (x) = -0.13056 -0.16065
# Poissons Ratio (y) = -0.06301 -0.08277
# Poissons Ratio (z) = -0.16722 -0.17852
#
# Static dielectric constant tensor:
#      x y z
#    x 4.790080 0.306030 0.105770 
#    y 0.306030 5.044080 0.066360 
#    z 0.105770 0.066360 4.330710 
# 
# 
# High freq. dielectric constant tensor:
#      x y z
#    x 1.995530 0.008570 0.006190 
#    y 0.008570 2.020720 0.005100 
#    z 0.006190 0.005100 1.988960 
# 
# From -- ./inp_files/134983.got.cif
#   From: 2010.06.25/outbox.cif.g09.slc.cpg/sg2_68_cif.got.tgz:134983.got - 2010.06.27 13:26:56.
