data_PCOD8024538
_publ_section_title
;
Structure prediction by ZEFSAII (Michael W. Deem and Ramdas Pophale) SiO2 
 PCOD8024538
Probable space group: P -1
;
_chemical_formula_sum "Si O2"
_cell_formula_units_Z 16
_cell_length_a 18.585081
_cell_length_b 30.384219
_cell_length_c 24.865158
_cell_angle_alpha 170.422511
_cell_angle_beta 18.640845
_cell_angle_gamma 160.474823
_cell_volume 737.882995
_symmetry_space_group_name_H-M "P -1"
_symmetry_group_IT_number 2
_symmetry_cell_setting 'triclinic'
loop_
_space_group_symop_operation_xyz
x,y,z
-x,-y,-z
loop_
_atom_site_type_symbol
_atom_site_label
_atom_site_fract_x
_atom_site_fract_y
_atom_site_fract_z
Si Si1 0.816485 0.621508 0.134066
Si Si2 0.731515 0.182037 0.897223
Si Si3 0.953875 0.879603 0.141578
Si Si4 0.420518 0.355753 0.241714
Si Si5 0.072517 0.721071 0.450746
Si Si6 0.450823 0.940531 0.901408
Si Si7 0.550252 0.101512 0.741514
Si Si8 0.295058 0.659103 0.324116
O O1 0.015327 0.654170 0.078138
O O2 0.727643 0.905042 0.533269
O O3 0.919044 0.540674 0.907266
O O4 0.611678 0.391636 0.019565
O O5 0.632502 0.124264 0.957531
O O6 0.581677 0.364375 0.190253
O O7 0.898733 0.011244 0.282810
O O8 0.771243 0.950050 0.399919
O O9 0.930403 0.556442 0.761258
O O10 0.202314 0.999739 0.131571
O O11 0.475138 0.632128 0.503358
O O12 0.162094 0.306060 0.383751
O O13 0.473495 0.125067 0.885727
O O14 0.277449 0.744577 0.377207
O O15 0.500000 0.000000 0.000000
O O16 0.332188 0.930263 0.659569
O O17 0.500000 0.500000 0.000000
#
# Coordination Sequence:
#
# PCOD8024538 Si02
#       8
#     2   2   2   2   2   2   2   2
#     4  10  24  44  67  94 138 171 226 261 334 400
#     4  11  25  43  65 103 134 175 216 274 329 397
#     4  10  23  44  67  98 131 173 225 263 335 401
#     4  12  25  41  69  98 136 171 223 270 336 387
#     4  11  23  43  69  97 130 178 219 276 325 404
#     4  12  25  42  68 100 138 175 217 273 331 396
#     4  10  24  44  66  96 131 175 219 281 320 394
#     4  10  23  43  68  97 132 172 226 274 335 383
#
# _framework density 21.683654000000001
#
# number of rings (size 3 to 8) (size 9 to 14) (size 15 to 20)
#    0.000    1.250    3.750    0.750    7.000    7.500 
#    0.000    0.625    0.000    0.000    0.000    0.000 
#    0.000    0.000    0.000    0.000    0.000    0.000 
#
# Total GULP energy -198381.563392 kJ/mol
# GULP energy per Si atom -12398.847712 kJ/mol
# Density = 2.163430 g / cm^3
# Si number density = 21.683654 Si / 1000 Ang^3
#
#
#
# Elastic Constant Matrix: (Units=GPa)
#
#
# Indices 1 2 3 4 5 6 
#
# 1 144.5604 24.3502 39.7193 -2.1512 -5.7472 4.5748
# 2 24.3502 64.0950 19.4394 0.6616 8.0029 0.2320
# 3 39.7193 19.4394 68.9163 5.3091 6.6439 0.1366
# 4 -2.1512 0.6616 5.3091 34.4589 4.4806 1.7320
# 5 -5.7472 8.0029 6.6439 4.4806 37.7371 -0.5696
# 6 4.5748 0.2320 0.1366 1.7320 -0.5696 33.6523
#
#
#
# Elastic Compliance Matrix: (Units=1/GPa)
#
#
# Indices 1 2 3 4 5 6 
#
# 1 0.008741 -0.002202 -0.004735 0.001052 0.002489 -0.001166
# 2 -0.002202 0.017937 -0.003485 0.000516 -0.003586 0.000103
# 3 -0.004735 -0.003485 0.018718 -0.002765 -0.002939 0.000684
# 4 0.001052 0.000516 -0.002765 0.029985 -0.003049 -0.001730
# 5 0.002489 -0.003586 -0.002939 -0.003049 0.028523 0.000338
# 6 -0.001166 0.000103 0.000684 -0.001730 0.000338 0.029965
#
#
# Mechanical properties :
#
#
# Convention : Reuss Voigt Hill
#
# Bulk Modulus (GPa) = 40.73100 49.39882 45.06491
# Shear Modulus (GPa) = 30.69404 34.10718 32.40061
#
# Velocity S-wave (km/s) = 3.76645 3.97034 3.86974
# Velocity P-wave (km/s) = 6.14327 6.62187 6.38706
#
# Compressibility (1/GPa) = 0.02455132
#
# Stress axis : x y z
#
# Youngs Moduli (GPa) = 114.40230 55.74971 53.42592
#
# Poissons Ratio (x) = 0.12276 0.25300
# Poissons Ratio (y) = 0.25192 0.18618
# Poissons Ratio (z) = 0.54175 0.19427
#
# Static dielectric constant tensor:
#      x y z
#    x 3.927240 0.140980 0.047680 
#    y 0.140980 4.071890 0.260960 
#    z 0.047680 0.260960 4.153780 
# 
# 
# High freq. dielectric constant tensor:
#      x y z
#    x 1.851610 0.004310 -0.003000 
#    y 0.004310 1.848370 0.007980 
#    z -0.003000 0.007980 1.852920 
# 
# From -- ./inp_files/242132.got.cif
#   From: 2010.06.25/outbox.cif.g09.slc.cpg/sg2_122_cif.got.tgz:242132.got - 2010.06.27 13:26:56.
