data_PCOD8024931
_publ_section_title
;
Structure prediction by ZEFSAII (Michael W. Deem and Ramdas Pophale) SiO2 
 PCOD8024931
Probable space group: P -1
;
_chemical_formula_sum "Si O2"
_cell_formula_units_Z 16
_cell_length_a 11.579343
_cell_length_b 12.468695
_cell_length_c 15.806522
_cell_angle_alpha 143.313175
_cell_angle_beta 122.916028
_cell_angle_gamma 85.628327
_cell_volume 797.980567
_symmetry_space_group_name_H-M "P -1"
_symmetry_group_IT_number 2
_symmetry_cell_setting 'triclinic'
loop_
_space_group_symop_operation_xyz
x,y,z
-x,-y,-z
loop_
_atom_site_type_symbol
_atom_site_label
_atom_site_fract_x
_atom_site_fract_y
_atom_site_fract_z
Si Si1 0.183885 0.640845 0.552197
Si Si2 0.499874 0.286423 0.357322
Si Si3 0.736123 0.214282 0.134387
Si Si4 0.531673 0.389541 0.763489
Si Si5 0.585803 0.958623 0.652634
Si Si6 0.414318 0.163500 0.902384
Si Si7 0.895847 0.496186 0.035115
Si Si8 0.297890 0.008911 0.572461
O O1 0.279745 0.576104 0.490195
O O2 0.267913 0.711279 0.725553
O O3 0.953413 0.396869 0.300638
O O4 0.230254 0.881716 0.688041
O O5 0.500000 0.500000 0.500000
O O6 0.415332 0.118600 0.302485
O O7 0.361212 0.076447 0.094190
O O8 0.613945 0.235430 0.039509
O O9 0.442325 0.233471 0.542500
O O10 0.362351 0.209671 0.653224
O O11 0.571549 0.635030 0.917238
O O12 0.734086 0.484511 0.930898
O O13 0.401248 0.915958 0.535462
O O14 0.792348 0.252236 0.900458
O O15 0.375044 0.162698 0.787848
O O16 0.061750 0.758881 0.320514
O O17 0.000000 0.500000 0.000000
#
# Coordination Sequence:
#
# PCOD8024931 Si02
#       8
#     2   2   2   2   2   2   2   2
#     4  10  23  44  66  89 123 166 204 251 314 370
#     4  11  24  40  67  97 126 157 202 263 310 368
#     4  10  23  45  65  87 124 164 206 255 310 368
#     4  11  24  37  60  94 123 161 209 250 304 373
#     4  11  22  39  63  90 121 168 203 245 317 369
#     4  11  23  39  64  90 123 161 204 256 306 362
#     4  11  21  40  62  87 126 166 206 254 302 364
#     4  11  21  41  61  87 123 163 206 251 309 361
#
# _framework density 20.050612999999998
#
# number of rings (size 3 to 8) (size 9 to 14) (size 15 to 20)
#    0.000    1.250    5.000    2.625    5.250    2.000 
#    0.000    0.000    0.000    0.000    0.000    0.000 
#    0.000    0.000    0.000    0.000    0.000    0.000 
#
# Total GULP energy -198408.944109 kJ/mol
# GULP energy per Si atom -12400.559007 kJ/mol
# Density = 2.000498 g / cm^3
# Si number density = 20.050613 Si / 1000 Ang^3
#
#
#
# Elastic Constant Matrix: (Units=GPa)
#
#
# Indices 1 2 3 4 5 6 
#
# 1 92.5715 41.8838 52.8448 20.9371 0.1149 3.7725
# 2 41.8838 71.7873 18.4612 13.4986 -1.6504 3.8858
# 3 52.8448 18.4612 100.6287 4.2864 2.8432 -10.1195
# 4 20.9371 13.4986 4.2864 35.6394 -2.5730 -9.6677
# 5 0.1149 -1.6504 2.8432 -2.5730 31.6832 10.1284
# 6 3.7725 3.8858 -10.1195 -9.6677 10.1284 32.6790
#
#
#
# Elastic Compliance Matrix: (Units=1/GPa)
#
#
# Indices 1 2 3 4 5 6 
#
# 1 0.024617 -0.008347 -0.011960 -0.012396 0.002764 -0.010076
# 2 -0.008347 0.019384 0.000662 -0.003092 0.001538 -0.002528
# 3 -0.011960 0.000662 0.016901 0.007136 -0.004022 0.009893
# 4 -0.012396 -0.003092 0.007136 0.039984 -0.002855 0.016722
# 5 0.002764 0.001538 -0.004022 -0.002855 0.036174 -0.013804
# 6 -0.010076 -0.002528 0.009893 0.016722 -0.013804 0.044353
#
#
# Mechanical properties :
#
#
# Convention : Reuss Voigt Hill
#
# Bulk Modulus (GPa) = 46.27197 54.59633 50.43415
# Shear Modulus (GPa) = 21.93868 30.12017 26.02942
#
# Velocity S-wave (km/s) = 3.31140 3.88004 3.60694
# Velocity P-wave (km/s) = 6.14396 6.88195 6.52340
#
# Compressibility (1/GPa) = 0.02161135
#
# Stress axis : x y z
#
# Youngs Moduli (GPa) = 40.62218 51.58978 59.16711
#
# Poissons Ratio (x) = 0.43063 0.70761
# Poissons Ratio (y) = 0.33908 -0.03914
# Poissons Ratio (z) = 0.48582 -0.03413
#
# Static dielectric constant tensor:
#      x y z
#    x 3.721590 0.171320 -0.054010 
#    y 0.171320 3.593910 0.093900 
#    z -0.054010 0.093900 3.856400 
# 
# 
# High freq. dielectric constant tensor:
#      x y z
#    x 1.781580 0.018510 -0.002930 
#    y 0.018510 1.773890 0.000790 
#    z -0.002930 0.000790 1.793620 
# 
# From -- ./inp_files/285080.got.cif
#   From: 2010.06.25/outbox.cif.g09.slc.cpg/sg2_143_cif.got.tgz:285080.got - 2010.06.27 13:26:56.
