data_PCOD8024762
_publ_section_title
;
Structure prediction by ZEFSAII (Michael W. Deem and Ramdas Pophale) SiO2 
 PCOD8024762
Probable space group: P -1
;
_chemical_formula_sum "Si O2"
_cell_formula_units_Z 12
_cell_length_a 11.964159
_cell_length_b 8.657301
_cell_length_c 8.841613
_cell_angle_alpha 130.699244
_cell_angle_beta 82.508704
_cell_angle_gamma 126.564662
_cell_volume 505.083839
_symmetry_space_group_name_H-M "P -1"
_symmetry_group_IT_number 2
_symmetry_cell_setting 'triclinic'
loop_
_space_group_symop_operation_xyz
x,y,z
-x,-y,-z
loop_
_atom_site_type_symbol
_atom_site_label
_atom_site_fract_x
_atom_site_fract_y
_atom_site_fract_z
Si Si1 0.745789 0.357063 0.199769
Si Si2 0.514472 0.997119 0.746289
Si Si3 0.141179 0.240907 0.027221
Si Si4 0.221269 0.189843 0.664372
Si Si5 0.946096 0.419180 0.787278
Si Si6 0.522627 0.352267 0.727577
O O1 0.795875 0.653948 0.357073
O O2 0.899104 0.411714 0.232167
O O3 0.648697 0.212502 0.275515
O O4 0.654660 0.166810 0.947015
O O5 0.519137 0.204888 0.779701
O O6 0.533566 0.823914 0.528202
O O7 0.148752 0.496683 0.188480
O O8 0.302116 0.355115 0.140502
O O9 0.122123 0.129611 0.790585
O O10 0.000000 0.000000 0.000000
O O11 0.403525 0.391437 0.802585
O O12 0.163239 0.907473 0.426123
O O13 0.000000 0.500000 0.000000
#
# Coordination Sequence:
#
# PCOD8024762 Si02
#       6
#     2   2   2   2   2   2
#     4  11  24  42  70 108 137 185 235 278 353 414
#     4  10  23  43  72 102 138 187 230 286 347 408
#     4  12  29  45  71 106 137 184 236 284 353 410
#     4  12  26  45  75 102 139 189 231 286 349 411
#     4  12  25  46  69 101 148 178 229 295 343 413
#     4  11  23  47  69 101 141 179 235 289 339 411
#
# _framework density 23.758433
#
# number of rings (size 3 to 8) (size 9 to 14) (size 15 to 20)
#    0.000    0.667    3.333    4.000    4.667    2.667 
#    0.000    0.000    0.000    0.000    0.000    0.000 
#    0.000    0.000    0.000    0.000    0.000    0.000 
#
# Total GULP energy -148859.822604 kJ/mol
# GULP energy per Si atom -12404.985217 kJ/mol
# Density = 2.370436 g / cm^3
# Si number density = 23.758433 Si / 1000 Ang^3
#
#
#
# Elastic Constant Matrix: (Units=GPa)
#
#
# Indices 1 2 3 4 5 6 
#
# 1 118.0768 30.9978 26.3259 -4.1884 -2.5196 34.8778
# 2 30.9978 127.0968 48.5384 -2.6927 -3.2673 35.4100
# 3 26.3259 48.5384 101.5205 15.6678 -17.9940 8.7108
# 4 -4.1884 -2.6927 15.6678 28.1171 -1.6439 0.7840
# 5 -2.5196 -3.2673 -17.9940 -1.6439 25.7019 4.1479
# 6 34.8778 35.4100 8.7108 0.7840 4.1479 33.9549
#
#
#
# Elastic Compliance Matrix: (Units=1/GPa)
#
#
# Indices 1 2 3 4 5 6 
#
# 1 0.013654 0.002912 -0.003977 0.005097 0.001895 -0.016391
# 2 0.002912 0.014735 -0.007341 0.006406 0.000114 -0.016636
# 3 -0.003977 -0.007341 0.017014 -0.010440 0.008866 0.006535
# 4 0.005097 0.006406 -0.010440 0.042940 -0.001630 -0.010030
# 5 0.001895 0.000114 0.008866 -0.001630 0.046828 -0.010023
# 6 -0.016391 -0.016636 0.006535 -0.010030 -0.010023 0.063416
#
#
# Mechanical properties :
#
#
# Convention : Reuss Voigt Hill
#
# Bulk Modulus (GPa) = 34.97747 62.04649 48.51198
# Shear Modulus (GPa) = 22.22913 33.61026 27.91970
#
# Velocity S-wave (km/s) = 3.06213 3.76529 3.43176
# Velocity P-wave (km/s) = 5.22075 6.71382 6.01380
#
# Compressibility (1/GPa) = 0.02858983
#
# Stress axis : x y z
#
# Youngs Moduli (GPa) = 73.23722 67.86542 58.77677
#
# Poissons Ratio (x) = -0.19764 0.23378
# Poissons Ratio (y) = -0.21328 0.43150
# Poissons Ratio (z) = 0.29129 0.49822
#
# Static dielectric constant tensor:
#      x y z
#    x 4.636950 0.346780 -0.058110 
#    y 0.346780 4.311510 0.008470 
#    z -0.058110 0.008470 4.334350 
# 
# 
# High freq. dielectric constant tensor:
#      x y z
#    x 1.949840 0.028550 -0.004920 
#    y 0.028550 1.937480 0.001350 
#    z -0.004920 0.001350 1.952430 
# 
# From -- ./inp_files/148578.got.cif
#   From: 2010.06.25/outbox.cif.g09.slc.cpg/sg2_75_cif.got.tgz:148578.got - 2010.06.27 13:26:56.
