data_PCOD8024798
_publ_section_title
;
Structure prediction by ZEFSAII (Michael W. Deem and Ramdas Pophale) SiO2 
 PCOD8024798
Probable space group: P -1
;
_chemical_formula_sum "Si O2"
_cell_formula_units_Z 14
_cell_length_a 25.530188
_cell_length_b 5.546739
_cell_length_c 16.194918
_cell_angle_alpha 58.735511
_cell_angle_beta 16.791253
_cell_angle_gamma 57.680753
_cell_volume 559.640603
_symmetry_space_group_name_H-M "P -1"
_symmetry_group_IT_number 2
_symmetry_cell_setting 'triclinic'
loop_
_space_group_symop_operation_xyz
x,y,z
-x,-y,-z
loop_
_atom_site_type_symbol
_atom_site_label
_atom_site_fract_x
_atom_site_fract_y
_atom_site_fract_z
Si Si1 0.690886 0.956816 0.830262
Si Si2 0.317958 0.190748 0.311160
Si Si3 0.840726 0.536337 0.801295
Si Si4 0.779442 0.275454 0.353081
Si Si5 0.288365 0.974745 0.825637
Si Si6 0.004213 0.675348 0.701584
Si Si7 0.202960 0.100580 0.757236
O O1 0.676040 0.768567 0.803665
O O2 0.678781 0.765012 0.964598
O O3 0.888389 0.055713 0.512685
O O4 0.518558 0.217600 0.043548
O O5 0.150160 0.411201 0.562013
O O6 0.279874 0.871564 0.447533
O O7 0.922094 0.646117 0.741358
O O8 0.000000 0.500000 0.500000
O O9 0.750133 0.258018 0.007844
O O10 0.700988 0.615416 0.418485
O O11 0.702083 0.107130 0.421850
O O12 0.996970 0.225830 0.022474
O O13 0.500000 0.000000 0.500000
O O14 0.222094 0.905201 0.846114
O O15 0.162766 0.271487 0.990420
#
# Coordination Sequence:
#
# PCOD8024798 Si02
#       7
#     2   2   2   2   2   2   2
#     4  11  25  45  72 113 149 194 252 320 385 468
#     4  11  25  43  73 111 150 191 257 318 389 458
#     4  12  25  49  76 109 149 199 256 309 391 465
#     4  10  23  43  73 105 147 204 248 320 384 472
#     4  12  30  48  75 109 150 203 257 325 383 469
#     4  12  24  47  78 103 154 197 253 313 396 459
#     4  10  24  45  70 105 148 199 261 305 395 458
#
# _framework density 25.016055000000001
#
# number of rings (size 3 to 8) (size 9 to 14) (size 15 to 20)
#    0.000    0.857    2.857    2.571   12.000    1.714 
#    0.000    0.000    0.000    0.000    0.000    0.000 
#    0.000    0.000    0.000    0.000    0.000    0.000 
#
# Total GULP energy -173550.482693 kJ/mol
# GULP energy per Si atom -12396.463050 kJ/mol
# Density = 2.495912 g / cm^3
# Si number density = 25.016055 Si / 1000 Ang^3
#
#
#
# Elastic Constant Matrix: (Units=GPa)
#
#
# Indices 1 2 3 4 5 6 
#
# 1 135.7571 53.4349 44.0132 10.8257 -0.4516 -1.6903
# 2 53.4349 106.8968 53.0831 9.7582 2.7959 -8.0325
# 3 44.0132 53.0831 142.8249 16.0412 -3.9195 -1.6830
# 4 10.8257 9.7582 16.0412 38.9963 -12.6130 0.9811
# 5 -0.4516 2.7959 -3.9195 -12.6130 27.9926 -3.4075
# 6 -1.6903 -8.0325 -1.6830 0.9811 -3.4075 43.5674
#
#
#
# Elastic Compliance Matrix: (Units=1/GPa)
#
#
# Indices 1 2 3 4 5 6 
#
# 1 0.009448 -0.003994 -0.001309 -0.001137 -0.000194 -0.000410
# 2 -0.003994 0.013532 -0.003661 -0.001599 -0.002400 0.002047
# 3 -0.001309 -0.003661 0.009030 -0.002246 0.000563 -0.000282
# 4 -0.001137 -0.001599 -0.002246 0.031872 0.014184 -0.000034
# 5 -0.000194 -0.002400 0.000563 0.014184 0.042746 0.002596
# 6 -0.000410 0.002047 -0.000282 -0.000034 0.002596 0.023507
#
#
# Mechanical properties :
#
#
# Convention : Reuss Voigt Hill
#
# Bulk Modulus (GPa) = 71.01758 76.28235 73.64997
# Shear Modulus (GPa) = 32.73185 37.77444 35.25314
#
# Velocity S-wave (km/s) = 3.62115 3.89010 3.75803
# Velocity P-wave (km/s) = 6.77747 7.12297 6.95237
#
# Compressibility (1/GPa) = 0.01408102
#
# Stress axis : x y z
#
# Youngs Moduli (GPa) = 105.84542 73.89982 110.74313
#
# Poissons Ratio (x) = 0.29519 0.14499
# Poissons Ratio (y) = 0.42279 0.40538
# Poissons Ratio (z) = 0.13858 0.27051
#
# Static dielectric constant tensor:
#      x y z
#    x 5.269220 -0.487950 0.202580 
#    y -0.487950 4.908670 -0.146700 
#    z 0.202580 -0.146700 4.644680 
# 
# 
# High freq. dielectric constant tensor:
#      x y z
#    x 2.001040 -0.012130 0.001170 
#    y -0.012130 1.991750 -0.000860 
#    z 0.001170 -0.000860 1.993770 
# 
# From -- ./inp_files/542093.got.cif
#   From: 2010.06.25/outbox.cif.g09.slc.cpg/sg2_272_cif.got.tgz:542093.got - 2010.06.27 13:26:56.
