data_PCOD8024024
_publ_section_title
;
Structure prediction by ZEFSAII (Michael W. Deem and Ramdas Pophale) SiO2 
 PCOD8024024
Probable space group: P -1
;
_chemical_formula_sum "Si O2"
_cell_formula_units_Z 16
_cell_length_a 14.325059
_cell_length_b 8.747861
_cell_length_c 11.567010
_cell_angle_alpha 139.681573
_cell_angle_beta 75.328486
_cell_angle_gamma 129.402609
_cell_volume 642.935393
_symmetry_space_group_name_H-M "P -1"
_symmetry_group_IT_number 2
_symmetry_cell_setting 'triclinic'
loop_
_space_group_symop_operation_xyz
x,y,z
-x,-y,-z
loop_
_atom_site_type_symbol
_atom_site_label
_atom_site_fract_x
_atom_site_fract_y
_atom_site_fract_z
Si Si1 0.083864 0.562068 0.852169
Si Si2 0.769883 0.565630 0.946627
Si Si3 0.751153 0.313785 0.338248
Si Si4 0.031040 0.941250 0.207094
Si Si5 0.591234 0.394430 0.709981
Si Si6 0.617995 0.530155 0.522046
Si Si7 0.348467 0.237726 0.773006
Si Si8 0.785611 0.073769 0.609829
O O1 0.208537 0.718429 0.818119
O O2 0.066179 0.315366 0.805380
O O3 0.946743 0.352622 0.697423
O O4 0.111932 0.854609 0.079995
O O5 0.734758 0.594326 0.844143
O O6 0.730084 0.222737 0.765634
O O7 0.928925 0.878713 0.107078
O O8 0.671391 0.527353 0.046360
O O9 0.612387 0.235694 0.327593
O O10 0.734469 0.071071 0.291742
O O11 0.866857 0.679157 0.568738
O O12 0.628962 0.577954 0.683066
O O13 0.507978 0.444060 0.840373
O O14 0.500000 0.000000 0.500000
O O15 0.500000 0.500000 0.500000
O O16 0.755582 0.837213 0.586103
O O17 0.293251 0.118500 0.592287
#
# Coordination Sequence:
#
# PCOD8024024 Si02
#       8
#     2   2   2   2   2   2   2   2
#     4  10  23  42  69 106 144 184 229 291 352 415
#     4  11  25  45  72 101 141 187 235 288 353 419
#     4  12  25  43  74 105 143 186 238 283 356 420
#     4  10  23  44  69 103 147 185 229 292 351 416
#     4  12  23  49  72  97 147 187 231 295 355 413
#     4  12  24  43  77 103 132 190 237 285 354 414
#     4  12  26  45  71 105 141 191 235 291 350 421
#     4  11  23  46  73  99 144 183 233 295 350 413
#
# _framework density 24.885863000000001
#
# number of rings (size 3 to 8) (size 9 to 14) (size 15 to 20)
#    0.000    0.750    5.000    1.500    1.750    4.000 
#    0.000    5.000    0.000    0.000    0.000    0.000 
#    0.000    0.000    0.000    0.000    0.000    0.000 
#
# Total GULP energy -198366.619453 kJ/mol
# GULP energy per Si atom -12397.913716 kJ/mol
# Density = 2.482922 g / cm^3
# Si number density = 24.885863 Si / 1000 Ang^3
#
#
#
# Elastic Constant Matrix: (Units=GPa)
#
#
# Indices 1 2 3 4 5 6 
#
# 1 140.8760 32.7375 33.6624 -20.9092 -0.6134 -6.6479
# 2 32.7375 131.7021 28.2017 -25.4170 -1.7930 -9.8804
# 3 33.6624 28.2017 78.8671 -23.4165 -7.8904 -8.8831
# 4 -20.9092 -25.4170 -23.4165 26.7557 8.1272 -8.0137
# 5 -0.6134 -1.7930 -7.8904 8.1272 43.3518 -12.2413
# 6 -6.6479 -9.8804 -8.8831 -8.0137 -12.2413 35.3181
#
#
#
# Elastic Compliance Matrix: (Units=1/GPa)
#
#
# Indices 1 2 3 4 5 6 
#
# 1 0.008534 -0.000559 -0.001635 0.005524 -0.000652 0.002066
# 2 -0.000559 0.010227 0.000595 0.011464 -0.000079 0.005479
# 3 -0.001635 0.000595 0.020378 0.019323 0.003030 0.010419
# 4 0.005524 0.011464 0.019323 0.078202 -0.003336 0.025695
# 5 -0.000652 -0.000079 0.003030 -0.003336 0.026817 0.009155
# 6 0.002066 0.005479 0.010419 0.025695 0.009155 0.041860
#
#
# Mechanical properties :
#
#
# Convention : Reuss Voigt Hill
#
# Bulk Modulus (GPa) = 27.82388 60.07208 43.94798
# Shear Modulus (GPa) = 24.85138 38.20805 31.52971
#
# Velocity S-wave (km/s) = 3.16351 3.92258 3.56332
# Velocity P-wave (km/s) = 4.95466 6.68633 5.88454
#
# Compressibility (1/GPa) = 0.03594035
#
# Stress axis : x y z
#
# Youngs Moduli (GPa) = 117.18498 97.78173 49.07145
#
# Poissons Ratio (x) = 0.05466 0.08023
# Poissons Ratio (y) = 0.06550 -0.02918
# Poissons Ratio (z) = 0.19158 -0.05814
#
# Static dielectric constant tensor:
#      x y z
#    x 4.989120 -0.012140 -0.148520 
#    y -0.012140 4.380810 -0.165160 
#    z -0.148520 -0.165160 4.480440 
# 
# 
# High freq. dielectric constant tensor:
#      x y z
#    x 2.011230 -0.006490 -0.005580 
#    y -0.006490 1.982700 -0.013910 
#    z -0.005580 -0.013910 1.989760 
# 
# From -- ./inp_files/448337.got.cif
#   From: 2010.06.25/outbox.cif.g09.slc.cpg/sg2_225_cif.got.tgz:448337.got - 2010.06.27 13:26:56.
