data_PCOD8024802
_publ_section_title
;
Structure prediction by ZEFSAII (Michael W. Deem and Ramdas Pophale) SiO2 
 PCOD8024802
Probable space group: P -1
;
_chemical_formula_sum "Si O2"
_cell_formula_units_Z 14
_cell_length_a 5.204806
_cell_length_b 9.169976
_cell_length_c 15.687086
_cell_angle_alpha 55.660478
_cell_angle_beta 92.802967
_cell_angle_gamma 105.648484
_cell_volume 590.263278
_symmetry_space_group_name_H-M "P -1"
_symmetry_group_IT_number 2
_symmetry_cell_setting 'triclinic'
loop_
_space_group_symop_operation_xyz
x,y,z
-x,-y,-z
loop_
_atom_site_type_symbol
_atom_site_label
_atom_site_fract_x
_atom_site_fract_y
_atom_site_fract_z
Si Si1 0.178007 0.313850 0.384502
Si Si2 0.927052 0.938659 0.181198
Si Si3 0.116127 0.737515 0.015316
Si Si4 0.761282 0.902026 0.706472
Si Si5 0.671583 0.269737 0.801736
Si Si6 0.617131 0.170112 0.506315
Si Si7 0.347871 0.608451 0.904463
O O1 0.124122 0.162598 0.357102
O O2 0.286492 0.515521 0.280804
O O3 0.402011 0.286863 0.464682
O O4 0.904059 0.297185 0.435598
O O5 0.609430 0.842267 0.206750
O O6 0.087470 0.790366 0.217945
O O7 0.001198 0.037972 0.241009
O O8 0.010390 0.092356 0.055672
O O9 0.332247 0.772396 0.083175
O O10 0.897169 0.541747 0.096396
O O11 0.253264 0.739754 0.924513
O O12 0.522364 0.729655 0.793166
O O13 0.655128 0.080775 0.627679
O O14 0.500000 0.000000 0.500000
O O15 0.500000 0.500000 0.000000
#
# Coordination Sequence:
#
# PCOD8024802 Si02
#       7
#     2   2   2   2   2   2   2
#     4  11  25  47  73 105 134 181 240 287 349 411
#     4  12  27  46  67 106 143 188 232 276 352 420
#     4  11  26  42  69 101 147 185 233 282 345 419
#     4  11  24  45  76 101 143 178 233 295 347 409
#     4  12  28  46  71  99 146 191 229 283 347 413
#     4  10  23  43  73 108 134 174 233 297 351 404
#     4  11  23  42  69 112 135 177 237 294 343 402
#
# _framework density 23.718229999999998
#
# number of rings (size 3 to 8) (size 9 to 14) (size 15 to 20)
#    0.000    0.857    1.429    5.143   10.000    4.571 
#    0.000    4.286    0.000    0.000    0.000    0.000 
#    0.000    0.000    0.000    0.000    0.000    0.000 
#
# Total GULP energy -173608.414109 kJ/mol
# GULP energy per Si atom -12400.601008 kJ/mol
# Density = 2.366425 g / cm^3
# Si number density = 23.718230 Si / 1000 Ang^3
#
#
#
# Elastic Constant Matrix: (Units=GPa)
#
#
# Indices 1 2 3 4 5 6 
#
# 1 129.3053 33.1790 38.1230 -1.8007 17.5366 18.1328
# 2 33.1790 77.3994 32.5580 -6.5840 16.3340 15.2108
# 3 38.1230 32.5580 124.4781 -9.4989 25.8283 14.5555
# 4 -1.8007 -6.5840 -9.4989 22.1609 -4.1757 8.3642
# 5 17.5366 16.3340 25.8283 -4.1757 40.6309 -4.2982
# 6 18.1328 15.2108 14.5555 8.3642 -4.2982 37.7234
#
#
#
# Elastic Compliance Matrix: (Units=1/GPa)
#
#
# Indices 1 2 3 4 5 6 
#
# 1 0.009578 -0.002231 -0.001335 0.000382 -0.002728 -0.003584
# 2 -0.002231 0.017615 -0.001471 0.006229 -0.005331 -0.007451
# 3 -0.001335 -0.001471 0.010952 0.004840 -0.005796 -0.004724
# 4 0.000382 0.006229 0.004840 0.055144 -0.001877 -0.017003
# 5 -0.002728 -0.005331 -0.005796 -0.001877 0.032462 0.009812
# 6 -0.003584 -0.007451 -0.004724 -0.017003 0.009812 0.037947
#
#
# Mechanical properties :
#
#
# Convention : Reuss Voigt Hill
#
# Bulk Modulus (GPa) = 35.62758 59.87810 47.75284
# Shear Modulus (GPa) = 27.30313 35.25791 31.28052
#
# Velocity S-wave (km/s) = 3.39653 3.85974 3.63552
# Velocity P-wave (km/s) = 5.51686 6.72041 6.14815
#
# Compressibility (1/GPa) = 0.02806815
#
# Stress axis : x y z
#
# Youngs Moduli (GPa) = 104.40770 56.77133 91.30992
#
# Poissons Ratio (x) = 0.12668 0.12194
# Poissons Ratio (y) = 0.23298 0.13432
# Poissons Ratio (z) = 0.13943 0.08351
#
# Static dielectric constant tensor:
#      x y z
#    x -3.128700 1.143180 -3.896250 
#    y 1.143180 4.144610 0.461450 
#    z -3.896250 0.461450 2.269880 
# 
# 
# High freq. dielectric constant tensor:
#      x y z
#    x 1.946610 0.006860 0.020570 
#    y 0.006860 1.930170 -0.014610 
#    z 0.020570 -0.014610 1.947100 
# 
# From -- ./inp_files/480224.got.cif
#   From: 2010.06.25/outbox.cif.g09.slc.cpg/sg2_241_cif.got.tgz:480224.got - 2010.06.27 13:26:56.
