data_PCOD8024405
_publ_section_title
;
Structure prediction by ZEFSAII (Michael W. Deem and Ramdas Pophale) SiO2 
 PCOD8024405
Probable space group: P -1
;
_chemical_formula_sum "Si O2"
_cell_formula_units_Z 16
_cell_length_a 6.261391
_cell_length_b 8.347444
_cell_length_c 17.956151
_cell_angle_alpha 62.532485
_cell_angle_beta 120.561762
_cell_angle_gamma 109.943712
_cell_volume 710.022978
_symmetry_space_group_name_H-M "P -1"
_symmetry_group_IT_number 2
_symmetry_cell_setting 'triclinic'
loop_
_space_group_symop_operation_xyz
x,y,z
-x,-y,-z
loop_
_atom_site_type_symbol
_atom_site_label
_atom_site_fract_x
_atom_site_fract_y
_atom_site_fract_z
Si Si1 0.551161 0.492639 0.245349
Si Si2 0.021891 0.751559 0.248038
Si Si3 0.906620 0.644467 0.898481
Si Si4 0.799584 0.982564 0.902420
Si Si5 0.490401 0.567188 0.382474
Si Si6 0.718906 0.772328 0.505364
Si Si7 0.761104 0.066379 0.198822
Si Si8 0.263935 0.871727 0.643603
O O1 0.790794 0.594197 0.222165
O O2 0.302714 0.489243 0.154400
O O3 0.537874 0.601239 0.296789
O O4 0.568677 0.282896 0.310485
O O5 0.243137 0.655887 0.345457
O O6 0.934778 0.909316 0.250351
O O7 0.122170 0.837321 0.170104
O O8 0.799299 0.798157 0.894816
O O9 0.112799 0.742145 0.855981
O O10 0.000000 0.500000 0.000000
O O11 0.512351 0.984154 0.878233
O O12 0.000000 0.000000 0.000000
O O13 0.726412 0.662156 0.451944
O O14 0.460622 0.351284 0.442513
O O15 0.983342 0.805790 0.584244
O O16 0.620049 0.960611 0.424546
O O17 0.721969 0.079840 0.277157
#
# Coordination Sequence:
#
# PCOD8024405 Si02
#       8
#     2   2   2   2   2   2   2   2
#     4  12  25  43  72 100 142 180 224 281 347 404
#     4  11  25  44  71  96 138 184 230 271 344 409
#     4  11  28  43  71 107 137 177 225 281 339 404
#     4  11  26  45  71 100 135 180 229 279 337 410
#     4  11  24  45  65 101 134 185 225 282 339 402
#     4  10  23  43  66  97 139 172 241 278 333 410
#     4  11  25  49  70  97 140 184 224 278 342 409
#     4  11  22  45  67 100 133 184 225 287 342 394
#
# _framework density 22.534481
#
# number of rings (size 3 to 8) (size 9 to 14) (size 15 to 20)
#    0.000    1.000    2.500    3.000    7.000    2.500 
#    9.000    0.000    0.000    0.000    0.000    0.000 
#    0.000    0.000    0.000    0.000    0.000    0.000 
#
# Total GULP energy -198356.386109 kJ/mol
# GULP energy per Si atom -12397.274132 kJ/mol
# Density = 2.248319 g / cm^3
# Si number density = 22.534481 Si / 1000 Ang^3
#
#
#
# Elastic Constant Matrix: (Units=GPa)
#
#
# Indices 1 2 3 4 5 6 
#
# 1 62.6018 9.3734 15.6467 -6.8158 4.8433 4.4858
# 2 9.3734 80.0811 27.8735 -5.5873 0.7942 18.3375
# 3 15.6467 27.8735 113.4361 -6.8077 2.3486 8.7822
# 4 -6.8158 -5.5873 -6.8077 52.4459 -0.2216 0.2194
# 5 4.8433 0.7942 2.3486 -0.2216 21.8641 0.3314
# 6 4.4858 18.3375 8.7822 0.2194 0.3314 40.3994
#
#
#
# Elastic Compliance Matrix: (Units=1/GPa)
#
#
# Indices 1 2 3 4 5 6 
#
# 1 0.017134 -0.000952 -0.001863 0.001873 -0.003526 -0.001047
# 2 -0.000952 0.015136 -0.003050 0.001119 0.000093 -0.006109
# 3 -0.001863 -0.003050 0.009920 0.000721 -0.000526 -0.000565
# 4 0.001873 0.001119 0.000721 0.019526 -0.000320 -0.000976
# 5 -0.003526 0.000093 -0.000526 -0.000320 0.046567 0.000084
# 6 -0.001047 -0.006109 -0.000565 -0.000976 0.000084 0.027769
#
#
# Mechanical properties :
#
#
# Convention : Reuss Voigt Hill
#
# Bulk Modulus (GPa) = 32.82920 40.21179 36.52050
# Shear Modulus (GPa) = 31.65866 36.49025 34.07445
#
# Velocity S-wave (km/s) = 3.75226 4.02843 3.89280
# Velocity P-wave (km/s) = 5.77691 6.28657 6.03712
#
# Compressibility (1/GPa) = 0.03046068
#
# Stress axis : x y z
#
# Youngs Moduli (GPa) = 58.36403 66.06669 100.80850
#
# Poissons Ratio (x) = 0.06288 0.18781
# Poissons Ratio (y) = 0.05555 0.30745
# Poissons Ratio (z) = 0.10873 0.20149
#
# Static dielectric constant tensor:
#      x y z
#    x 3.930940 0.143700 0.070120 
#    y 0.143700 4.496890 -0.164330 
#    z 0.070120 -0.164330 4.244360 
# 
# 
# High freq. dielectric constant tensor:
#      x y z
#    x 1.866760 0.014250 0.004550 
#    y 0.014250 1.909230 -0.007000 
#    z 0.004550 -0.007000 1.902220 
# 
# From -- ./inp_files/39490.got.cif
#   From: 2010.06.25/outbox.cif.g09.slc.cpg/sg2_20_cif.got.tgz:39490.got - 2010.06.27 13:26:56.
