data_PCOD8024026
_publ_section_title
;
Structure prediction by ZEFSAII (Michael W. Deem and Ramdas Pophale) SiO2 
 PCOD8024026
Probable space group: P -1
;
_chemical_formula_sum "Si O2"
_cell_formula_units_Z 16
_cell_length_a 11.041246
_cell_length_b 9.230189
_cell_length_c 14.247654
_cell_angle_alpha 53.401064
_cell_angle_beta 72.334603
_cell_angle_gamma 37.660512
_cell_volume 668.876965
_symmetry_space_group_name_H-M "P -1"
_symmetry_group_IT_number 2
_symmetry_cell_setting 'triclinic'
loop_
_space_group_symop_operation_xyz
x,y,z
-x,-y,-z
loop_
_atom_site_type_symbol
_atom_site_label
_atom_site_fract_x
_atom_site_fract_y
_atom_site_fract_z
Si Si1 0.367460 0.319223 0.676693
Si Si2 0.219668 0.297784 0.901704
Si Si3 0.716325 0.349722 0.979321
Si Si4 0.714325 0.252666 0.352324
Si Si5 0.065897 0.810829 0.825796
Si Si6 0.210784 0.334924 0.228386
Si Si7 0.679254 0.188098 0.874367
Si Si8 0.042005 0.369884 0.438505
O O1 0.347221 0.223432 0.811512
O O2 0.347025 0.555019 0.617954
O O3 0.175101 0.484876 0.590625
O O4 0.593784 0.026421 0.688579
O O5 0.200760 0.474195 0.916278
O O6 0.982018 0.499713 0.857763
O O7 0.362215 0.976733 0.035024
O O8 0.698046 0.572785 0.856509
O O9 0.804291 0.127137 0.959097
O O10 0.500000 0.500000 0.000000
O O11 0.858905 0.168061 0.107761
O O12 0.921332 0.093785 0.311360
O O13 0.537117 0.462595 0.230708
O O14 0.763658 0.992622 0.469026
O O15 0.819577 0.048211 0.802587
O O16 0.117549 0.432963 0.319615
O O17 0.000000 0.500000 0.500000
#
# Coordination Sequence:
#
# PCOD8024026 Si02
#       8
#     2   2   2   2   2   2   2   2
#     4  10  24  45  74  98 138 182 229 292 344 409
#     4  10  23  42  69 109 138 182 225 280 351 411
#     4  12  25  42  64 102 145 182 224 278 342 416
#     4  11  26  44  69 104 138 180 235 286 342 410
#     4  11  24  41  69 102 148 177 225 284 341 420
#     4  11  25  46  75  99 140 185 236 283 348 412
#     4  12  24  39  67 100 142 182 226 277 347 415
#     4  11  28  49  71  99 136 183 240 293 342 410
#
# _framework density 23.920691999999999
#
# number of rings (size 3 to 8) (size 9 to 14) (size 15 to 20)
#    0.000    1.000    2.500    2.625    5.250    4.000 
#    0.000    0.000    0.000    0.000    0.000    0.000 
#    0.000    0.000    0.000    0.000    0.000    0.000 
#
# Total GULP energy -198355.610658 kJ/mol
# GULP energy per Si atom -12397.225666 kJ/mol
# Density = 2.386625 g / cm^3
# Si number density = 23.920692 Si / 1000 Ang^3
#
#
#
# Elastic Constant Matrix: (Units=GPa)
#
#
# Indices 1 2 3 4 5 6 
#
# 1 67.4238 18.9712 20.2494 6.2915 1.0055 7.1327
# 2 18.9712 109.8159 14.8443 13.3388 -1.6372 -9.1397
# 3 20.2494 14.8443 72.4599 -4.1688 -6.2600 -11.9296
# 4 6.2915 13.3388 -4.1688 38.1881 -0.6180 3.7887
# 5 1.0055 -1.6372 -6.2600 -0.6180 39.7612 0.2908
# 6 7.1327 -9.1397 -11.9296 3.7887 0.2908 32.0769
#
#
#
# Elastic Compliance Matrix: (Units=1/GPa)
#
#
# Indices 1 2 3 4 5 6 
#
# 1 0.018304 -0.002696 -0.005928 -0.002072 -0.001490 -0.006784
# 2 -0.002696 0.010458 -0.000977 -0.003673 0.000261 0.003647
# 3 -0.005928 -0.000977 0.017218 0.002537 0.002808 0.007118
# 4 -0.002072 -0.003673 0.002537 0.028398 0.000764 -0.003003
# 5 -0.001490 0.000261 0.002808 0.000764 0.025644 0.001127
# 6 -0.006784 0.003647 0.007118 -0.003003 0.001127 0.036715
#
#
# Mechanical properties :
#
#
# Convention : Reuss Voigt Hill
#
# Bulk Modulus (GPa) = 37.34502 39.75883 38.55192
# Shear Modulus (GPa) = 30.32819 35.04756 32.68787
#
# Velocity S-wave (km/s) = 3.56457 3.83189 3.70064
# Velocity P-wave (km/s) = 5.70854 6.01955 5.86611
#
# Compressibility (1/GPa) = 0.02677733
#
# Stress axis : x y z
#
# Youngs Moduli (GPa) = 54.63384 95.62467 58.07924
#
# Poissons Ratio (x) = 0.25780 0.34427
# Poissons Ratio (y) = 0.14729 0.05676
# Poissons Ratio (z) = 0.32385 0.09345
#
# Static dielectric constant tensor:
#      x y z
#    x 4.449680 0.028280 -0.083050 
#    y 0.028280 4.562900 0.186930 
#    z -0.083050 0.186930 4.115800 
# 
# 
# High freq. dielectric constant tensor:
#      x y z
#    x 1.954870 -0.006660 -0.001430 
#    y -0.006660 1.964730 0.009650 
#    z -0.001430 0.009650 1.931150 
# 
# From -- ./inp_files/450164.got.cif
#   From: 2010.06.25/outbox.cif.g09.slc.cpg/sg2_226_cif.got.tgz:450164.got - 2010.06.27 13:26:56.
