data_PCOD8024799
_publ_section_title
;
Structure prediction by ZEFSAII (Michael W. Deem and Ramdas Pophale) SiO2 
 PCOD8024799
Probable space group: P -1
;
_chemical_formula_sum "Si O2"
_cell_formula_units_Z 16
_cell_length_a 8.943211
_cell_length_b 11.141527
_cell_length_c 9.658688
_cell_angle_alpha 57.520874
_cell_angle_beta 74.755010
_cell_angle_gamma 59.033685
_cell_volume 696.035148
_symmetry_space_group_name_H-M "P -1"
_symmetry_group_IT_number 2
_symmetry_cell_setting 'triclinic'
loop_
_space_group_symop_operation_xyz
x,y,z
-x,-y,-z
loop_
_atom_site_type_symbol
_atom_site_label
_atom_site_fract_x
_atom_site_fract_y
_atom_site_fract_z
Si Si1 0.060296 0.171642 0.206232
Si Si2 0.223426 0.569205 0.691925
Si Si3 0.581826 0.842980 0.771914
Si Si4 0.555265 0.807670 0.498639
Si Si5 0.048655 0.815367 0.077910
Si Si6 0.271866 0.818015 0.382398
Si Si7 0.128530 0.371073 0.649391
Si Si8 0.570987 0.291292 0.872797
O O1 0.237898 0.180879 0.190721
O O2 0.905365 0.290709 0.264957
O O3 0.095409 0.986734 0.323837
O O4 0.996538 0.227251 0.033686
O O5 0.236177 0.663686 0.492783
O O6 0.142742 0.450653 0.742569
O O7 0.411986 0.468651 0.780935
O O8 0.615038 0.743324 0.681330
O O9 0.455326 0.020135 0.638348
O O10 0.479246 0.799558 0.940240
O O11 0.371164 0.813099 0.504100
O O12 0.686453 0.689358 0.429390
O O13 0.253583 0.701709 0.126332
O O14 0.930783 0.767482 0.235836
O O15 0.000000 0.000000 0.000000
O O16 0.383282 0.807470 0.222750
O O17 0.000000 0.500000 0.500000
#
# Coordination Sequence:
#
# PCOD8024799 Si02
#       8
#     2   2   2   2   2   2   2   2
#     4  11  26  47  75 104 149 197 245 305 361 444
#     4  12  27  47  71 111 151 192 243 305 379 429
#     4  10  24  46  73 106 143 191 248 296 370 437
#     4  10  23  43  73 106 144 192 243 302 360 446
#     4  12  27  47  74 111 145 198 252 299 364 444
#     4  11  24  46  76 105 145 198 248 301 360 445
#     4  12  26  43  74 105 153 191 243 305 371 439
#     4  12  25  45  76 105 147 188 245 306 366 434
#
# _framework density 22.987342999999999
#
# number of rings (size 3 to 8) (size 9 to 14) (size 15 to 20)
#    0.000    0.750    2.500    3.750    3.500    4.500 
#    4.500    0.000    0.000    0.000    0.000    0.000 
#    0.000    0.000    0.000    0.000    0.000    0.000 
#
# Total GULP energy -198337.548081 kJ/mol
# GULP energy per Si atom -12396.096755 kJ/mol
# Density = 2.293502 g / cm^3
# Si number density = 22.987343 Si / 1000 Ang^3
#
#
#
# Elastic Constant Matrix: (Units=GPa)
#
#
# Indices 1 2 3 4 5 6 
#
# 1 110.6607 38.4453 48.5052 3.7374 19.8678 -1.6144
# 2 38.4453 130.8212 56.5960 -0.2083 -4.4822 -15.7768
# 3 48.5052 56.5960 121.2375 19.9499 8.2898 9.1725
# 4 3.7374 -0.2083 19.9499 31.2234 1.4561 2.2335
# 5 19.8678 -4.4822 8.2898 1.4561 47.1044 -3.8610
# 6 -1.6144 -15.7768 9.1725 2.2335 -3.8610 39.7066
#
#
#
# Elastic Compliance Matrix: (Units=1/GPa)
#
#
# Indices 1 2 3 4 5 6 
#
# 1 0.012239 -0.002127 -0.003769 0.001150 -0.004737 -0.000002
# 2 -0.002127 0.011650 -0.005850 0.003479 0.003422 0.006031
# 3 -0.003769 -0.005850 0.014386 -0.008307 -0.001693 -0.005498
# 4 0.001150 0.003479 -0.008307 0.037116 0.000266 0.001286
# 5 -0.004737 0.003422 -0.001693 0.000266 0.024162 0.003893
# 6 -0.000002 0.006031 -0.005498 0.001286 0.003893 0.029157
#
#
# Mechanical properties :
#
#
# Convention : Reuss Voigt Hill
#
# Bulk Modulus (GPa) = 67.64659 72.20139 69.92399
# Shear Modulus (GPa) = 31.82054 38.21841 35.01948
#
# Velocity S-wave (km/s) = 3.72461 4.08190 3.90734
# Velocity P-wave (km/s) = 6.92738 7.32757 7.13028
#
# Compressibility (1/GPa) = 0.01478271
#
# Stress axis : x y z
#
# Youngs Moduli (GPa) = 81.70443 85.83519 69.51220
#
# Poissons Ratio (x) = 0.18258 0.26199
# Poissons Ratio (y) = 0.17379 0.40667
# Poissons Ratio (z) = 0.30794 0.50217
#
# Static dielectric constant tensor:
#      x y z
#    x 4.816780 0.216940 -0.154580 
#    y 0.216940 4.119990 -0.226900 
#    z -0.154580 -0.226900 4.435950 
# 
# 
# High freq. dielectric constant tensor:
#      x y z
#    x 1.911380 -0.003630 0.013590 
#    y -0.003630 1.908520 -0.000840 
#    z 0.013590 -0.000840 1.916720 
# 
# From -- ./inp_files/185043.got.cif
#   From: 2010.06.25/outbox.cif.g09.slc.cpg/sg2_93_cif.got.tgz:185043.got - 2010.06.27 13:26:56.
