data_PCOD8024016
_publ_section_title
;
Structure prediction by ZEFSAII (Michael W. Deem and Ramdas Pophale) SiO2 
 PCOD8024016
Probable space group: P -1
;
_chemical_formula_sum "Si O2"
_cell_formula_units_Z 16
_cell_length_a 9.094534
_cell_length_b 14.567193
_cell_length_c 8.808035
_cell_angle_alpha 43.976269
_cell_angle_beta 77.945564
_cell_angle_gamma 67.826065
_cell_volume 746.745362
_symmetry_space_group_name_H-M "P -1"
_symmetry_group_IT_number 2
_symmetry_cell_setting 'triclinic'
loop_
_space_group_symop_operation_xyz
x,y,z
-x,-y,-z
loop_
_atom_site_type_symbol
_atom_site_label
_atom_site_fract_x
_atom_site_fract_y
_atom_site_fract_z
Si Si1 0.742828 0.590069 0.461256
Si Si2 0.940462 0.875697 0.442278
Si Si3 0.208600 0.871075 0.043984
Si Si4 0.454480 0.308937 0.895377
Si Si5 0.508617 0.444054 0.234202
Si Si6 0.274708 0.870724 0.379998
Si Si7 0.649266 0.923216 0.664710
Si Si8 0.014911 0.686701 0.390352
O O1 0.593772 0.678287 0.286032
O O2 0.669369 0.540955 0.684607
O O3 0.852839 0.463556 0.485824
O O4 0.842761 0.690099 0.365117
O O5 0.816693 0.886380 0.588150
O O6 0.095117 0.903792 0.444438
O O7 0.000477 0.722028 0.531683
O O8 0.859202 0.980171 0.198457
O O9 0.357718 0.773971 0.031133
O O10 0.266906 0.889464 0.178448
O O11 0.069624 0.802281 0.152180
O O12 0.415317 0.463416 0.789197
O O13 0.357357 0.225653 0.103861
O O14 0.620431 0.284124 0.407032
O O15 0.500000 0.500000 0.000000
O O16 0.352683 0.978274 0.308149
O O17 0.500000 0.000000 0.500000
#
# Coordination Sequence:
#
# PCOD8024016 Si02
#       8
#     2   2   2   2   2   2   2   2
#     4  11  24  44  72  96 137 173 237 280 332 412
#     4  11  25  45  70  97 146 176 228 282 343 409
#     4  11  22  43  74  96 137 176 232 277 339 409
#     4  12  24  43  71  99 134 183 228 278 337 409
#     4  12  26  45  72  99 139 181 224 280 347 406
#     4  11  25  46  70 101 133 187 226 277 349 404
#     4  12  27  44  65 105 144 177 226 284 342 404
#     4  10  23  42  69 103 128 177 227 285 335 392
#
# _framework density 21.426313
#
# number of rings (size 3 to 8) (size 9 to 14) (size 15 to 20)
#    0.000    0.750    3.750    4.500    7.000    0.500 
#    4.500    1.250    0.000    0.000    0.000    0.000 
#    0.000    0.000    0.000    0.000    0.000    0.000 
#
# Total GULP energy -198438.098346 kJ/mol
# GULP energy per Si atom -12402.381147 kJ/mol
# Density = 2.137755 g / cm^3
# Si number density = 21.426313 Si / 1000 Ang^3
#
#
#
# Elastic Constant Matrix: (Units=GPa)
#
#
# Indices 1 2 3 4 5 6 
#
# 1 116.8722 44.4531 39.0463 7.1203 -13.4657 6.4602
# 2 44.4531 80.0698 30.3693 -5.9933 -15.2255 4.9251
# 3 39.0463 30.3693 96.9231 8.5206 -16.5671 3.4301
# 4 7.1203 -5.9933 8.5206 23.3494 -1.1474 3.7702
# 5 -13.4657 -15.2255 -16.5671 -1.1474 36.7769 -4.0530
# 6 6.4602 4.9251 3.4301 3.7702 -4.0530 38.0908
#
#
#
# Elastic Compliance Matrix: (Units=1/GPa)
#
#
# Indices 1 2 3 4 5 6 
#
# 1 0.011973 -0.005850 -0.002498 -0.004117 0.000645 -0.000573
# 2 -0.005850 0.018515 -0.003418 0.008222 0.004077 -0.001474
# 3 -0.002498 -0.003418 0.013428 -0.004923 0.003624 0.000529
# 4 -0.004117 0.008222 -0.004923 0.048779 0.000685 -0.004677
# 5 0.000645 0.004077 0.003624 0.000685 0.031019 0.002270
# 6 -0.000573 -0.001474 0.000529 -0.004677 0.002270 0.027198
#
#
# Mechanical properties :
#
#
# Convention : Reuss Voigt Hill
#
# Bulk Modulus (GPa) = 49.05873 57.95582 53.50728
# Shear Modulus (GPa) = 27.58799 31.64318 29.61558
#
# Velocity S-wave (km/s) = 3.59217 3.84713 3.72184
# Velocity P-wave (km/s) = 6.33649 6.84409 6.59517
#
# Compressibility (1/GPa) = 0.02038373
#
# Stress axis : x y z
#
# Youngs Moduli (GPa) = 83.52315 54.01101 74.46914
#
# Poissons Ratio (x) = 0.31595 0.18602
# Poissons Ratio (y) = 0.48860 0.25456
# Poissons Ratio (z) = 0.20863 0.18463
#
# Static dielectric constant tensor:
#      x y z
#    x 4.125610 -0.022580 -0.166100 
#    y -0.022580 4.003220 -0.068680 
#    z -0.166100 -0.068680 3.751920 
# 
# 
# High freq. dielectric constant tensor:
#      x y z
#    x 1.854240 -0.005270 -0.007460 
#    y -0.005270 1.852430 -0.006700 
#    z -0.007460 -0.006700 1.828400 
# 
# From -- ./inp_files/205149.got.cif
#   From: 2010.06.25/outbox.cif.g09.slc.cpg/sg2_103_cif.got.tgz:205149.got - 2010.06.27 13:26:56.
