data_PCOD8024186
_publ_section_title
;
Structure prediction by ZEFSAII (Michael W. Deem and Ramdas Pophale) SiO2 
 PCOD8024186
Probable space group: P -1
;
_chemical_formula_sum "Si O2"
_cell_formula_units_Z 14
_cell_length_a 13.365741
_cell_length_b 10.395842
_cell_length_c 8.825193
_cell_angle_alpha 119.246129
_cell_angle_beta 32.685084
_cell_angle_gamma 124.563811
_cell_volume 545.147428
_symmetry_space_group_name_H-M "P -1"
_symmetry_group_IT_number 2
_symmetry_cell_setting 'triclinic'
loop_
_space_group_symop_operation_xyz
x,y,z
-x,-y,-z
loop_
_atom_site_type_symbol
_atom_site_label
_atom_site_fract_x
_atom_site_fract_y
_atom_site_fract_z
Si Si1 0.835645 0.333072 0.426886
Si Si2 0.857171 0.356602 0.733540
Si Si3 0.205048 0.225083 0.177090
Si Si4 0.461437 0.571819 0.327034
Si Si5 0.730791 0.781564 0.575605
Si Si6 0.444251 0.796783 0.725247
Si Si7 0.847551 0.101154 0.032937
O O1 0.728418 0.299616 0.709489
O O2 0.740059 0.422762 0.485442
O O3 0.846375 0.175921 0.243872
O O4 0.051450 0.453681 0.264929
O O5 0.014408 0.267633 0.480110
O O6 0.733757 0.314262 0.016357
O O7 0.265964 0.163741 0.223472
O O8 0.370042 0.377902 0.987734
O O9 0.163427 0.077866 0.031700
O O10 0.416008 0.398064 0.347603
O O11 0.527920 0.693058 0.448755
O O12 0.627619 0.878876 0.654064
O O13 0.951098 0.800737 0.251520
O O14 0.352715 0.906637 0.807449
#
# Coordination Sequence:
#
# PCOD8024186 Si02
#       7
#     2   2   2   2   2   2   2
#     4  10  23  42  72  96 144 180 235 277 350 403
#     4  11  23  42  70 106 134 185 233 285 337 416
#     4  12  26  44  71 102 148 175 231 288 350 402
#     4  11  24  45  69 106 136 182 234 291 333 414
#     4  12  24  44  74 100 138 185 234 283 340 409
#     4  11  25  43  72 101 138 181 237 277 347 407
#     4  11  26  49  66 105 144 185 220 290 349 417
#
# _framework density 25.681127
#
# number of rings (size 3 to 8) (size 9 to 14) (size 15 to 20)
#    0.000    0.857    2.857    3.000    6.000    5.714 
#    2.571    0.000    0.000    0.000    0.000    0.000 
#    0.000    0.000    0.000    0.000    0.000    0.000 
#
# Total GULP energy -173525.673970 kJ/mol
# GULP energy per Si atom -12394.690998 kJ/mol
# Density = 2.562268 g / cm^3
# Si number density = 25.681127 Si / 1000 Ang^3
#
#
#
# Elastic Constant Matrix: (Units=GPa)
#
#
# Indices 1 2 3 4 5 6 
#
# 1 114.1104 20.3321 31.1613 13.0431 2.7925 13.3484
# 2 20.3321 83.8141 6.1776 12.5557 -7.8134 5.3357
# 3 31.1613 6.1776 74.1068 6.3817 -0.4861 1.0581
# 4 13.0431 12.5557 6.3817 31.7118 -3.7809 7.8966
# 5 2.7925 -7.8134 -0.4861 -3.7809 38.0956 3.2878
# 6 13.3484 5.3357 1.0581 7.8966 3.2878 18.7125
#
#
#
# Elastic Compliance Matrix: (Units=1/GPa)
#
#
# Indices 1 2 3 4 5 6 
#
# 1 0.011228 -0.001846 -0.004351 -0.001506 -0.000850 -0.006452
# 2 -0.001846 0.013280 0.000038 -0.003877 0.002586 -0.001290
# 3 -0.004351 0.000038 0.015458 -0.002102 0.000048 0.003097
# 4 -0.001506 -0.003877 -0.002102 0.038269 0.004348 -0.014614
# 5 -0.000850 0.002586 0.000048 0.004348 0.027867 -0.006865
# 6 -0.006452 -0.001290 0.003097 -0.014614 -0.006865 0.065609
#
#
# Mechanical properties :
#
#
# Convention : Reuss Voigt Hill
#
# Bulk Modulus (GPa) = 36.16839 43.04149 39.60494
# Shear Modulus (GPa) = 25.87387 31.99466 28.93426
#
# Velocity S-wave (km/s) = 3.17757 3.53348 3.36024
# Velocity P-wave (km/s) = 5.25136 5.78305 5.52361
#
# Compressibility (1/GPa) = 0.02764845
#
# Stress axis : x y z
#
# Youngs Moduli (GPa) = 89.06031 75.30046 64.69309
#
# Poissons Ratio (x) = 0.13900 0.28150
# Poissons Ratio (y) = 0.16440 -0.00248
# Poissons Ratio (z) = 0.38753 -0.00289
#
# Static dielectric constant tensor:
#      x y z
#    x 5.032710 0.162890 0.158850 
#    y 0.162890 4.264880 0.220130 
#    z 0.158850 0.220130 4.775840 
# 
# 
# High freq. dielectric constant tensor:
#      x y z
#    x 2.044740 0.004140 0.007290 
#    y 0.004140 1.999710 0.011010 
#    z 0.007290 0.011010 2.031720 
# 
# From -- ./inp_files/216364.got.cif
#   From: 2010.06.25/outbox.cif.g09.slc.cpg/sg2_109_cif.got.tgz:216364.got - 2010.06.27 13:26:56.
