data_PCOD8024761
_publ_section_title
;
Structure prediction by ZEFSAII (Michael W. Deem and Ramdas Pophale) SiO2 
 PCOD8024761
Probable space group: P -1
;
_chemical_formula_sum "Si O2"
_cell_formula_units_Z 16
_cell_length_a 14.294212
_cell_length_b 5.205436
_cell_length_c 17.485907
_cell_angle_alpha 98.561946
_cell_angle_beta 150.243469
_cell_angle_gamma 89.994425
_cell_volume 616.045764
_symmetry_space_group_name_H-M "P -1"
_symmetry_group_IT_number 2
_symmetry_cell_setting 'triclinic'
loop_
_space_group_symop_operation_xyz
x,y,z
-x,-y,-z
loop_
_atom_site_type_symbol
_atom_site_label
_atom_site_fract_x
_atom_site_fract_y
_atom_site_fract_z
Si Si1 0.353081 0.629349 0.856686
Si Si2 0.813057 0.419228 0.644633
Si Si3 0.085786 0.880313 0.942026
Si Si4 0.585778 0.061742 0.942027
Si Si5 0.853074 0.227377 0.856693
Si Si6 0.574800 0.817207 0.446371
Si Si7 0.074718 0.629409 0.446337
Si Si8 0.687067 0.774603 0.355431
O O1 0.311597 0.838468 0.899793
O O2 0.144870 0.428672 0.679229
O O3 0.500000 0.500000 0.000000
O O4 0.436570 0.773240 0.842555
O O5 0.699581 0.115474 0.571376
O O6 0.934754 0.433361 0.653591
O O7 0.967003 0.564574 0.827143
O O8 0.659918 0.594756 0.536042
O O9 0.250013 0.989247 0.000012
O O10 0.188348 0.938675 0.100169
O O11 0.936536 0.069353 0.842520
O O12 0.466910 0.262570 0.827095
O O13 0.644828 0.250683 0.679263
O O14 0.000000 0.500000 0.000000
O O15 0.565457 0.780471 0.346545
O O16 0.199780 0.456271 0.571450
O O17 0.159579 0.941527 0.535909
#
# Coordination Sequence:
#
# PCOD8024761 Si02
#       8
#     2   2   2   2   2   2   2   2
#     4  11  27  44  70 106 142 186 243 299 349 434
#     4  10  23  43  72 101 141 191 231 297 357 425
#     4  11  25  46  70 102 143 189 238 293 365 423
#     4  11  25  46  70 102 143 189 238 293 365 423
#     4  11  27  44  70 106 142 186 243 299 349 434
#     4  10  23  44  70 104 142 182 244 291 355 430
#     4  10  23  44  70 104 142 182 244 291 355 430
#     4  10  23  43  72 101 141 191 231 297 357 425
#
# _framework density 25.972093999999998
#
# number of rings (size 3 to 8) (size 9 to 14) (size 15 to 20)
#    0.000    1.500    2.500    0.000   10.500    5.000 
#    0.000    0.000    0.000    0.000    0.000    0.000 
#    0.000    0.000    0.000    0.000    0.000    0.000 
#
# Total GULP energy -198400.375770 kJ/mol
# GULP energy per Si atom -12400.023486 kJ/mol
# Density = 2.591298 g / cm^3
# Si number density = 25.972094 Si / 1000 Ang^3
#
#
#
# Elastic Constant Matrix: (Units=GPa)
#
#
# Indices 1 2 3 4 5 6 
#
# 1 115.9799 13.9990 48.9591 -0.1591 12.0197 -0.0631
# 2 13.9990 67.7409 -3.0811 0.1308 0.6147 0.1778
# 3 48.9591 -3.0811 90.0853 -0.1857 1.4685 -0.1277
# 4 -0.1591 0.1308 -0.1857 28.5462 -0.0735 -10.5924
# 5 12.0197 0.6147 1.4685 -0.0735 58.1134 -0.2507
# 6 -0.0631 0.1778 -0.1277 -10.5924 -0.2507 19.6906
#
#
#
# Elastic Compliance Matrix: (Units=1/GPa)
#
#
# Indices 1 2 3 4 5 6 
#
# 1 0.011957 -0.002749 -0.006555 0.000035 -0.002278 0.000010
# 2 -0.002749 0.015419 0.002015 -0.000150 0.000353 -0.000211
# 3 -0.006555 0.002015 0.014717 0.000097 0.000963 0.000121
# 4 0.000035 -0.000150 0.000097 0.043772 0.000149 0.023551
# 5 -0.002278 0.000353 0.000963 0.000149 0.017652 0.000301
# 6 0.000010 -0.000211 0.000121 0.023551 0.000301 0.063461
#
#
# Mechanical properties :
#
#
# Convention : Reuss Voigt Hill
#
# Bulk Modulus (GPa) = 36.34333 43.72889 40.03611
# Shear Modulus (GPa) = 26.21525 35.53197 30.87361
#
# Velocity S-wave (km/s) = 3.18049 3.70277 3.45153
# Velocity P-wave (km/s) = 5.24509 5.92909 5.59755
#
# Compressibility (1/GPa) = 0.02751536
#
# Stress axis : x y z
#
# Youngs Moduli (GPa) = 83.63069 64.85327 67.94955
#
# Poissons Ratio (x) = 0.17826 0.44543
# Poissons Ratio (y) = 0.22987 -0.13691
# Poissons Ratio (z) = 0.54822 -0.13067
#
# Static dielectric constant tensor:
#      x y z
#    x 5.106990 0.002900 -0.411800 
#    y 0.002900 4.577040 -0.000960 
#    z -0.411800 -0.000960 4.819750 
# 
# 
# High freq. dielectric constant tensor:
#      x y z
#    x 2.062500 0.000100 -0.015150 
#    y 0.000100 2.038400 -0.000020 
#    z -0.015150 -0.000020 2.043820 
# 
# From -- ./inp_files/571739.got.cif
#   From: 2010.06.25/outbox.cif.g09.slc.cpg/sg2_286_cif.got.tgz:571739.got - 2010.06.27 13:26:56.
