data_PCOD8024445
_publ_section_title
;
Structure prediction by ZEFSAII (Michael W. Deem and Ramdas Pophale) SiO2 
 PCOD8024445
Probable space group: P -1
;
_chemical_formula_sum "Si O2"
_cell_formula_units_Z 12
_cell_length_a 11.855841
_cell_length_b 12.123025
_cell_length_c 12.552165
_cell_angle_alpha 36.381006
_cell_angle_beta 144.419633
_cell_angle_gamma 149.612530
_cell_volume 497.063490
_symmetry_space_group_name_H-M "P -1"
_symmetry_group_IT_number 2
_symmetry_cell_setting 'triclinic'
loop_
_space_group_symop_operation_xyz
x,y,z
-x,-y,-z
loop_
_atom_site_type_symbol
_atom_site_label
_atom_site_fract_x
_atom_site_fract_y
_atom_site_fract_z
Si Si1 0.863472 0.265833 0.642812
Si Si2 0.341137 0.111967 0.396286
Si Si3 0.757026 0.516722 0.703990
Si Si4 0.728324 0.901664 0.415246
Si Si5 0.261948 0.684215 0.939275
Si Si6 0.691060 0.553331 0.015209
O O1 0.615427 0.198817 0.554029
O O2 0.000000 0.500000 0.500000
O O3 0.038764 0.290460 0.850414
O O4 0.803662 0.068142 0.669369
O O5 0.198362 0.000838 0.483940
O O6 0.331970 0.322296 0.197776
O O7 0.880019 0.803320 0.565235
O O8 0.530948 0.361650 0.571438
O O9 0.968947 0.498741 0.847267
O O10 0.659114 0.404254 0.834516
O O11 0.679532 0.063910 0.185591
O O12 0.368792 0.678276 0.910565
O O13 0.500000 0.500000 0.000000
#
# Coordination Sequence:
#
# PCOD8024445 Si02
#       6
#     2   2   2   2   2   2
#     4  11  23  42  64  91 134 179 222 272 326 395
#     4  11  24  42  66  98 133 176 223 273 337 392
#     4  10  23  43  67  95 129 167 223 269 334 392
#     4  11  22  42  68  96 128 171 215 278 334 389
#     4  11  23  43  66  96 131 171 218 273 328 395
#     4  12  24  44  66  99 136 177 222 272 332 399
#
# _framework density 24.141784999999999
#
# number of rings (size 3 to 8) (size 9 to 14) (size 15 to 20)
#    0.000    1.000    3.333    3.500    2.333    0.000 
#    3.000    1.667    0.000    0.000    0.000    0.000 
#    0.000    0.000    0.000    0.000    0.000    0.000 
#
# Total GULP energy -148717.219382 kJ/mol
# GULP energy per Si atom -12393.101615 kJ/mol
# Density = 2.408684 g / cm^3
# Si number density = 24.141785 Si / 1000 Ang^3
#
#
#
# Elastic Constant Matrix: (Units=GPa)
#
#
# Indices 1 2 3 4 5 6 
#
# 1 120.9610 10.9085 33.5113 -2.7220 3.7998 -18.7348
# 2 10.9085 52.5953 28.4241 -6.3777 17.3145 -19.2515
# 3 33.5113 28.4241 133.3473 -7.2213 6.8500 -13.2167
# 4 -2.7220 -6.3777 -7.2213 46.2054 1.7974 2.0341
# 5 3.7998 17.3145 6.8500 1.7974 32.5380 -6.9641
# 6 -18.7348 -19.2515 -13.2167 2.0341 -6.9641 21.1749
#
#
#
# Elastic Compliance Matrix: (Units=1/GPa)
#
#
# Indices 1 2 3 4 5 6 
#
# 1 0.010193 0.002827 -0.002137 0.000210 -0.000071 0.010211
# 2 0.002827 0.035623 -0.004740 0.003626 -0.012617 0.027432
# 3 -0.002137 -0.004740 0.009002 0.000614 0.000759 -0.000391
# 4 0.000210 0.003626 0.000614 0.022345 -0.003173 0.000676
# 5 -0.000071 -0.012617 0.000759 -0.003173 0.037832 0.001687
# 6 0.010211 0.027432 -0.000391 0.000676 0.001687 0.081446
#
#
# Mechanical properties :
#
#
# Convention : Reuss Voigt Hill
#
# Bulk Modulus (GPa) = 21.40519 50.28791 35.84655
# Shear Modulus (GPa) = 22.71549 35.58763 29.15156
#
# Velocity S-wave (km/s) = 3.07077 3.84358 3.47870
# Velocity P-wave (km/s) = 4.63234 6.36969 5.56918
#
# Compressibility (1/GPa) = 0.04671764
#
# Stress axis : x y z
#
# Youngs Moduli (GPa) = 98.10913 28.07190 111.08331
#
# Poissons Ratio (x) = -0.07937 0.23739
# Poissons Ratio (y) = -0.27740 0.52658
# Poissons Ratio (z) = 0.20967 0.13307
#
# Static dielectric constant tensor:
#      x y z
#    x 4.281400 -0.117990 0.327980 
#    y -0.117990 4.470080 0.176920 
#    z 0.327980 0.176920 4.682290 
# 
# 
# High freq. dielectric constant tensor:
#      x y z
#    x 1.960320 -0.006990 0.016800 
#    y -0.006990 1.958950 -0.004510 
#    z 0.016800 -0.004510 1.976050 
# 
# From -- ./inp_files/44786.got.cif
#   From: 2010.06.25/outbox.cif.g09.slc.cpg/sg2_23_cif.got.tgz:44786.got - 2010.06.27 13:26:56.
