data_PCOD8024637
_publ_section_title
;
Structure prediction by ZEFSAII (Michael W. Deem and Ramdas Pophale) SiO2 
 PCOD8024637
Probable space group: P -1
;
_chemical_formula_sum "Si O2"
_cell_formula_units_Z 16
_cell_length_a 8.464508
_cell_length_b 5.167600
_cell_length_c 18.644074
_cell_angle_alpha 69.391988
_cell_angle_beta 60.450495
_cell_angle_gamma 87.505794
_cell_volume 655.516900
_symmetry_space_group_name_H-M "P -1"
_symmetry_group_IT_number 2
_symmetry_cell_setting 'triclinic'
loop_
_space_group_symop_operation_xyz
x,y,z
-x,-y,-z
loop_
_atom_site_type_symbol
_atom_site_label
_atom_site_fract_x
_atom_site_fract_y
_atom_site_fract_z
Si Si1 0.580548 0.894760 0.064161
Si Si2 0.311040 0.982197 0.353973
Si Si3 0.603641 0.409737 0.393549
Si Si4 0.239802 0.070396 0.515583
Si Si5 0.213945 0.607144 0.939391
Si Si6 0.732411 0.397552 0.732710
Si Si7 0.284841 0.799202 0.744912
Si Si8 0.082403 0.173603 0.673814
O O1 0.681535 0.645787 0.038878
O O2 0.420438 0.787878 0.167043
O O3 0.726368 0.138200 0.044050
O O4 0.500000 0.000000 0.000000
O O5 0.192099 0.945706 0.458540
O O6 0.288893 0.277784 0.291399
O O7 0.525428 0.976695 0.326460
O O8 0.262162 0.723307 0.336823
O O9 0.380659 0.368715 0.446630
O O10 0.681419 0.457703 0.289360
O O11 0.707266 0.660554 0.393231
O O12 0.663337 0.125962 0.436079
O O13 0.053165 0.100020 0.601096
O O14 0.264793 0.696739 0.839226
O O15 0.000000 0.500000 0.000000
O O16 0.934338 0.352650 0.721313
O O17 0.100136 0.916661 0.748635
#
# Coordination Sequence:
#
# PCOD8024637 Si02
#       8
#     2   2   2   2   2   2   2   2
#     4  12  27  52  75 107 150 189 224 291 372 436
#     4  11  25  45  71  95 142 190 232 287 349 412
#     4   9  20  39  63  98 135 183 234 292 346 397
#     4   9  21  39  63  97 134 186 239 291 343 397
#     4  12  27  48  79 113 139 181 246 294 348 427
#     4  12  27  46  68 103 143 187 225 285 362 424
#     4  10  23  43  69  99 136 181 237 283 340 415
#     4  11  25  38  70  99 141 183 240 287 345 415
#
# _framework density 24.40822
#
# number of rings (size 3 to 8) (size 9 to 14) (size 15 to 20)
#    0.000    1.250    2.500    1.875   12.250    2.000 
#    0.000    0.000    0.000    0.000    0.000    0.000 
#    0.000    0.000    0.000    0.000    0.000    0.000 
#
# Total GULP energy -198262.499296 kJ/mol
# GULP energy per Si atom -12391.406206 kJ/mol
# Density = 2.435267 g / cm^3
# Si number density = 24.408220 Si / 1000 Ang^3
#
#
#
# Elastic Constant Matrix: (Units=GPa)
#
#
# Indices 1 2 3 4 5 6 
#
# 1 59.3298 15.6621 25.3086 -3.3836 9.1842 -18.0404
# 2 15.6621 60.3467 -0.1162 1.8552 -3.7545 1.3503
# 3 25.3086 -0.1162 75.9118 8.5630 9.2678 6.6013
# 4 -3.3836 1.8552 8.5630 22.9831 2.9316 -3.6649
# 5 9.1842 -3.7545 9.2678 2.9316 36.4459 9.1501
# 6 -18.0404 1.3503 6.6013 -3.6649 9.1501 42.8761
#
#
#
# Elastic Compliance Matrix: (Units=1/GPa)
#
#
# Indices 1 2 3 4 5 6 
#
# 1 0.035140 -0.010948 -0.013831 0.016312 -0.013167 0.021464
# 2 -0.010948 0.020198 0.004380 -0.006922 0.006251 -0.007843
# 3 -0.013831 0.004380 0.019725 -0.011739 0.002510 -0.010533
# 4 0.016312 -0.006922 -0.011739 0.054652 -0.010185 0.015734
# 5 -0.013167 0.006251 0.002510 -0.010185 0.035224 -0.014511
# 6 0.021464 -0.007843 -0.010533 0.015734 -0.014511 0.038664
#
#
# Mechanical properties :
#
#
# Convention : Reuss Voigt Hill
#
# Bulk Modulus (GPa) = 29.18373 30.81081 29.99727
# Shear Modulus (GPa) = 19.54484 30.77662 25.16073
#
# Velocity S-wave (km/s) = 2.83282 3.55478 3.21414
# Velocity P-wave (km/s) = 4.76259 5.43132 5.10791
#
# Compressibility (1/GPa) = 0.03426566
#
# Stress axis : x y z
#
# Youngs Moduli (GPa) = 28.45763 49.51021 50.69732
#
# Poissons Ratio (x) = 0.54202 0.70121
# Poissons Ratio (y) = 0.31154 -0.22207
# Poissons Ratio (z) = 0.39361 -0.21687
#
# Static dielectric constant tensor:
#      x y z
#    x 4.664000 -0.151370 0.188200 
#    y -0.151370 4.428400 0.244810 
#    z 0.188200 0.244810 4.105110 
# 
# 
# High freq. dielectric constant tensor:
#      x y z
#    x 1.980460 -0.006050 0.011040 
#    y -0.006050 1.974450 0.008840 
#    z 0.011040 0.008840 1.959630 
# 
# From -- ./inp_files/141579.got.cif
#   From: 2010.06.25/outbox.cif.g09.slc.cpg/sg2_71_cif.got.tgz:141579.got - 2010.06.27 13:26:56.
