data_PCOD8024885
_publ_section_title
;
Structure prediction by ZEFSAII (Michael W. Deem and Ramdas Pophale) SiO2 
 PCOD8024885
Probable space group: P -1
;
_chemical_formula_sum "Si O2"
_cell_formula_units_Z 16
_cell_length_a 5.227984
_cell_length_b 11.765411
_cell_length_c 15.059877
_cell_angle_alpha 107.955298
_cell_angle_beta 69.030346
_cell_angle_gamma 72.348518
_cell_volume 728.234872
_symmetry_space_group_name_H-M "P -1"
_symmetry_group_IT_number 2
_symmetry_cell_setting 'triclinic'
loop_
_space_group_symop_operation_xyz
x,y,z
-x,-y,-z
loop_
_atom_site_type_symbol
_atom_site_label
_atom_site_fract_x
_atom_site_fract_y
_atom_site_fract_z
Si Si1 0.822202 0.886804 0.757073
Si Si2 0.928713 0.448392 0.635068
Si Si3 0.203603 0.693956 0.086143
Si Si4 0.189288 0.882412 0.879733
Si Si5 0.478615 0.174859 0.814065
Si Si6 0.160549 0.620356 0.552389
Si Si7 0.169563 0.381708 0.765440
Si Si8 0.333278 0.594080 0.860381
O O1 0.537613 0.861936 0.818672
O O2 0.994707 0.919135 0.822534
O O3 0.089429 0.760490 0.640851
O O4 0.697700 0.015442 0.737455
O O5 0.924615 0.574350 0.614220
O O6 0.216578 0.368181 0.648257
O O7 0.902174 0.352781 0.539194
O O8 0.654365 0.503426 0.751562
O O9 0.407692 0.766529 0.104164
O O10 0.866835 0.802537 0.114405
O O11 0.139326 0.625689 0.164738
O O12 0.370747 0.585502 0.960766
O O13 0.195130 0.746948 0.882696
O O14 0.000000 0.000000 0.000000
O O15 0.468547 0.256827 0.744310
O O16 0.500000 0.500000 0.500000
O O17 0.116583 0.528459 0.840559
#
# Coordination Sequence:
#
# PCOD8024885 Si02
#       8
#     2   2   2   2   2   2   2   2
#     4  12  24  46  70  98 141 187 222 284 350 411
#     4  11  23  42  68  95 136 171 236 289 346 396
#     4  10  24  41  66  99 144 180 228 273 342 413
#     4  12  26  42  69 105 143 181 226 278 346 423
#     4  10  23  44  64  99 139 182 224 274 336 420
#     4  11  25  45  68 102 134 181 231 298 344 406
#     4  10  24  40  68  98 140 180 229 284 339 407
#     4  12  23  41  66 103 138 182 230 284 347 408
#
# _framework density 21.970935000000001
#
# number of rings (size 3 to 8) (size 9 to 14) (size 15 to 20)
#    0.750    0.250    1.250    6.000    3.500    1.000 
#    0.000    0.625    0.000    3.750    0.000    0.000 
#    0.000    0.000    0.000    0.000    0.000    0.000 
#
# Total GULP energy -198280.655818 kJ/mol
# GULP energy per Si atom -12392.540989 kJ/mol
# Density = 2.192093 g / cm^3
# Si number density = 21.970935 Si / 1000 Ang^3
#
#
#
# Elastic Constant Matrix: (Units=GPa)
#
#
# Indices 1 2 3 4 5 6 
#
# 1 109.0786 29.5458 53.5121 4.9762 20.6679 -16.8950
# 2 29.5458 110.3562 62.7104 4.4003 20.5072 -2.6366
# 3 53.5121 62.7104 156.2676 7.0734 30.7516 -18.1483
# 4 4.9762 4.4003 7.0734 39.6582 -5.1203 6.2138
# 5 20.6679 20.5072 30.7516 -5.1203 39.5988 -8.0435
# 6 -16.8950 -2.6366 -18.1483 6.2138 -8.0435 20.6505
#
#
#
# Elastic Compliance Matrix: (Units=1/GPa)
#
#
# Indices 1 2 3 4 5 6 
#
# 1 0.012449 -0.001275 -0.002152 -0.002634 -0.002925 0.007784
# 2 -0.001275 0.012426 -0.004432 -0.000132 -0.003277 -0.004588
# 3 -0.002152 -0.004432 0.010500 -0.002573 -0.003811 0.006191
# 4 -0.002634 -0.000132 -0.002573 0.028383 0.004861 -0.011080
# 5 -0.002925 -0.003277 -0.003811 0.004861 0.033138 0.005284
# 6 0.007784 -0.004588 0.006191 -0.011080 0.005284 0.065041
#
#
# Mechanical properties :
#
#
# Convention : Reuss Voigt Hill
#
# Bulk Modulus (GPa) = 50.87469 74.13766 62.50618
# Shear Modulus (GPa) = 27.14306 35.31043 31.22674
#
# Velocity S-wave (km/s) = 3.51865 4.01327 3.77407
# Velocity P-wave (km/s) = 6.30187 7.43585 6.89222
#
# Compressibility (1/GPa) = 0.01965614
#
# Stress axis : x y z
#
# Youngs Moduli (GPa) = 80.32692 80.47613 95.23551
#
# Poissons Ratio (x) = 0.10263 0.20499
# Poissons Ratio (y) = 0.10244 0.42207
# Poissons Ratio (z) = 0.17290 0.35666
#
# Static dielectric constant tensor:
#      x y z
#    x 4.141710 -0.010550 0.201480 
#    y -0.010550 4.087770 -0.134750 
#    z 0.201480 -0.134750 3.930990 
# 
# 
# High freq. dielectric constant tensor:
#      x y z
#    x 1.876500 -0.004150 0.010710 
#    y -0.004150 1.865450 -0.009290 
#    z 0.010710 -0.009290 1.845750 
# 
# From -- ./inp_files/481673.got.cif
#   From: 2010.06.25/outbox.cif.g09.slc.cpg/sg2_241_cif.got.tgz:481673.got - 2010.06.27 13:26:56.
