data_PCOD8024323
_publ_section_title
;
Structure prediction by ZEFSAII (Michael W. Deem and Ramdas Pophale) SiO2 
 PCOD8024323
Probable space group: P -1
;
_chemical_formula_sum "Si O2"
_cell_formula_units_Z 12
_cell_length_a 16.445224
_cell_length_b 8.281833
_cell_length_c 16.521366
_cell_angle_alpha 53.572215
_cell_angle_beta 162.028115
_cell_angle_gamma 126.657922
_cell_volume 553.907558
_symmetry_space_group_name_H-M "P -1"
_symmetry_group_IT_number 2
_symmetry_cell_setting 'triclinic'
loop_
_space_group_symop_operation_xyz
x,y,z
-x,-y,-z
loop_
_atom_site_type_symbol
_atom_site_label
_atom_site_fract_x
_atom_site_fract_y
_atom_site_fract_z
Si Si1 0.168918 0.785711 0.884971
Si Si2 0.190803 0.232996 0.782004
Si Si3 0.668463 0.376289 0.303288
Si Si4 0.496529 0.811220 0.495691
Si Si5 0.040001 0.738233 0.961106
Si Si6 0.643869 0.531428 0.407235
O O1 0.099847 0.807130 0.906655
O O2 0.939108 0.647809 0.660305
O O3 0.202574 0.015712 0.815629
O O4 0.440288 0.693446 0.155533
O O5 0.262421 0.394920 0.730918
O O6 0.898541 0.243456 0.537556
O O7 0.395863 0.269442 0.039380
O O8 0.634661 0.383118 0.365795
O O9 0.432760 0.600666 0.546154
O O10 0.778771 0.826636 0.715621
O O11 0.500000 0.000000 0.500000
O O12 0.280487 0.831434 0.216894
O O13 0.000000 0.500000 0.000000
#
# Coordination Sequence:
#
# PCOD8024323 Si02
#       6
#     2   2   2   2   2   2
#     4  12  25  39  66  92 123 164 206 245 309 361
#     4  10  23  43  65  93 118 166 201 247 313 366
#     4  10  23  43  66  89 128 155 203 256 303 364
#     4  12  26  41  62  92 124 164 207 250 305 355
#     4  12  23  44  62  87 129 164 199 253 301 365
#     4  12  24  41  61  95 124 160 204 258 299 357
#
# _framework density 21.664265
#
# number of rings (size 3 to 8) (size 9 to 14) (size 15 to 20)
#    0.000    0.667    3.333    4.000    4.667    1.333 
#    0.000    0.000    0.000    0.000    0.000    0.000 
#    0.000    0.000    0.000    0.000    0.000    0.000 
#
# Total GULP energy -148903.871594 kJ/mol
# GULP energy per Si atom -12408.655966 kJ/mol
# Density = 2.161496 g / cm^3
# Si number density = 21.664265 Si / 1000 Ang^3
#
#
#
# Elastic Constant Matrix: (Units=GPa)
#
#
# Indices 1 2 3 4 5 6 
#
# 1 62.0952 -21.1647 17.9160 3.3084 -0.3528 -10.1036
# 2 -21.1647 70.1413 7.2978 -5.6995 1.8573 -14.1938
# 3 17.9160 7.2978 147.4098 2.1526 2.4921 -12.5128
# 4 3.3084 -5.6995 2.1526 35.1927 -16.3414 2.0351
# 5 -0.3528 1.8573 2.4921 -16.3414 34.7278 -0.3395
# 6 -10.1036 -14.1938 -12.5128 2.0351 -0.3395 31.9062
#
#
#
# Elastic Compliance Matrix: (Units=1/GPa)
#
#
# Indices 1 2 3 4 5 6 
#
# 1 0.021292 0.008534 -0.002150 -0.001342 -0.000622 0.009774
# 2 0.008534 0.019261 -0.001109 0.001807 0.000091 0.010722
# 3 -0.002150 -0.001109 0.007276 -0.000946 -0.000913 0.001730
# 4 -0.001342 0.001807 -0.000946 0.037092 0.017391 -0.002173
# 5 -0.000622 0.000091 -0.000913 0.017391 0.037021 -0.001230
# 6 0.009774 0.010722 0.001730 -0.002173 -0.001230 0.040011
#
#
# Mechanical properties :
#
#
# Convention : Reuss Voigt Hill
#
# Bulk Modulus (GPa) = 17.12949 31.97161 24.55055
# Shear Modulus (GPa) = 29.26309 38.73850 34.00079
#
# Velocity S-wave (km/s) = 3.67925 4.23321 3.96592
# Velocity P-wave (km/s) = 5.09638 6.21959 5.68579
#
# Compressibility (1/GPa) = 0.05837886
#
# Stress axis : x y z
#
# Youngs Moduli (GPa) = 46.96647 51.91726 137.43491
#
# Poissons Ratio (x) = -0.44305 0.29555
# Poissons Ratio (y) = -0.40080 0.15236
# Poissons Ratio (z) = 0.10100 0.05755
#
# Static dielectric constant tensor:
#      x y z
#    x -19.468890 -32.896710 11.970540 
#    y -32.896710 -42.515740 17.027340 
#    z 11.970540 17.027340 -2.438670 
# 
# 
# High freq. dielectric constant tensor:
#      x y z
#    x 1.849710 -0.005400 0.002290 
#    y -0.005400 1.858210 0.000560 
#    z 0.002290 0.000560 1.871700 
# 
# From -- ./inp_files/34884.got.cif
#   From: 2010.06.25/outbox.cif.g09.slc.cpg/sg2_18_cif.got.tgz:34884.got - 2010.06.27 13:26:56.
