data_PCOD8024721
_publ_section_title
;
Structure prediction by ZEFSAII (Michael W. Deem and Ramdas Pophale) SiO2 
 PCOD8024721
Probable space group: P -1
;
_chemical_formula_sum "Si O2"
_cell_formula_units_Z 14
_cell_length_a 9.715938
_cell_length_b 15.373507
_cell_length_c 5.219570
_cell_angle_alpha 92.239279
_cell_angle_beta 52.334200
_cell_angle_gamma 89.925454
_cell_volume 616.367828
_symmetry_space_group_name_H-M "P -1"
_symmetry_group_IT_number 2
_symmetry_cell_setting 'triclinic'
loop_
_space_group_symop_operation_xyz
x,y,z
-x,-y,-z
loop_
_atom_site_type_symbol
_atom_site_label
_atom_site_fract_x
_atom_site_fract_y
_atom_site_fract_z
Si Si1 0.957194 0.739142 0.273931
Si Si2 0.227512 0.693187 0.589306
Si Si3 0.081961 0.406296 0.337351
Si Si4 0.463856 0.444354 0.782451
Si Si5 0.695983 0.977182 0.825803
Si Si6 0.874242 0.141839 0.528515
Si Si7 0.830305 0.888524 0.149499
O O1 0.876558 0.650196 0.459471
O O2 0.832723 0.783237 0.199187
O O3 0.972127 0.814006 0.480759
O O4 0.158175 0.717994 0.954427
O O5 0.407222 0.639560 0.378409
O O6 0.261178 0.781736 0.402721
O O7 0.061506 0.642150 0.667450
O O8 0.000000 0.500000 0.500000
O O9 0.265103 0.415380 0.986039
O O10 0.500000 0.500000 0.500000
O O11 0.500000 0.500000 0.000000
O O12 0.781925 0.939229 0.467148
O O13 0.785235 0.069115 0.793001
O O14 0.703885 0.915123 0.059744
O O15 0.500000 0.000000 0.000000
O O16 0.971633 0.094775 0.168827
#
# Coordination Sequence:
#
# PCOD8024721 Si02
#       7
#     2   2   2   2   2   2   2
#     4  10  23  43  71 102 131 185 237 286 345 413
#     4  10  24  44  69 101 142 180 237 289 348 413
#     4  11  23  44  73  99 141 185 235 285 352 417
#     4  12  27  45  70 104 137 180 231 290 349 413
#     4  12  26  42  68 105 140 179 228 286 343 410
#     4  10  23  44  70  97 135 182 230 282 342 412
#     4  11  23  45  70  95 134 180 232 275 343 409
#
# _framework density 22.713711
#
# number of rings (size 3 to 8) (size 9 to 14) (size 15 to 20)
#    0.000    1.143    2.857    2.143    8.000    2.286 
#    0.000    0.000    0.000    0.000    0.000    0.000 
#    0.000    0.000    0.000    0.000    0.000    0.000 
#
# Total GULP energy -173462.932382 kJ/mol
# GULP energy per Si atom -12390.209456 kJ/mol
# Density = 2.266201 g / cm^3
# Si number density = 22.713711 Si / 1000 Ang^3
#
#
#
# Elastic Constant Matrix: (Units=GPa)
#
#
# Indices 1 2 3 4 5 6 
#
# 1 99.2512 69.0157 50.3867 -8.5916 -3.6729 -37.0413
# 2 69.0157 138.9321 79.6982 -3.7359 -3.5339 -43.0670
# 3 50.3867 79.6982 112.9292 -8.6608 0.2211 -23.9459
# 4 -8.5916 -3.7359 -8.6608 40.5212 -6.8145 5.0503
# 5 -3.6729 -3.5339 0.2211 -6.8145 48.9889 2.2159
# 6 -37.0413 -43.0670 -23.9459 5.0503 2.2159 49.1951
#
#
#
# Elastic Compliance Matrix: (Units=1/GPa)
#
#
# Indices 1 2 3 4 5 6 
#
# 1 0.017931 -0.004850 -0.002808 0.001959 0.000934 0.007645
# 2 -0.004850 0.016316 -0.008043 -0.002063 0.000250 0.006917
# 3 -0.002808 -0.008043 0.015573 0.002131 -0.000484 -0.001772
# 4 0.001959 -0.002063 0.002131 0.026257 0.003738 -0.002158
# 5 0.000934 0.000250 -0.000484 0.003738 0.021052 -0.000646
# 6 0.007645 0.006917 -0.001772 -0.002158 -0.000646 0.031527
#
#
# Mechanical properties :
#
#
# Convention : Reuss Voigt Hill
#
# Bulk Modulus (GPa) = 54.29535 83.25708 68.77622
# Shear Modulus (GPa) = 30.08485 37.87516 33.98001
#
# Velocity S-wave (km/s) = 3.64335 4.08794 3.87203
# Velocity P-wave (km/s) = 6.45405 7.68220 7.09475
#
# Compressibility (1/GPa) = 0.01841778
#
# Stress axis : x y z
#
# Youngs Moduli (GPa) = 55.76940 61.28971 64.21557
#
# Poissons Ratio (x) = 0.29728 0.18031
# Poissons Ratio (y) = 0.27050 0.51646
# Poissons Ratio (z) = 0.15660 0.49293
#
# Static dielectric constant tensor:
#      x y z
#    x 3.891580 -0.181490 0.286440 
#    y -0.181490 4.570820 0.050260 
#    z 0.286440 0.050260 4.381790 
# 
# 
# High freq. dielectric constant tensor:
#      x y z
#    x 1.872710 -0.028580 0.018230 
#    y -0.028580 1.917070 0.009730 
#    z 0.018230 0.009730 1.903440 
# 
# From -- ./inp_files/56089.got.cif
#   From: 2010.06.25/outbox.cif.g09.slc.cpg/sg2_29_cif.got.tgz:56089.got - 2010.06.27 13:26:56.
