data_PCOD8024156
_publ_section_title
;
Structure prediction by ZEFSAII (Michael W. Deem and Ramdas Pophale) SiO2 
 PCOD8024156
Probable space group: P -1
;
_chemical_formula_sum "Si O2"
_cell_formula_units_Z 12
_cell_length_a 11.658537
_cell_length_b 7.996207
_cell_length_c 17.636021
_cell_angle_alpha 56.726201
_cell_angle_beta 158.705037
_cell_angle_gamma 119.933619
_cell_volume 498.797702
_symmetry_space_group_name_H-M "P -1"
_symmetry_group_IT_number 2
_symmetry_cell_setting 'triclinic'
loop_
_space_group_symop_operation_xyz
x,y,z
-x,-y,-z
loop_
_atom_site_type_symbol
_atom_site_label
_atom_site_fract_x
_atom_site_fract_y
_atom_site_fract_z
Si Si1 0.387615 0.763854 0.617548
Si Si2 0.282014 0.859818 0.238283
Si Si3 0.218237 0.733031 0.772900
Si Si4 0.757095 0.625233 0.028022
Si Si5 0.398201 0.372077 0.648433
Si Si6 0.279856 0.128046 0.774825
O O1 0.494707 0.605899 0.656014
O O2 0.007803 0.748657 0.392656
O O3 0.483722 0.996133 0.606683
O O4 0.562249 0.679687 0.820180
O O5 0.439003 0.740522 0.294161
O O6 0.119028 0.699279 0.232360
O O7 0.000000 0.000000 0.000000
O O8 0.226158 0.614345 0.888196
O O9 0.979698 0.630614 0.594039
O O10 0.105020 0.962265 0.658062
O O11 0.573830 0.727313 0.960704
O O12 0.477837 0.264919 0.805224
O O13 0.500000 0.000000 0.000000
#
# Coordination Sequence:
#
# PCOD8024156 Si02
#       6
#     2   2   2   2   2   2
#     4  11  23  44  67 100 132 176 221 275 326 396
#     4  10  23  45  69  96 137 176 216 272 338 390
#     4  11  23  42  71 100 129 176 224 274 332 389
#     4  10  23  42  71  97 134 173 222 273 332 396
#     4  12  24  43  72  97 134 178 221 274 332 389
#     4  12  24  40  67 104 134 173 228 276 324 390
#
# _framework density 24.057848
#
# number of rings (size 3 to 8) (size 9 to 14) (size 15 to 20)
#    0.000    1.000    3.333    4.000    4.667    3.333 
#    0.000    2.500    0.000    0.000    0.000    0.000 
#    0.000    0.000    0.000    0.000    0.000    0.000 
#
# Total GULP energy -148692.244765 kJ/mol
# GULP energy per Si atom -12391.020397 kJ/mol
# Density = 2.400309 g / cm^3
# Si number density = 24.057848 Si / 1000 Ang^3
#
#
#
# Elastic Constant Matrix: (Units=GPa)
#
#
# Indices 1 2 3 4 5 6 
#
# 1 104.3889 71.3995 37.9882 13.6745 26.3197 -0.3890
# 2 71.3995 140.7720 20.2662 11.2265 27.9541 -31.3880
# 3 37.9882 20.2662 80.7958 3.0878 4.5655 -1.4989
# 4 13.6745 11.2265 3.0878 29.1451 4.1568 1.6617
# 5 26.3197 27.9541 4.5655 4.1568 37.9112 0.4946
# 6 -0.3890 -31.3880 -1.4989 1.6617 0.4946 39.7274
#
#
#
# Elastic Compliance Matrix: (Units=1/GPa)
#
#
# Indices 1 2 3 4 5 6 
#
# 1 0.020712 -0.009687 -0.006963 -0.003986 -0.005863 -0.007473
# 2 -0.009687 0.015775 0.001178 -0.001654 -0.005031 0.012545
# 3 -0.006963 0.001178 0.015235 0.000833 0.002022 0.001377
# 4 -0.003986 -0.001654 0.000833 0.036911 -0.000123 -0.002857
# 5 -0.005863 -0.005031 0.002022 -0.000123 0.033985 -0.004374
# 6 -0.007473 0.012545 0.001377 -0.002857 -0.004374 0.035236
#
#
# Mechanical properties :
#
#
# Convention : Reuss Voigt Hill
#
# Bulk Modulus (GPa) = 48.12895 65.02938 56.57916
# Shear Modulus (GPa) = 25.54609 34.44359 29.99484
#
# Velocity S-wave (km/s) = 3.26216 3.78788 3.53481
# Velocity P-wave (km/s) = 5.85131 6.79852 6.34262
#
# Compressibility (1/GPa) = 0.02077752
#
# Stress axis : x y z
#
# Youngs Moduli (GPa) = 48.28190 63.38956 65.63845
#
# Poissons Ratio (x) = 0.61403 0.45707
# Poissons Ratio (y) = 0.46769 -0.07730
# Poissons Ratio (z) = 0.33621 -0.07465
#
# Static dielectric constant tensor:
#      x y z
#    x 4.294890 0.344460 0.292390 
#    y 0.344460 5.461830 0.422090 
#    z 0.292390 0.422090 4.462400 
# 
# 
# High freq. dielectric constant tensor:
#      x y z
#    x 1.931730 -0.004520 0.004350 
#    y -0.004520 1.976050 -0.003100 
#    z 0.004350 -0.003100 1.945680 
# 
# From -- ./inp_files/153634.got.cif
#   From: 2010.06.25/outbox.cif.g09.slc.cpg/sg2_77_cif.got.tgz:153634.got - 2010.06.27 13:26:56.
