data_PCOD8024169
_publ_section_title
;
Structure prediction by ZEFSAII (Michael W. Deem and Ramdas Pophale) SiO2 
 PCOD8024169
Probable space group: P -1
;
_chemical_formula_sum "Si O2"
_cell_formula_units_Z 16
_cell_length_a 14.106671
_cell_length_b 11.978245
_cell_length_c 8.398726
_cell_angle_alpha 101.985884
_cell_angle_beta 123.477380
_cell_angle_gamma 40.197199
_cell_volume 701.251877
_symmetry_space_group_name_H-M "P -1"
_symmetry_group_IT_number 2
_symmetry_cell_setting 'triclinic'
loop_
_space_group_symop_operation_xyz
x,y,z
-x,-y,-z
loop_
_atom_site_type_symbol
_atom_site_label
_atom_site_fract_x
_atom_site_fract_y
_atom_site_fract_z
Si Si1 0.539366 0.561646 0.422476
Si Si2 0.155554 0.891295 0.977297
Si Si3 0.851111 0.862963 0.108198
Si Si4 0.694044 0.401626 0.199194
Si Si5 0.783653 0.802626 0.344254
Si Si6 0.160863 0.496632 0.786755
Si Si7 0.791103 0.531466 0.816641
Si Si8 0.580015 0.920836 0.722948
O O1 0.500000 0.500000 0.500000
O O2 0.354811 0.741599 0.205432
O O3 0.700749 0.389421 0.395410
O O4 0.610300 0.614678 0.598823
O O5 0.147247 0.794801 0.810858
O O6 0.108747 0.040047 0.874786
O O7 0.000000 0.000000 0.000000
O O8 0.825343 0.868876 0.275455
O O9 0.024916 0.643647 0.162963
O O10 0.661611 0.975083 0.877040
O O11 0.710629 0.522713 0.207518
O O12 0.500000 0.500000 0.000000
O O13 0.766623 0.691124 0.214865
O O14 0.943206 0.676188 0.588867
O O15 0.584509 0.993593 0.291104
O O16 0.179297 0.529185 0.991733
O O17 0.754399 0.694906 0.816570
O O18 0.500000 0.000000 0.500000
#
# Coordination Sequence:
#
# PCOD8024169 Si02
#       8
#     2   2   2   2   2   2   2   2
#     4  11  24  44  70 106 140 192 243 292 358 430
#     4  11  25  47  75 107 146 187 241 301 360 436
#     4  12  25  46  69 105 144 185 238 297 364 428
#     4  10  23  42  72 101 138 190 233 295 354 420
#     4  11  27  44  71 106 140 191 240 305 359 434
#     4  11  24  45  73 101 147 183 248 293 371 428
#     4  12  25  44  69 100 143 190 232 294 362 431
#     4  12  27  42  68 104 141 186 239 291 367 426
#
# _framework density 22.816337999999998
#
# number of rings (size 3 to 8) (size 9 to 14) (size 15 to 20)
#    0.000    0.750    1.250    6.000    8.750    2.000 
#    0.000    4.375    0.000    0.000    0.000    0.000 
#    0.000    0.000    0.000    0.000    0.000    0.000 
#
# Total GULP energy -198439.558961 kJ/mol
# GULP energy per Si atom -12402.472435 kJ/mol
# Density = 2.276441 g / cm^3
# Si number density = 22.816338 Si / 1000 Ang^3
#
#
#
# Elastic Constant Matrix: (Units=GPa)
#
#
# Indices 1 2 3 4 5 6 
#
# 1 154.6882 53.4844 22.2848 8.0749 -22.0061 0.0299
# 2 53.4844 106.8540 26.3363 0.9830 -16.1859 -7.6269
# 3 22.2848 26.3363 111.0764 11.2489 -13.6491 -3.9123
# 4 8.0749 0.9830 11.2489 35.7214 -2.1500 -2.0615
# 5 -22.0061 -16.1859 -13.6491 -2.1500 45.0606 4.4016
# 6 0.0299 -7.6269 -3.9123 -2.0615 4.4016 40.3961
#
#
#
# Elastic Compliance Matrix: (Units=1/GPa)
#
#
# Indices 1 2 3 4 5 6 
#
# 1 0.008253 -0.003715 -0.000332 -0.001564 0.002629 -0.001106
# 2 -0.003715 0.012106 -0.001970 0.001350 0.001809 0.001969
# 3 -0.000332 -0.001970 0.010089 -0.002912 0.002024 0.000236
# 4 -0.001564 0.001350 -0.002912 0.029318 0.000095 0.001460
# 5 0.002629 0.001809 0.002024 0.000095 0.024956 -0.002179
# 6 -0.001106 0.001969 0.000236 0.001460 -0.002179 0.025462
#
#
# Mechanical properties :
#
#
# Convention : Reuss Voigt Hill
#
# Bulk Modulus (GPa) = 54.31202 64.09217 59.20209
# Shear Modulus (GPa) = 38.95395 42.26982 40.61188
#
# Velocity S-wave (km/s) = 4.13641 4.30887 4.22352
# Velocity P-wave (km/s) = 6.83146 7.27369 7.05604
#
# Compressibility (1/GPa) = 0.01841213
#
# Stress axis : x y z
#
# Youngs Moduli (GPa) = 121.16922 82.60373 99.12269
#
# Poissons Ratio (x) = 0.30690 0.03294
# Poissons Ratio (y) = 0.45019 0.19526
# Poissons Ratio (z) = 0.04027 0.16272
#
# Static dielectric constant tensor:
#      x y z
#    x 4.441590 -0.455550 -0.088720 
#    y -0.455550 4.782490 0.491700 
#    z -0.088720 0.491700 4.718680 
# 
# 
# High freq. dielectric constant tensor:
#      x y z
#    x 1.915420 -0.007980 -0.001610 
#    y -0.007980 1.891150 0.007480 
#    z -0.001610 0.007480 1.913490 
# 
# From -- ./inp_files/308187.got.cif
#   From: 2010.06.25/outbox.cif.g09.slc.cpg/sg2_155_cif.got.tgz:308187.got - 2010.06.27 13:26:56.
