data_PCOD8024281
_publ_section_title
;
Structure prediction by ZEFSAII (Michael W. Deem and Ramdas Pophale) SiO2 
 PCOD8024281
Probable space group: P -1
;
_chemical_formula_sum "Si O2"
_cell_formula_units_Z 16
_cell_length_a 17.461933
_cell_length_b 8.073265
_cell_length_c 13.750039
_cell_angle_alpha 148.729002
_cell_angle_beta 130.771992
_cell_angle_gamma 47.269467
_cell_volume 725.407292
_symmetry_space_group_name_H-M "P -1"
_symmetry_group_IT_number 2
_symmetry_cell_setting 'triclinic'
loop_
_space_group_symop_operation_xyz
x,y,z
-x,-y,-z
loop_
_atom_site_type_symbol
_atom_site_label
_atom_site_fract_x
_atom_site_fract_y
_atom_site_fract_z
Si Si1 0.120689 0.061318 0.743017
Si Si2 0.697556 0.443993 0.014562
Si Si3 0.059148 0.123599 0.387603
Si Si4 0.318860 0.850620 0.935657
Si Si5 0.500301 0.256597 0.713511
Si Si6 0.582149 0.702803 0.655348
Si Si7 0.239432 0.908309 0.580219
Si Si8 0.093475 0.795038 0.042648
O O1 0.205233 0.014809 0.875833
O O2 0.171756 0.836183 0.578848
O O3 0.081928 0.430370 0.853383
O O4 0.016915 0.993935 0.662911
O O5 0.700884 0.293283 0.049094
O O6 0.696623 0.830722 0.208225
O O7 0.592539 0.430159 0.863500
O O8 0.796203 0.209420 0.917790
O O9 0.000000 0.500000 0.500000
O O10 0.168432 0.071856 0.510130
O O11 0.087226 0.923411 0.211156
O O12 0.388908 0.550441 0.775231
O O13 0.373526 0.150417 0.139657
O O14 0.500000 0.000000 0.500000
O O15 0.519391 0.042984 0.719980
O O16 0.500000 0.500000 0.500000
O O17 0.681995 0.459486 0.559897
O O18 0.000000 0.000000 0.000000
#
# Coordination Sequence:
#
# PCOD8024281 Si02
#       8
#     2   2   2   2   2   2   2   2
#     4  11  24  42  64  92 127 169 213 262 317 381
#     4  10  23  43  64  91 128 168 211 262 317 378
#     4  12  25  41  65  95 127 168 213 266 321 377
#     4  11  22  42  65  92 128 169 209 260 318 377
#     4  11  24  41  64  93 125 168 212 258 315 378
#     4  11  23  39  63  93 125 165 210 261 316 375
#     4  11  23  41  63  95 128 166 213 263 316 379
#     4  11  24  43  65  93 127 169 214 264 320 377
#
# _framework density 22.056574000000001
#
# number of rings (size 3 to 8) (size 9 to 14) (size 15 to 20)
#    0.000    1.000    0.000    8.250    0.000    9.000 
#    0.000    4.375    0.000    0.000    0.000    0.000 
#    0.000    0.000    0.000    0.000    0.000    0.000 
#
# Total GULP energy -198399.213045 kJ/mol
# GULP energy per Si atom -12399.950815 kJ/mol
# Density = 2.200637 g / cm^3
# Si number density = 22.056574 Si / 1000 Ang^3
#
#
#
# Elastic Constant Matrix: (Units=GPa)
#
#
# Indices 1 2 3 4 5 6 
#
# 1 128.8464 18.4542 42.5190 9.7161 -4.6013 -9.4629
# 2 18.4542 81.5130 16.8925 7.8291 4.5294 -11.0515
# 3 42.5190 16.8925 113.4486 2.4888 -3.9741 -11.9075
# 4 9.7161 7.8291 2.4888 36.8260 -3.4582 -8.5610
# 5 -4.6013 4.5294 -3.9741 -3.4582 42.3414 0.6974
# 6 -9.4629 -11.0515 -11.9075 -8.5610 0.6974 28.7354
#
#
#
# Elastic Compliance Matrix: (Units=1/GPa)
#
#
# Indices 1 2 3 4 5 6 
#
# 1 0.009171 -0.001203 -0.003119 -0.001718 0.000680 0.000737
# 2 -0.001203 0.013586 -0.001196 -0.001774 -0.001905 0.003851
# 3 -0.003119 -0.001196 0.010500 0.001188 0.000819 0.003198
# 4 -0.001718 -0.001774 0.001188 0.030023 0.002433 0.008130
# 5 0.000680 -0.001905 0.000819 0.002433 0.024171 -0.000031
# 6 0.000737 0.003851 0.003198 0.008130 -0.000031 0.040272
#
#
# Mechanical properties :
#
#
# Convention : Reuss Voigt Hill
#
# Bulk Modulus (GPa) = 45.00105 53.28216 49.14161
# Shear Modulus (GPa) = 34.20760 37.97670 36.09215
#
# Velocity S-wave (km/s) = 3.94242 4.15394 4.04956
# Velocity P-wave (km/s) = 6.41642 6.87142 6.64782
#
# Compressibility (1/GPa) = 0.02222170
#
# Stress axis : x y z
#
# Youngs Moduli (GPa) = 109.04311 73.60257 95.23893
#
# Poissons Ratio (x) = 0.08852 0.29706
# Poissons Ratio (y) = 0.13115 0.11389
# Poissons Ratio (z) = 0.34012 0.08802
#
# Static dielectric constant tensor:
#      x y z
#    x 3.814300 -0.233170 0.044490 
#    y -0.233170 4.077200 -0.150770 
#    z 0.044490 -0.150770 4.441010 
# 
# 
# High freq. dielectric constant tensor:
#      x y z
#    x 1.875510 -0.007300 -0.004000 
#    y -0.007300 1.878580 0.001580 
#    z -0.004000 0.001580 1.878280 
# 
# From -- ./inp_files/352042.got.cif
#   From: 2010.06.25/outbox.cif.g09.slc.cpg/sg2_177_cif.got.tgz:352042.got - 2010.06.27 13:26:56.
