data_PCOD8024698
_publ_section_title
;
Structure prediction by ZEFSAII (Michael W. Deem and Ramdas Pophale) SiO2 
 PCOD8024698
Probable space group: P -1
;
_chemical_formula_sum "Si O2"
_cell_formula_units_Z 14
_cell_length_a 8.880187
_cell_length_b 22.323386
_cell_length_c 12.870811
_cell_angle_alpha 148.126474
_cell_angle_beta 125.883334
_cell_angle_gamma 32.789320
_cell_volume 652.743717
_symmetry_space_group_name_H-M "P -1"
_symmetry_group_IT_number 2
_symmetry_cell_setting 'triclinic'
loop_
_space_group_symop_operation_xyz
x,y,z
-x,-y,-z
loop_
_atom_site_type_symbol
_atom_site_label
_atom_site_fract_x
_atom_site_fract_y
_atom_site_fract_z
Si Si1 0.194076 0.199889 0.453226
Si Si2 0.126607 0.811924 0.046476
Si Si3 0.537864 0.439758 0.542502
Si Si4 0.329792 0.330479 0.825641
Si Si5 0.278632 0.171563 0.998692
Si Si6 0.200773 0.423555 0.688190
Si Si7 0.560966 0.199821 0.302023
O O1 0.372938 0.175817 0.585348
O O2 0.087951 0.347741 0.542935
O O3 0.883107 0.295405 0.512098
O O4 0.408365 0.000670 0.193819
O O5 0.286051 0.628376 0.785687
O O6 0.889852 0.868180 0.115082
O O7 0.382969 0.767988 0.135531
O O8 0.924485 0.988189 0.146092
O O9 0.500000 0.500000 0.500000
O O10 0.496559 0.325089 0.371526
O O11 0.334341 0.398364 0.817924
O O12 0.000000 0.500000 0.000000
O O13 0.364784 0.185138 0.165358
O O14 0.079013 0.356375 0.124304
O O15 0.454650 0.302866 0.521435
#
# Coordination Sequence:
#
# PCOD8024698 Si02
#       7
#     2   2   2   2   2   2   2
#     4  10  24  44  66  99 137 178 223 283 339 392
#     4  12  24  44  71  98 138 185 225 285 341 398
#     4  12  26  43  69 101 141 180 222 285 353 399
#     4  10  23  47  68  96 145 178 230 283 335 410
#     4  12  24  42  72 103 136 181 228 287 341 399
#     4  10  23  43  70  97 136 182 231 277 336 403
#     4  12  26  42  70 108 137 175 240 275 339 421
#
# _framework density 21.447928000000001
#
# number of rings (size 3 to 8) (size 9 to 14) (size 15 to 20)
#    0.857    0.000    4.286    2.571    2.000    7.429 
#    2.571    1.429    0.000    0.000    0.000    0.000 
#    0.000    0.000    0.000    0.000    0.000    0.000 
#
# Total GULP energy -173522.865208 kJ/mol
# GULP energy per Si atom -12394.490372 kJ/mol
# Density = 2.139911 g / cm^3
# Si number density = 21.447928 Si / 1000 Ang^3
#
#
#
# Elastic Constant Matrix: (Units=GPa)
#
#
# Indices 1 2 3 4 5 6 
#
# 1 70.4127 23.7415 25.9421 0.7167 0.8807 -8.3950
# 2 23.7415 105.9924 30.3817 -4.0389 5.5762 -0.7328
# 3 25.9421 30.3817 113.8622 17.2511 3.8655 6.4635
# 4 0.7167 -4.0389 17.2511 39.7179 -0.1756 2.1092
# 5 0.8807 5.5762 3.8655 -0.1756 30.9484 0.9474
# 6 -8.3950 -0.7328 6.4635 2.1092 0.9474 26.3585
#
#
#
# Elastic Compliance Matrix: (Units=1/GPa)
#
#
# Indices 1 2 3 4 5 6 
#
# 1 0.017209 -0.002754 -0.003650 0.000665 0.000275 0.006236
# 2 -0.002754 0.010962 -0.002587 0.002285 -0.001559 -0.000065
# 3 -0.003650 -0.002587 0.011277 -0.004908 -0.000757 -0.003580
# 4 0.000665 0.002285 -0.004908 0.027571 0.000362 -0.000740
# 5 0.000275 -0.001559 -0.000757 0.000362 0.032711 -0.000975
# 6 0.006236 -0.000065 -0.003580 -0.000740 -0.000975 0.040895
#
#
# Mechanical properties :
#
#
# Convention : Reuss Voigt Hill
#
# Bulk Modulus (GPa) = 46.58743 50.04418 48.31581
# Shear Modulus (GPa) = 30.16377 33.41842 31.79110
#
# Velocity S-wave (km/s) = 3.75423 3.95158 3.85417
# Velocity P-wave (km/s) = 6.36873 6.64857 6.51015
#
# Compressibility (1/GPa) = 0.02146502
#
# Stress axis : x y z
#
# Youngs Moduli (GPa) = 58.10990 91.22662 88.67645
#
# Poissons Ratio (x) = 0.25128 0.32366
# Poissons Ratio (y) = 0.16006 0.22939
# Poissons Ratio (z) = 0.21210 0.23599
#
# Static dielectric constant tensor:
#      x y z
#    x 4.107370 -0.123560 -0.307160 
#    y -0.123560 3.811110 0.114210 
#    z -0.307160 0.114210 4.185500 
# 
# 
# High freq. dielectric constant tensor:
#      x y z
#    x 1.833340 -0.004710 -0.003740 
#    y -0.004710 1.833570 0.006640 
#    z -0.003740 0.006640 1.853040 
# 
# From -- ./inp_files/508738.got.cif
#   From: 2010.06.25/outbox.cif.g09.slc.cpg/sg2_255_cif.got.tgz:508738.got - 2010.06.27 13:26:56.
