data_PCOD8024606
_publ_section_title
;
Structure prediction by ZEFSAII (Michael W. Deem and Ramdas Pophale) SiO2 
 PCOD8024606
Probable space group: P -1
;
_chemical_formula_sum "Si O2"
_cell_formula_units_Z 16
_cell_length_a 17.134086
_cell_length_b 22.823031
_cell_length_c 13.741231
_cell_angle_alpha 20.298655
_cell_angle_beta 30.753986
_cell_angle_gamma 23.245544
_cell_volume 735.617204
_symmetry_space_group_name_H-M "P -1"
_symmetry_group_IT_number 2
_symmetry_cell_setting 'triclinic'
loop_
_space_group_symop_operation_xyz
x,y,z
-x,-y,-z
loop_
_atom_site_type_symbol
_atom_site_label
_atom_site_fract_x
_atom_site_fract_y
_atom_site_fract_z
Si Si1 0.580734 0.625782 0.693137
Si Si2 0.428506 0.446416 0.754375
Si Si3 0.784144 0.585424 0.108965
Si Si4 0.039047 0.739025 0.265533
Si Si5 0.144303 0.434306 0.358596
Si Si6 0.162545 0.783906 0.268718
Si Si7 0.654363 0.936884 0.849679
Si Si8 0.946378 0.226554 0.228930
O O1 0.642062 0.681072 0.640803
O O2 0.765183 0.472890 0.661937
O O3 0.413044 0.851427 0.467434
O O4 0.500000 0.500000 0.000000
O O5 0.500000 0.500000 0.500000
O O6 0.345394 0.324093 0.993202
O O7 0.615980 0.294391 0.863618
O O8 0.251400 0.653481 0.682577
O O9 0.822285 0.361175 0.436656
O O10 0.657640 0.769921 0.038153
O O11 0.000000 0.500000 0.000000
O O12 0.864297 0.723042 0.459109
O O13 0.074429 0.744858 0.332373
O O14 0.978079 0.964496 0.936426
O O15 0.000000 0.500000 0.500000
O O16 0.086466 0.643729 0.036133
O O17 0.874835 0.810270 0.848540
O O18 0.500000 0.000000 0.000000
O O19 0.000000 0.000000 0.500000
#
# Coordination Sequence:
#
# PCOD8024606 Si02
#       8
#     2   2   2   2   2   2   2   2
#     4  11  25  41  68 102 141 176 228 290 360 424
#     4  10  25  43  67 101 139 184 234 298 356 419
#     4  11  23  43  68 100 139 174 238 292 359 413
#     4  10  23  44  67  90 133 184 231 277 351 424
#     4  10  23  45  66  99 141 184 232 291 354 424
#     4  10  23  43  69  92 132 183 230 290 348 420
#     4  12  26  44  73 105 140 186 234 297 352 429
#     4  12  26  44  73 107 142 188 244 296 354 427
#
# _framework density 21.750443000000001
#
# number of rings (size 3 to 8) (size 9 to 14) (size 15 to 20)
#    0.000    1.250    1.250    3.750   10.500    4.000 
#    0.000    0.625    0.000    0.000    0.000    0.000 
#    0.000    0.000    0.000    0.000    0.000    0.000 
#
# Total GULP energy -198266.462150 kJ/mol
# GULP energy per Si atom -12391.653884 kJ/mol
# Density = 2.170094 g / cm^3
# Si number density = 21.750443 Si / 1000 Ang^3
#
#
#
# Elastic Constant Matrix: (Units=GPa)
#
#
# Indices 1 2 3 4 5 6 
#
# 1 127.7654 29.0735 30.3552 5.5857 -17.0007 -12.8521
# 2 29.0735 94.8459 17.0343 1.4602 3.4125 1.1963
# 3 30.3552 17.0343 108.2600 2.3149 7.3924 7.4028
# 4 5.5857 1.4602 2.3149 34.6548 -1.4589 -7.1925
# 5 -17.0007 3.4125 7.3924 -1.4589 43.4555 -0.9565
# 6 -12.8521 1.1963 7.4028 -7.1925 -0.9565 41.5216
#
#
#
# Elastic Compliance Matrix: (Units=1/GPa)
#
#
# Indices 1 2 3 4 5 6 
#
# 1 0.010220 -0.002809 -0.003007 -0.000330 0.004803 0.003834
# 2 -0.002809 0.011641 -0.000829 -0.000302 -0.001908 -0.001153
# 3 -0.003007 -0.000829 0.010645 -0.000949 -0.003021 -0.003039
# 4 -0.000330 -0.000302 -0.000949 0.030140 0.001185 0.005324
# 5 0.004803 -0.001908 -0.003021 0.001185 0.025658 0.002877
# 6 0.003834 -0.001153 -0.003039 0.005324 0.002877 0.026834
#
#
# Mechanical properties :
#
#
# Convention : Reuss Voigt Hill
#
# Bulk Modulus (GPa) = 52.03581 53.75527 52.89554
# Shear Modulus (GPa) = 37.08340 40.88694 38.98517
#
# Velocity S-wave (km/s) = 4.13358 4.34039 4.23825
# Velocity P-wave (km/s) = 6.83798 7.06307 6.95143
#
# Compressibility (1/GPa) = 0.01921754
#
# Stress axis : x y z
#
# Youngs Moduli (GPa) = 97.85188 85.90297 93.94293
#
# Poissons Ratio (x) = 0.24128 0.28245
# Poissons Ratio (y) = 0.27484 0.07784
# Poissons Ratio (z) = 0.29420 0.07117
#
# Static dielectric constant tensor:
#      x y z
#    x 3.673540 -0.058100 0.188400 
#    y -0.058100 3.920080 -0.196950 
#    z 0.188400 -0.196950 3.826550 
# 
# 
# High freq. dielectric constant tensor:
#      x y z
#    x 1.882570 -0.018140 -0.012620 
#    y -0.018140 1.847180 0.001500 
#    z -0.012620 0.001500 1.849860 
# 
# From -- ./inp_files/539269.got.cif
#   From: 2010.06.25/outbox.cif.g09.slc.cpg/sg2_270_cif.got.tgz:539269.got - 2010.06.27 13:26:56.
