data_PCOD8024597
_publ_section_title
;
Structure prediction by ZEFSAII (Michael W. Deem and Ramdas Pophale) SiO2 
 PCOD8024597
Probable space group: P -1
;
_chemical_formula_sum "Si O2"
_cell_formula_units_Z 16
_cell_length_a 10.868301
_cell_length_b 8.883949
_cell_length_c 12.596515
_cell_angle_alpha 123.796690
_cell_angle_beta 127.961346
_cell_angle_gamma 58.965651
_cell_volume 768.462745
_symmetry_space_group_name_H-M "P -1"
_symmetry_group_IT_number 2
_symmetry_cell_setting 'triclinic'
loop_
_space_group_symop_operation_xyz
x,y,z
-x,-y,-z
loop_
_atom_site_type_symbol
_atom_site_label
_atom_site_fract_x
_atom_site_fract_y
_atom_site_fract_z
Si Si1 0.889755 0.886577 0.628971
Si Si2 0.028128 0.793730 0.892752
Si Si3 0.676704 0.525013 0.095431
Si Si4 0.156118 0.739537 0.334934
Si Si5 0.195483 0.797164 0.619050
Si Si6 0.146517 0.382456 0.103001
Si Si7 0.220176 0.174385 0.858787
Si Si8 0.805703 0.552378 0.404459
O O1 0.753520 0.770217 0.502808
O O2 0.003027 0.809143 0.759192
O O3 0.005824 0.857873 0.574580
O O4 0.808907 0.110697 0.673979
O O5 0.207351 0.666581 0.966804
O O6 0.901317 0.701891 0.846837
O O7 0.000000 0.000000 0.000000
O O8 0.671276 0.708480 0.095169
O O9 0.751525 0.557093 0.258408
O O10 0.500000 0.500000 0.000000
O O11 0.221999 0.780529 0.500498
O O12 0.244982 0.531494 0.254002
O O13 0.965844 0.749375 0.247260
O O14 0.273491 0.588525 0.626854
O O15 0.280823 0.951887 0.774370
O O16 0.242714 0.210165 0.011331
O O17 0.000000 0.500000 0.000000
O O18 0.000000 0.500000 0.500000
#
# Coordination Sequence:
#
# PCOD8024597 Si02
#       8
#     2   2   2   2   2   2   2   2
#     4  10  19  29  55  87 116 145 197 255 294 334
#     4  12  21  35  58  88 122 153 205 249 296 354
#     4  12  24  38  58  88 127 160 191 247 312 359
#     4  10  17  29  51  87 113 145 189 253 301 335
#     4  10  17  29  54  79 115 146 196 247 292 337
#     4  10  19  30  52  79 117 150 194 245 296 343
#     4  10  19  34  51  80 118 154 194 237 298 358
#     4  10  18  34  57  86 116 149 201 252 287 338
#
# _framework density 20.820786999999999
#
# number of rings (size 3 to 8) (size 9 to 14) (size 15 to 20)
#    0.000    1.500    5.000    6.750    0.000    0.000 
#    0.000    0.625    0.000    0.750    0.000    1.750 
#    0.000    0.000    0.000    0.000    0.000    0.000 
#
# Total GULP energy -198220.039710 kJ/mol
# GULP energy per Si atom -12388.752482 kJ/mol
# Density = 2.077340 g / cm^3
# Si number density = 20.820787 Si / 1000 Ang^3
#
#
#
# Elastic Constant Matrix: (Units=GPa)
#
#
# Indices 1 2 3 4 5 6 
#
# 1 57.0073 47.3005 46.2410 7.8094 0.3410 21.1075
# 2 47.3005 138.0966 54.9181 45.1991 -0.7248 32.9290
# 3 46.2410 54.9181 115.3799 33.1176 -19.2318 1.1031
# 4 7.8094 45.1991 33.1176 49.2210 7.4782 -1.0998
# 5 0.3410 -0.7248 -19.2318 7.4782 25.8817 0.6894
# 6 21.1075 32.9290 1.1031 -1.0998 0.6894 25.0014
#
#
#
# Elastic Compliance Matrix: (Units=1/GPa)
#
#
# Indices 1 2 3 4 5 6 
#
# 1 0.060551 -0.004475 -0.032352 0.019822 -0.029569 -0.042111
# 2 -0.004475 0.022664 -0.001940 -0.020288 0.005834 -0.027040
# 3 -0.032352 -0.001940 0.032615 -0.018891 0.029352 0.026789
# 4 0.019822 -0.020288 -0.018891 0.053489 -0.030695 0.014019
# 5 -0.029569 0.005834 0.029352 -0.030695 0.069531 0.012717
# 6 -0.042111 -0.027040 0.026789 0.014019 0.012717 0.110248
#
#
# Mechanical properties :
#
#
# Convention : Reuss Voigt Hill
#
# Bulk Modulus (GPa) = 26.11349 67.48922 46.80136
# Shear Modulus (GPa) = 11.37925 30.82243 21.10084
#
# Velocity S-wave (km/s) = 2.34034 3.85173 3.18693
# Velocity P-wave (km/s) = 4.45782 7.22951 6.00575
#
# Compressibility (1/GPa) = 0.03829438
#
# Stress axis : x y z
#
# Youngs Moduli (GPa) = 16.51514 44.12281 30.66104
#
# Poissons Ratio (x) = 0.19747 0.99195
# Poissons Ratio (y) = 0.07391 0.05947
# Poissons Ratio (z) = 0.53430 0.08559
#
# Static dielectric constant tensor:
#      x y z
#    x 0.457910 -0.186570 -0.045190 
#    y -0.186570 4.348400 0.843950 
#    z -0.045190 0.843950 3.979660 
# 
# 
# High freq. dielectric constant tensor:
#      x y z
#    x 1.745580 0.043240 -0.037210 
#    y 0.043240 1.829140 0.034510 
#    z -0.037210 0.034510 1.816420 
# 
# From -- ./inp_files/391086.got.cif
#   From: 2010.06.25/outbox.cif.g09.slc.cpg/sg2_196_cif.got.tgz:391086.got - 2010.06.27 13:26:56.
