data_PCOD8024377
_publ_section_title
;
Structure prediction by ZEFSAII (Michael W. Deem and Ramdas Pophale) SiO2 
 PCOD8024377
Probable space group: P -1
;
_chemical_formula_sum "Si O2"
_cell_formula_units_Z 12
_cell_length_a 14.275124
_cell_length_b 9.206850
_cell_length_c 5.154695
_cell_angle_alpha 101.125385
_cell_angle_beta 61.334485
_cell_angle_gamma 130.081812
_cell_volume 447.992158
_symmetry_space_group_name_H-M "P -1"
_symmetry_group_IT_number 2
_symmetry_cell_setting 'triclinic'
loop_
_space_group_symop_operation_xyz
x,y,z
-x,-y,-z
loop_
_atom_site_type_symbol
_atom_site_label
_atom_site_fract_x
_atom_site_fract_y
_atom_site_fract_z
Si Si1 0.246273 0.991343 0.119937
Si Si2 0.513156 0.310346 0.160720
Si Si3 0.638873 0.192627 0.278820
Si Si4 0.306173 0.279662 0.788307
Si Si5 0.168658 0.395196 0.676270
Si Si6 0.004315 0.329830 0.378816
O O1 0.405464 0.179303 0.032332
O O2 0.196333 0.078537 0.022778
O O3 0.148129 0.882991 0.464695
O O4 0.246083 0.832033 0.924150
O O5 0.601860 0.240725 0.073795
O O6 0.427717 0.281640 0.521190
O O7 0.625568 0.540870 0.036840
O O8 0.705137 0.375042 0.443650
O O9 0.500000 0.000000 0.500000
O O10 0.228743 0.289855 0.652127
O O11 0.096007 0.323088 0.468987
O O12 0.060128 0.354507 0.025231
O O13 0.000000 0.500000 0.500000
#
# Coordination Sequence:
#
# PCOD8024377 Si02
#       6
#     2   2   2   2   2   2
#     4  12  25  41  75 100 142 189 241 287 358 421
#     4  10  23  43  66 103 142 179 238 291 363 412
#     4  11  23  42  72 106 137 184 239 298 351 421
#     4  10  24  45  68 103 142 185 229 302 353 426
#     4  11  28  49  72 106 145 188 239 290 359 416
#     4  12  28  48  75 103 147 189 239 295 343 427
#
# _framework density 26.786180999999999
#
# number of rings (size 3 to 8) (size 9 to 14) (size 15 to 20)
#    0.000    1.000    3.333    1.500    7.000    4.000 
#    0.000    0.000    0.000    0.000    0.000    0.000 
#    0.000    0.000    0.000    0.000    0.000    0.000 
#
# Total GULP energy -148776.557162 kJ/mol
# GULP energy per Si atom -12398.046430 kJ/mol
# Density = 2.672521 g / cm^3
# Si number density = 26.786181 Si / 1000 Ang^3
#
#
#
# Elastic Constant Matrix: (Units=GPa)
#
#
# Indices 1 2 3 4 5 6 
#
# 1 106.9557 38.2026 -13.5403 -4.5233 4.9808 -14.1025
# 2 38.2026 92.5796 13.0653 -25.0992 3.5528 -35.3762
# 3 -13.5403 13.0653 41.1935 -29.1765 -0.1039 -11.4557
# 4 -4.5233 -25.0992 -29.1765 42.9046 3.9866 7.6216
# 5 4.9808 3.5528 -0.1039 3.9866 31.3911 0.0980
# 6 -14.1025 -35.3762 -11.4557 7.6216 0.0980 43.6245
#
#
#
# Elastic Compliance Matrix: (Units=1/GPa)
#
#
# Indices 1 2 3 4 5 6 
#
# 1 0.012791 -0.004177 0.010163 0.005590 -0.002241 0.002445
# 2 -0.004177 0.021247 0.005565 0.013431 -0.003476 0.015002
# 3 0.010163 0.005565 0.061506 0.043973 -0.007674 0.016284
# 4 0.005590 0.013431 0.043973 0.060136 -0.009942 0.013762
# 5 -0.002241 -0.003476 -0.007674 -0.009942 0.033855 -0.003898
# 6 0.002445 0.015002 0.016284 0.013762 -0.003898 0.037759
#
#
# Mechanical properties :
#
#
# Convention : Reuss Voigt Hill
#
# Bulk Modulus (GPa) = 8.42844 35.13155 21.77999
# Shear Modulus (GPa) = 20.51362 37.11745 28.81554
#
# Velocity S-wave (km/s) = 2.77036 3.72653 3.28344
# Velocity P-wave (km/s) = 3.65877 5.62673 4.74588
#
# Compressibility (1/GPa) = 0.11864593
#
# Stress axis : x y z
#
# Youngs Moduli (GPa) = 78.17846 47.06565 16.25869
#
# Poissons Ratio (x) = 0.19657 -0.16524
# Poissons Ratio (y) = 0.32652 -0.09047
# Poissons Ratio (z) = -0.79453 -0.26190
#
# Static dielectric constant tensor:
#      x y z
#    x 5.070150 -0.421090 -0.251540 
#    y -0.421090 5.289370 -0.175670 
#    z -0.251540 -0.175670 4.615940 
# 
# 
# High freq. dielectric constant tensor:
#      x y z
#    x 2.074710 -0.018060 -0.004850 
#    y -0.018060 2.086210 -0.014190 
#    z -0.004850 -0.014190 2.063400 
# 
# From -- ./inp_files/17731.got.cif
#   From: 2010.06.25/outbox.cif.g09.slc.cpg/sg2_9_cif.got.tgz:17731.got - 2010.06.27 13:26:56.
