data_PCOD8024940
_publ_section_title
;
Structure prediction by ZEFSAII (Michael W. Deem and Ramdas Pophale) SiO2 
 PCOD8024940
Probable space group: P -1
;
_chemical_formula_sum "Si O2"
_cell_formula_units_Z 16
_cell_length_a 11.127953
_cell_length_b 8.308495
_cell_length_c 19.357121
_cell_angle_alpha 46.141174
_cell_angle_beta 48.490744
_cell_angle_gamma 34.915939
_cell_volume 718.965983
_symmetry_space_group_name_H-M "P -1"
_symmetry_group_IT_number 2
_symmetry_cell_setting 'triclinic'
loop_
_space_group_symop_operation_xyz
x,y,z
-x,-y,-z
loop_
_atom_site_type_symbol
_atom_site_label
_atom_site_fract_x
_atom_site_fract_y
_atom_site_fract_z
Si Si1 0.369676 0.815741 0.418040
Si Si2 0.651019 0.315000 0.894082
Si Si3 0.169425 0.369190 0.413546
Si Si4 0.837369 0.920394 0.718307
Si Si5 0.508076 0.844910 0.884443
Si Si6 0.997363 0.959383 0.252177
Si Si7 0.243137 0.237927 0.752293
Si Si8 0.579104 0.252942 0.270501
O O1 0.500000 0.500000 0.500000
O O2 0.532433 0.848973 0.320448
O O3 0.204362 0.089293 0.452400
O O4 0.238159 0.866019 0.383931
O O5 0.645550 0.536691 0.879702
O O6 0.896037 0.031610 0.860371
O O7 0.530714 0.468929 0.821399
O O8 0.548127 0.198310 0.005899
O O9 0.059687 0.638419 0.320789
O O10 0.404851 0.260327 0.375350
O O11 0.000000 0.500000 0.500000
O O12 0.649745 0.934789 0.814737
O O13 0.039057 0.583150 0.719821
O O14 0.905653 0.031411 0.717091
O O15 0.278891 0.104717 0.855592
O O16 0.736049 0.235256 0.270612
O O17 0.238723 0.051029 0.751921
#
# Coordination Sequence:
#
# PCOD8024940 Si02
#       8
#     2   2   2   2   2   2   2   2
#     4  10  23  44  68  91 122 162 213 265 320 381
#     4   9  19  38  64  91 123 165 218 266 311 371
#     4  10  23  44  66  94 121 163 214 268 317 375
#     4  11  23  39  62  90 130 168 207 261 323 381
#     4   9  19  38  64  92 121 166 219 263 312 378
#     4  11  23  39  59  91 131 169 204 261 321 379
#     4   9  19  37  62  88 119 163 207 259 315 374
#     4   9  19  39  62  87 124 166 209 259 316 377
#
# _framework density 22.254183000000001
#
# number of rings (size 3 to 8) (size 9 to 14) (size 15 to 20)
#    0.000    2.250    0.000    3.750    1.750    6.500 
#    4.500    5.000    0.000    0.000    0.000    0.000 
#    0.000    0.000    0.000    0.000    0.000    0.000 
#
# Total GULP energy -198263.585911 kJ/mol
# GULP energy per Si atom -12391.474119 kJ/mol
# Density = 2.220353 g / cm^3
# Si number density = 22.254183 Si / 1000 Ang^3
#
#
#
# Elastic Constant Matrix: (Units=GPa)
#
#
# Indices 1 2 3 4 5 6 
#
# 1 111.0394 30.1950 50.3167 5.9420 10.4785 -19.5634
# 2 30.1950 99.1957 55.0230 6.6444 3.8794 -8.1674
# 3 50.3167 55.0230 121.0277 11.3080 14.1388 -2.2579
# 4 5.9420 6.6444 11.3080 35.0446 -2.1776 -4.1730
# 5 10.4785 3.8794 14.1388 -2.1776 16.3355 -1.5935
# 6 -19.5634 -8.1674 -2.2579 -4.1730 -1.5935 29.4387
#
#
#
# Elastic Compliance Matrix: (Units=1/GPa)
#
#
# Indices 1 2 3 4 5 6 
#
# 1 0.012957 -0.000637 -0.004562 0.000126 -0.003423 0.007917
# 2 -0.000637 0.013943 -0.006364 0.000071 0.002919 0.003125
# 3 -0.004562 -0.006364 0.014363 -0.003773 -0.008957 -0.004715
# 4 0.000126 0.000071 -0.003773 0.030743 0.007714 0.004589
# 5 -0.003423 0.002919 -0.008957 0.007714 0.071776 0.002827
# 6 0.007917 0.003125 -0.004715 0.004589 0.002827 0.040539
#
#
# Mechanical properties :
#
#
# Convention : Reuss Voigt Hill
#
# Bulk Modulus (GPa) = 55.12830 66.92581 61.02706
# Shear Modulus (GPa) = 23.42014 29.21230 26.31622
#
# Velocity S-wave (km/s) = 3.24758 3.62700 3.44252
# Velocity P-wave (km/s) = 6.23604 6.90499 6.57902
#
# Compressibility (1/GPa) = 0.01813950
#
# Stress axis : x y z
#
# Youngs Moduli (GPa) = 77.17811 71.71972 69.62257
#
# Poissons Ratio (x) = 0.04565 0.31759
# Poissons Ratio (y) = 0.04913 0.44306
# Poissons Ratio (z) = 0.35206 0.45641
#
# Static dielectric constant tensor:
#      x y z
#    x 3.970390 -0.111080 -0.021350 
#    y -0.111080 4.106980 0.058280 
#    z -0.021350 0.058280 4.168030 
# 
# 
# High freq. dielectric constant tensor:
#      x y z
#    x 1.868530 -0.010030 0.002970 
#    y -0.010030 1.878180 0.006300 
#    z 0.002970 0.006300 1.866790 
# 
# From -- ./inp_files/566536.got.cif
#   From: 2010.06.25/outbox.cif.g09.slc.cpg/sg2_284_cif.got.tgz:566536.got - 2010.06.27 13:26:56.
