data_PCOD8024163
_publ_section_title
;
Structure prediction by ZEFSAII (Michael W. Deem and Ramdas Pophale) SiO2 
 PCOD8024163
Probable space group: P -1
;
_chemical_formula_sum "Si O2"
_cell_formula_units_Z 14
_cell_length_a 11.764226
_cell_length_b 14.397016
_cell_length_c 8.927632
_cell_angle_alpha 36.588425
_cell_angle_beta 62.174331
_cell_angle_gamma 46.214064
_cell_volume 636.655450
_symmetry_space_group_name_H-M "P -1"
_symmetry_group_IT_number 2
_symmetry_cell_setting 'triclinic'
loop_
_space_group_symop_operation_xyz
x,y,z
-x,-y,-z
loop_
_atom_site_type_symbol
_atom_site_label
_atom_site_fract_x
_atom_site_fract_y
_atom_site_fract_z
Si Si1 0.312328 0.443600 0.318826
Si Si2 0.078368 0.801704 0.338376
Si Si3 0.558427 0.780796 0.761562
Si Si4 0.306877 0.167952 0.897119
Si Si5 0.834104 0.566865 0.074746
Si Si6 0.592205 0.373697 0.754543
Si Si7 0.977116 0.829765 0.047233
O O1 0.435962 0.307797 0.287241
O O2 0.267147 0.328430 0.594849
O O3 0.419947 0.485217 0.293715
O O4 0.136265 0.635182 0.127094
O O5 0.223105 0.788579 0.186228
O O6 0.974437 0.801408 0.267233
O O7 0.150695 0.621110 0.637139
O O8 0.994946 0.004490 0.217134
O O9 0.740051 0.648977 0.872757
O O10 0.500000 0.000000 0.500000
O O11 0.463839 0.751670 0.983970
O O12 0.192945 0.104457 0.003732
O O13 0.249905 0.261933 0.973899
O O14 0.500000 0.000000 0.000000
O O15 0.000000 0.500000 0.000000
O O16 0.500000 0.500000 0.500000
#
# Coordination Sequence:
#
# PCOD8024163 Si02
#       7
#     2   2   2   2   2   2   2
#     4  11  24  44  68 103 142 189 238 291 367 425
#     4  10  23  43  73 100 132 193 237 287 359 430
#     4  12  27  44  70 107 146 187 239 307 358 423
#     4  12  25  43  70 107 141 188 242 297 362 430
#     4  12  26  46  69 103 143 190 240 299 359 430
#     4  11  22  45  73  99 144 186 241 296 358 425
#     4  10  23  42  71  99 136 182 237 289 351 435
#
# _framework density 21.989916000000001
#
# number of rings (size 3 to 8) (size 9 to 14) (size 15 to 20)
#    0.000    0.857    4.286    2.571    8.000    2.286 
#    0.000    4.286    0.000    0.000    0.000    0.000 
#    0.000    0.000    0.000    0.000    0.000    0.000 
#
# Total GULP energy -173480.761391 kJ/mol
# GULP energy per Si atom -12391.482957 kJ/mol
# Density = 2.193987 g / cm^3
# Si number density = 21.989916 Si / 1000 Ang^3
#
#
#
# Elastic Constant Matrix: (Units=GPa)
#
#
# Indices 1 2 3 4 5 6 
#
# 1 128.7367 38.8995 46.2946 -8.4340 3.9421 -6.1880
# 2 38.8995 129.9293 51.9814 -9.5972 -3.1345 -3.3485
# 3 46.2946 51.9814 129.8385 -14.4527 -6.3503 6.8554
# 4 -8.4340 -9.5972 -14.4527 39.1089 -3.2753 -2.7057
# 5 3.9421 -3.1345 -6.3503 -3.2753 34.5983 0.3981
# 6 -6.1880 -3.3485 6.8554 -2.7057 0.3981 36.8971
#
#
#
# Elastic Compliance Matrix: (Units=1/GPa)
#
#
# Indices 1 2 3 4 5 6 
#
# 1 0.009477 -0.001644 -0.002847 0.000585 -0.001719 0.002031
# 2 -0.001644 0.009577 -0.003181 0.000952 0.000547 0.001248
# 3 -0.002847 -0.003181 0.010513 0.002500 0.002232 -0.002560
# 4 0.000585 0.000952 0.002500 0.027224 0.003036 0.001683
# 5 -0.001719 0.000547 0.002232 0.003036 0.029854 -0.000753
# 6 0.002031 0.001248 -0.002560 0.001683 -0.000753 0.028163
#
#
# Mechanical properties :
#
#
# Convention : Reuss Voigt Hill
#
# Bulk Modulus (GPa) = 70.31095 73.65059 71.98077
# Shear Modulus (GPa) = 37.06585 38.87614 37.97100
#
# Velocity S-wave (km/s) = 4.11004 4.20921 4.15992
# Velocity P-wave (km/s) = 7.38694 7.56233 7.47515
#
# Compressibility (1/GPa) = 0.01422254
#
# Stress axis : x y z
#
# Youngs Moduli (GPa) = 105.51886 104.41500 95.11808
#
# Poissons Ratio (x) = 0.17169 0.27080
# Poissons Ratio (y) = 0.17350 0.30259
# Poissons Ratio (z) = 0.30041 0.33216
#
# Static dielectric constant tensor:
#      x y z
#    x 4.176760 -0.026030 -0.015530 
#    y -0.026030 3.797560 -0.233920 
#    z -0.015530 -0.233920 3.981950 
# 
# 
# High freq. dielectric constant tensor:
#      x y z
#    x 1.876560 0.001600 0.004110 
#    y 0.001600 1.865250 -0.015940 
#    z 0.004110 -0.015940 1.865130 
# 
# From -- ./inp_files/216705.got.cif
#   From: 2010.06.25/outbox.cif.g09.slc.cpg/sg2_109_cif.got.tgz:216705.got - 2010.06.27 13:26:56.
