data_PCOD8024711
_publ_section_title
;
Structure prediction by ZEFSAII (Michael W. Deem and Ramdas Pophale) SiO2 
 PCOD8024711
Probable space group: P -1
;
_chemical_formula_sum "Si O2"
_cell_formula_units_Z 14
_cell_length_a 23.727031
_cell_length_b 12.187706
_cell_length_c 21.897321
_cell_angle_alpha 28.239097
_cell_angle_beta 162.485813
_cell_angle_gamma 159.490613
_cell_volume 663.163458
_symmetry_space_group_name_H-M "P -1"
_symmetry_group_IT_number 2
_symmetry_cell_setting 'triclinic'
loop_
_space_group_symop_operation_xyz
x,y,z
-x,-y,-z
loop_
_atom_site_type_symbol
_atom_site_label
_atom_site_fract_x
_atom_site_fract_y
_atom_site_fract_z
Si Si1 0.804429 0.127859 0.969904
Si Si2 0.795610 0.830013 0.820637
Si Si3 0.069297 0.180989 0.547423
Si Si4 0.411422 0.145124 0.991076
Si Si5 0.954254 0.832611 0.202214
Si Si6 0.529678 0.879875 0.151253
Si Si7 0.353485 0.856911 0.547919
O O1 0.625338 0.037607 0.771377
O O2 0.000000 0.500000 0.000000
O O3 0.616448 0.927836 0.930535
O O4 0.960044 0.016081 0.175544
O O5 0.595683 0.473438 0.810170
O O6 0.632862 0.930764 0.593780
O O7 0.965497 0.928647 0.887360
O O8 0.000000 0.000000 0.000000
O O9 0.166970 0.076759 0.747763
O O10 0.272304 0.561526 0.570186
O O11 0.000000 0.000000 0.500000
O O12 0.823359 0.093107 0.364831
O O13 0.668808 0.495394 0.067921
O O14 0.402217 0.894650 0.069760
O O15 0.153199 0.780780 0.431756
O O16 0.500000 0.000000 0.000000
#
# Coordination Sequence:
#
# PCOD8024711 Si02
#       7
#     2   2   2   2   2   2   2
#     4  12  27  46  68 103 143 184 245 287 341 418
#     4  10  23  43  70  99 140 185 222 287 357 412
#     4  12  25  42  73 106 138 180 238 285 353 424
#     4  12  25  42  73  99 139 189 231 289 348 412
#     4  10  23  46  68  99 141 178 234 284 347 411
#     4  12  23  45  69 101 142 177 232 289 349 425
#     4  10  25  46  69 100 144 184 229 286 360 402
#
# _framework density 21.110935000000001
#
# number of rings (size 3 to 8) (size 9 to 14) (size 15 to 20)
#    0.857    0.000    4.286    3.000    2.000    2.286 
#    0.000    1.429    0.000    0.000    0.000    0.000 
#    0.000    0.000    0.000    0.000    0.000    0.000 
#
# Total GULP energy -173439.020789 kJ/mol
# GULP energy per Si atom -12388.501485 kJ/mol
# Density = 2.106289 g / cm^3
# Si number density = 21.110935 Si / 1000 Ang^3
#
#
#
# Elastic Constant Matrix: (Units=GPa)
#
#
# Indices 1 2 3 4 5 6 
#
# 1 79.6998 25.4043 13.2321 -9.7469 -0.5681 -11.2653
# 2 25.4043 138.9404 45.3438 0.8986 -14.0985 -12.9715
# 3 13.2321 45.3438 111.2358 -1.4642 -3.2875 -6.8277
# 4 -9.7469 0.8986 -1.4642 34.9112 -2.7718 2.6601
# 5 -0.5681 -14.0985 -3.2875 -2.7718 32.5162 -5.8615
# 6 -11.2653 -12.9715 -6.8277 2.6601 -5.8615 47.1875
#
#
#
# Elastic Compliance Matrix: (Units=1/GPa)
#
#
# Indices 1 2 3 4 5 6 
#
# 1 0.014157 -0.002188 -0.000590 0.003796 0.000010 0.002480
# 2 -0.002188 0.009271 -0.003285 -0.000832 0.003955 0.002089
# 3 -0.000590 -0.003285 0.010420 0.000303 -0.000281 0.000412
# 4 0.003796 -0.000832 0.000303 0.029963 0.002164 -0.000699
# 5 0.000010 0.003955 -0.000281 0.002164 0.033543 0.005094
# 6 0.002480 0.002089 0.000412 -0.000699 0.005094 0.023090
#
#
# Mechanical properties :
#
#
# Convention : Reuss Voigt Hill
#
# Bulk Modulus (GPa) = 46.03343 55.31515 50.67429
# Shear Modulus (GPa) = 35.76246 39.31604 37.53925
#
# Velocity S-wave (km/s) = 4.12032 4.32018 4.22143
# Velocity P-wave (km/s) = 6.67000 7.15153 6.91495
#
# Compressibility (1/GPa) = 0.02172334
#
# Stress axis : x y z
#
# Youngs Moduli (GPa) = 70.63486 107.86099 95.96894
#
# Poissons Ratio (x) = 0.23602 0.05659
# Poissons Ratio (y) = 0.15456 0.31524
# Poissons Ratio (z) = 0.04165 0.35430
#
# Static dielectric constant tensor:
#      x y z
#    x 3.713540 -0.019180 0.119480 
#    y -0.019180 3.685080 -0.097780 
#    z 0.119480 -0.097780 3.813190 
# 
# 
# High freq. dielectric constant tensor:
#      x y z
#    x 1.821400 -0.009750 0.011180 
#    y -0.009750 1.837290 -0.002920 
#    z 0.011180 -0.002920 1.830270 
# 
# From -- ./inp_files/602067.got.cif
#   From: 2010.06.25/outbox.cif.g09.slc.cpg/sg2_302_cif.got.tgz:602067.got - 2010.06.27 13:26:56.
