data_PCOD8024521
_publ_section_title
;
Structure prediction by ZEFSAII (Michael W. Deem and Ramdas Pophale) SiO2 
 PCOD8024521
Probable space group: P -1
;
_chemical_formula_sum "Si O2"
_cell_formula_units_Z 16
_cell_length_a 6.566383
_cell_length_b 16.518343
_cell_length_c 19.220422
_cell_angle_alpha 159.397965
_cell_angle_beta 84.341837
_cell_angle_gamma 96.952081
_cell_volume 727.534877
_symmetry_space_group_name_H-M "P -1"
_symmetry_group_IT_number 2
_symmetry_cell_setting 'triclinic'
loop_
_space_group_symop_operation_xyz
x,y,z
-x,-y,-z
loop_
_atom_site_type_symbol
_atom_site_label
_atom_site_fract_x
_atom_site_fract_y
_atom_site_fract_z
Si Si1 0.945163 0.234033 0.279406
Si Si2 0.183332 0.837141 0.916862
Si Si3 0.713569 0.085553 0.300751
Si Si4 0.439483 0.776109 0.985352
Si Si5 0.092070 0.460205 0.811284
Si Si6 0.400945 0.239312 0.709172
Si Si7 0.741674 0.653824 0.049476
Si Si8 0.175141 0.493658 0.270416
O O1 0.772154 0.201689 0.197826
O O2 0.883538 0.120345 0.263278
O O3 0.000000 0.500000 0.500000
O O4 0.140765 0.104394 0.143478
O O5 0.382412 0.789328 0.916514
O O6 0.982756 0.670874 0.811827
O O7 0.708340 0.311567 0.529084
O O8 0.761304 0.867941 0.169459
O O9 0.495071 0.027202 0.221455
O O10 0.248164 0.669882 0.949981
O O11 0.644883 0.642666 0.878221
O O12 0.224626 0.254862 0.668576
O O13 0.942656 0.384632 0.690750
O O14 0.959227 0.541128 0.946253
O O15 0.294794 0.243177 0.790809
O O16 0.500000 0.000000 0.500000
O O17 0.563522 0.461365 0.876941
#
# Coordination Sequence:
#
# PCOD8024521 Si02
#       8
#     2   2   2   2   2   2   2   2
#     4  11  22  43  69 100 137 178 234 282 345 408
#     4  10  23  43  68  94 137 184 222 290 344 400
#     4  12  23  43  70  97 138 181 228 287 338 409
#     4  11  23  45  68 101 138 179 238 284 336 408
#     4  11  22  47  72  99 142 184 228 281 347 410
#     4  11  26  48  71 106 141 175 229 288 345 409
#     4  11  25  47  71 102 138 181 231 284 342 415
#     4  11  23  43  68 101 135 183 231 282 342 405
#
# _framework density 21.992070999999999
#
# number of rings (size 3 to 8) (size 9 to 14) (size 15 to 20)
#    0.000    1.000    5.000    1.125    3.500    2.000 
#    9.000    1.250    0.000    0.000    0.000    0.000 
#    0.000    0.000    0.000    0.000    0.000    0.000 
#
# Total GULP energy -198326.571073 kJ/mol
# GULP energy per Si atom -12395.410692 kJ/mol
# Density = 2.194202 g / cm^3
# Si number density = 21.992071 Si / 1000 Ang^3
#
#
#
# Elastic Constant Matrix: (Units=GPa)
#
#
# Indices 1 2 3 4 5 6 
#
# 1 99.9603 38.4950 41.5006 -0.5241 4.9641 -19.9954
# 2 38.4950 128.9967 52.6489 1.3795 -0.7760 -14.4933
# 3 41.5006 52.6489 138.2929 -6.2550 11.6482 -10.9410
# 4 -0.5241 1.3795 -6.2550 33.7039 -4.9279 -0.7951
# 5 4.9641 -0.7760 11.6482 -4.9279 31.2300 -0.6168
# 6 -19.9954 -14.4933 -10.9410 -0.7951 -0.6168 39.8556
#
#
#
# Elastic Compliance Matrix: (Units=1/GPa)
#
#
# Indices 1 2 3 4 5 6 
#
# 1 0.012989 -0.002280 -0.002554 -0.000223 -0.001106 0.004965
# 2 -0.002280 0.009912 -0.003138 -0.000738 0.001695 0.001611
# 3 -0.002554 -0.003138 0.009523 0.001422 -0.002996 0.000174
# 4 -0.000223 -0.000738 0.001422 0.030610 0.004330 0.000688
# 5 -0.001106 0.001695 -0.002996 0.004330 0.034036 -0.000148
# 6 0.004965 0.001611 0.000174 0.000688 -0.000148 0.028226
#
#
# Mechanical properties :
#
#
# Convention : Reuss Voigt Hill
#
# Bulk Modulus (GPa) = 60.68153 70.28210 65.48182
# Shear Modulus (GPa) = 34.07502 36.59825 35.33664
#
# Velocity S-wave (km/s) = 3.94054 4.08383 4.01283
# Velocity P-wave (km/s) = 6.95386 7.36643 7.16311
#
# Compressibility (1/GPa) = 0.01647948
#
# Stress axis : x y z
#
# Youngs Moduli (GPa) = 76.98612 100.88304 105.01369
#
# Poissons Ratio (x) = 0.23004 0.26821
# Poissons Ratio (y) = 0.17555 0.32954
# Poissons Ratio (z) = 0.19663 0.31658
#
# Static dielectric constant tensor:
#      x y z
#    x 4.096770 -0.064530 0.296960 
#    y -0.064530 4.448810 -0.054630 
#    z 0.296960 -0.054630 4.108090 
# 
# 
# High freq. dielectric constant tensor:
#      x y z
#    x 1.853440 -0.005510 0.010550 
#    y -0.005510 1.889860 -0.004000 
#    z 0.010550 -0.004000 1.857740 
# 
# From -- ./inp_files/107789.got.cif
#   From: 2010.06.25/outbox.cif.g09.slc.cpg/sg2_54_cif.got.tgz:107789.got - 2010.06.27 13:26:56.
