data_PCOD8024159
_publ_section_title
;
Structure prediction by ZEFSAII (Michael W. Deem and Ramdas Pophale) SiO2 
 PCOD8024159
Probable space group: P -1
;
_chemical_formula_sum "Si O2"
_cell_formula_units_Z 14
_cell_length_a 11.441949
_cell_length_b 9.653469
_cell_length_c 9.514675
_cell_angle_alpha 135.299339
_cell_angle_beta 61.459041
_cell_angle_gamma 100.723562
_cell_volume 629.032910
_symmetry_space_group_name_H-M "P -1"
_symmetry_group_IT_number 2
_symmetry_cell_setting 'triclinic'
loop_
_space_group_symop_operation_xyz
x,y,z
-x,-y,-z
loop_
_atom_site_type_symbol
_atom_site_label
_atom_site_fract_x
_atom_site_fract_y
_atom_site_fract_z
Si Si1 0.467694 0.795764 0.810309
Si Si2 0.253107 0.895179 0.610679
Si Si3 0.922385 0.580250 0.299908
Si Si4 0.521897 0.607240 0.349327
Si Si5 0.826417 0.198445 0.112726
Si Si6 0.204590 0.337196 0.862003
Si Si7 0.009420 0.924041 0.598519
O O1 0.535044 0.738360 0.576863
O O2 0.521378 0.602137 0.742310
O O3 0.305055 0.826385 0.914582
O O4 0.500000 0.000000 0.000000
O O5 0.401895 0.738608 0.415285
O O6 0.169148 0.899558 0.807739
O O7 0.167300 0.828990 0.484617
O O8 0.270610 0.120385 0.737472
O O9 0.828636 0.434410 0.300652
O O10 0.865950 0.688279 0.264438
O O11 0.917672 0.759010 0.545324
O O12 0.085350 0.473914 0.123800
O O13 0.668813 0.556897 0.151288
O O14 0.956799 0.102588 0.871021
O O15 0.000000 0.000000 0.500000
#
# Coordination Sequence:
#
# PCOD8024159 Si02
#       7
#     2   2   2   2   2   2   2
#     4  10  23  42  71  98 131 179 229 269 339 406
#     4  11  24  44  67 101 141 178 221 281 347 385
#     4  11  23  41  71  96 130 183 229 268 333 400
#     4  10  23  43  67  97 140 178 217 282 338 401
#     4  11  24  45  68  98 139 172 224 288 329 398
#     4  11  21  44  68  96 140 179 219 278 341 396
#     4  12  24  41  70  98 131 179 231 272 331 405
#
# _framework density 22.256387
#
# number of rings (size 3 to 8) (size 9 to 14) (size 15 to 20)
#    0.000    1.143    4.286    1.714    2.000    0.571 
#    5.143    0.714    0.000    0.000    0.000    0.000 
#    0.000    0.000    0.000    0.000    0.000    0.000 
#
# Total GULP energy -173574.246279 kJ/mol
# GULP energy per Si atom -12398.160449 kJ/mol
# Density = 2.220573 g / cm^3
# Si number density = 22.256387 Si / 1000 Ang^3
#
#
#
# Elastic Constant Matrix: (Units=GPa)
#
#
# Indices 1 2 3 4 5 6 
#
# 1 128.8150 55.4592 30.4400 8.4859 -4.6874 -3.2423
# 2 55.4592 133.2332 32.0776 18.3186 4.3581 -1.5958
# 3 30.4400 32.0776 53.8845 9.5433 2.5124 6.8125
# 4 8.4859 18.3186 9.5433 33.8849 10.9449 -1.2414
# 5 -4.6874 4.3581 2.5124 10.9449 39.4201 11.1603
# 6 -3.2423 -1.5958 6.8125 -1.2414 11.1603 46.0670
#
#
#
# Elastic Compliance Matrix: (Units=1/GPa)
#
#
# Indices 1 2 3 4 5 6 
#
# 1 0.010217 -0.003328 -0.003939 -0.000157 0.001656 0.000781
# 2 -0.003328 0.010285 -0.003688 -0.003492 -0.000527 0.000701
# 3 -0.003939 -0.003688 0.024240 -0.004260 0.000794 -0.004297
# 4 -0.000157 -0.003492 -0.004260 0.036194 -0.010551 0.004030
# 5 0.001656 -0.000527 0.000794 -0.010551 0.030693 -0.007739
# 6 0.000781 0.000701 -0.004297 0.004030 -0.007739 0.024406
#
#
# Mechanical properties :
#
#
# Convention : Reuss Voigt Hill
#
# Bulk Modulus (GPa) = 43.79892 61.32070 52.55981
# Shear Modulus (GPa) = 30.20171 37.07146 33.63659
#
# Velocity S-wave (km/s) = 3.68773 4.08567 3.89179
# Velocity P-wave (km/s) = 6.15260 7.06178 6.62281
#
# Compressibility (1/GPa) = 0.02283161
#
# Stress axis : x y z
#
# Youngs Moduli (GPa) = 97.87802 97.23304 41.25488
#
# Poissons Ratio (x) = 0.32357 0.16249
# Poissons Ratio (y) = 0.32572 0.15215
# Poissons Ratio (z) = 0.38552 0.35861
#
# Static dielectric constant tensor:
#      x y z
#    x 4.013020 -0.017720 -0.100260 
#    y -0.017720 4.072010 0.153860 
#    z -0.100260 0.153860 3.824820 
# 
# 
# High freq. dielectric constant tensor:
#      x y z
#    x 1.884080 0.003440 -0.014470 
#    y 0.003440 1.885700 0.010900 
#    z -0.014470 0.010900 1.851070 
# 
# From -- ./inp_files/245767.got.cif
#   From: 2010.06.25/outbox.cif.g09.slc.cpg/sg2_123_cif.got.tgz:245767.got - 2010.06.27 13:26:56.
