data_PCOD8024408
_publ_section_title
;
Structure prediction by ZEFSAII (Michael W. Deem and Ramdas Pophale) SiO2 
 PCOD8024408
Probable space group: P -1
;
_chemical_formula_sum "Si O2"
_cell_formula_units_Z 14
_cell_length_a 8.218818
_cell_length_b 13.414809
_cell_length_c 14.915007
_cell_angle_alpha 18.948499
_cell_angle_beta 103.590893
_cell_angle_gamma 104.755760
_cell_volume 516.276721
_symmetry_space_group_name_H-M "P -1"
_symmetry_group_IT_number 2
_symmetry_cell_setting 'triclinic'
loop_
_space_group_symop_operation_xyz
x,y,z
-x,-y,-z
loop_
_atom_site_type_symbol
_atom_site_label
_atom_site_fract_x
_atom_site_fract_y
_atom_site_fract_z
Si Si1 0.726573 0.710635 0.904621
Si Si2 0.602645 0.148612 0.016332
Si Si3 0.861838 0.520999 0.263313
Si Si4 0.969041 0.138916 0.284923
Si Si5 0.623371 0.259479 0.115563
Si Si6 0.241190 0.828823 0.276584
Si Si7 0.787875 0.573949 0.548631
O O1 0.565761 0.894588 0.753083
O O2 0.894264 0.945697 0.701958
O O3 0.772055 0.483609 0.184674
O O4 0.674756 0.534101 0.956501
O O5 0.426186 0.940838 0.168658
O O6 0.749513 0.921048 0.229782
O O7 0.612310 0.370084 0.917113
O O8 0.626199 0.373193 0.742805
O O9 0.756603 0.312619 0.502086
O O10 0.053552 0.432781 0.357636
O O11 0.868837 0.883103 0.981311
O O12 0.773107 0.031268 0.326443
O O13 0.000000 0.000000 0.500000
O O14 0.000000 0.500000 0.000000
O O15 0.161338 0.571170 0.416103
#
# Coordination Sequence:
#
# PCOD8024408 Si02
#       7
#     2   2   2   2   2   2   2
#     4  10  23  46  71 104 143 192 233 291 355 420
#     4  12  25  45  70 106 140 185 241 290 360 436
#     4  12  25  46  73 106 143 185 244 290 358 439
#     4  10  23  43  66  98 134 181 235 283 337 412
#     4  10  23  45  71 102 145 187 235 287 354 422
#     4  12  25  47  71 105 142 184 238 301 358 434
#     4  12  26  46  74 102 141 188 234 304 369 415
#
# _framework density 27.117239999999999
#
# number of rings (size 3 to 8) (size 9 to 14) (size 15 to 20)
#    0.000    0.857    1.429    5.143    0.000    7.429 
#    2.571    0.000    0.000    0.000    0.000    0.000 
#    0.000    0.000    0.000    0.000    0.000    0.000 
#
# Total GULP energy -173483.206359 kJ/mol
# GULP energy per Si atom -12391.657597 kJ/mol
# Density = 2.705552 g / cm^3
# Si number density = 27.117240 Si / 1000 Ang^3
#
#
#
# Elastic Constant Matrix: (Units=GPa)
#
#
# Indices 1 2 3 4 5 6 
#
# 1 201.0430 16.6592 32.6188 25.6561 -2.3185 -21.7347
# 2 16.6592 84.4252 -0.6801 16.3585 -14.7418 -4.1586
# 3 32.6188 -0.6801 104.1058 21.8969 -24.6155 -0.8634
# 4 25.6561 16.3585 21.8969 39.5719 -8.6547 -2.2064
# 5 -2.3185 -14.7418 -24.6155 -8.6547 41.7365 12.3318
# 6 -21.7347 -4.1586 -0.8634 -2.2064 12.3318 34.1969
#
#
#
# Elastic Compliance Matrix: (Units=1/GPa)
#
#
# Indices 1 2 3 4 5 6 
#
# 1 0.006248 -0.001016 -0.002080 -0.002926 -0.003258 0.004781
# 2 -0.001016 0.014124 0.002980 -0.005608 0.005927 -0.001352
# 3 -0.002080 0.002980 0.013562 -0.005653 0.009014 -0.004232
# 4 -0.002926 -0.005608 -0.005653 0.032919 0.001695 -0.001172
# 5 -0.003258 0.005927 0.009014 0.001695 0.035636 -0.013864
# 6 0.004781 -0.001352 -0.004232 -0.001172 -0.013864 0.036934
#
#
# Mechanical properties :
#
#
# Convention : Reuss Voigt Hill
#
# Bulk Modulus (GPa) = 29.66995 54.08553 41.87774
# Shear Modulus (GPa) = 33.13684 45.83280 39.48482
#
# Velocity S-wave (km/s) = 3.49948 4.11563 3.82000
# Velocity P-wave (km/s) = 5.22433 6.52479 5.91044
#
# Compressibility (1/GPa) = 0.03370413
#
# Stress axis : x y z
#
# Youngs Moduli (GPa) = 160.04022 70.79994 73.73626
#
# Poissons Ratio (x) = 0.07194 0.15334
# Poissons Ratio (y) = 0.16261 -0.21976
# Poissons Ratio (z) = 0.33281 -0.21101
#
# Static dielectric constant tensor:
#      x y z
#    x 6.025690 -0.044520 -0.027100 
#    y -0.044520 4.877820 0.198140 
#    z -0.027100 0.198140 4.633370 
# 
# 
# High freq. dielectric constant tensor:
#      x y z
#    x 2.116500 -0.010730 0.000120 
#    y -0.010730 2.108540 0.010660 
#    z 0.000120 0.010660 2.067420 
# 
# From -- ./inp_files/391793.got.cif
#   From: 2010.06.25/outbox.cif.g09.slc.cpg/sg2_196_cif.got.tgz:391793.got - 2010.06.27 13:26:56.
