data_PCOD8024199
_publ_section_title
;
Structure prediction by ZEFSAII (Michael W. Deem and Ramdas Pophale) SiO2 
 PCOD8024199
Probable space group: P -1
;
_chemical_formula_sum "Si O2"
_cell_formula_units_Z 14
_cell_length_a 9.667798
_cell_length_b 11.961673
_cell_length_c 8.756920
_cell_angle_alpha 106.644532
_cell_angle_beta 69.097036
_cell_angle_gamma 54.860564
_cell_volume 591.995939
_symmetry_space_group_name_H-M "P -1"
_symmetry_group_IT_number 2
_symmetry_cell_setting 'triclinic'
loop_
_space_group_symop_operation_xyz
x,y,z
-x,-y,-z
loop_
_atom_site_type_symbol
_atom_site_label
_atom_site_fract_x
_atom_site_fract_y
_atom_site_fract_z
Si Si1 0.656709 0.882245 0.540109
Si Si2 0.536785 0.574510 0.141802
Si Si3 0.888128 0.947580 0.979054
Si Si4 0.296054 0.603931 0.505497
Si Si5 0.385733 0.287021 0.275890
Si Si6 0.636549 0.763975 0.058557
Si Si7 0.043118 0.277581 0.898017
O O1 0.665284 0.748276 0.558457
O O2 0.905380 0.756317 0.318929
O O3 0.500000 0.000000 0.500000
O O4 0.571478 0.019954 0.759783
O O5 0.337277 0.672387 0.380595
O O6 0.523171 0.709720 0.128056
O O7 0.500000 0.500000 0.000000
O O8 0.775349 0.421914 0.079011
O O9 0.048595 0.777196 0.738166
O O10 0.834593 0.902888 0.133562
O O11 0.651571 0.122284 0.063559
O O12 0.000000 0.000000 0.000000
O O13 0.500000 0.500000 0.500000
O O14 0.296206 0.471604 0.394407
O O15 0.270084 0.296204 0.176145
O O16 0.852320 0.667047 0.043398
#
# Coordination Sequence:
#
# PCOD8024199 Si02
#       7
#     2   2   2   2   2   2   2
#     4  10  23  42  73 102 139 189 239 294 360 423
#     4  12  26  49  68 107 149 182 246 303 357 428
#     4  12  25  42  76 105 143 189 244 290 366 429
#     4  12  26  44  74 104 144 198 239 296 364 429
#     4  12  24  49  70 109 149 184 247 302 357 436
#     4  11  25  45  74 102 150 187 237 307 358 431
#     4  11  25  46  71 105 138 198 241 292 369 423
#
# _framework density 23.648810999999998
#
# number of rings (size 3 to 8) (size 9 to 14) (size 15 to 20)
#    0.000    0.571    7.143    0.857    6.000    2.286 
#    0.000    2.857    0.000    0.000    0.000    0.000 
#    0.000    0.000    0.000    0.000    0.000    0.000 
#
# Total GULP energy -173557.480252 kJ/mol
# GULP energy per Si atom -12396.962875 kJ/mol
# Density = 2.359499 g / cm^3
# Si number density = 23.648811 Si / 1000 Ang^3
#
#
#
# Elastic Constant Matrix: (Units=GPa)
#
#
# Indices 1 2 3 4 5 6 
#
# 1 115.5128 33.4829 44.2617 -1.3869 10.4365 19.1630
# 2 33.4829 94.6969 39.3008 -12.3299 -3.6392 24.7160
# 3 44.2617 39.3008 138.1888 -4.5530 5.0416 9.6647
# 4 -1.3869 -12.3299 -4.5530 51.2439 2.4989 -7.6184
# 5 10.4365 -3.6392 5.0416 2.4989 36.3075 -1.1295
# 6 19.1630 24.7160 9.6647 -7.6184 -1.1295 41.9363
#
#
#
# Elastic Compliance Matrix: (Units=1/GPa)
#
#
# Indices 1 2 3 4 5 6 
#
# 1 0.011132 -0.002179 -0.002620 -0.000814 -0.003105 -0.003431
# 2 -0.002179 0.014638 -0.003020 0.002124 0.002165 -0.006491
# 3 -0.002620 -0.003020 0.008903 0.000170 -0.000769 0.000935
# 4 -0.000814 0.002124 0.000170 0.020475 -0.000899 0.002777
# 5 -0.003105 0.002165 -0.000769 -0.000899 0.028850 0.000934
# 6 -0.003431 -0.006491 0.000935 0.002777 0.000934 0.029553
#
#
# Mechanical properties :
#
#
# Convention : Reuss Voigt Hill
#
# Bulk Modulus (GPa) = 52.53333 64.72104 58.62718
# Shear Modulus (GPa) = 36.89131 41.32107 39.10619
#
# Velocity S-wave (km/s) = 3.95392 4.18458 4.07089
# Velocity P-wave (km/s) = 6.56558 7.12563 6.85133
#
# Compressibility (1/GPa) = 0.01903553
#
# Stress axis : x y z
#
# Youngs Moduli (GPa) = 89.82859 68.31631 112.32607
#
# Poissons Ratio (x) = 0.14886 0.29425
# Poissons Ratio (y) = 0.19573 0.33923
# Poissons Ratio (z) = 0.23531 0.20632
#
# Static dielectric constant tensor:
#      x y z
#    x 4.213580 -0.048840 -0.147690 
#    y -0.048840 4.570620 0.159990 
#    z -0.147690 0.159990 4.899450 
# 
# 
# High freq. dielectric constant tensor:
#      x y z
#    x 1.930790 0.011980 -0.003430 
#    y 0.011980 1.940970 -0.010850 
#    z -0.003430 -0.010850 1.946990 
# 
# From -- ./inp_files/189108.got.cif
#   From: 2010.06.25/outbox.cif.g09.slc.cpg/sg2_95_cif.got.tgz:189108.got - 2010.06.27 13:26:56.
