data_PCOD8024537
_publ_section_title
;
Structure prediction by ZEFSAII (Michael W. Deem and Ramdas Pophale) SiO2 
 PCOD8024537
Probable space group: P -1
;
_chemical_formula_sum "Si O2"
_cell_formula_units_Z 14
_cell_length_a 9.088616
_cell_length_b 19.479805
_cell_length_c 8.817497
_cell_angle_alpha 128.126875
_cell_angle_beta 32.015126
_cell_angle_gamma 129.892974
_cell_volume 624.491531
_symmetry_space_group_name_H-M "P -1"
_symmetry_group_IT_number 2
_symmetry_cell_setting 'triclinic'
loop_
_space_group_symop_operation_xyz
x,y,z
-x,-y,-z
loop_
_atom_site_type_symbol
_atom_site_label
_atom_site_fract_x
_atom_site_fract_y
_atom_site_fract_z
Si Si1 0.767608 0.600628 0.776623
Si Si2 0.637804 0.395390 0.605522
Si Si3 0.423287 0.126645 0.766438
Si Si4 0.399010 0.231745 0.376610
Si Si5 0.930606 0.761357 0.634504
Si Si6 0.164282 0.883683 0.161862
Si Si7 0.478645 0.977571 0.737131
O O1 0.633723 0.496543 0.698405
O O2 0.857597 0.660637 0.629900
O O3 0.039086 0.610032 0.661942
O O4 0.534612 0.633166 0.124677
O O5 0.500342 0.329590 0.499126
O O6 0.414879 0.093145 0.555404
O O7 0.729312 0.198708 0.638402
O O8 0.352246 0.042147 0.829107
O O9 0.166460 0.173348 0.072000
O O10 0.243532 0.243597 0.374235
O O11 0.177274 0.161614 0.585211
O O12 0.665204 0.191160 0.055640
O O13 0.253784 0.965055 0.317197
O O14 0.220905 0.922457 0.995721
#
# Coordination Sequence:
#
# PCOD8024537 Si02
#       7
#     2   2   2   2   2   2   2
#     4  10  23  43  68  97 127 163 209 258 314 386
#     4  10  23  43  68  97 127 163 209 258 314 386
#     4  11  25  41  64  92 128 169 215 266 311 373
#     4  12  24  42  64  97 131 165 211 262 318 377
#     4  12  24  42  64  97 131 165 211 262 318 377
#     4  11  25  41  64  92 128 169 215 266 311 373
#     4  10  24  44  62  90 128 172 218 264 316 364
#
# _framework density 22.418239
#
# number of rings (size 3 to 8) (size 9 to 14) (size 15 to 20)
#    0.000    1.143    2.857    1.714    6.000    7.429 
#    0.000    0.000    0.000    8.571    0.000    0.000 
#    0.000    0.000    0.000    0.000    0.000    0.000 
#
# Total GULP energy -173711.938903 kJ/mol
# GULP energy per Si atom -12407.995636 kJ/mol
# Density = 2.236721 g / cm^3
# Si number density = 22.418239 Si / 1000 Ang^3
#
#
#
# Elastic Constant Matrix: (Units=GPa)
#
#
# Indices 1 2 3 4 5 6 
#
# 1 68.9606 38.0390 11.0002 0.5581 30.3758 2.5168
# 2 38.0390 104.5473 19.5808 4.9635 22.5636 1.5422
# 3 11.0002 19.5808 68.9032 -5.1816 8.4085 10.5496
# 4 0.5581 4.9635 -5.1816 18.9768 4.2423 13.5667
# 5 30.3758 22.5636 8.4085 4.2423 35.8905 -0.1268
# 6 2.5168 1.5422 10.5496 13.5667 -0.1268 39.2932
#
#
#
# Elastic Compliance Matrix: (Units=1/GPa)
#
#
# Indices 1 2 3 4 5 6 
#
# 1 0.026560 -0.005934 0.001399 0.009338 -0.020198 -0.005133
# 2 -0.005934 0.012943 -0.003386 -0.005742 -0.001633 0.002758
# 3 0.001399 -0.003386 0.018409 0.013961 -0.005053 -0.009736
# 4 0.009338 -0.005742 0.013961 0.085918 -0.017839 -0.033843
# 5 -0.020198 -0.001633 -0.005053 -0.017839 0.049308 0.009033
# 6 -0.005133 0.002758 -0.009736 -0.033843 0.009033 0.039998
#
#
# Mechanical properties :
#
#
# Convention : Reuss Voigt Hill
#
# Bulk Modulus (GPa) = 23.76986 42.18346 32.97666
# Shear Modulus (GPa) = 19.01149 30.41818 24.71483
#
# Velocity S-wave (km/s) = 2.91527 3.68754 3.32391
# Velocity P-wave (km/s) = 4.68590 6.08178 5.42889
#
# Compressibility (1/GPa) = 0.04207008
#
# Stress axis : x y z
#
# Youngs Moduli (GPa) = 37.65125 77.26469 54.32133
#
# Poissons Ratio (x) = 0.45850 -0.07600
# Poissons Ratio (y) = 0.22343 0.18391
# Poissons Ratio (z) = -0.05268 0.26158
#
# Static dielectric constant tensor:
#      x y z
#    x 3.794550 -0.006710 0.110410 
#    y -0.006710 4.196500 -0.031050 
#    z 0.110410 -0.031050 4.177110 
# 
# 
# High freq. dielectric constant tensor:
#      x y z
#    x 1.877480 -0.000500 0.003410 
#    y -0.000500 1.886940 -0.004250 
#    z 0.003410 -0.004250 1.893960 
# 
# From -- ./inp_files/89769.got.cif
#   From: 2010.06.25/outbox.cif.g09.slc.cpg/sg2_45_cif.got.tgz:89769.got - 2010.06.27 13:26:56.
