data_PCOD8024046
_publ_section_title
;
Structure prediction by ZEFSAII (Michael W. Deem and Ramdas Pophale) SiO2 
 PCOD8024046
Probable space group: P -1
;
_chemical_formula_sum "Si O2"
_cell_formula_units_Z 12
_cell_length_a 9.248741
_cell_length_b 6.375960
_cell_length_c 14.450922
_cell_angle_alpha 82.062307
_cell_angle_beta 48.305175
_cell_angle_gamma 61.805492
_cell_volume 540.343585
_symmetry_space_group_name_H-M "P -1"
_symmetry_group_IT_number 2
_symmetry_cell_setting 'triclinic'
loop_
_space_group_symop_operation_xyz
x,y,z
-x,-y,-z
loop_
_atom_site_type_symbol
_atom_site_label
_atom_site_fract_x
_atom_site_fract_y
_atom_site_fract_z
Si Si1 0.231375 0.697989 0.996874
Si Si2 0.614550 0.753777 0.908859
Si Si3 0.690144 0.621858 0.571411
Si Si4 0.955153 0.261354 0.317703
Si Si5 0.002130 0.164781 0.571301
Si Si6 0.190816 0.794677 0.804657
O O1 0.431537 0.756721 0.918134
O O2 0.214798 0.648107 0.898334
O O3 0.285876 0.462468 0.046122
O O4 0.995896 0.920194 0.120540
O O5 0.817720 0.732171 0.761568
O O6 0.500000 0.000000 0.000000
O O7 0.767048 0.455262 0.455792
O O8 0.788748 0.442141 0.630889
O O9 0.422017 0.781080 0.679386
O O10 0.772921 0.818454 0.523522
O O11 0.875076 0.331744 0.241295
O O12 0.008163 0.977811 0.324624
O O13 0.000000 0.000000 0.500000
#
# Coordination Sequence:
#
# PCOD8024046 Si02
#       6
#     2   2   2   2   2   2
#     4  10  26  46  66  98 134 178 225 273 332 395
#     4  11  24  46  72  94 129 183 229 271 321 406
#     4  10  23  42  69  96 137 177 215 281 333 390
#     4  11  24  42  68 103 130 175 228 269 337 394
#     4   9  22  42  64 100 129 177 227 263 325 405
#     4  11  24  45  65 101 141 170 218 281 342 389
#
# _framework density 22.208093999999999
#
# number of rings (size 3 to 8) (size 9 to 14) (size 15 to 20)
#    0.000    1.667    1.667    0.500   11.667    1.333 
#    6.000    0.000    0.000    0.000    0.000    0.000 
#    0.000    0.000    0.000    0.000    0.000    0.000 
#
# Total GULP energy -148799.756955 kJ/mol
# GULP energy per Si atom -12399.979746 kJ/mol
# Density = 2.215755 g / cm^3
# Si number density = 22.208094 Si / 1000 Ang^3
#
#
#
# Elastic Constant Matrix: (Units=GPa)
#
#
# Indices 1 2 3 4 5 6 
#
# 1 117.2755 46.4532 63.8331 -1.4214 -9.4323 -5.6383
# 2 46.4532 102.7967 45.9224 -8.9088 -12.2031 2.1347
# 3 63.8331 45.9224 133.4335 8.8895 -20.8779 -7.3451
# 4 -1.4214 -8.9088 8.8895 28.8511 -0.0414 -6.6686
# 5 -9.4323 -12.2031 -20.8779 -0.0414 52.8112 -2.7452
# 6 -5.6383 2.1347 -7.3451 -6.6686 -2.7452 31.9074
#
#
#
# Elastic Compliance Matrix: (Units=1/GPa)
#
#
# Indices 1 2 3 4 5 6 
#
# 1 0.012644 -0.003470 -0.004926 0.001438 -0.000407 0.001598
# 2 -0.003470 0.013234 -0.003082 0.004602 0.001164 -0.001146
# 3 -0.004926 -0.003082 0.011777 -0.004501 0.003132 0.001376
# 4 0.001438 0.004602 -0.004501 0.039179 -0.000060 0.007093
# 5 -0.000407 0.001164 0.003132 -0.000060 0.020490 0.002322
# 6 0.001598 -0.001146 0.001376 0.007093 0.002322 0.033699
#
#
# Mechanical properties :
#
#
# Convention : Reuss Voigt Hill
#
# Bulk Modulus (GPa) = 68.03277 73.99146 71.01212
# Shear Modulus (GPa) = 31.47049 35.86708 33.66879
#
# Velocity S-wave (km/s) = 3.76849 4.02312 3.89788
# Velocity P-wave (km/s) = 7.04529 7.41420 7.23210
#
# Compressibility (1/GPa) = 0.01469880
#
# Stress axis : x y z
#
# Youngs Moduli (GPa) = 79.08732 75.56506 84.90941
#
# Poissons Ratio (x) = 0.26222 0.41827
# Poissons Ratio (y) = 0.27444 0.26169
# Poissons Ratio (z) = 0.38959 0.23289
#
# Static dielectric constant tensor:
#      x y z
#    x 4.283700 -0.200050 -0.041650 
#    y -0.200050 4.477060 -0.517940 
#    z -0.041650 -0.517940 4.462790 
# 
# 
# High freq. dielectric constant tensor:
#      x y z
#    x 1.886620 -0.003020 0.001780 
#    y -0.003020 1.865560 -0.001520 
#    z 0.001780 -0.001520 1.878570 
# 
# From -- ./inp_files/20305.got.cif
#   From: 2010.06.25/outbox.cif.g09.slc.cpg/sg2_11_cif.got.tgz:20305.got - 2010.06.27 13:26:56.
