data_PCOD8024245
_publ_section_title
;
Structure prediction by ZEFSAII (Michael W. Deem and Ramdas Pophale) SiO2 
 PCOD8024245
Probable space group: P -1
;
_chemical_formula_sum "Si O2"
_cell_formula_units_Z 16
_cell_length_a 16.168812
_cell_length_b 15.739979
_cell_length_c 13.672388
_cell_angle_alpha 120.733508
_cell_angle_beta 143.202569
_cell_angle_gamma 28.210826
_cell_volume 715.713162
_symmetry_space_group_name_H-M "P -1"
_symmetry_group_IT_number 2
_symmetry_cell_setting 'triclinic'
loop_
_space_group_symop_operation_xyz
x,y,z
-x,-y,-z
loop_
_atom_site_type_symbol
_atom_site_label
_atom_site_fract_x
_atom_site_fract_y
_atom_site_fract_z
Si Si1 0.270875 0.665477 0.786685
Si Si2 0.305539 0.209260 0.301384
Si Si3 0.839315 0.571269 0.235652
Si Si4 0.577878 0.472244 0.364242
Si Si5 0.951823 0.678657 0.542056
Si Si6 0.704995 0.955160 0.113844
Si Si7 0.640819 0.192643 0.546969
Si Si8 0.820617 0.426422 0.830325
O O1 0.475489 0.535748 0.800887
O O2 0.039562 0.719622 0.590803
O O3 0.500000 0.500000 0.000000
O O4 0.043835 0.911980 0.737949
O O5 0.472697 0.202938 0.429430
O O6 0.172043 0.306822 0.342344
O O7 0.575135 0.941869 0.389709
O O8 0.967320 0.410758 0.034216
O O9 0.946158 0.601396 0.407437
O O10 0.767781 0.536759 0.234016
O O11 0.539670 0.792357 0.002653
O O12 0.420703 0.685327 0.354900
O O13 0.347911 0.556681 0.266840
O O14 0.987478 0.203537 0.620304
O O15 0.861929 0.812202 0.078104
O O16 0.500000 0.000000 0.000000
O O17 0.480484 0.327473 0.371785
#
# Coordination Sequence:
#
# PCOD8024245 Si02
#       8
#     2   2   2   2   2   2   2   2
#     4  11  26  44  67  94 132 178 231 274 331 406
#     4  11  22  40  67 100 133 174 228 274 334 396
#     4  11  22  39  68  97 129 179 214 284 333 380
#     4  11  26  46  67  99 142 174 221 283 341 399
#     4  10  23  43  62  96 136 171 234 273 320 407
#     4  11  22  41  73 101 133 179 223 270 337 403
#     4  10  23  44  68  94 135 177 223 275 340 405
#     4  11  24  43  67 104 141 170 222 285 335 400
#
# _framework density 22.355322999999999
#
# number of rings (size 3 to 8) (size 9 to 14) (size 15 to 20)
#    0.000    1.250    1.250    5.250    5.250    3.000 
#    0.000    0.000    0.000    0.000    0.000    0.000 
#    0.000    0.000    0.000    0.000    0.000    0.000 
#
# Total GULP energy -198311.150472 kJ/mol
# GULP energy per Si atom -12394.446905 kJ/mol
# Density = 2.230444 g / cm^3
# Si number density = 22.355323 Si / 1000 Ang^3
#
#
#
# Elastic Constant Matrix: (Units=GPa)
#
#
# Indices 1 2 3 4 5 6 
#
# 1 115.9769 36.4854 44.5138 1.2906 1.4164 -11.4033
# 2 36.4854 124.1887 68.2086 3.8271 -10.7442 -17.5350
# 3 44.5138 68.2086 89.5554 2.0845 -9.3614 -6.8334
# 4 1.2906 3.8271 2.0845 29.9176 2.3266 -4.2535
# 5 1.4164 -10.7442 -9.3614 2.3266 39.4038 0.6873
# 6 -11.4033 -17.5350 -6.8334 -4.2535 0.6873 36.1647
#
#
#
# Elastic Compliance Matrix: (Units=1/GPa)
#
#
# Indices 1 2 3 4 5 6 
#
# 1 0.010982 -0.000069 -0.005411 0.000403 -0.001766 0.002488
# 2 -0.000069 0.014795 -0.010686 -0.000540 0.001442 0.005042
# 3 -0.005411 -0.010686 0.022063 -0.000542 0.002604 -0.002832
# 4 0.000403 -0.000540 -0.000542 0.034245 -0.002379 0.003836
# 5 -0.001766 0.001442 0.002604 -0.002379 0.026597 -0.000151
# 6 0.002488 0.005042 -0.002832 0.003836 -0.000151 0.030799
#
#
# Mechanical properties :
#
#
# Convention : Reuss Voigt Hill
#
# Bulk Modulus (GPa) = 64.47617 69.79295 67.13456
# Shear Modulus (GPa) = 28.25135 33.13145 30.69140
#
# Velocity S-wave (km/s) = 3.55877 3.85390 3.70927
# Velocity P-wave (km/s) = 6.76688 7.14780 6.95994
#
# Compressibility (1/GPa) = 0.01550961
#
# Stress axis : x y z
#
# Youngs Moduli (GPa) = 91.05427 67.59079 45.32402
#
# Poissons Ratio (x) = 0.00464 0.24523
# Poissons Ratio (y) = 0.00626 0.48434
# Poissons Ratio (z) = 0.49266 0.72229
#
# Static dielectric constant tensor:
#      x y z
#    x 3.744670 -0.348050 0.276740 
#    y -0.348050 4.017420 0.204910 
#    z 0.276740 0.204910 3.722810 
# 
# 
# High freq. dielectric constant tensor:
#      x y z
#    x 1.887700 -0.002590 -0.009270 
#    y -0.002590 1.894460 0.002320 
#    z -0.009270 0.002320 1.871350 
# 
# From -- ./inp_files/455818.got.cif
#   From: 2010.06.25/outbox.cif.g09.slc.cpg/sg2_228_cif.got.tgz:455818.got - 2010.06.27 13:26:56.
