data_PCOD8024541
_publ_section_title
;
Structure prediction by ZEFSAII (Michael W. Deem and Ramdas Pophale) SiO2 
 PCOD8024541
Probable space group: P -1
;
_chemical_formula_sum "Si O2"
_cell_formula_units_Z 10
_cell_length_a 6.843836
_cell_length_b 9.181584
_cell_length_c 15.245500
_cell_angle_alpha 37.383116
_cell_angle_beta 64.481128
_cell_angle_gamma 87.401843
_cell_volume 441.095230
_symmetry_space_group_name_H-M "P -1"
_symmetry_group_IT_number 2
_symmetry_cell_setting 'triclinic'
loop_
_space_group_symop_operation_xyz
x,y,z
-x,-y,-z
loop_
_atom_site_type_symbol
_atom_site_label
_atom_site_fract_x
_atom_site_fract_y
_atom_site_fract_z
Si Si1 0.684580 0.734714 0.237067
Si Si2 0.735021 0.160510 0.309396
Si Si3 0.760334 0.809048 0.814089
Si Si4 0.386132 0.776416 0.418935
Si Si5 0.173244 0.239828 0.983486
O O1 0.430245 0.670431 0.367943
O O2 0.765362 0.507708 0.355290
O O3 0.620288 0.705993 0.158848
O O4 0.907264 0.048709 0.073938
O O5 0.800043 0.472819 0.127445
O O6 0.996368 0.184993 0.277660
O O7 0.500000 0.000000 0.500000
O O8 0.656723 0.993430 0.312006
O O9 0.761545 0.062086 0.641229
O O10 0.500000 0.500000 0.000000
O O11 0.792220 0.893335 0.871114
#
# Coordination Sequence:
#
# PCOD8024541 Si02
#       5
#     2   2   2   2   2
#     4  10  23  43  68  97 141 181 213 285 351 394
#     4  12  24  46  71  98 140 183 226 280 335 401
#     4  12  25  42  74 105 132 177 236 279 330 405
#     4  11  23  45  68  98 137 181 227 277 340 405
#     4  11  22  43  69  98 136 180 223 278 341 399
#
# _framework density 22.670843000000001
#
# number of rings (size 3 to 8) (size 9 to 14) (size 15 to 20)
#    0.000    0.800    6.000    1.800    0.000    2.400 
#    0.000    0.000    0.000    0.000    0.000    0.000 
#    0.000    0.000    0.000    0.000    0.000    0.000 
#
# Total GULP energy -123943.642328 kJ/mol
# GULP energy per Si atom -12394.364233 kJ/mol
# Density = 2.261924 g / cm^3
# Si number density = 22.670843 Si / 1000 Ang^3
#
#
#
# Elastic Constant Matrix: (Units=GPa)
#
#
# Indices 1 2 3 4 5 6 
#
# 1 95.9936 21.3528 29.5192 6.6743 -5.3827 -14.2695
# 2 21.3528 109.9581 28.1984 8.8287 -3.6673 5.4186
# 3 29.5192 28.1984 91.2876 -5.0615 3.4683 -10.5793
# 4 6.6743 8.8287 -5.0615 46.0585 -4.3515 4.9858
# 5 -5.3827 -3.6673 3.4683 -4.3515 29.4249 -0.3754
# 6 -14.2695 5.4186 -10.5793 4.9858 -0.3754 32.4595
#
#
#
# Elastic Compliance Matrix: (Units=1/GPa)
#
#
# Indices 1 2 3 4 5 6 
#
# 1 0.012848 -0.001665 -0.003243 -0.002253 0.002259 0.005241
# 2 -0.001665 0.010585 -0.003247 -0.001684 0.001106 -0.003286
# 3 -0.003243 -0.003247 0.013576 0.002024 -0.002258 0.003204
# 4 -0.002253 -0.001684 0.002024 0.023210 0.002526 -0.003585
# 5 0.002259 0.001106 -0.002258 0.002526 0.035177 0.000091
# 6 0.005241 -0.003286 0.003204 -0.003585 0.000091 0.035256
#
#
# Mechanical properties :
#
#
# Convention : Reuss Voigt Hill
#
# Bulk Modulus (GPa) = 48.31871 50.59780 49.45826
# Shear Modulus (GPa) = 32.49688 36.13316 34.31502
#
# Velocity S-wave (km/s) = 3.79016 3.99659 3.89475
# Velocity P-wave (km/s) = 6.36500 6.60787 6.48757
#
# Compressibility (1/GPa) = 0.02069591
#
# Stress axis : x y z
#
# Youngs Moduli (GPa) = 77.83607 94.47746 73.66156
#
# Poissons Ratio (x) = 0.15732 0.23892
# Poissons Ratio (y) = 0.12961 0.23920
# Poissons Ratio (z) = 0.25246 0.30680
#
# Static dielectric constant tensor:
#      x y z
#    x 3.729870 0.151690 0.126360 
#    y 0.151690 4.506390 0.099340 
#    z 0.126360 0.099340 4.301140 
# 
# 
# High freq. dielectric constant tensor:
#      x y z
#    x 1.852660 0.005730 0.009220 
#    y 0.005730 1.916170 -0.001890 
#    z 0.009220 -0.001890 1.906900 
# 
# From -- ./inp_files/15807.got.cif
#   From: 2010.06.25/outbox.cif.g09.slc.cpg/sg2_8_cif.got.tgz:15807.got - 2010.06.27 13:26:56.
