data_PCOD8024512
_publ_section_title
;
Structure prediction by ZEFSAII (Michael W. Deem and Ramdas Pophale) SiO2 
 PCOD8024512
Probable space group: P -1
;
_chemical_formula_sum "Si O2"
_cell_formula_units_Z 16
_cell_length_a 4.881717
_cell_length_b 13.069753
_cell_length_c 10.966742
_cell_angle_alpha 104.040885
_cell_angle_beta 84.823561
_cell_angle_gamma 116.093916
_cell_volume 609.507150
_symmetry_space_group_name_H-M "P -1"
_symmetry_group_IT_number 2
_symmetry_cell_setting 'triclinic'
loop_
_space_group_symop_operation_xyz
x,y,z
-x,-y,-z
loop_
_atom_site_type_symbol
_atom_site_label
_atom_site_fract_x
_atom_site_fract_y
_atom_site_fract_z
Si Si1 0.825519 0.966325 0.122435
Si Si2 0.088665 0.925162 0.567668
Si Si3 0.229748 0.511201 0.652086
Si Si4 0.437168 0.836152 0.353428
Si Si5 0.111562 0.689816 0.839927
Si Si6 0.150647 0.813925 0.116383
Si Si7 0.259053 0.214039 0.264402
Si Si8 0.432650 0.637735 0.441131
O O1 0.467874 0.919724 0.094289
O O2 0.890862 0.860334 0.148820
O O3 0.964435 0.088821 0.223905
O O4 0.000000 0.000000 0.000000
O O5 0.289110 0.869054 0.483722
O O6 0.784087 0.808141 0.592343
O O7 0.312732 0.039533 0.679029
O O8 0.000000 0.000000 0.500000
O O9 0.131496 0.565228 0.788129
O O10 0.443151 0.627171 0.589672
O O11 0.441083 0.446540 0.653119
O O12 0.933668 0.416246 0.571229
O O13 0.196278 0.767777 0.235504
O O14 0.579389 0.756105 0.389363
O O15 0.436883 0.787066 0.804404
O O16 0.834001 0.690313 0.768767
O O17 0.058613 0.710431 0.989139
#
# Coordination Sequence:
#
# PCOD8024512 Si02
#       8
#     2   2   2   2   2   2   2   2
#     4  12  21  38  57  90 131 176 216 245 306 373
#     4  11  26  41  62  96 136 170 214 258 305 401
#     4  10  23  43  68  93 119 156 223 277 313 372
#     4  11  26  42  64  95 133 176 208 255 330 384
#     4  12  24  41  66  99 126 169 217 269 315 365
#     4  12  24  40  61  93 136 172 210 259 309 391
#     4  12  24  38  66  92 133 171 212 262 313 372
#     4  10  23  44  68  90 122 165 209 271 327 371
#
# _framework density 26.250715
#
# number of rings (size 3 to 8) (size 9 to 14) (size 15 to 20)
#    0.000    0.750    3.750    3.375    7.000    1.000 
#    0.000    1.250    0.000    0.000    0.000    0.000 
#    0.000    0.000    0.000    0.000    0.000    0.000 
#
# Total GULP energy -198233.992749 kJ/mol
# GULP energy per Si atom -12389.624547 kJ/mol
# Density = 2.619097 g / cm^3
# Si number density = 26.250715 Si / 1000 Ang^3
#
#
#
# Elastic Constant Matrix: (Units=GPa)
#
#
# Indices 1 2 3 4 5 6 
#
# 1 69.3965 14.8633 0.0149 -6.2152 -3.9873 -14.1363
# 2 14.8633 104.7760 34.0455 -11.3992 -8.8974 -32.8930
# 3 0.0149 34.0455 116.6601 4.0934 6.2226 -32.3261
# 4 -6.2152 -11.3992 4.0934 32.5851 -11.2296 -12.7260
# 5 -3.9873 -8.8974 6.2226 -11.2296 38.7380 -2.7261
# 6 -14.1363 -32.8930 -32.3261 -12.7260 -2.7261 45.3171
#
#
#
# Elastic Compliance Matrix: (Units=1/GPa)
#
#
# Indices 1 2 3 4 5 6 
#
# 1 0.017622 0.002227 0.001936 0.010543 0.005902 0.011810
# 2 0.002227 0.018708 -0.001410 0.018599 0.011494 0.019182
# 3 0.001936 -0.001410 0.011161 0.001168 -0.001029 0.007807
# 4 0.010543 0.018599 0.001168 0.062269 0.025800 0.036661
# 5 0.005902 0.011494 -0.001029 0.025800 0.038042 0.018983
# 6 0.011810 0.019182 0.007807 0.036661 0.018983 0.056680
#
#
# Mechanical properties :
#
#
# Convention : Reuss Voigt Hill
#
# Bulk Modulus (GPa) = 18.86970 43.18664 31.02817
# Shear Modulus (GPa) = 23.07955 39.45532 31.26743
#
# Velocity S-wave (km/s) = 2.96834 3.88108 3.45499
# Velocity P-wave (km/s) = 4.35338 6.04740 5.26892
#
# Compressibility (1/GPa) = 0.05299502
#
# Stress axis : x y z
#
# Youngs Moduli (GPa) = 56.74849 53.45263 89.60111
#
# Poissons Ratio (x) = -0.11904 -0.17343
# Poissons Ratio (y) = -0.12638 0.12637
# Poissons Ratio (z) = -0.10984 0.07539
#
# Static dielectric constant tensor:
#      x y z
#    x 5.065250 0.121880 0.253830 
#    y 0.121880 5.093800 0.375200 
#    z 0.253830 0.375200 5.187780 
# 
# 
# High freq. dielectric constant tensor:
#      x y z
#    x 2.070050 0.008150 0.003940 
#    y 0.008150 2.044800 0.011560 
#    z 0.003940 0.011560 2.070250 
# 
# From -- ./inp_files/364783.got.cif
#   From: 2010.06.25/outbox.cif.g09.slc.cpg/sg2_183_cif.got.tgz:364783.got - 2010.06.27 13:26:56.
