data_PCOD8024441
_publ_section_title
;
Structure prediction by ZEFSAII (Michael W. Deem and Ramdas Pophale) SiO2 
 PCOD8024441
Probable space group: P -1
;
_chemical_formula_sum "Si O2"
_cell_formula_units_Z 16
_cell_length_a 22.261770
_cell_length_b 20.868437
_cell_length_c 10.849861
_cell_angle_alpha 30.484069
_cell_angle_beta 139.844331
_cell_angle_gamma 162.114103
_cell_volume 733.180888
_symmetry_space_group_name_H-M "P -1"
_symmetry_group_IT_number 2
_symmetry_cell_setting 'triclinic'
loop_
_space_group_symop_operation_xyz
x,y,z
-x,-y,-z
loop_
_atom_site_type_symbol
_atom_site_label
_atom_site_fract_x
_atom_site_fract_y
_atom_site_fract_z
Si Si1 0.910840 0.929667 0.608651
Si Si2 0.517279 0.642575 0.196512
Si Si3 0.022809 0.823090 0.064698
Si Si4 0.880994 0.131298 0.365335
Si Si5 0.951158 0.795422 0.266654
Si Si6 0.648690 0.280854 0.198383
Si Si7 0.716323 0.264577 0.066468
Si Si8 0.510902 0.204234 0.662224
O O1 0.660628 0.607555 0.767118
O O2 0.966388 0.140526 0.377014
O O3 0.023411 0.975985 0.805581
O O4 0.000000 0.000000 0.500000
O O5 0.500000 0.500000 0.500000
O O6 0.455445 0.712625 0.023877
O O7 0.745252 0.938507 0.005288
O O8 0.974106 0.739620 0.270177
O O9 0.849502 0.551166 0.153491
O O10 0.888608 0.074898 0.603302
O O11 0.046345 0.446174 0.093417
O O12 0.641855 0.876673 0.383209
O O13 0.715003 0.509013 0.417658
O O14 0.000000 0.000000 0.000000
O O15 0.500000 0.000000 0.500000
O O16 0.720907 0.291652 0.174128
O O17 0.565429 0.179410 0.901206
O O18 0.624418 0.017408 0.295704
#
# Coordination Sequence:
#
# PCOD8024441 Si02
#       8
#     2   2   2   2   2   2   2   2
#     4  11  22  38  62  98 134 166 221 284 336 392
#     4  11  25  40  70 100 132 180 226 277 338 406
#     4  11  24  43  64  98 140 173 224 283 336 406
#     4  11  23  39  70  95 124 176 225 276 336 404
#     4  11  24  41  62  93 136 174 214 272 338 399
#     4  11  26  45  68  99 141 180 222 278 344 401
#     4  10  23  43  67  94 129 171 222 281 331 397
#     4  10  24  43  66  94 128 171 227 276 332 402
#
# _framework density 21.822718999999999
#
# number of rings (size 3 to 8) (size 9 to 14) (size 15 to 20)
#    0.000    1.250    2.500    2.625    3.500    4.000 
#    0.000    0.000    0.000    0.000    0.000    0.000 
#    0.000    0.000    0.000    0.000    0.000    0.000 
#
# Total GULP energy -198214.302160 kJ/mol
# GULP energy per Si atom -12388.393885 kJ/mol
# Density = 2.177305 g / cm^3
# Si number density = 21.822719 Si / 1000 Ang^3
#
#
#
# Elastic Constant Matrix: (Units=GPa)
#
#
# Indices 1 2 3 4 5 6 
#
# 1 109.7105 26.3195 12.0669 1.9184 -7.5682 -10.4376
# 2 26.3195 103.6511 9.0027 -13.2961 -7.5037 16.8760
# 3 12.0669 9.0027 88.3850 -6.5301 -0.1349 3.3116
# 4 1.9184 -13.2961 -6.5301 30.1615 -5.2756 1.4874
# 5 -7.5682 -7.5037 -0.1349 -5.2756 28.9837 0.4149
# 6 -10.4376 16.8760 3.3116 1.4874 0.4149 36.8228
#
#
#
# Elastic Compliance Matrix: (Units=1/GPa)
#
#
# Indices 1 2 3 4 5 6 
#
# 1 0.010760 -0.003652 -0.001475 -0.002629 0.001308 0.004948
# 2 -0.003652 0.012925 -0.000027 0.006941 0.003760 -0.007279
# 3 -0.001475 -0.000027 0.011780 0.002743 0.000185 -0.001578
# 4 -0.002629 0.006941 0.002743 0.038707 0.008252 -0.005829
# 5 0.001308 0.003760 0.000185 0.008252 0.037350 -0.002123
# 6 0.004948 -0.007279 -0.001578 -0.005829 -0.002123 0.032297
#
#
# Mechanical properties :
#
#
# Convention : Reuss Voigt Hill
#
# Bulk Modulus (GPa) = 39.74806 44.05832 41.90319
# Shear Modulus (GPa) = 30.76673 36.15077 33.45875
#
# Velocity S-wave (km/s) = 3.75887 4.07451 3.91987
# Velocity P-wave (km/s) = 6.09035 6.50911 6.30321
#
# Compressibility (1/GPa) = 0.02515846
#
# Stress axis : x y z
#
# Youngs Moduli (GPa) = 92.93481 77.36795 84.88806
#
# Poissons Ratio (x) = 0.28258 0.12518
# Poissons Ratio (y) = 0.33943 0.00226
# Poissons Ratio (z) = 0.13705 0.00206
#
# Static dielectric constant tensor:
#      x y z
#    x 3.921880 0.052060 0.196050 
#    y 0.052060 4.096500 -0.096840 
#    z 0.196050 -0.096840 4.105340 
# 
# 
# High freq. dielectric constant tensor:
#      x y z
#    x 1.858670 -0.000450 0.004980 
#    y -0.000450 1.868760 -0.008860 
#    z 0.004980 -0.008860 1.856530 
# 
# From -- ./inp_files/472723.got.cif
#   From: 2010.06.25/outbox.cif.g09.slc.cpg/sg2_237_cif.got.tgz:472723.got - 2010.06.27 13:26:56.
