data_PCOD8024190
_publ_section_title
;
Structure prediction by ZEFSAII (Michael W. Deem and Ramdas Pophale) SiO2 
 PCOD8024190
Probable space group: P -1
;
_chemical_formula_sum "Si O2"
_cell_formula_units_Z 14
_cell_length_a 12.273536
_cell_length_b 20.464678
_cell_length_c 8.978740
_cell_angle_alpha 33.790177
_cell_angle_beta 46.525463
_cell_angle_gamma 28.511630
_cell_volume 591.068058
_symmetry_space_group_name_H-M "P -1"
_symmetry_group_IT_number 2
_symmetry_cell_setting 'triclinic'
loop_
_space_group_symop_operation_xyz
x,y,z
-x,-y,-z
loop_
_atom_site_type_symbol
_atom_site_label
_atom_site_fract_x
_atom_site_fract_y
_atom_site_fract_z
Si Si1 0.570269 0.845099 0.817577
Si Si2 0.229935 0.323113 0.773042
Si Si3 0.622573 0.483991 0.240342
Si Si4 0.888183 0.237315 0.876787
Si Si5 0.792488 0.458911 0.813989
Si Si6 0.956923 0.403053 0.307742
Si Si7 0.795278 0.123988 0.840727
O O1 0.828779 0.660769 0.858351
O O2 0.500000 0.000000 0.500000
O O3 0.585334 0.861995 0.951448
O O4 0.412292 0.825527 0.982766
O O5 0.334068 0.349630 0.499845
O O6 0.122998 0.473841 0.709963
O O7 0.055351 0.336566 0.837161
O O8 0.344505 0.658989 0.198135
O O9 0.755068 0.492343 0.209656
O O10 0.705922 0.300177 0.528768
O O11 0.655262 0.502119 0.005174
O O12 0.800397 0.345951 0.906642
O O13 0.035589 0.235110 0.631620
O O14 0.072144 0.023398 0.141482
O O15 0.000000 0.000000 0.000000
#
# Coordination Sequence:
#
# PCOD8024190 Si02
#       7
#     2   2   2   2   2   2   2
#     4  12  23  42  69 101 136 174 231 293 334 402
#     4  10  23  42  72  98 134 179 231 286 336 407
#     4  12  24  44  72 102 139 182 228 288 343 410
#     4  11  24  43  68 101 141 180 226 282 346 413
#     4  10  23  44  67 100 138 181 232 276 340 419
#     4  11  22  43  70 102 129 179 237 281 340 400
#     4  12  26  42  67 105 139 175 227 291 347 398
#
# _framework density 23.685934
#
# number of rings (size 3 to 8) (size 9 to 14) (size 15 to 20)
#    0.000    0.857    4.286    3.000    2.000    0.571 
#    0.000    0.714    3.143    0.000    0.000    0.000 
#    0.000    0.000    0.000    0.000    0.000    0.000 
#
# Total GULP energy -173449.505968 kJ/mol
# GULP energy per Si atom -12389.250426 kJ/mol
# Density = 2.363202 g / cm^3
# Si number density = 23.685934 Si / 1000 Ang^3
#
#
#
# Elastic Constant Matrix: (Units=GPa)
#
#
# Indices 1 2 3 4 5 6 
#
# 1 111.6165 16.8587 22.2605 0.4396 -1.0942 -21.3303
# 2 16.8587 94.4423 47.4469 -1.4143 -10.0563 -18.2683
# 3 22.2605 47.4469 187.1717 7.4964 8.7380 -15.4559
# 4 0.4396 -1.4143 7.4964 45.6233 1.9427 1.4644
# 5 -1.0942 -10.0563 8.7380 1.9427 40.1578 5.3289
# 6 -21.3303 -18.2683 -15.4559 1.4644 5.3289 27.6880
#
#
#
# Elastic Compliance Matrix: (Units=1/GPa)
#
#
# Indices 1 2 3 4 5 6 
#
# 1 0.010593 -0.000178 -0.000521 -0.000247 -0.000678 0.007896
# 2 -0.000178 0.013809 -0.003110 0.000592 0.003227 0.006586
# 3 -0.000521 -0.003110 0.006487 -0.001110 -0.002374 0.001684
# 4 -0.000247 0.000592 -0.001110 0.022191 -0.000492 -0.001498
# 5 -0.000678 0.003227 -0.002374 -0.000492 0.026878 -0.004865
# 6 0.007896 0.006586 0.001684 -0.001498 -0.004865 0.048501
#
#
# Mechanical properties :
#
#
# Convention : Reuss Voigt Hill
#
# Bulk Modulus (GPa) = 42.96986 62.92920 52.94953
# Shear Modulus (GPa) = 34.76237 43.13811 38.95024
#
# Velocity S-wave (km/s) = 3.83513 4.27225 4.05958
# Velocity P-wave (km/s) = 6.14751 7.13876 6.66160
#
# Compressibility (1/GPa) = 0.02327212
#
# Stress axis : x y z
#
# Youngs Moduli (GPa) = 94.39855 72.41657 154.14598
#
# Poissons Ratio (x) = 0.01286 0.08035
# Poissons Ratio (y) = 0.01677 0.47938
# Poissons Ratio (z) = 0.04921 0.22521
#
# Static dielectric constant tensor:
#      x y z
#    x 4.603130 -0.065920 0.067810 
#    y -0.065920 4.811360 -0.402510 
#    z 0.067810 -0.402510 5.405750 
# 
# 
# High freq. dielectric constant tensor:
#      x y z
#    x 1.952590 -0.008250 -0.004320 
#    y -0.008250 1.924030 0.005370 
#    z -0.004320 0.005370 1.963450 
# 
# From -- ./inp_files/281499.got.cif
#   From: 2010.06.25/outbox.cif.g09.slc.cpg/sg2_141_cif.got.tgz:281499.got - 2010.06.27 13:26:56.
