data_PCOD8024304
_publ_section_title
;
Structure prediction by ZEFSAII (Michael W. Deem and Ramdas Pophale) SiO2 
 PCOD8024304
Probable space group: P -1
;
_chemical_formula_sum "Si O2"
_cell_formula_units_Z 14
_cell_length_a 9.360787
_cell_length_b 8.709991
_cell_length_c 11.156092
_cell_angle_alpha 103.148834
_cell_angle_beta 117.166990
_cell_angle_gamma 48.795576
_cell_volume 605.180010
_symmetry_space_group_name_H-M "P -1"
_symmetry_group_IT_number 2
_symmetry_cell_setting 'triclinic'
loop_
_space_group_symop_operation_xyz
x,y,z
-x,-y,-z
loop_
_atom_site_type_symbol
_atom_site_label
_atom_site_fract_x
_atom_site_fract_y
_atom_site_fract_z
Si Si1 0.338867 0.947642 0.275497
Si Si2 0.482795 0.433084 0.853183
Si Si3 0.674713 0.259915 0.537243
Si Si4 0.062203 0.593259 0.790286
Si Si5 0.019855 0.278446 0.740581
Si Si6 0.246019 0.476865 0.103399
Si Si7 0.569632 0.074272 0.277951
O O1 0.369877 0.813982 0.147849
O O2 0.377925 0.819000 0.384772
O O3 0.513065 0.975050 0.336003
O O4 0.107006 0.163328 0.226446
O O5 0.240668 0.539136 0.755505
O O6 0.569134 0.509900 0.808171
O O7 0.500000 0.500000 0.000000
O O8 0.500000 0.500000 0.500000
O O9 0.677812 0.150336 0.401414
O O10 0.893954 0.214457 0.621030
O O11 0.971131 0.480013 0.694286
O O12 0.170206 0.495567 0.943464
O O13 0.954403 0.337560 0.865254
O O14 0.266512 0.089002 0.788435
O O15 0.349664 0.254832 0.160310
#
# Coordination Sequence:
#
# PCOD8024304 Si02
#       7
#     2   2   2   2   2   2   2
#     4  12  24  46  71 101 139 179 226 285 336 409
#     4  10  23  43  65 100 139 178 221 280 334 407
#     4  12  25  50  71  96 139 178 232 286 337 399
#     4  11  25  44  69 106 138 180 226 275 352 399
#     4  12  24  44  70 102 138 182 225 282 338 406
#     4  11  24  45  69 101 145 177 222 285 334 414
#     4  12  26  44  71 102 134 186 231 273 345 394
#
# _framework density 23.133614000000001
#
# number of rings (size 3 to 8) (size 9 to 14) (size 15 to 20)
#    0.000    0.571    5.714    1.286    2.000    5.143 
#    2.571    1.429    0.000    0.000    0.000    0.000 
#    0.000    0.000    0.000    0.000    0.000    0.000 
#
# Total GULP energy -173545.709944 kJ/mol
# GULP energy per Si atom -12396.122139 kJ/mol
# Density = 2.308096 g / cm^3
# Si number density = 23.133614 Si / 1000 Ang^3
#
#
#
# Elastic Constant Matrix: (Units=GPa)
#
#
# Indices 1 2 3 4 5 6 
#
# 1 172.6234 60.8952 24.7087 -5.6387 8.2788 -1.3633
# 2 60.8952 172.9945 41.6493 3.5157 -7.9361 -10.7308
# 3 24.7087 41.6493 51.4356 -11.8447 -0.0990 5.1400
# 4 -5.6387 3.5157 -11.8447 29.6373 6.4780 -0.3111
# 5 8.2788 -7.9361 -0.0990 6.4780 27.8632 4.4121
# 6 -1.3633 -10.7308 5.1400 -0.3111 4.4121 47.8142
#
#
#
# Elastic Compliance Matrix: (Units=1/GPa)
#
#
# Indices 1 2 3 4 5 6 
#
# 1 0.007003 -0.002412 -0.000979 0.001935 -0.003233 0.000074
# 2 -0.002412 0.008873 -0.007488 -0.005376 0.004101 0.002314
# 3 -0.000979 -0.007488 0.029480 0.013343 -0.004141 -0.004408
# 4 0.001935 -0.005376 0.013343 0.042641 -0.011779 -0.001221
# 5 -0.003233 0.004101 -0.004141 -0.011779 0.041154 -0.002601
# 6 0.000074 0.002314 -0.004408 -0.001221 -0.002601 0.022142
#
#
# Mechanical properties :
#
#
# Convention : Reuss Voigt Hill
#
# Bulk Modulus (GPa) = 42.37491 72.39555 57.38523
# Shear Modulus (GPa) = 27.63696 39.04961 33.34328
#
# Velocity S-wave (km/s) = 3.46014 4.11299 3.80061
# Velocity P-wave (km/s) = 5.85839 7.34289 6.64224
#
# Compressibility (1/GPa) = 0.02359887
#
# Stress axis : x y z
#
# Youngs Moduli (GPa) = 142.79787 112.69727 33.92123
#
# Poissons Ratio (x) = 0.27188 0.03320
# Poissons Ratio (y) = 0.34449 0.25399
# Poissons Ratio (z) = 0.13976 0.84383
#
# Static dielectric constant tensor:
#      x y z
#    x 5.202820 0.153450 0.265890 
#    y 0.153450 4.381510 0.302310 
#    z 0.265890 0.302310 3.813030 
# 
# 
# High freq. dielectric constant tensor:
#      x y z
#    x 1.945750 0.001880 0.010930 
#    y 0.001880 1.928220 0.020900 
#    z 0.010930 0.020900 1.874600 
# 
# From -- ./inp_files/382716.got.cif
#   From: 2010.06.25/outbox.cif.g09.slc.cpg/sg2_192_cif.got.tgz:382716.got - 2010.06.27 13:26:56.
