data_PCOD8024478
_publ_section_title
;
Structure prediction by ZEFSAII (Michael W. Deem and Ramdas Pophale) SiO2 
 PCOD8024478
Probable space group: P -1
;
_chemical_formula_sum "Si O2"
_cell_formula_units_Z 14
_cell_length_a 14.448326
_cell_length_b 5.265363
_cell_length_c 19.937581
_cell_angle_alpha 105.807043
_cell_angle_beta 25.559034
_cell_angle_gamma 119.029400
_cell_volume 514.273347
_symmetry_space_group_name_H-M "P -1"
_symmetry_group_IT_number 2
_symmetry_cell_setting 'triclinic'
loop_
_space_group_symop_operation_xyz
x,y,z
-x,-y,-z
loop_
_atom_site_type_symbol
_atom_site_label
_atom_site_fract_x
_atom_site_fract_y
_atom_site_fract_z
Si Si1 0.059380 0.133754 0.176790
Si Si2 0.610625 0.157041 0.509877
Si Si3 0.310079 0.850357 0.943839
Si Si4 0.160776 0.192518 0.534933
Si Si5 0.557192 0.796499 0.902033
Si Si6 0.749190 0.319170 0.604170
Si Si7 0.067358 0.821165 0.891425
O O1 0.844538 0.104894 0.367283
O O2 0.990024 0.157797 0.147517
O O3 0.347400 0.428003 0.034210
O O4 0.096133 0.843331 0.132404
O O5 0.721092 0.538790 0.462878
O O6 0.500000 0.000000 0.500000
O O7 0.378620 0.970865 0.704039
O O8 0.512585 0.826522 0.854414
O O9 0.483757 0.181362 0.810871
O O10 0.130794 0.556742 0.987912
O O11 0.215482 0.419611 0.451809
O O12 0.293184 0.000004 0.425627
O O13 0.854414 0.914048 0.727093
O O14 0.500000 0.000000 0.000000
O O15 0.000000 0.500000 0.500000
O O16 0.000000 0.000000 0.000000
#
# Coordination Sequence:
#
# PCOD8024478 Si02
#       7
#     2   2   2   2   2   2   2
#     4  10  23  43  67  99 139 181 233 296 364 426
#     4  10  23  48  69 101 146 191 246 301 360 435
#     4  11  25  41  70 100 138 186 234 301 360 431
#     4  12  26  47  73 109 146 195 242 302 366 438
#     4  11  23  42  68  99 140 179 234 290 363 432
#     4  12  26  45  74 110 151 188 240 300 376 436
#     4  10  23  44  68  97 135 184 243 296 350 424
#
# _framework density 27.222878000000001
#
# number of rings (size 3 to 8) (size 9 to 14) (size 15 to 20)
#    0.000    1.143    2.857    2.143    6.000    2.857 
#    5.143    0.000    0.000    0.000    0.000    0.000 
#    0.000    0.000    0.000    0.000    0.000    0.000 
#
# Total GULP energy -173501.036559 kJ/mol
# GULP energy per Si atom -12392.931183 kJ/mol
# Density = 2.716092 g / cm^3
# Si number density = 27.222878 Si / 1000 Ang^3
#
#
#
# Elastic Constant Matrix: (Units=GPa)
#
#
# Indices 1 2 3 4 5 6 
#
# 1 35.7327 6.5223 20.6473 -6.1570 -0.6371 23.1033
# 2 6.5223 138.6822 61.7820 5.6040 -4.8299 41.0080
# 3 20.6473 61.7820 206.9670 -5.0076 -3.7081 15.3913
# 4 -6.1570 5.6040 -5.0076 51.9816 2.9504 -1.6820
# 5 -0.6371 -4.8299 -3.7081 2.9504 42.2192 -2.8130
# 6 23.1033 41.0080 15.3913 -1.6820 -2.8130 36.3323
#
#
#
# Elastic Compliance Matrix: (Units=1/GPa)
#
#
# Indices 1 2 3 4 5 6 
#
# 1 0.069218 0.018013 -0.007687 0.003648 -0.001894 -0.061068
# 2 0.018013 0.017015 -0.004769 -0.001087 -0.000036 -0.028692
# 3 -0.007687 -0.004769 0.006476 0.000451 0.000381 0.007578
# 4 0.003648 -0.001087 0.000451 0.019897 -0.001452 -0.000476
# 5 -0.001894 -0.000036 0.000381 -0.001452 0.023980 0.002873
# 6 -0.061068 -0.028692 0.007578 -0.000476 0.002873 0.095731
#
#
# Mechanical properties :
#
#
# Convention : Reuss Voigt Hill
#
# Bulk Modulus (GPa) = 9.63166 62.14278 35.88722
# Shear Modulus (GPa) = 19.54563 45.60197 32.57380
#
# Velocity S-wave (km/s) = 2.68243 4.09728 3.46289
# Velocity P-wave (km/s) = 3.62487 6.72760 5.40371
#
# Compressibility (1/GPa) = 0.10382429
#
# Stress axis : x y z
#
# Youngs Moduli (GPa) = 14.44704 58.77119 154.40511
#
# Poissons Ratio (x) = -1.05867 1.18688
# Poissons Ratio (y) = -0.26024 0.73643
# Poissons Ratio (z) = 0.11105 0.28031
#
# Static dielectric constant tensor:
#      x y z
#    x 4.973350 0.316270 -0.177940 
#    y 0.316270 5.460440 0.152420 
#    z -0.177940 0.152420 5.717590 
# 
# 
# High freq. dielectric constant tensor:
#      x y z
#    x 2.096400 0.024070 -0.002040 
#    y 0.024070 2.107320 0.000890 
#    z -0.002040 0.000890 2.113410 
# 
# From -- ./inp_files/27807.got.cif
#   From: 2010.06.25/outbox.cif.g09.slc.cpg/sg2_14_cif.got.tgz:27807.got - 2010.06.27 13:26:56.
