data_PCOD8024727
_publ_section_title
;
Structure prediction by ZEFSAII (Michael W. Deem and Ramdas Pophale) SiO2 
 PCOD8024727
Probable space group: P -1
;
_chemical_formula_sum "Si O2"
_cell_formula_units_Z 14
_cell_length_a 12.735466
_cell_length_b 9.419084
_cell_length_c 7.996453
_cell_angle_alpha 107.169440
_cell_angle_beta 71.970564
_cell_angle_gamma 140.594417
_cell_volume 576.520914
_symmetry_space_group_name_H-M "P -1"
_symmetry_group_IT_number 2
_symmetry_cell_setting 'triclinic'
loop_
_space_group_symop_operation_xyz
x,y,z
-x,-y,-z
loop_
_atom_site_type_symbol
_atom_site_label
_atom_site_fract_x
_atom_site_fract_y
_atom_site_fract_z
Si Si1 0.146877 0.302783 0.143272
Si Si2 0.183075 0.749894 0.463733
Si Si3 0.644082 0.802957 0.354724
Si Si4 0.293311 0.591110 0.501709
Si Si5 0.633361 0.015532 0.870172
Si Si6 0.812681 0.990254 0.017575
Si Si7 0.337812 0.513844 0.778992
O O1 0.188008 0.427748 0.338190
O O2 0.968462 0.183342 0.129028
O O3 0.270953 0.461148 0.982143
O O4 0.147318 0.127716 0.131343
O O5 0.301759 0.778058 0.544192
O O6 0.252684 0.788235 0.256370
O O7 0.000000 0.500000 0.500000
O O8 0.202393 0.944863 0.557686
O O9 0.473452 0.701780 0.459887
O O10 0.659712 0.649971 0.352277
O O11 0.650220 0.808356 0.151757
O O12 0.221128 0.481523 0.686288
O O13 0.526462 0.768386 0.768707
O O14 0.771782 0.087237 0.952306
O O15 0.500000 0.000000 0.000000
#
# Coordination Sequence:
#
# PCOD8024727 Si02
#       7
#     2   2   2   2   2   2   2
#     4  10  23  45  68 109 144 186 236 300 368 427
#     4  12  28  45  66 108 146 190 237 297 374 429
#     4  11  23  45  72 105 140 182 243 302 358 427
#     4  12  24  44  72 101 145 187 239 296 358 431
#     4  12  26  46  75 107 143 195 247 296 364 435
#     4  10  23  43  71 102 148 185 233 302 363 434
#     4  11  25  44  76 109 137 189 248 297 359 433
#
# _framework density 24.283594000000001
#
# number of rings (size 3 to 8) (size 9 to 14) (size 15 to 20)
#    0.000    0.857    1.429    5.143    6.000    2.286 
#    0.000    5.000    0.000    0.000    0.000    0.000 
#    0.000    0.000    0.000    0.000    0.000    0.000 
#
# Total GULP energy -173465.343439 kJ/mol
# GULP energy per Si atom -12390.381674 kJ/mol
# Density = 2.422832 g / cm^3
# Si number density = 24.283594 Si / 1000 Ang^3
#
#
#
# Elastic Constant Matrix: (Units=GPa)
#
#
# Indices 1 2 3 4 5 6 
#
# 1 145.3795 39.8810 38.0721 -8.0833 19.1959 -12.7737
# 2 39.8810 124.9260 40.4384 3.5982 2.9777 -8.6288
# 3 38.0721 40.4384 85.5380 -0.5768 15.8077 3.8453
# 4 -8.0833 3.5982 -0.5768 45.7739 -4.2387 2.2770
# 5 19.1959 2.9777 15.8077 -4.2387 41.4073 -1.9738
# 6 -12.7737 -8.6288 3.8453 2.2770 -1.9738 30.0364
#
#
#
# Elastic Compliance Matrix: (Units=1/GPa)
#
#
# Indices 1 2 3 4 5 6 
#
# 1 0.008764 -0.001637 -0.002790 0.001234 -0.002594 0.003350
# 2 -0.001637 0.010206 -0.004572 -0.001133 0.001799 0.003025
# 3 -0.002790 -0.004572 0.016201 -0.000132 -0.004809 -0.004880
# 4 0.001234 -0.001133 -0.000132 0.022385 0.001786 -0.001363
# 5 -0.002594 0.001799 -0.004809 0.001786 0.027323 0.001689
# 6 0.003350 0.003025 -0.004880 -0.001363 0.001689 0.036426
#
#
# Mechanical properties :
#
#
# Convention : Reuss Voigt Hill
#
# Bulk Modulus (GPa) = 58.23132 65.84739 62.03935
# Shear Modulus (GPa) = 34.47640 39.27366 36.87503
#
# Velocity S-wave (km/s) = 3.77203 4.02592 3.90104
# Velocity P-wave (km/s) = 6.55765 6.98467 6.77452
#
# Compressibility (1/GPa) = 0.01717289
#
# Stress axis : x y z
#
# Youngs Moduli (GPa) = 114.10806 97.98020 61.72402
#
# Poissons Ratio (x) = 0.16040 0.17218
# Poissons Ratio (y) = 0.18680 0.28223
# Poissons Ratio (z) = 0.31831 0.44801
#
# Static dielectric constant tensor:
#      x y z
#    x 4.629850 -0.308810 0.017440 
#    y -0.308810 4.483400 -0.175030 
#    z 0.017440 -0.175030 4.593790 
# 
# 
# High freq. dielectric constant tensor:
#      x y z
#    x 1.968400 -0.014390 -0.004070 
#    y -0.014390 1.961820 -0.009120 
#    z -0.004070 -0.009120 1.975290 
# 
# From -- ./inp_files/244545.got.cif
#   From: 2010.06.25/outbox.cif.g09.slc.cpg/sg2_123_cif.got.tgz:244545.got - 2010.06.27 13:26:56.
