data_PCOD8024782
_publ_section_title
;
Structure prediction by ZEFSAII (Michael W. Deem and Ramdas Pophale) SiO2 
 PCOD8024782
Probable space group: P -1
;
_chemical_formula_sum "Si O2"
_cell_formula_units_Z 14
_cell_length_a 11.160289
_cell_length_b 11.558974
_cell_length_c 7.384373
_cell_angle_alpha 59.762314
_cell_angle_beta 52.138511
_cell_angle_gamma 92.759557
_cell_volume 553.510203
_symmetry_space_group_name_H-M "P -1"
_symmetry_group_IT_number 2
_symmetry_cell_setting 'triclinic'
loop_
_space_group_symop_operation_xyz
x,y,z
-x,-y,-z
loop_
_atom_site_type_symbol
_atom_site_label
_atom_site_fract_x
_atom_site_fract_y
_atom_site_fract_z
Si Si1 0.540940 0.835299 0.055351
Si Si2 0.157896 0.939186 0.208526
Si Si3 0.639934 0.082154 0.463094
Si Si4 0.788247 0.420257 0.981012
Si Si5 0.016588 0.879834 0.794656
Si Si6 0.822881 0.351725 0.607223
Si Si7 0.678914 0.622015 0.138218
O O1 0.629135 0.920270 0.101415
O O2 0.560833 0.970462 0.797056
O O3 0.328312 0.708627 0.361070
O O4 0.646846 0.749290 0.965093
O O5 0.128645 0.779596 0.278278
O O6 0.112646 0.923459 0.476472
O O7 0.036042 0.995641 0.182115
O O8 0.836645 0.110266 0.207876
O O9 0.500000 0.000000 0.500000
O O10 0.678797 0.257812 0.322189
O O11 0.750882 0.390629 0.823784
O O12 0.000475 0.498197 0.755372
O O13 0.726461 0.537719 0.006704
O O14 0.837583 0.707500 0.072648
O O15 0.500000 0.500000 0.500000
#
# Coordination Sequence:
#
# PCOD8024782 Si02
#       7
#     2   2   2   2   2   2   2
#     4  10  23  43  73 100 139 190 231 289 344 419
#     4   9  18  39  70 100 131 180 234 281 343 414
#     4  11  23  45  68 100 140 187 237 285 347 425
#     4  11  26  43  67 102 147 182 230 290 358 415
#     4   9  20  39  68  97 136 178 230 289 342 406
#     4  11  22  42  70 103 145 182 231 287 356 414
#     4  11  25  46  71 106 140 181 240 290 350 418
#
# _framework density 25.293119000000001
#
# number of rings (size 3 to 8) (size 9 to 14) (size 15 to 20)
#    0.000    1.714    2.857    1.286    2.000    5.714 
#    0.000    0.714    0.000    0.000    0.000    0.000 
#    0.000    0.000    0.000    0.000    0.000    0.000 
#
# Total GULP energy -173488.757766 kJ/mol
# GULP energy per Si atom -12392.054126 kJ/mol
# Density = 2.523555 g / cm^3
# Si number density = 25.293119 Si / 1000 Ang^3
#
#
#
# Elastic Constant Matrix: (Units=GPa)
#
#
# Indices 1 2 3 4 5 6 
#
# 1 132.9940 36.8306 34.2357 -11.5234 -33.4829 -9.2923
# 2 36.8306 160.3997 21.0731 -12.2076 -1.8815 -20.0535
# 3 34.2357 21.0731 98.5464 -16.2178 -26.7300 9.9391
# 4 -11.5234 -12.2076 -16.2178 39.2385 4.3708 -1.1600
# 5 -33.4829 -1.8815 -26.7300 4.3708 43.7059 -7.4440
# 6 -9.2923 -20.0535 9.9391 -1.1600 -7.4440 30.8237
#
#
#
# Elastic Compliance Matrix: (Units=1/GPa)
#
#
# Indices 1 2 3 4 5 6 
#
# 1 0.010764 -0.001484 -0.001534 0.001323 0.007919 0.004736
# 2 -0.001484 0.007479 -0.001629 0.001486 -0.001156 0.004720
# 3 -0.001534 -0.001629 0.013749 0.003925 0.006030 -0.004352
# 4 0.001323 0.001486 0.003925 0.027896 0.000922 0.001373
# 5 0.007919 -0.001156 0.006030 0.000922 0.033837 0.007897
# 6 0.004736 0.004720 -0.004352 0.001373 0.007897 0.040303
#
#
# Mechanical properties :
#
#
# Convention : Reuss Voigt Hill
#
# Bulk Modulus (GPa) = 44.05709 64.02433 54.04071
# Shear Modulus (GPa) = 33.13679 42.74035 37.93857
#
# Velocity S-wave (km/s) = 3.62347 4.11518 3.87713
# Velocity P-wave (km/s) = 5.91291 6.92441 6.43856
#
# Compressibility (1/GPa) = 0.02269782
#
# Stress axis : x y z
#
# Youngs Moduli (GPa) = 92.89913 133.70982 72.73198
#
# Poissons Ratio (x) = 0.19848 0.11159
# Poissons Ratio (y) = 0.13790 0.11845
# Poissons Ratio (z) = 0.14253 0.21776
#
# Static dielectric constant tensor:
#      x y z
#    x 5.009230 -0.319340 -0.749940 
#    y -0.319340 4.798630 -0.262890 
#    z -0.749940 -0.262890 4.773520 
# 
# 
# High freq. dielectric constant tensor:
#      x y z
#    x 2.000990 -0.019030 -0.040390 
#    y -0.019030 2.016140 -0.015310 
#    z -0.040390 -0.015310 2.010820 
# 
# From -- ./inp_files/256214.got.cif
#   From: 2010.06.25/outbox.cif.g09.slc.cpg/sg2_129_cif.got.tgz:256214.got - 2010.06.27 13:26:56.
