data_PCOD8024616
_publ_section_title
;
Structure prediction by ZEFSAII (Michael W. Deem and Ramdas Pophale) SiO2 
 PCOD8024616
Probable space group: P -1
;
_chemical_formula_sum "Si O2"
_cell_formula_units_Z 14
_cell_length_a 12.471172
_cell_length_b 8.550584
_cell_length_c 15.494647
_cell_angle_alpha 49.285346
_cell_angle_beta 150.815308
_cell_angle_gamma 126.408083
_cell_volume 609.398561
_symmetry_space_group_name_H-M "P -1"
_symmetry_group_IT_number 2
_symmetry_cell_setting 'triclinic'
loop_
_space_group_symop_operation_xyz
x,y,z
-x,-y,-z
loop_
_atom_site_type_symbol
_atom_site_label
_atom_site_fract_x
_atom_site_fract_y
_atom_site_fract_z
Si Si1 0.718605 0.047769 0.080645
Si Si2 0.586468 0.374911 0.187138
Si Si3 0.017969 0.695547 0.110896
Si Si4 0.589266 0.488082 0.817996
Si Si5 0.230379 0.046873 0.039544
Si Si6 0.649331 0.593017 0.495432
Si Si7 0.879074 0.026171 0.494049
O O1 0.946202 0.995975 0.300993
O O2 0.720298 0.921553 0.038366
O O3 0.724821 0.286967 0.977975
O O4 0.500000 0.000000 0.000000
O O5 0.582549 0.519661 0.217945
O O6 0.811048 0.265150 0.363925
O O7 0.500000 0.500000 0.000000
O O8 0.431988 0.175700 0.179294
O O9 0.987378 0.844338 0.119110
O O10 0.106744 0.485567 0.287431
O O11 0.790047 0.661531 0.909008
O O12 0.202629 0.807041 0.136378
O O13 0.446663 0.507901 0.624392
O O14 0.500000 0.500000 0.500000
O O15 0.676718 0.845606 0.421543
O O16 0.000000 0.000000 0.500000
#
# Coordination Sequence:
#
# PCOD8024616 Si02
#       7
#     2   2   2   2   2   2   2
#     4  12  24  44  68 101 139 185 230 289 349 415
#     4  11  24  45  70 101 140 182 231 292 348 417
#     4  10  23  45  67 104 136 184 229 287 348 419
#     4  11  24  43  71 101 142 183 230 285 350 414
#     4  10  23  43  69  95 143 176 230 289 349 407
#     4  12  26  44  72 104 145 182 236 287 351 421
#     4  12  26  44  69 104 141 184 236 287 349 420
#
# _framework density 22.973471
#
# number of rings (size 3 to 8) (size 9 to 14) (size 15 to 20)
#    0.000    0.857    1.429    6.000    6.000    1.143 
#    0.000    5.000    0.000    0.000    0.000    0.000 
#    0.000    0.000    0.000    0.000    0.000    0.000 
#
# Total GULP energy -173477.393183 kJ/mol
# GULP energy per Si atom -12391.242370 kJ/mol
# Density = 2.292118 g / cm^3
# Si number density = 22.973471 Si / 1000 Ang^3
#
#
#
# Elastic Constant Matrix: (Units=GPa)
#
#
# Indices 1 2 3 4 5 6 
#
# 1 145.0646 23.3784 36.0569 7.6339 -13.7372 -15.8138
# 2 23.3784 73.5278 28.9122 4.5533 -4.8180 -1.1192
# 3 36.0569 28.9122 119.3674 1.7444 -8.1022 -17.2247
# 4 7.6339 4.5533 1.7444 38.8948 -6.0856 1.9673
# 5 -13.7372 -4.8180 -8.1022 -6.0856 30.0599 3.1657
# 6 -15.8138 -1.1192 -17.2247 1.9673 3.1657 43.5220
#
#
#
# Elastic Compliance Matrix: (Units=1/GPa)
#
#
# Indices 1 2 3 4 5 6 
#
# 1 0.008079 -0.001703 -0.001529 -0.001024 0.002574 0.002146
# 2 -0.001703 0.015581 -0.003420 -0.001142 0.000732 -0.001573
# 3 -0.001529 -0.003420 0.010223 0.000265 0.001214 0.003302
# 4 -0.001024 -0.001142 0.000265 0.026921 0.005069 -0.001882
# 5 0.002574 0.000732 0.001214 0.005069 0.036063 -0.001418
# 6 0.002146 -0.001573 0.003302 -0.001882 -0.001418 0.025211
#
#
# Mechanical properties :
#
#
# Convention : Reuss Voigt Hill
#
# Bulk Modulus (GPa) = 48.59178 57.18387 52.88783
# Shear Modulus (GPa) = 35.15102 39.13618 37.14360
#
# Velocity S-wave (km/s) = 3.91585 4.13187 4.02531
# Velocity P-wave (km/s) = 6.45309 6.90713 6.68397
#
# Compressibility (1/GPa) = 0.02057961
#
# Stress axis : x y z
#
# Youngs Moduli (GPa) = 123.77050 64.17906 97.82102
#
# Poissons Ratio (x) = 0.10930 0.14954
# Poissons Ratio (y) = 0.21079 0.33457
# Poissons Ratio (z) = 0.18921 0.21951
#
# Static dielectric constant tensor:
#      x y z
#    x 4.350520 -0.258130 0.221150 
#    y -0.258130 4.462990 -0.344580 
#    z 0.221150 -0.344580 4.177860 
# 
# 
# High freq. dielectric constant tensor:
#      x y z
#    x 1.920180 -0.007690 0.011090 
#    y -0.007690 1.912890 -0.009490 
#    z 0.011090 -0.009490 1.899920 
# 
# From -- ./inp_files/184616.got.cif
#   From: 2010.06.25/outbox.cif.g09.slc.cpg/sg2_93_cif.got.tgz:184616.got - 2010.06.27 13:26:56.
