data_PCOD8024096
_publ_section_title
;
Structure prediction by ZEFSAII (Michael W. Deem and Ramdas Pophale) SiO2 
 PCOD8024096
Probable space group: P -1
;
_chemical_formula_sum "Si O2"
_cell_formula_units_Z 14
_cell_length_a 17.720196
_cell_length_b 23.768765
_cell_length_c 8.513372
_cell_angle_alpha 136.725948
_cell_angle_beta 31.946362
_cell_angle_gamma 159.281538
_cell_volume 628.672247
_symmetry_space_group_name_H-M "P -1"
_symmetry_group_IT_number 2
_symmetry_cell_setting 'triclinic'
loop_
_space_group_symop_operation_xyz
x,y,z
-x,-y,-z
loop_
_atom_site_type_symbol
_atom_site_label
_atom_site_fract_x
_atom_site_fract_y
_atom_site_fract_z
Si Si1 0.890168 0.200690 0.611880
Si Si2 0.286390 0.859069 0.858125
Si Si3 0.735878 0.528080 0.742200
Si Si4 0.154014 0.159407 0.112481
Si Si5 0.723289 0.821075 0.706088
Si Si6 0.280631 0.356332 0.724666
Si Si7 0.198803 0.666271 0.402132
O O1 0.171670 0.387254 0.416408
O O2 0.939973 0.129124 0.408652
O O3 0.605152 0.064031 0.722449
O O4 0.832359 0.217729 0.912419
O O5 0.323328 0.791092 0.566854
O O6 0.060431 0.803341 0.049336
O O7 0.013066 0.618835 0.502919
O O8 0.453022 0.325600 0.821344
O O9 0.649779 0.561387 0.071427
O O10 0.226739 0.185088 0.218402
O O11 0.000000 0.000000 0.000000
O O12 0.647766 0.703093 0.495662
O O13 0.463364 0.755803 0.025840
O O14 0.000000 0.000000 0.500000
O O15 0.500000 0.500000 0.500000
O O16 0.000000 0.500000 0.500000
#
# Coordination Sequence:
#
# PCOD8024096 Si02
#       7
#     2   2   2   2   2   2   2
#     4  11  24  43  71  99 136 178 228 270 341 416
#     4  10  23  42  70  94 135 180 222 274 338 397
#     4  11  25  43  74  99 129 183 233 276 336 408
#     4  12  25  46  64 100 144 178 218 287 348 399
#     4  12  26  42  70 105 134 176 226 281 342 398
#     4  11  21  44  69  96 133 177 229 276 328 401
#     4  11  23  45  69  98 138 176 225 286 336 387
#
# _framework density 22.269155000000001
#
# number of rings (size 3 to 8) (size 9 to 14) (size 15 to 20)
#    0.000    0.857    4.286    2.143    6.000    1.143 
#    2.571    0.714    0.000    0.000    0.000    0.000 
#    0.000    0.000    0.000    0.000    0.000    0.000 
#
# Total GULP energy -173646.795047 kJ/mol
# GULP energy per Si atom -12403.342503 kJ/mol
# Density = 2.221847 g / cm^3
# Si number density = 22.269155 Si / 1000 Ang^3
#
#
#
# Elastic Constant Matrix: (Units=GPa)
#
#
# Indices 1 2 3 4 5 6 
#
# 1 49.6045 24.0902 25.6741 -2.2381 -8.8431 -10.7721
# 2 24.0902 139.7445 63.8788 -1.0242 0.9779 -14.5607
# 3 25.6741 63.8788 156.2151 2.0694 -14.1507 -14.2500
# 4 -2.2381 -1.0242 2.0694 43.7362 -10.8571 1.4751
# 5 -8.8431 0.9779 -14.1507 -10.8571 31.1882 -9.3267
# 6 -10.7721 -14.5607 -14.2500 1.4751 -9.3267 40.2234
#
#
#
# Elastic Compliance Matrix: (Units=1/GPa)
#
#
# Indices 1 2 3 4 5 6 
#
# 1 0.026078 -0.003091 -0.001432 0.003653 0.010396 0.007634
# 2 -0.003091 0.009379 -0.003501 -0.000469 -0.002708 0.000716
# 3 -0.001432 -0.003501 0.008700 0.000481 0.004557 0.002470
# 4 0.003653 -0.000469 0.000481 0.025654 0.010972 0.002582
# 5 0.010396 -0.002708 0.004557 0.010972 0.045006 0.013452
# 6 0.007634 0.000716 0.002470 0.002582 0.013452 0.031064
#
#
# Mechanical properties :
#
#
# Convention : Reuss Voigt Hill
#
# Bulk Modulus (GPa) = 35.57663 63.65004 49.61333
# Shear Modulus (GPa) = 29.18848 38.49095 33.83972
#
# Velocity S-wave (km/s) = 3.62431 4.16196 3.90241
# Velocity P-wave (km/s) = 5.79004 7.19306 6.52934
#
# Compressibility (1/GPa) = 0.02810834
#
# Stress axis : x y z
#
# Youngs Moduli (GPa) = 38.34662 106.61711 114.93919
#
# Poissons Ratio (x) = 0.32960 0.16460
# Poissons Ratio (y) = 0.11855 0.40241
# Poissons Ratio (z) = 0.05492 0.37327
#
# Static dielectric constant tensor:
#      x y z
#    x 3.901340 0.087710 0.006120 
#    y 0.087710 4.207620 -0.013230 
#    z 0.006120 -0.013230 4.336940 
# 
# 
# High freq. dielectric constant tensor:
#      x y z
#    x 1.871010 0.000500 -0.006490 
#    y 0.000500 1.882890 -0.007420 
#    z -0.006490 -0.007420 1.892110 
# 
# From -- ./inp_files/185002.got.cif
#   From: 2010.06.25/outbox.cif.g09.slc.cpg/sg2_93_cif.got.tgz:185002.got - 2010.06.27 13:26:56.
