data_PCOD8024813
_publ_section_title
;
Structure prediction by ZEFSAII (Michael W. Deem and Ramdas Pophale) SiO2 
 PCOD8024813
Probable space group: P -1
;
_chemical_formula_sum "Si O2"
_cell_formula_units_Z 16
_cell_length_a 23.346374
_cell_length_b 9.237123
_cell_length_c 8.251183
_cell_angle_alpha 94.926451
_cell_angle_beta 56.198878
_cell_angle_gamma 140.071733
_cell_volume 730.109088
_symmetry_space_group_name_H-M "P -1"
_symmetry_group_IT_number 2
_symmetry_cell_setting 'triclinic'
loop_
_space_group_symop_operation_xyz
x,y,z
-x,-y,-z
loop_
_atom_site_type_symbol
_atom_site_label
_atom_site_fract_x
_atom_site_fract_y
_atom_site_fract_z
Si Si1 0.304865 0.713324 0.669709
Si Si2 0.445722 0.671801 0.498986
Si Si3 0.967394 0.302572 0.926536
Si Si4 0.747298 0.300694 0.607546
Si Si5 0.009536 0.873340 0.872968
Si Si6 0.271569 0.188900 0.976759
Si Si7 0.857860 0.787638 0.622830
Si Si8 0.579049 0.752715 0.016724
O O1 0.334947 0.598147 0.641245
O O2 0.326448 0.791644 0.454131
O O3 0.405879 0.996020 0.645091
O O4 0.148580 0.465505 0.951829
O O5 0.395136 0.460127 0.687996
O O6 0.466679 0.628961 0.292026
O O7 0.100808 0.484606 0.642695
O O8 0.000000 0.500000 0.000000
O O9 0.909635 0.086172 0.130794
O O10 0.850462 0.115016 0.958827
O O11 0.760392 0.469444 0.713316
O O12 0.658888 0.018920 0.812035
O O13 0.105662 0.062366 0.584650
O O14 0.000000 0.000000 0.000000
O O15 0.316020 0.150645 0.032468
O O16 0.223268 0.250602 0.139322
O O17 0.000000 0.000000 0.500000
O O18 0.500000 0.500000 0.000000
#
# Coordination Sequence:
#
# PCOD8024813 Si02
#       8
#     2   2   2   2   2   2   2   2
#     4  10  23  43  74 101 134 181 236 287 336 413
#     4  11  26  46  71  97 135 188 241 280 342 411
#     4  11  26  43  72 104 141 186 227 284 360 426
#     4  11  26  46  70 106 140 179 234 288 358 410
#     4  11  21  43  71 105 138 178 225 289 353 405
#     4  12  28  46  72 102 141 187 232 291 351 414
#     4  12  24  43  72 108 143 175 234 291 346 421
#     4  12  31  48  69 100 145 188 232 291 349 422
#
# _framework density 21.914534
#
# number of rings (size 3 to 8) (size 9 to 14) (size 15 to 20)
#    0.000    0.750    3.750    2.625   14.000    1.000 
#    0.000    0.000    0.000    0.000    0.000    0.000 
#    0.000    0.000    0.000    0.000    0.000    0.000 
#
# Total GULP energy -198453.658785 kJ/mol
# GULP energy per Si atom -12403.353674 kJ/mol
# Density = 2.186466 g / cm^3
# Si number density = 21.914534 Si / 1000 Ang^3
#
#
#
# Elastic Constant Matrix: (Units=GPa)
#
#
# Indices 1 2 3 4 5 6 
#
# 1 128.6444 44.5321 24.5213 -9.4937 20.8813 4.3351
# 2 44.5321 157.2455 42.8362 10.1317 12.2991 -1.3312
# 3 24.5213 42.8362 84.7098 -4.4641 25.3248 -4.5427
# 4 -9.4937 10.1317 -4.4641 31.7276 -6.6801 0.6305
# 5 20.8813 12.2991 25.3248 -6.6801 41.9888 -5.6881
# 6 4.3351 -1.3312 -4.5427 0.6305 -5.6881 37.2225
#
#
#
# Elastic Compliance Matrix: (Units=1/GPa)
#
#
# Indices 1 2 3 4 5 6 
#
# 1 0.009580 -0.002536 -0.000363 0.002906 -0.003590 -0.001849
# 2 -0.002536 0.008328 -0.003832 -0.003845 0.000559 0.000276
# 3 -0.000363 -0.003832 0.016439 0.001676 -0.008261 0.000621
# 4 0.002906 -0.003845 0.001676 0.034733 0.004166 -0.000223
# 5 -0.003590 0.000559 -0.008261 0.004166 0.031651 0.004196
# 6 -0.001849 0.000276 0.000621 -0.000223 0.004196 0.027811
#
#
# Mechanical properties :
#
#
# Convention : Reuss Voigt Hill
#
# Bulk Modulus (GPa) = 47.88268 66.04209 56.96239
# Shear Modulus (GPa) = 33.56421 39.43510 36.49965
#
# Velocity S-wave (km/s) = 3.91781 4.24665 4.08554
# Velocity P-wave (km/s) = 6.50867 7.36526 6.95017
#
# Compressibility (1/GPa) = 0.02088438
#
# Stress axis : x y z
#
# Youngs Moduli (GPa) = 104.38306 120.07610 60.82953
#
# Poissons Ratio (x) = 0.30454 0.02210
# Poissons Ratio (y) = 0.26474 0.23310
# Poissons Ratio (z) = 0.03792 0.46014
#
# Static dielectric constant tensor:
#      x y z
#    x 4.118700 -0.019520 -0.136170 
#    y -0.019520 4.281330 0.423690 
#    z -0.136170 0.423690 4.599290 
# 
# 
# High freq. dielectric constant tensor:
#      x y z
#    x 1.877180 0.002130 0.007280 
#    y 0.002130 1.877840 0.000780 
#    z 0.007280 0.000780 1.859260 
# 
# From -- ./inp_files/352236.got.cif
#   From: 2010.06.25/outbox.cif.g09.slc.cpg/sg2_177_cif.got.tgz:352236.got - 2010.06.27 13:26:56.
