data_PCOD8024063
_publ_section_title
;
Structure prediction by ZEFSAII (Michael W. Deem and Ramdas Pophale) SiO2 
 PCOD8024063
Probable space group: P -1
;
_chemical_formula_sum "Si O2"
_cell_formula_units_Z 14
_cell_length_a 6.679408
_cell_length_b 14.286809
_cell_length_c 14.926736
_cell_angle_alpha 150.623225
_cell_angle_beta 63.940397
_cell_angle_gamma 116.491146
_cell_volume 621.215680
_symmetry_space_group_name_H-M "P -1"
_symmetry_group_IT_number 2
_symmetry_cell_setting 'triclinic'
loop_
_space_group_symop_operation_xyz
x,y,z
-x,-y,-z
loop_
_atom_site_type_symbol
_atom_site_label
_atom_site_fract_x
_atom_site_fract_y
_atom_site_fract_z
Si Si1 0.855898 0.157403 0.739786
Si Si2 0.302957 0.327956 0.418741
Si Si3 0.351219 0.135556 0.590402
Si Si4 0.311651 0.579602 0.159232
Si Si5 0.635185 0.101288 0.919205
Si Si6 0.840417 0.804105 0.853519
Si Si7 0.044952 0.604396 0.796076
O O1 0.816365 0.293042 0.776958
O O2 0.733082 0.202663 0.892621
O O3 0.123404 0.169235 0.717572
O O4 0.738478 0.942828 0.554193
O O5 0.500000 0.500000 0.500000
O O6 0.157856 0.267261 0.308298
O O7 0.160247 0.411783 0.595935
O O8 0.384357 0.131060 0.273839
O O9 0.539970 0.322954 0.704337
O O10 0.500000 0.000000 0.500000
O O11 0.121873 0.424881 0.110763
O O12 0.500000 0.500000 0.000000
O O13 0.397142 0.162861 0.034000
O O14 0.787048 0.198647 0.052308
O O15 0.920144 0.633901 0.753196
O O16 0.000000 0.000000 0.000000
#
# Coordination Sequence:
#
# PCOD8024063 Si02
#       7
#     2   2   2   2   2   2   2
#     4  10  23  42  69  98 142 188 222 289 355 416
#     4  12  26  48  75 104 141 181 242 307 352 424
#     4   9  21  40  64  92 140 178 230 281 338 406
#     4  11  24  43  66 104 145 180 236 288 344 435
#     4  12  26  46  73 105 145 187 239 288 371 427
#     4  12  25  49  74 101 143 187 235 305 364 416
#     4  12  27  45  75 106 140 192 238 292 363 426
#
# _framework density 22.536456999999999
#
# number of rings (size 3 to 8) (size 9 to 14) (size 15 to 20)
#    0.000    0.857    2.857    3.429    6.000    6.857 
#    0.000    0.000    0.000    0.000    0.000    0.000 
#    0.000    0.000    0.000    0.000    0.000    0.000 
#
# Total GULP energy -173472.926854 kJ/mol
# GULP energy per Si atom -12390.923347 kJ/mol
# Density = 2.248516 g / cm^3
# Si number density = 22.536457 Si / 1000 Ang^3
#
#
#
# Elastic Constant Matrix: (Units=GPa)
#
#
# Indices 1 2 3 4 5 6 
#
# 1 118.0901 21.6870 20.5080 3.2702 2.9189 19.4966
# 2 21.6870 56.8383 6.1101 -8.8670 10.8428 10.7076
# 3 20.5080 6.1101 93.4000 1.3163 0.2817 15.6509
# 4 3.2702 -8.8670 1.3163 40.1282 7.8726 -2.0312
# 5 2.9189 10.8428 0.2817 7.8726 39.8488 -3.6231
# 6 19.4966 10.7076 15.6509 -2.0312 -3.6231 37.6533
#
#
#
# Elastic Compliance Matrix: (Units=1/GPa)
#
#
# Indices 1 2 3 4 5 6 
#
# 1 0.009958 -0.003245 -0.001320 -0.001707 0.000158 -0.003761
# 2 -0.003245 0.022209 0.000035 0.006393 -0.007526 -0.005029
# 3 -0.001320 0.000035 0.011713 -0.000425 -0.000298 -0.004246
# 4 -0.001707 0.006393 -0.000425 0.027885 -0.007115 0.000062
# 5 0.000158 -0.007526 -0.000298 -0.007115 0.028955 0.004584
# 6 -0.003761 -0.005029 -0.004246 0.000062 0.004584 0.032145
#
#
# Mechanical properties :
#
#
# Convention : Reuss Voigt Hill
#
# Bulk Modulus (GPa) = 28.72098 40.54871 34.63485
# Shear Modulus (GPa) = 32.56660 38.19429 35.38044
#
# Velocity S-wave (km/s) = 3.80552 4.12123 3.96652
# Velocity P-wave (km/s) = 5.66403 6.37790 6.03154
#
# Compressibility (1/GPa) = 0.03481775
#
# Stress axis : x y z
#
# Youngs Moduli (GPa) = 100.42455 45.02764 85.37743
#
# Poissons Ratio (x) = 0.14613 0.11272
# Poissons Ratio (y) = 0.32592 -0.00299
# Poissons Ratio (z) = 0.13259 -0.00158
#
# Static dielectric constant tensor:
#      x y z
#    x 4.884610 0.157010 0.706880 
#    y 0.157010 3.785270 0.151210 
#    z 0.706880 0.151210 4.788380 
# 
# 
# High freq. dielectric constant tensor:
#      x y z
#    x 1.905290 0.008140 0.005130 
#    y 0.008140 1.874010 0.000170 
#    z 0.005130 0.000170 1.902810 
# 
# From -- ./inp_files/98495.got.cif
#   From: 2010.06.25/outbox.cif.g09.slc.cpg/sg2_50_cif.got.tgz:98495.got - 2010.06.27 13:26:56.
