data_PCOD8024363
_publ_section_title
;
Structure prediction by ZEFSAII (Michael W. Deem and Ramdas Pophale) SiO2 
 PCOD8024363
Probable space group: P -1
;
_chemical_formula_sum "Si O2"
_cell_formula_units_Z 16
_cell_length_a 21.941705
_cell_length_b 13.502343
_cell_length_c 24.228719
_cell_angle_alpha 149.315787
_cell_angle_beta 11.298319
_cell_angle_gamma 148.816951
_cell_volume 712.296323
_symmetry_space_group_name_H-M "P -1"
_symmetry_group_IT_number 2
_symmetry_cell_setting 'triclinic'
loop_
_space_group_symop_operation_xyz
x,y,z
-x,-y,-z
loop_
_atom_site_type_symbol
_atom_site_label
_atom_site_fract_x
_atom_site_fract_y
_atom_site_fract_z
Si Si1 0.696929 0.241121 0.175423
Si Si2 0.205545 0.104675 0.414997
Si Si3 0.208668 0.535695 0.589196
Si Si4 0.216813 0.090950 0.215795
Si Si5 0.478336 0.494073 0.216480
Si Si6 0.581814 0.620382 0.401354
Si Si7 0.350269 0.526502 0.222890
Si Si8 0.412290 0.806829 0.210103
O O1 0.560371 0.387419 0.322770
O O2 0.570664 0.269338 0.361763
O O3 0.598504 0.019837 0.138036
O O4 0.066975 0.281662 0.868649
O O5 0.305576 0.324109 0.414113
O O6 0.000000 0.000000 0.500000
O O7 0.992263 0.081377 0.647916
O O8 0.522056 0.004064 0.096335
O O9 0.307905 0.593166 0.465722
O O10 0.404002 0.666622 0.524920
O O11 0.845400 0.549304 0.926338
O O12 0.386894 0.258785 0.185752
O O13 0.966214 0.187935 0.446709
O O14 0.376250 0.581330 0.290699
O O15 0.526239 0.705724 0.116192
O O16 0.000000 0.500000 0.500000
O O17 0.517109 0.329242 0.970421
#
# Coordination Sequence:
#
# PCOD8024363 Si02
#       8
#     2   2   2   2   2   2   2   2
#     4  10  23  44  70  96 132 169 226 282 324 383
#     4  12  22  35  54  89 130 174 210 248 312 409
#     4  12  24  39  63  89 135 179 212 266 333 387
#     4  12  22  37  57  91 131 166 215 254 325 407
#     4  12  23  39  60  90 132 174 211 267 329 397
#     4  10  23  43  66 100 129 174 227 265 326 398
#     4  11  25  43  67 100 131 171 230 274 341 411
#     4  11  25  42  69  98 131 173 218 291 340 384
#
# _framework density 22.462561000000001
#
# number of rings (size 3 to 8) (size 9 to 14) (size 15 to 20)
#    0.000    0.750    3.750    4.125    3.500    3.000 
#    0.000    0.000    0.000    4.500    0.000    0.000 
#    0.000    0.000    0.000    0.000    0.000    0.000 
#
# Total GULP energy -198412.388229 kJ/mol
# GULP energy per Si atom -12400.774264 kJ/mol
# Density = 2.241144 g / cm^3
# Si number density = 22.462561 Si / 1000 Ang^3
#
#
#
# Elastic Constant Matrix: (Units=GPa)
#
#
# Indices 1 2 3 4 5 6 
#
# 1 146.9245 23.9614 33.0510 -11.4960 0.0719 0.9370
# 2 23.9614 70.1330 25.8966 -1.6990 -1.5565 -0.7929
# 3 33.0510 25.8966 126.3627 -14.4494 1.1524 2.3210
# 4 -11.4960 -1.6990 -14.4494 25.5913 -2.8547 -4.5060
# 5 0.0719 -1.5565 1.1524 -2.8547 40.6742 -2.5152
# 6 0.9370 -0.7929 2.3210 -4.5060 -2.5152 20.8979
#
#
#
# Elastic Compliance Matrix: (Units=1/GPa)
#
#
# Indices 1 2 3 4 5 6 
#
# 1 0.007635 -0.002066 -0.001279 0.002642 0.000148 0.000309
# 2 -0.002066 0.016033 -0.002914 -0.001290 0.000660 0.000826
# 3 -0.001279 -0.002914 0.009362 0.004487 -0.000068 -0.000134
# 4 0.002642 -0.001290 0.004487 0.044763 0.003543 0.009412
# 5 0.000148 0.000660 -0.000068 0.003543 0.025097 0.003810
# 6 0.000309 0.000826 -0.000134 0.009412 0.003810 0.050372
#
#
# Mechanical properties :
#
#
# Convention : Reuss Voigt Hill
#
# Bulk Modulus (GPa) = 48.74987 56.58202 52.66594
# Shear Modulus (GPa) = 28.96590 34.80008 31.88299
#
# Velocity S-wave (km/s) = 3.59488 3.94032 3.77156
# Velocity P-wave (km/s) = 6.24346 6.77832 6.51638
#
# Compressibility (1/GPa) = 0.02051288
#
# Stress axis : x y z
#
# Youngs Moduli (GPa) = 130.96865 62.37052 106.82000
#
# Poissons Ratio (x) = 0.12884 0.13659
# Poissons Ratio (y) = 0.27055 0.31129
# Poissons Ratio (z) = 0.16747 0.18176
#
# Static dielectric constant tensor:
#      x y z
#    x 4.153920 -0.455590 -0.063600 
#    y -0.455590 3.759180 -0.188160 
#    z -0.063600 -0.188160 4.078140 
# 
# 
# High freq. dielectric constant tensor:
#      x y z
#    x 1.900130 -0.011760 0.004980 
#    y -0.011760 1.847590 -0.016980 
#    z 0.004980 -0.016980 1.897160 
# 
# From -- ./inp_files/620972.got.cif
#   From: 2010.06.25/outbox.cif.g09.slc.cpg/sg2_311_cif.got.tgz:620972.got - 2010.06.27 13:26:56.
