data_PCOD8024293
_publ_section_title
;
Structure prediction by ZEFSAII (Michael W. Deem and Ramdas Pophale) SiO2 
 PCOD8024293
Probable space group: P -1
;
_chemical_formula_sum "Si O2"
_cell_formula_units_Z 12
_cell_length_a 9.407732
_cell_length_b 5.034692
_cell_length_c 15.517342
_cell_angle_alpha 119.441258
_cell_angle_beta 43.617170
_cell_angle_gamma 100.478815
_cell_volume 422.618323
_symmetry_space_group_name_H-M "P -1"
_symmetry_group_IT_number 2
_symmetry_cell_setting 'triclinic'
loop_
_space_group_symop_operation_xyz
x,y,z
-x,-y,-z
loop_
_atom_site_type_symbol
_atom_site_label
_atom_site_fract_x
_atom_site_fract_y
_atom_site_fract_z
Si Si1 0.241808 0.853644 0.263829
Si Si2 0.357660 0.924179 0.857033
Si Si3 0.678014 0.614969 0.488562
Si Si4 0.229942 0.739931 0.439614
Si Si5 0.785143 0.670984 0.170336
Si Si6 0.038062 0.462657 0.184116
O O1 0.439393 0.991183 0.177303
O O2 0.276795 0.647557 0.304073
O O3 0.220314 0.628169 0.157485
O O4 0.026205 0.146232 0.415058
O O5 0.330468 0.999500 0.776910
O O6 0.376418 0.551458 0.801643
O O7 0.144436 0.133783 0.034679
O O8 0.500000 0.500000 0.500000
O O9 0.673796 0.561829 0.586235
O O10 0.910867 0.404188 0.315759
O O11 0.656653 0.986812 0.540615
O O12 0.854314 0.707924 0.244151
O O13 0.000000 0.500000 0.000000
#
# Coordination Sequence:
#
# PCOD8024293 Si02
#       6
#     2   2   2   2   2   2
#     4  10  24  44  71  97 140 175 221 272 334 403
#     4  11  24  42  70  98 133 176 220 274 334 393
#     4  11  25  43  69  96 132 175 227 275 325 396
#     4  10  25  45  65  98 134 178 218 275 330 389
#     4  10  23  43  64  97 137 174 216 274 330 390
#     4  10  23  43  66 100 133 173 224 275 331 392
#
# _framework density 28.394417000000001
#
# number of rings (size 3 to 8) (size 9 to 14) (size 15 to 20)
#    0.000    1.667    0.000    3.000    4.667   16.667 
#    0.000    5.000    0.000    0.000    0.000    0.000 
#    0.000    0.000    0.000    0.000    0.000    0.000 
#
# Total GULP energy -148860.734989 kJ/mol
# GULP energy per Si atom -12405.061249 kJ/mol
# Density = 2.832979 g / cm^3
# Si number density = 28.394417 Si / 1000 Ang^3
#
#
#
# Elastic Constant Matrix: (Units=GPa)
#
#
# Indices 1 2 3 4 5 6 
#
# 1 177.1715 70.7532 8.9451 2.7278 9.7216 12.8810
# 2 70.7532 159.3753 29.8730 4.7039 -4.9727 -12.3426
# 3 8.9451 29.8730 67.0820 -4.3657 13.3507 4.5637
# 4 2.7278 4.7039 -4.3657 45.1308 6.7196 -11.8826
# 5 9.7216 -4.9727 13.3507 6.7196 46.5810 -1.3405
# 6 12.8810 -12.3426 4.5637 -11.8826 -1.3405 55.9488
#
#
#
# Elastic Compliance Matrix: (Units=1/GPa)
#
#
# Indices 1 2 3 4 5 6 
#
# 1 0.007450 -0.003846 0.001367 -0.000297 -0.002395 -0.002796
# 2 -0.003846 0.009200 -0.004508 -0.000812 0.003286 0.003189
# 3 0.001367 -0.004508 0.018344 0.002482 -0.006452 -0.002433
# 4 -0.000297 -0.000812 0.002482 0.024367 -0.004114 0.004763
# 5 -0.002395 0.003286 -0.006452 -0.004114 0.024805 0.001523
# 6 -0.002796 0.003189 -0.002433 0.004763 0.001523 0.020467
#
#
# Mechanical properties :
#
#
# Convention : Reuss Voigt Hill
#
# Bulk Modulus (GPa) = 47.57474 69.19682 58.38578
# Shear Modulus (GPa) = 39.80404 49.13597 44.47000
#
# Velocity S-wave (km/s) = 3.74816 4.16442 3.96176
# Velocity P-wave (km/s) = 5.96011 6.89536 6.44472
#
# Compressibility (1/GPa) = 0.02101956
#
# Stress axis : x y z
#
# Youngs Moduli (GPa) = 134.21979 108.69028 54.51516
#
# Poissons Ratio (x) = 0.41805 -0.07451
# Poissons Ratio (y) = 0.51624 0.24576
# Poissons Ratio (z) = -0.18346 0.48998
#
# Static dielectric constant tensor:
#      x y z
#    x 6.165450 -0.233940 -0.157270 
#    y -0.233940 5.157480 -0.294090 
#    z -0.157270 -0.294090 5.608080 
# 
# 
# High freq. dielectric constant tensor:
#      x y z
#    x 2.167090 0.010510 -0.020220 
#    y 0.010510 2.140260 -0.013130 
#    z -0.020220 -0.013130 2.176120 
# 
# From -- ./inp_files/134567.got.cif
#   From: 2010.06.25/outbox.cif.g09.slc.cpg/sg2_68_cif.got.tgz:134567.got - 2010.06.27 13:26:56.
