data_PCOD8024470
_publ_section_title
;
Structure prediction by ZEFSAII (Michael W. Deem and Ramdas Pophale) SiO2 
 PCOD8024470
Probable space group: P -1
;
_chemical_formula_sum "Si O2"
_cell_formula_units_Z 16
_cell_length_a 9.688230
_cell_length_b 14.603291
_cell_length_c 13.975306
_cell_angle_alpha 137.304407
_cell_angle_beta 99.018330
_cell_angle_gamma 47.604102
_cell_volume 729.155657
_symmetry_space_group_name_H-M "P -1"
_symmetry_group_IT_number 2
_symmetry_cell_setting 'triclinic'
loop_
_space_group_symop_operation_xyz
x,y,z
-x,-y,-z
loop_
_atom_site_type_symbol
_atom_site_label
_atom_site_fract_x
_atom_site_fract_y
_atom_site_fract_z
Si Si1 0.239534 0.528270 0.468801
Si Si2 0.798132 0.542500 0.018355
Si Si3 0.490564 0.165836 0.610262
Si Si4 0.730821 0.509468 0.337393
Si Si5 0.477198 0.611136 0.780015
Si Si6 0.699409 0.017415 0.823494
Si Si7 0.025911 0.821723 0.380475
Si Si8 0.244507 0.224085 0.200174
O O1 0.339493 0.422684 0.506270
O O2 0.469017 0.414390 0.347456
O O3 0.167788 0.441156 0.350141
O O4 0.976217 0.825906 0.660534
O O5 0.718998 0.592023 0.159061
O O6 0.534794 0.788679 0.125016
O O7 0.921868 0.304097 0.809334
O O8 0.000000 0.500000 0.000000
O O9 0.440985 0.250435 0.560145
O O10 0.500000 0.000000 0.500000
O O11 0.771023 0.983872 0.529943
O O12 0.678511 0.396990 0.215797
O O13 0.022664 0.311836 0.196898
O O14 0.752892 0.389344 0.685422
O O15 0.322843 0.860956 0.997051
O O16 0.713331 0.855885 0.746520
O O17 0.000000 0.000000 0.500000
O O18 0.500000 0.000000 0.000000
#
# Coordination Sequence:
#
# PCOD8024470 Si02
#       8
#     2   2   2   2   2   2   2   2
#     4  11  24  44  71  96 132 181 220 278 344 390
#     4  11  25  41  71 103 132 182 233 278 341 405
#     4  12  26  44  71 101 140 179 229 288 332 409
#     4  11  26  44  66 103 135 172 233 268 335 414
#     4  11  23  46  69  99 138 175 219 280 338 408
#     4  10  23  43  67  98 136 170 228 277 335 405
#     4  11  24  47  69 102 143 178 225 283 350 407
#     4  11  24  42  68  97 132 175 222 284 332 392
#
# _framework density 21.943187999999999
#
# number of rings (size 3 to 8) (size 9 to 14) (size 15 to 20)
#    0.000    1.000    3.750    2.625    7.000    2.500 
#    4.500    0.000    0.000    0.000    0.000    0.000 
#    0.000    0.000    0.000    0.000    0.000    0.000 
#
# Total GULP energy -198354.028131 kJ/mol
# GULP energy per Si atom -12397.126758 kJ/mol
# Density = 2.189324 g / cm^3
# Si number density = 21.943188 Si / 1000 Ang^3
#
#
#
# Elastic Constant Matrix: (Units=GPa)
#
#
# Indices 1 2 3 4 5 6 
#
# 1 134.6543 29.5783 47.7377 1.6424 1.4048 -1.4785
# 2 29.5783 89.8259 27.1648 -0.5087 2.7943 -0.5594
# 3 47.7377 27.1648 137.0884 -7.1300 -2.7109 -0.0143
# 4 1.6424 -0.5087 -7.1300 32.0132 3.1905 0.0474
# 5 1.4048 2.7943 -2.7109 3.1905 37.4620 5.4972
# 6 -1.4785 -0.5594 -0.0143 0.0474 5.4972 31.8322
#
#
#
# Elastic Compliance Matrix: (Units=1/GPa)
#
#
# Indices 1 2 3 4 5 6 
#
# 1 0.008878 -0.002087 -0.002740 -0.001065 -0.000349 0.000436
# 2 -0.002087 0.012381 -0.001746 0.000016 -0.001016 0.000295
# 3 -0.002740 -0.001746 0.008712 0.001980 0.000736 -0.000284
# 4 -0.001065 0.000016 0.001980 0.031991 -0.002594 0.000352
# 5 -0.000349 -0.001016 0.000736 -0.002594 0.027765 -0.004825
# 6 0.000436 0.000295 -0.000284 0.000352 -0.004825 0.032273
#
#
# Mechanical properties :
#
#
# Convention : Reuss Voigt Hill
#
# Bulk Modulus (GPa) = 59.43488 63.39224 61.41356
# Shear Modulus (GPa) = 35.52282 37.40066 36.46174
#
# Velocity S-wave (km/s) = 4.02786 4.13296 4.08075
# Velocity P-wave (km/s) = 6.98399 7.19215 7.08884
#
# Compressibility (1/GPa) = 0.01682514
#
# Stress axis : x y z
#
# Youngs Moduli (GPa) = 112.64142 80.76604 114.78116
#
# Poissons Ratio (x) = 0.16857 0.31451
# Poissons Ratio (y) = 0.23510 0.20040
# Poissons Ratio (z) = 0.30865 0.14101
#
# Static dielectric constant tensor:
#      x y z
#    x 3.805830 -0.271370 -0.185200 
#    y -0.271370 3.822060 -0.235020 
#    z -0.185200 -0.235020 4.174080 
# 
# 
# High freq. dielectric constant tensor:
#      x y z
#    x 1.870870 -0.003880 -0.005700 
#    y -0.003880 1.855580 0.003590 
#    z -0.005700 0.003590 1.870700 
# 
# From -- ./inp_files/505598.got.cif
#   From: 2010.06.25/outbox.cif.g09.slc.cpg/sg2_253_cif.got.tgz:505598.got - 2010.06.27 13:26:56.
