data_PCOD8024686
_publ_section_title
;
Structure prediction by ZEFSAII (Michael W. Deem and Ramdas Pophale) SiO2 
 PCOD8024686
Probable space group: P -1
;
_chemical_formula_sum "Si O2"
_cell_formula_units_Z 14
_cell_length_a 8.835470
_cell_length_b 11.921283
_cell_length_c 12.135888
_cell_angle_alpha 135.478636
_cell_angle_beta 120.379403
_cell_angle_gamma 48.551154
_cell_volume 670.427432
_symmetry_space_group_name_H-M "P -1"
_symmetry_group_IT_number 2
_symmetry_cell_setting 'triclinic'
loop_
_space_group_symop_operation_xyz
x,y,z
-x,-y,-z
loop_
_atom_site_type_symbol
_atom_site_label
_atom_site_fract_x
_atom_site_fract_y
_atom_site_fract_z
Si Si1 0.442124 0.853922 0.914328
Si Si2 0.836035 0.165029 0.629107
Si Si3 0.441717 0.339756 0.726439
Si Si4 0.951107 0.646716 0.489113
Si Si5 0.012937 0.999448 0.205264
Si Si6 0.368159 0.733369 0.018059
Si Si7 0.316100 0.511875 0.369779
O O1 0.614828 0.677685 0.795848
O O2 0.224529 0.893819 0.822676
O O3 0.449069 0.831617 0.033068
O O4 0.500000 0.000000 0.000000
O O5 0.614242 0.194570 0.603342
O O6 0.779352 0.344143 0.663885
O O7 0.942999 0.134046 0.765690
O O8 0.000000 0.000000 0.500000
O O9 0.503987 0.297691 0.846871
O O10 0.248928 0.317143 0.622493
O O11 0.394794 0.550039 0.838182
O O12 0.139336 0.545086 0.408376
O O13 0.000000 0.500000 0.500000
O O14 0.917999 0.846671 0.650946
O O15 0.130720 0.867646 0.052912
O O16 0.500000 0.500000 0.500000
#
# Coordination Sequence:
#
# PCOD8024686 Si02
#       7
#     2   2   2   2   2   2   2
#     4  12  26  44  67  99 135 177 223 273 335 402
#     4  11  21  44  69  96 132 172 218 283 332 383
#     4  10  23  43  70  96 131 177 224 267 337 395
#     4  12  25  41  68 100 132 177 224 273 331 400
#     4  11  25  44  67  98 134 175 224 276 333 391
#     4  10  23  45  66  93 136 176 215 273 331 402
#     4  12  24  46  68  96 136 178 221 280 336 387
#
# _framework density 20.882199
#
# number of rings (size 3 to 8) (size 9 to 14) (size 15 to 20)
#    0.000    0.857    4.286    2.143    4.000    3.429 
#    2.571    1.429    0.000    0.000    0.000    0.000 
#    0.000    0.000    0.000    0.000    0.000    0.000 
#
# Total GULP energy -173450.346700 kJ/mol
# GULP energy per Si atom -12389.310479 kJ/mol
# Density = 2.083467 g / cm^3
# Si number density = 20.882199 Si / 1000 Ang^3
#
#
#
# Elastic Constant Matrix: (Units=GPa)
#
#
# Indices 1 2 3 4 5 6 
#
# 1 165.2900 54.5578 67.4078 4.9960 -13.3809 -6.2172
# 2 54.5578 119.4805 47.3668 16.0800 4.6170 13.2182
# 3 67.4078 47.3668 97.5462 18.1042 -6.2555 -5.2204
# 4 4.9960 16.0800 18.1042 29.6613 -7.7478 -5.6833
# 5 -13.3809 4.6170 -6.2555 -7.7478 45.6765 3.2081
# 6 -6.2172 13.2182 -5.2204 -5.6833 3.2081 55.4721
#
#
#
# Elastic Compliance Matrix: (Units=1/GPa)
#
#
# Indices 1 2 3 4 5 6 
#
# 1 0.009524 -0.002987 -0.005706 0.004570 0.002978 0.001538
# 2 -0.002987 0.012396 -0.003298 -0.005830 -0.003287 -0.004006
# 3 -0.005706 -0.003298 0.017253 -0.007680 -0.000348 0.001003
# 4 0.004570 -0.005830 -0.007680 0.043868 0.007951 0.005213
# 5 0.002978 -0.003287 -0.000348 0.007951 0.024364 0.000490
# 6 0.001538 -0.004006 0.001003 0.005213 0.000490 0.019754
#
#
# Mechanical properties :
#
#
# Convention : Reuss Voigt Hill
#
# Bulk Modulus (GPa) = 65.83137 80.10904 72.97021
# Shear Modulus (GPa) = 32.00937 40.36093 36.18515
#
# Velocity S-wave (km/s) = 3.91942 4.40112 4.16723
# Velocity P-wave (km/s) = 7.21637 8.01699 7.62719
#
# Compressibility (1/GPa) = 0.01519033
#
# Stress axis : x y z
#
# Youngs Moduli (GPa) = 105.00318 80.67125 57.96225
#
# Poissons Ratio (x) = 0.24097 0.33071
# Poissons Ratio (y) = 0.31366 0.19117
# Poissons Ratio (z) = 0.59910 0.26607
#
# Static dielectric constant tensor:
#      x y z
#    x 4.102910 0.054890 -0.414530 
#    y 0.054890 4.351620 0.012350 
#    z -0.414530 0.012350 3.711480 
# 
# 
# High freq. dielectric constant tensor:
#      x y z
#    x 1.830500 -0.001920 -0.029260 
#    y -0.001920 1.848970 0.004650 
#    z -0.029260 0.004650 1.801410 
# 
# From -- ./inp_files/153876.got.cif
#   From: 2010.06.25/outbox.cif.g09.slc.cpg/sg2_77_cif.got.tgz:153876.got - 2010.06.27 13:26:56.
