data_PCOD8024505
_publ_section_title
;
Structure prediction by ZEFSAII (Michael W. Deem and Ramdas Pophale) SiO2 
 PCOD8024505
Probable space group: P -1
;
_chemical_formula_sum "Si O2"
_cell_formula_units_Z 16
_cell_length_a 17.122086
_cell_length_b 11.687908
_cell_length_c 19.946282
_cell_angle_alpha 151.060445
_cell_angle_beta 159.350900
_cell_angle_gamma 30.399252
_cell_volume 658.518222
_symmetry_space_group_name_H-M "P -1"
_symmetry_group_IT_number 2
_symmetry_cell_setting 'triclinic'
loop_
_space_group_symop_operation_xyz
x,y,z
-x,-y,-z
loop_
_atom_site_type_symbol
_atom_site_label
_atom_site_fract_x
_atom_site_fract_y
_atom_site_fract_z
Si Si1 0.615068 0.259919 0.655627
Si Si2 0.744024 0.716725 0.514610
Si Si3 0.322562 0.016228 0.924584
Si Si4 0.077144 0.838568 0.414112
Si Si5 0.789979 0.213862 0.044415
Si Si6 0.414304 0.366817 0.280343
Si Si7 0.907881 0.667046 0.875487
Si Si8 0.371309 0.591381 0.840992
O O1 0.427836 0.379446 0.623305
O O2 0.541504 0.379960 0.584494
O O3 0.624168 0.974671 0.515859
O O4 0.861327 0.301045 0.890271
O O5 0.801866 0.528322 0.401930
O O6 0.963705 0.732934 0.743434
O O7 0.072680 0.021329 0.696631
O O8 0.430655 0.796143 0.947744
O O9 0.288592 0.265386 0.066844
O O10 0.500000 0.000000 0.000000
O O11 0.342791 0.821845 0.604265
O O12 0.038547 0.562997 0.250799
O O13 0.000000 0.000000 0.500000
O O14 0.743020 0.274263 0.115788
O O15 0.605344 0.386111 0.937092
O O16 0.790283 0.932139 0.883930
O O17 0.259620 0.410806 0.244448
#
# Coordination Sequence:
#
# PCOD8024505 Si02
#       8
#     2   2   2   2   2   2   2   2
#     4  10  23  44  71 101 145 186 241 296 363 430
#     4  10  23  43  68 106 140 194 237 295 360 432
#     4  12  25  46  73 108 150 192 236 305 371 425
#     4  12  28  43  71 108 145 191 241 300 361 436
#     4  10  24  47  71 108 144 190 245 298 360 438
#     4  12  24  46  74 107 144 191 243 302 368 435
#     4  11  24  49  73 106 148 191 242 303 368 433
#     4  11  24  44  74 105 147 191 241 301 362 433
#
# _framework density 24.296972
#
# number of rings (size 3 to 8) (size 9 to 14) (size 15 to 20)
#    0.000    1.000    3.750    1.875    1.750    2.000 
#    2.250    1.875    0.000    0.000    0.000    0.000 
#    0.000    0.000    0.000    0.000    0.000    0.000 
#
# Total GULP energy -198381.210007 kJ/mol
# GULP energy per Si atom -12398.825625 kJ/mol
# Density = 2.424167 g / cm^3
# Si number density = 24.296972 Si / 1000 Ang^3
#
#
#
# Elastic Constant Matrix: (Units=GPa)
#
#
# Indices 1 2 3 4 5 6 
#
# 1 95.6755 50.0135 33.5952 0.2275 18.5091 6.9494
# 2 50.0135 129.1587 27.1705 3.1547 9.0253 11.1621
# 3 33.5952 27.1705 73.1328 -6.7381 11.3803 1.3118
# 4 0.2275 3.1547 -6.7381 45.3119 -9.5748 -5.2393
# 5 18.5091 9.0253 11.3803 -9.5748 40.5326 5.8287
# 6 6.9494 11.1621 1.3118 -5.2393 5.8287 43.0036
#
#
#
# Elastic Compliance Matrix: (Units=1/GPa)
#
#
# Indices 1 2 3 4 5 6 
#
# 1 0.015547 -0.004559 -0.004804 -0.001616 -0.005017 -0.000699
# 2 -0.004559 0.010053 -0.001762 -0.001093 0.000368 -0.002002
# 3 -0.004804 -0.001762 0.017017 0.002443 -0.001795 0.001256
# 4 -0.001616 -0.001093 0.002443 0.024002 0.005586 0.002637
# 5 -0.005017 0.000368 -0.001795 0.005586 0.029062 -0.002489
# 6 -0.000699 -0.002002 0.001256 0.002637 -0.002489 0.024507
#
#
# Mechanical properties :
#
#
# Convention : Reuss Voigt Hill
#
# Bulk Modulus (GPa) = 49.10120 57.72506 53.41313
# Shear Modulus (GPa) = 33.50589 38.24881 35.87735
#
# Velocity S-wave (km/s) = 3.71754 3.97195 3.84685
# Velocity P-wave (km/s) = 6.21928 6.69663 6.46236
#
# Compressibility (1/GPa) = 0.02036610
#
# Stress axis : x y z
#
# Youngs Moduli (GPa) = 64.31988 99.47681 58.76408
#
# Poissons Ratio (x) = 0.45354 0.28229
# Poissons Ratio (y) = 0.29325 0.10357
# Poissons Ratio (z) = 0.30898 0.17532
#
# Static dielectric constant tensor:
#      x y z
#    x 4.131140 -0.101980 -0.039080 
#    y -0.101980 4.628070 0.085790 
#    z -0.039080 0.085790 4.534450 
# 
# 
# High freq. dielectric constant tensor:
#      x y z
#    x 1.949370 -0.005310 -0.005360 
#    y -0.005310 1.979950 -0.000200 
#    z -0.005360 -0.000200 1.975560 
# 
# From -- ./inp_files/600137.got.cif
#   From: 2010.06.25/outbox.cif.g09.slc.cpg/sg2_301_cif.got.tgz:600137.got - 2010.06.27 13:26:56.
