data_PCOD8024449
_publ_section_title
;
Structure prediction by ZEFSAII (Michael W. Deem and Ramdas Pophale) SiO2 
 PCOD8024449
Probable space group: P -1
;
_chemical_formula_sum "Si O2"
_cell_formula_units_Z 14
_cell_length_a 9.075008
_cell_length_b 17.663672
_cell_length_c 8.923601
_cell_angle_alpha 147.387858
_cell_angle_beta 117.530834
_cell_angle_gamma 72.136132
_cell_volume 673.347026
_symmetry_space_group_name_H-M "P -1"
_symmetry_group_IT_number 2
_symmetry_cell_setting 'triclinic'
loop_
_space_group_symop_operation_xyz
x,y,z
-x,-y,-z
loop_
_atom_site_type_symbol
_atom_site_label
_atom_site_fract_x
_atom_site_fract_y
_atom_site_fract_z
Si Si1 0.468950 0.059677 0.248088
Si Si2 0.564006 0.649639 0.850799
Si Si3 0.921724 0.806264 0.271411
Si Si4 0.198083 0.901624 0.340152
Si Si5 0.020501 0.354065 0.687163
Si Si6 0.279844 0.808280 0.905443
Si Si7 0.395050 0.360995 0.796259
O O1 0.632024 0.051762 0.410525
O O2 0.429134 0.220112 0.489012
O O3 0.500000 0.000000 0.000000
O O4 0.308296 0.958984 0.081805
O O5 0.500000 0.500000 0.500000
O O6 0.459579 0.757879 0.904654
O O7 0.757390 0.692615 0.963423
O O8 0.546169 0.648543 0.020424
O O9 0.991102 0.772320 0.408915
O O10 0.064412 0.794715 0.197068
O O11 0.880069 0.963340 0.522624
O O12 0.229169 0.817878 0.068324
O O13 0.197563 0.372036 0.711494
O O14 0.864411 0.309818 0.429581
O O15 0.000000 0.500000 0.000000
O O16 0.500000 0.500000 0.000000
#
# Coordination Sequence:
#
# PCOD8024449 Si02
#       7
#     2   2   2   2   2   2   2
#     4  12  26  43  73 103 142 184 231 293 345 410
#     4  11  23  43  68  96 137 186 224 282 342 414
#     4  10  23  43  67  95 139 172 228 274 352 406
#     4  11  23  42  71 100 130 173 229 296 331 410
#     4  11  26  45  67 100 144 183 223 287 350 417
#     4  12  23  43  72  98 136 175 237 283 346 396
#     4  11  27  46  69 102 142 183 233 281 348 418
#
# _framework density 20.791657000000001
#
# number of rings (size 3 to 8) (size 9 to 14) (size 15 to 20)
#    0.000    0.857    2.857    4.714    6.000    5.714 
#    0.000    2.143    0.000    0.000    0.000    0.000 
#    0.000    0.000    0.000    0.000    0.000    0.000 
#
# Total GULP energy -173647.043332 kJ/mol
# GULP energy per Si atom -12403.360238 kJ/mol
# Density = 2.074433 g / cm^3
# Si number density = 20.791657 Si / 1000 Ang^3
#
#
#
# Elastic Constant Matrix: (Units=GPa)
#
#
# Indices 1 2 3 4 5 6 
#
# 1 134.4772 44.7199 65.3232 -2.1863 5.3161 14.7232
# 2 44.7199 81.4583 43.2519 -3.4507 9.8575 1.5689
# 3 65.3232 43.2519 151.2196 -12.2207 -1.6656 8.1158
# 4 -2.1863 -3.4507 -12.2207 45.3355 -1.2481 3.5284
# 5 5.3161 9.8575 -1.6656 -1.2481 40.0721 5.7612
# 6 14.7232 1.5689 8.1158 3.5284 5.7612 37.4480
#
#
#
# Elastic Compliance Matrix: (Units=1/GPa)
#
#
# Indices 1 2 3 4 5 6 
#
# 1 0.010776 -0.004081 -0.003349 -0.000441 -0.000107 -0.003282
# 2 -0.004081 0.016635 -0.003164 -0.000066 -0.004003 0.002215
# 3 -0.003349 -0.003164 0.009219 0.002214 0.001824 -0.001038
# 4 -0.000441 -0.000066 0.002214 0.022869 0.001260 -0.002652
# 5 -0.000107 -0.004003 0.001824 0.001260 0.026703 -0.004413
# 6 -0.003282 0.002215 -0.001038 -0.002652 -0.004413 0.029055
#
#
# Mechanical properties :
#
#
# Convention : Reuss Voigt Hill
#
# Bulk Modulus (GPa) = 64.74681 74.86058 69.80370
# Shear Modulus (GPa) = 35.31281 38.82846 37.07063
#
# Velocity S-wave (km/s) = 4.12565 4.32615 4.22709
# Velocity P-wave (km/s) = 7.34187 7.81264 7.58091
#
# Compressibility (1/GPa) = 0.01544478
#
# Stress axis : x y z
#
# Youngs Moduli (GPa) = 92.79726 60.11386 108.47197
#
# Poissons Ratio (x) = 0.24530 0.36323
# Poissons Ratio (y) = 0.37866 0.34316
# Poissons Ratio (z) = 0.31074 0.19018
#
# Static dielectric constant tensor:
#      x y z
#    x 5.766250 -0.326410 0.230070 
#    y -0.326410 3.901070 0.003700 
#    z 0.230070 0.003700 3.705500 
# 
# 
# High freq. dielectric constant tensor:
#      x y z
#    x 1.826410 -0.002740 0.006250 
#    y -0.002740 1.822340 0.002760 
#    z 0.006250 0.002760 1.817480 
# 
# From -- ./inp_files/156629.got.cif
#   From: 2010.06.25/outbox.cif.g09.slc.cpg/sg2_79_cif.got.tgz:156629.got - 2010.06.27 13:26:56.
