data_PCOD8024476
_publ_section_title
;
Structure prediction by ZEFSAII (Michael W. Deem and Ramdas Pophale) SiO2 
 PCOD8024476
Probable space group: P -1
;
_chemical_formula_sum "Si O2"
_cell_formula_units_Z 16
_cell_length_a 14.190773
_cell_length_b 6.756311
_cell_length_c 8.501739
_cell_angle_alpha 103.647485
_cell_angle_beta 88.339548
_cell_angle_gamma 113.023911
_cell_volume 727.182521
_symmetry_space_group_name_H-M "P -1"
_symmetry_group_IT_number 2
_symmetry_cell_setting 'triclinic'
loop_
_space_group_symop_operation_xyz
x,y,z
-x,-y,-z
loop_
_atom_site_type_symbol
_atom_site_label
_atom_site_fract_x
_atom_site_fract_y
_atom_site_fract_z
Si Si1 0.308217 0.890623 0.178377
Si Si2 0.765793 0.452399 0.342199
Si Si3 0.046486 0.631100 0.775113
Si Si4 0.372132 0.580134 0.926840
Si Si5 0.915998 0.195042 0.862886
Si Si6 0.601128 0.221422 0.551571
Si Si7 0.069933 0.173849 0.404260
Si Si8 0.584511 0.615391 0.804926
O O1 0.188562 0.765911 0.122399
O O2 0.321771 0.814920 0.336943
O O3 0.339872 0.152636 0.225376
O O4 0.373076 0.812925 0.035551
O O5 0.837102 0.320248 0.271831
O O6 0.727173 0.535392 0.201929
O O7 0.662253 0.279894 0.396061
O O8 0.825205 0.661762 0.489591
O O9 0.994249 0.370642 0.771481
O O10 0.990150 0.686960 0.641297
O O11 0.041352 0.772432 0.954773
O O12 0.475387 0.629407 0.835183
O O13 0.365005 0.416154 0.040355
O O14 0.898407 0.950524 0.760748
O O15 0.569751 0.420793 0.645411
O O16 0.500000 0.000000 0.500000
O O17 0.000000 0.000000 0.500000
#
# Coordination Sequence:
#
# PCOD8024476 Si02
#       8
#     2   2   2   2   2   2   2   2
#     4  11  22  42  69  97 130 180 224 269 340 399
#     4  12  24  46  69  99 138 176 221 280 332 395
#     4  11  25  47  67  95 139 178 221 277 329 397
#     4  10  23  43  67  99 131 176 226 274 336 398
#     4  11  24  45  70  96 132 182 222 272 332 401
#     4  11  26  43  67  99 137 177 221 278 339 396
#     4  12  26  42  68 104 135 175 224 277 334 394
#     4  10  23  45  68  97 136 174 222 284 327 406
#
# _framework density 22.00273
#
# number of rings (size 3 to 8) (size 9 to 14) (size 15 to 20)
#    0.000    1.000    2.500    3.375    1.750    7.000 
#    0.000    0.000    0.000    0.000    0.000    0.000 
#    0.000    0.000    0.000    0.000    0.000    0.000 
#
# Total GULP energy -198481.454452 kJ/mol
# GULP energy per Si atom -12405.090903 kJ/mol
# Density = 2.195265 g / cm^3
# Si number density = 22.002730 Si / 1000 Ang^3
#
#
#
# Elastic Constant Matrix: (Units=GPa)
#
#
# Indices 1 2 3 4 5 6 
#
# 1 120.2783 34.4814 41.8730 -0.0459 1.2912 -8.5464
# 2 34.4814 93.7010 43.1649 13.7147 -5.7386 -1.2366
# 3 41.8730 43.1649 98.0770 10.4135 6.0428 -11.1772
# 4 -0.0459 13.7147 10.4135 32.4266 1.7738 -1.2426
# 5 1.2912 -5.7386 6.0428 1.7738 47.4225 -5.8918
# 6 -8.5464 -1.2366 -11.1772 -1.2426 -5.8918 30.3233
#
#
#
# Elastic Compliance Matrix: (Units=1/GPa)
#
#
# Indices 1 2 3 4 5 6 
#
# 1 0.010329 -0.002581 -0.003319 0.002238 -0.000047 0.001665
# 2 -0.002581 0.014898 -0.005302 -0.004807 0.002507 -0.001784
# 3 -0.003319 -0.005302 0.014736 -0.002246 -0.001870 0.003825
# 4 0.002238 -0.004807 -0.002246 0.033707 -0.001531 0.000691
# 5 -0.000047 0.002507 -0.001870 -0.001531 0.022139 0.003639
# 6 0.001665 -0.001784 0.003825 0.000691 0.003639 0.035520
#
#
# Mechanical properties :
#
#
# Convention : Reuss Voigt Hill
#
# Bulk Modulus (GPa) = 56.95013 61.23277 59.09145
# Shear Modulus (GPa) = 31.33097 34.87029 33.10063
#
# Velocity S-wave (km/s) = 3.77763 3.98529 3.88285
# Velocity P-wave (km/s) = 6.70572 7.00477 6.85688
#
# Compressibility (1/GPa) = 0.01755922
#
# Stress axis : x y z
#
# Youngs Moduli (GPa) = 96.81459 67.12228 67.85934
#
# Poissons Ratio (x) = 0.17321 0.22523
# Poissons Ratio (y) = 0.24984 0.35982
# Poissons Ratio (z) = 0.32134 0.35591
#
# Static dielectric constant tensor:
#      x y z
#    x 4.014310 -0.113010 0.012320 
#    y -0.113010 3.782740 0.035580 
#    z 0.012320 0.035580 4.178640 
# 
# 
# High freq. dielectric constant tensor:
#      x y z
#    x 1.876340 -0.007100 0.000200 
#    y -0.007100 1.852960 0.000570 
#    z 0.000200 0.000570 1.881570 
# 
# From -- ./inp_files/289032.got.cif
#   From: 2010.06.25/outbox.cif.g09.slc.cpg/sg2_145_cif.got.tgz:289032.got - 2010.06.27 13:26:56.
