data_PCOD8024729
_publ_section_title
;
Structure prediction by ZEFSAII (Michael W. Deem and Ramdas Pophale) SiO2 
 PCOD8024729
Probable space group: P -1
;
_chemical_formula_sum "Si O2"
_cell_formula_units_Z 12
_cell_length_a 8.307336
_cell_length_b 11.646116
_cell_length_c 15.907350
_cell_angle_alpha 29.853492
_cell_angle_beta 46.526346
_cell_angle_gamma 39.036670
_cell_volume 481.993220
_symmetry_space_group_name_H-M "P -1"
_symmetry_group_IT_number 2
_symmetry_cell_setting 'triclinic'
loop_
_space_group_symop_operation_xyz
x,y,z
-x,-y,-z
loop_
_atom_site_type_symbol
_atom_site_label
_atom_site_fract_x
_atom_site_fract_y
_atom_site_fract_z
Si Si1 0.970027 0.747536 0.664421
Si Si2 0.266247 0.710892 0.895498
Si Si3 0.176926 0.021046 0.995022
Si Si4 0.707797 0.592679 0.374349
Si Si5 0.384744 0.545943 0.773647
Si Si6 0.572135 0.883921 0.400900
O O1 0.031763 0.632173 0.619859
O O2 0.173509 0.544436 0.787979
O O3 0.670829 0.856867 0.721437
O O4 0.000000 0.000000 0.500000
O O5 0.271222 0.589183 0.880396
O O6 0.006808 0.773042 0.997893
O O7 0.255761 0.994876 0.705385
O O8 0.500000 0.500000 0.000000
O O9 0.359137 0.735277 0.150633
O O10 0.357685 0.131601 0.823836
O O11 0.000000 0.000000 0.000000
O O12 0.500000 0.500000 0.500000
O O13 0.736588 0.641653 0.430894
O O14 0.464234 0.771184 0.583359
#
# Coordination Sequence:
#
# PCOD8024729 Si02
#       6
#     2   2   2   2   2   2
#     4  10  23  43  71 104 142 180 233 292 351 421
#     4  12  24  46  73 102 148 191 233 297 354 423
#     4  12  26  46  70 103 145 188 236 295 355 417
#     4  12  23  46  75  99 143 189 236 289 362 416
#     4  11  25  44  70 112 139 188 241 288 361 422
#     4  11  24  45  74 106 143 187 239 291 354 428
#
# _framework density 24.896614
#
# number of rings (size 3 to 8) (size 9 to 14) (size 15 to 20)
#    0.000    0.667    6.667    1.500    0.000    5.333 
#    0.000    5.833    0.000    0.000    0.000    0.000 
#    0.000    0.000    0.000    0.000    0.000    0.000 
#
# Total GULP energy -148727.509999 kJ/mol
# GULP energy per Si atom -12393.959167 kJ/mol
# Density = 2.483995 g / cm^3
# Si number density = 24.896614 Si / 1000 Ang^3
#
#
#
# Elastic Constant Matrix: (Units=GPa)
#
#
# Indices 1 2 3 4 5 6 
#
# 1 66.7055 35.8623 31.2245 -0.4103 1.7649 0.2702
# 2 35.8623 165.6514 22.8754 9.2074 22.1233 22.4718
# 3 31.2245 22.8754 112.2953 11.3345 -13.7243 -16.1357
# 4 -0.4103 9.2074 11.3345 44.9325 -4.9526 6.8684
# 5 1.7649 22.1233 -13.7243 -4.9526 52.7994 0.7717
# 6 0.2702 22.4718 -16.1357 6.8684 0.7717 38.1688
#
#
#
# Elastic Compliance Matrix: (Units=1/GPa)
#
#
# Indices 1 2 3 4 5 6 
#
# 1 0.019213 -0.003482 -0.004970 0.002202 -0.000260 -0.000578
# 2 -0.003482 0.008364 -0.001911 -0.000855 -0.003885 -0.005475
# 3 -0.004970 -0.001911 0.012492 -0.003455 0.003787 0.006986
# 4 0.002202 -0.000855 -0.003455 0.024339 0.001748 -0.005388
# 5 -0.000260 -0.003885 0.003787 0.001748 0.021679 0.003137
# 6 -0.000578 -0.005475 0.006986 -0.005388 0.003137 0.033286
#
#
# Mechanical properties :
#
#
# Convention : Reuss Voigt Hill
#
# Bulk Modulus (GPa) = 51.70055 58.28629 54.99342
# Shear Modulus (GPa) = 34.11931 44.15946 39.13938
#
# Velocity S-wave (km/s) = 3.70596 4.21612 3.96924
# Velocity P-wave (km/s) = 6.25487 6.86753 6.56835
#
# Compressibility (1/GPa) = 0.01934216
#
# Stress axis : x y z
#
# Youngs Moduli (GPa) = 52.04910 119.56655 80.05331
#
# Poissons Ratio (x) = 0.41638 0.39786
# Poissons Ratio (y) = 0.18126 0.15294
# Poissons Ratio (z) = 0.25868 0.22844
#
# Static dielectric constant tensor:
#      x y z
#    x 5.087700 -0.106430 -0.255220 
#    y -0.106430 4.883470 0.010500 
#    z -0.255220 0.010500 4.594300 
# 
# 
# High freq. dielectric constant tensor:
#      x y z
#    x 1.970090 0.014060 -0.023740 
#    y 0.014060 2.006800 -0.002960 
#    z -0.023740 -0.002960 2.001250 
# 
# From -- ./inp_files/239841.got.cif
#   From: 2010.06.25/outbox.cif.g09.slc.cpg/sg2_120_cif.got.tgz:239841.got - 2010.06.27 13:26:56.
