data_PCOD8024935
_publ_section_title
;
Structure prediction by ZEFSAII (Michael W. Deem and Ramdas Pophale) SiO2 
 PCOD8024935
Probable space group: P -1
;
_chemical_formula_sum "Si O2"
_cell_formula_units_Z 12
_cell_length_a 15.520612
_cell_length_b 7.752803
_cell_length_c 8.430118
_cell_angle_alpha 126.270409
_cell_angle_beta 126.669267
_cell_angle_gamma 46.009597
_cell_volume 557.214966
_symmetry_space_group_name_H-M "P -1"
_symmetry_group_IT_number 2
_symmetry_cell_setting 'triclinic'
loop_
_space_group_symop_operation_xyz
x,y,z
-x,-y,-z
loop_
_atom_site_type_symbol
_atom_site_label
_atom_site_fract_x
_atom_site_fract_y
_atom_site_fract_z
Si Si1 0.265184 0.260328 0.736241
Si Si2 0.869657 0.160069 0.132115
Si Si3 0.137494 0.033087 0.309670
Si Si4 0.300540 0.897087 0.853757
Si Si5 0.370498 0.557497 0.461246
Si Si6 0.468497 0.012024 0.288404
O O1 0.223857 0.549081 0.864698
O O2 0.170676 0.244776 0.499091
O O3 0.258426 0.142569 0.832497
O O4 0.407783 0.092492 0.739675
O O5 0.821425 0.083832 0.190882
O O6 0.008035 0.105410 0.295382
O O7 0.878576 0.978416 0.901818
O O8 0.250004 0.767223 0.349734
O O9 0.367544 0.641538 0.685482
O O10 0.397687 0.867972 0.083125
O O11 0.500000 0.500000 0.500000
O O12 0.368120 0.305408 0.304983
O O13 0.500000 0.000000 0.500000
#
# Coordination Sequence:
#
# PCOD8024935 Si02
#       6
#     2   2   2   2   2   2
#     4  11  23  41  65  94 129 168 214 268 314 381
#     4  11  24  43  67  94 129 173 214 261 321 383
#     4  10  23  44  66  92 131 169 215 266 316 380
#     4  11  25  40  66  99 128 173 213 263 324 384
#     4  11  23  42  66  92 130 169 209 269 319 374
#     4  12  24  40  64  98 131 167 217 265 322 383
#
# _framework density 21.535674
#
# number of rings (size 3 to 8) (size 9 to 14) (size 15 to 20)
#    0.000    1.000    3.333    4.000    2.333    4.000 
#    0.000    9.167    0.000    0.000    0.000    0.000 
#    0.000    0.000    0.000    0.000    0.000    0.000 
#
# Total GULP energy -148813.340890 kJ/mol
# GULP energy per Si atom -12401.111741 kJ/mol
# Density = 2.148666 g / cm^3
# Si number density = 21.535674 Si / 1000 Ang^3
#
#
#
# Elastic Constant Matrix: (Units=GPa)
#
#
# Indices 1 2 3 4 5 6 
#
# 1 145.3511 42.7166 22.1160 6.9826 -5.3280 -15.7343
# 2 42.7166 81.5138 6.3730 -5.6533 -2.3730 -9.1098
# 3 22.1160 6.3730 97.3747 7.7391 9.1115 -18.1849
# 4 6.9826 -5.6533 7.7391 24.1674 -1.9954 3.3212
# 5 -5.3280 -2.3730 9.1115 -1.9954 29.7794 -0.0640
# 6 -15.7343 -9.1098 -18.1849 3.3212 -0.0640 30.0210
#
#
#
# Elastic Compliance Matrix: (Units=1/GPa)
#
#
# Indices 1 2 3 4 5 6 
#
# 1 0.008896 -0.004450 -0.000981 -0.003619 0.001301 0.003122
# 2 -0.004450 0.015144 -0.000112 0.004696 0.000763 0.001678
# 3 -0.000981 -0.000112 0.012784 -0.005271 -0.004432 0.007770
# 4 -0.003619 0.004696 -0.005271 0.046792 0.004456 -0.008831
# 5 0.001301 0.000763 -0.004432 0.004456 0.035524 -0.002189
# 6 0.003122 0.001678 0.007770 -0.008831 -0.002189 0.041134
#
#
# Mechanical properties :
#
#
# Convention : Reuss Voigt Hill
#
# Bulk Modulus (GPa) = 38.84963 51.85009 45.34986
# Shear Modulus (GPa) = 27.78741 33.66249 30.72495
#
# Velocity S-wave (km/s) = 3.59597 3.95790 3.78127
# Velocity P-wave (km/s) = 5.94307 6.70934 6.33780
#
# Compressibility (1/GPa) = 0.02574027
#
# Stress axis : x y z
#
# Youngs Moduli (GPa) = 112.40760 66.03376 78.22111
#
# Poissons Ratio (x) = 0.29382 0.07670
# Poissons Ratio (y) = 0.50016 0.00875
# Poissons Ratio (z) = 0.11022 0.00739
#
# Static dielectric constant tensor:
#      x y z
#    x 3.907620 -0.050330 0.114350 
#    y -0.050330 4.423620 0.245570 
#    z 0.114350 0.245570 4.298740 
# 
# 
# High freq. dielectric constant tensor:
#      x y z
#    x 1.845850 -0.009840 0.003570 
#    y -0.009840 1.838590 0.010290 
#    z 0.003570 0.010290 1.863160 
# 
# From -- ./inp_files/157766.got.cif
#   From: 2010.06.25/outbox.cif.g09.slc.cpg/sg2_79_cif.got.tgz:157766.got - 2010.06.27 13:26:56.
