data_PCOD8024137
_publ_section_title
;
Structure prediction by ZEFSAII (Michael W. Deem and Ramdas Pophale) SiO2 
 PCOD8024137
Probable space group: P -1
;
_chemical_formula_sum "Si O2"
_cell_formula_units_Z 14
_cell_length_a 12.302623
_cell_length_b 8.110258
_cell_length_c 13.360594
_cell_angle_alpha 145.572036
_cell_angle_beta 112.658901
_cell_angle_gamma 54.551334
_cell_volume 601.294010
_symmetry_space_group_name_H-M "P -1"
_symmetry_group_IT_number 2
_symmetry_cell_setting 'triclinic'
loop_
_space_group_symop_operation_xyz
x,y,z
-x,-y,-z
loop_
_atom_site_type_symbol
_atom_site_label
_atom_site_fract_x
_atom_site_fract_y
_atom_site_fract_z
Si Si1 0.056916 0.734593 0.672117
Si Si2 0.626808 0.244892 0.533944
Si Si3 0.328539 0.465233 0.506754
Si Si4 0.811803 0.495168 0.189631
Si Si5 0.652797 0.787585 0.919593
Si Si6 0.357097 0.831036 0.089538
Si Si7 0.117926 0.524814 0.005604
O O1 0.191552 0.678696 0.630986
O O2 0.085760 0.715146 0.791480
O O3 0.000000 0.500000 0.500000
O O4 0.922727 0.094959 0.791459
O O5 0.467893 0.377931 0.570293
O O6 0.664127 0.320266 0.475440
O O7 0.686163 0.412944 0.713878
O O8 0.699925 0.844612 0.375271
O O9 0.332250 0.119818 0.304469
O O10 0.885448 0.562200 0.156438
O O11 0.751504 0.292823 0.006638
O O12 0.668289 0.003995 0.946269
O O13 0.741223 0.749571 0.029756
O O14 0.500000 0.000000 0.000000
O O15 0.500000 0.500000 0.000000
O O16 0.000000 0.500000 0.000000
#
# Coordination Sequence:
#
# PCOD8024137 Si02
#       7
#     2   2   2   2   2   2   2
#     4  12  27  46  69 100 145 187 237 291 358 425
#     4  10  23  42  71 103 138 180 238 288 350 420
#     4  10  23  44  69 101 141 186 228 291 354 423
#     4  12  25  44  72 104 138 183 236 295 353 414
#     4  11  26  44  72 101 141 189 238 283 348 425
#     4  11  22  42  69 109 141 176 229 297 352 407
#     4  12  27  47  70 101 142 189 237 287 355 430
#
# _framework density 23.283121999999999
#
# number of rings (size 3 to 8) (size 9 to 14) (size 15 to 20)
#    0.000    0.857    1.429    4.714    8.000    4.000 
#    0.000    5.000    0.000    0.000    0.000    0.000 
#    0.000    0.000    0.000    0.000    0.000    0.000 
#
# Total GULP energy -173484.993289 kJ/mol
# GULP energy per Si atom -12391.785235 kJ/mol
# Density = 2.323013 g / cm^3
# Si number density = 23.283122 Si / 1000 Ang^3
#
#
#
# Elastic Constant Matrix: (Units=GPa)
#
#
# Indices 1 2 3 4 5 6 
#
# 1 112.1681 38.3675 4.5033 -12.0772 -12.1143 -5.4709
# 2 38.3675 133.5188 25.8469 -4.3840 -7.1003 -8.0140
# 3 4.5033 25.8469 66.6533 6.4650 4.4490 5.1659
# 4 -12.0772 -4.3840 6.4650 44.3839 -0.2371 -5.3675
# 5 -12.1143 -7.1003 4.4490 -0.2371 44.8513 -0.7468
# 6 -5.4709 -8.0140 5.1659 -5.3675 -0.7468 27.9217
#
#
#
# Elastic Compliance Matrix: (Units=1/GPa)
#
#
# Indices 1 2 3 4 5 6 
#
# 1 0.010499 -0.002612 -0.000298 0.002896 0.002500 0.001986
# 2 -0.002612 0.009275 -0.003854 0.001150 0.001203 0.003116
# 3 -0.000298 -0.003854 0.017439 -0.003639 -0.002526 -0.005158
# 4 0.002896 0.001150 -0.003639 0.024741 0.001562 0.006369
# 5 0.002500 0.001203 -0.002526 0.001562 0.023458 0.002230
# 6 0.001986 0.003116 -0.005158 0.006369 0.002230 0.039336
#
#
# Mechanical properties :
#
#
# Convention : Reuss Voigt Hill
#
# Bulk Modulus (GPa) = 42.21992 49.97508 46.09750
# Shear Modulus (GPa) = 34.20659 39.67288 36.93973
#
# Velocity S-wave (km/s) = 3.83712 4.13235 3.98747
# Velocity P-wave (km/s) = 6.14849 6.65425 6.40637
#
# Compressibility (1/GPa) = 0.02368550
#
# Stress axis : x y z
#
# Youngs Moduli (GPa) = 95.24403 107.81734 57.34339
#
# Poissons Ratio (x) = 0.28163 0.01710
# Poissons Ratio (y) = 0.24878 0.22098
# Poissons Ratio (z) = 0.02840 0.41548
#
# Static dielectric constant tensor:
#      x y z
#    x 4.223850 0.088410 0.252460 
#    y 0.088410 4.051540 -0.132080 
#    z 0.252460 -0.132080 4.189430 
# 
# 
# High freq. dielectric constant tensor:
#      x y z
#    x 1.926550 0.003520 0.004970 
#    y 0.003520 1.922100 0.010990 
#    z 0.004970 0.010990 1.936820 
# 
# From -- ./inp_files/159382.got.cif
#   From: 2010.06.25/outbox.cif.g09.slc.cpg/sg2_80_cif.got.tgz:159382.got - 2010.06.27 13:26:56.
