data_PCOD8024017
_publ_section_title
;
Structure prediction by ZEFSAII (Michael W. Deem and Ramdas Pophale) SiO2 
 PCOD8024017
Probable space group: P -1
;
_chemical_formula_sum "Si O2"
_cell_formula_units_Z 14
_cell_length_a 5.117254
_cell_length_b 7.371554
_cell_length_c 15.196170
_cell_angle_alpha 107.483787
_cell_angle_beta 73.276954
_cell_angle_gamma 112.801115
_cell_volume 494.364469
_symmetry_space_group_name_H-M "P -1"
_symmetry_group_IT_number 2
_symmetry_cell_setting 'triclinic'
loop_
_space_group_symop_operation_xyz
x,y,z
-x,-y,-z
loop_
_atom_site_type_symbol
_atom_site_label
_atom_site_fract_x
_atom_site_fract_y
_atom_site_fract_z
Si Si1 0.849703 0.529487 0.790429
Si Si2 0.239032 0.083176 0.063290
Si Si3 0.451658 0.644320 0.658638
Si Si4 0.717617 0.374162 0.959130
Si Si5 0.838119 0.014488 0.750944
Si Si6 0.504332 0.823333 0.326246
Si Si7 0.313807 0.665720 0.490802
O O1 0.780793 0.710422 0.868197
O O2 0.802669 0.353037 0.845519
O O3 0.626981 0.420337 0.718568
O O4 0.180542 0.599928 0.741951
O O5 0.179360 0.939769 0.135743
O O6 0.564640 0.157490 0.995571
O O7 0.000000 0.000000 0.000000
O O8 0.739714 0.771149 0.705161
O O9 0.401557 0.769172 0.593701
O O10 0.458235 0.440238 0.582107
O O11 0.500000 0.500000 0.000000
O O12 0.000000 0.500000 0.000000
O O13 0.587981 0.059705 0.725955
O O14 0.151380 0.118376 0.695181
O O15 0.356877 0.841121 0.437900
O O16 0.000000 0.500000 0.500000
#
# Coordination Sequence:
#
# PCOD8024017 Si02
#       7
#     2   2   2   2   2   2   2
#     4  11  23  48  76 105 146 203 253 305 378 455
#     4  11  25  49  78 112 154 198 257 323 381 450
#     4  11  25  47  79 110 156 200 255 314 380 455
#     4  10  23  42  69 103 137 187 246 301 362 437
#     4  12  28  47  73 115 153 199 249 316 387 444
#     4  12  27  46  73 110 155 197 253 312 377 461
#     4  11  25  48  78 112 150 201 258 306 379 460
#
# _framework density 28.319191
#
# number of rings (size 3 to 8) (size 9 to 14) (size 15 to 20)
#    0.000    0.857    1.429    4.286    4.000    8.000 
#    0.000    6.429    0.000    0.000    0.000    0.000 
#    0.000    0.000    0.000    0.000    0.000    0.000 
#
# Total GULP energy -173615.187121 kJ/mol
# GULP energy per Si atom -12401.084794 kJ/mol
# Density = 2.825474 g / cm^3
# Si number density = 28.319191 Si / 1000 Ang^3
#
#
#
# Elastic Constant Matrix: (Units=GPa)
#
#
# Indices 1 2 3 4 5 6 
#
# 1 116.1542 35.8628 56.1135 -15.8748 10.3437 47.1263
# 2 35.8628 125.2036 57.0657 -37.5810 3.2567 30.9973
# 3 56.1135 57.0657 212.7646 -42.0785 23.3176 28.0381
# 4 -15.8748 -37.5810 -42.0785 63.5846 13.0192 7.8375
# 5 10.3437 3.2567 23.3176 13.0192 54.6663 -0.6778
# 6 47.1263 30.9973 28.0381 7.8375 -0.6778 63.3343
#
#
#
# Elastic Compliance Matrix: (Units=1/GPa)
#
#
# Indices 1 2 3 4 5 6 
#
# 1 0.014711 0.001026 -0.001008 0.005874 -0.003959 -0.011771
# 2 0.001026 0.012643 -0.000534 0.008947 -0.002948 -0.007853
# 3 -0.001008 -0.000534 0.006933 0.005178 -0.004002 -0.002741
# 4 0.005874 0.008947 0.005178 0.030033 -0.011190 -0.014878
# 5 -0.003959 -0.002948 -0.004002 -0.011190 0.023686 0.007799
# 6 -0.011771 -0.007853 -0.002741 -0.014878 0.007799 0.031530
#
#
# Mechanical properties :
#
#
# Convention : Reuss Voigt Hill
#
# Bulk Modulus (GPa) = 30.07161 83.57849 56.82505
# Shear Modulus (GPa) = 37.97867 56.65573 47.31720
#
# Velocity S-wave (km/s) = 3.66607 4.47767 4.09204
# Velocity P-wave (km/s) = 5.34434 7.50399 6.51428
#
# Compressibility (1/GPa) = 0.03325396
#
# Stress axis : x y z
#
# Youngs Moduli (GPa) = 67.97828 79.09512 144.23663
#
# Poissons Ratio (x) = -0.08116 0.14542
# Poissons Ratio (y) = -0.06975 0.07706
# Poissons Ratio (z) = 0.06853 0.04226
#
# Static dielectric constant tensor:
#      x y z
#    x 5.312390 -0.677350 0.535580 
#    y -0.677350 6.461240 -0.673860 
#    z 0.535580 -0.673860 6.766600 
# 
# 
# High freq. dielectric constant tensor:
#      x y z
#    x 2.142200 -0.020300 0.007010 
#    y -0.020300 2.193540 -0.008200 
#    z 0.007010 -0.008200 2.190310 
# 
# From -- ./inp_files/480721.got.cif
#   From: 2010.06.25/outbox.cif.g09.slc.cpg/sg2_241_cif.got.tgz:480721.got - 2010.06.27 13:26:56.
