data_PCOD8024726
_publ_section_title
;
Structure prediction by ZEFSAII (Michael W. Deem and Ramdas Pophale) SiO2 
 PCOD8024726
Probable space group: P -1
;
_chemical_formula_sum "Si O2"
_cell_formula_units_Z 10
_cell_length_a 8.555376
_cell_length_b 20.848975
_cell_length_c 5.567639
_cell_angle_alpha 122.250287
_cell_angle_beta 54.648590
_cell_angle_gamma 147.960022
_cell_volume 427.567762
_symmetry_space_group_name_H-M "P -1"
_symmetry_group_IT_number 2
_symmetry_cell_setting 'triclinic'
loop_
_space_group_symop_operation_xyz
x,y,z
-x,-y,-z
loop_
_atom_site_type_symbol
_atom_site_label
_atom_site_fract_x
_atom_site_fract_y
_atom_site_fract_z
Si Si1 0.270161 0.245815 0.748218
Si Si2 0.732860 0.349636 0.168874
Si Si3 0.729640 0.886946 0.178411
Si Si4 0.604089 0.456568 0.184712
Si Si5 0.653387 0.023792 0.663224
O O1 0.592947 0.315056 0.491069
O O2 0.146042 0.145496 0.846236
O O3 0.999527 0.167149 0.633127
O O4 0.332515 0.345396 0.023896
O O5 0.676015 0.413273 0.224171
O O6 0.564544 0.228984 0.944050
O O7 0.089464 0.436143 0.033121
O O8 0.639403 0.928785 0.511223
O O9 0.000000 0.000000 0.000000
O O10 0.500000 0.500000 0.500000
O O11 0.500000 0.000000 0.500000
O O12 0.500000 0.000000 0.000000
#
# Coordination Sequence:
#
# PCOD8024726 Si02
#       5
#     2   2   2   2   2
#     4  11  24  45  72 100 144 197 242 297 370 444
#     4  10  23  43  71 102 142 185 247 295 372 439
#     4  11  23  45  71 100 146 195 237 298 371 445
#     4  10  24  45  70 103 141 189 244 309 364 432
#     4  12  28  43  69 112 150 187 247 305 368 441
#
# _framework density 23.388107000000002
#
# number of rings (size 3 to 8) (size 9 to 14) (size 15 to 20)
#    0.000    1.200    2.000    2.400    8.400    0.800 
#    0.000    0.000    0.000    0.000    0.000    0.000 
#    0.000    0.000    0.000    0.000    0.000    0.000 
#
# Total GULP energy -123974.550565 kJ/mol
# GULP energy per Si atom -12397.455056 kJ/mol
# Density = 2.333487 g / cm^3
# Si number density = 23.388107 Si / 1000 Ang^3
#
#
#
# Elastic Constant Matrix: (Units=GPa)
#
#
# Indices 1 2 3 4 5 6 
#
# 1 73.1487 61.3542 47.8369 10.7849 10.6075 22.1615
# 2 61.3542 166.3029 85.7419 15.1348 -5.2192 10.5936
# 3 47.8369 85.7419 201.3801 22.2433 -12.5727 5.3707
# 4 10.7849 15.1348 22.2433 61.8743 -3.0488 9.3587
# 5 10.6075 -5.2192 -12.5727 -3.0488 38.9958 0.2698
# 6 22.1615 10.5936 5.3707 9.3587 0.2698 27.3666
#
#
#
# Elastic Compliance Matrix: (Units=1/GPa)
#
#
# Indices 1 2 3 4 5 6 
#
# 1 0.031456 -0.008578 -0.004005 0.000780 -0.010786 -0.021527
# 2 -0.008578 0.010207 -0.002152 -0.000629 0.002932 0.003604
# 3 -0.004005 -0.002152 0.007116 -0.001676 0.002943 0.003224
# 4 0.000780 -0.000629 -0.001676 0.017739 0.000593 -0.006131
# 5 -0.010786 0.002932 0.002943 0.000593 0.029920 0.006525
# 6 -0.021527 0.003604 0.003224 -0.006131 0.006525 0.053978
#
#
# Mechanical properties :
#
#
# Convention : Reuss Voigt Hill
#
# Bulk Modulus (GPa) = 51.79001 92.29975 72.04488
# Shear Modulus (GPa) = 26.83497 42.04058 34.43777
#
# Velocity S-wave (km/s) = 3.39097 4.24432 3.84141
# Velocity P-wave (km/s) = 6.12563 7.97302 7.10959
#
# Compressibility (1/GPa) = 0.01930874
#
# Stress axis : x y z
#
# Youngs Moduli (GPa) = 31.78994 97.97221 140.52401
#
# Poissons Ratio (x) = 0.84044 0.56285
# Poissons Ratio (y) = 0.27271 0.30237
# Poissons Ratio (z) = 0.12733 0.21081
#
# Static dielectric constant tensor:
#      x y z
#    x 5.442460 -0.669440 -1.029400 
#    y -0.669440 5.102950 0.674060 
#    z -1.029400 0.674060 5.139250 
# 
# 
# High freq. dielectric constant tensor:
#      x y z
#    x 1.895850 0.004630 0.007250 
#    y 0.004630 1.947490 0.009260 
#    z 0.007250 0.009260 1.943770 
# 
# From -- ./inp_files/2140.got.cif
#   From: 2010.06.25/outbox.cif.g09.slc.cpg/sg2_2_cif.got.tgz:2140.got - 2010.06.27 13:26:56.
