data_PCOD8024160
_publ_section_title
;
Structure prediction by ZEFSAII (Michael W. Deem and Ramdas Pophale) SiO2 
 PCOD8024160
Probable space group: P -1
;
_chemical_formula_sum "Si O2"
_cell_formula_units_Z 16
_cell_length_a 9.349982
_cell_length_b 18.009197
_cell_length_c 13.718460
_cell_angle_alpha 22.413487
_cell_angle_beta 81.329235
_cell_angle_gamma 92.285149
_cell_volume 765.960877
_symmetry_space_group_name_H-M "P -1"
_symmetry_group_IT_number 2
_symmetry_cell_setting 'triclinic'
loop_
_space_group_symop_operation_xyz
x,y,z
-x,-y,-z
loop_
_atom_site_type_symbol
_atom_site_label
_atom_site_fract_x
_atom_site_fract_y
_atom_site_fract_z
Si Si1 0.267211 0.411400 0.782423
Si Si2 0.288064 0.829804 0.852682
Si Si3 0.941100 0.048574 0.346239
Si Si4 0.213511 0.220106 0.818899
Si Si5 0.306886 0.870239 0.184843
Si Si6 0.395693 0.467091 0.305679
Si Si7 0.365689 0.276591 0.333150
Si Si8 0.898660 0.243744 0.840217
O O1 0.307387 0.392042 0.688380
O O2 0.244296 0.629615 0.531268
O O3 0.412971 0.432470 0.811369
O O4 0.103045 0.191200 0.092928
O O5 0.164647 0.815978 0.793118
O O6 0.425900 0.089560 0.536429
O O7 0.367012 0.670901 0.026578
O O8 0.167902 0.781710 0.014565
O O9 0.816367 0.817099 0.584334
O O10 0.000000 0.000000 0.500000
O O11 0.286042 0.342666 0.560442
O O12 0.018610 0.135383 0.945158
O O13 0.240507 0.006988 0.090183
O O14 0.250059 0.866558 0.085049
O O15 0.500000 0.000000 0.000000
O O16 0.348152 0.302078 0.419624
O O17 0.500000 0.500000 0.000000
O O18 0.000000 0.500000 0.500000
#
# Coordination Sequence:
#
# PCOD8024160 Si02
#       8
#     2   2   2   2   2   2   2   2
#     4  12  25  45  64 103 143 178 224 287 333 401
#     4  10  23  42  71  98 135 177 226 272 351 395
#     4  10  23  49  72  91 135 178 223 293 340 388
#     4  12  24  41  69 101 143 185 226 266 345 408
#     4  12  26  39  64  99 142 185 225 270 337 404
#     4  12  24  40  75 100 139 182 225 275 340 411
#     4  10  24  46  70  98 132 173 234 283 333 402
#     4  12  21  43  66  95 143 182 216 279 332 411
#
# _framework density 20.888795999999999
#
# number of rings (size 3 to 8) (size 9 to 14) (size 15 to 20)
#    0.750    0.000    5.000    2.250    1.750    1.500 
#    0.000    0.625    0.000    0.000    0.000    0.000 
#    0.000    0.000    0.000    0.000    0.000    0.000 
#
# Total GULP energy -198271.706480 kJ/mol
# GULP energy per Si atom -12391.981655 kJ/mol
# Density = 2.084125 g / cm^3
# Si number density = 20.888796 Si / 1000 Ang^3
#
#
#
# Elastic Constant Matrix: (Units=GPa)
#
#
# Indices 1 2 3 4 5 6 
#
# 1 156.7439 48.8059 38.0524 -12.4897 18.0060 21.5194
# 2 48.8059 92.4033 26.7007 -11.1083 10.3006 22.4718
# 3 38.0524 26.7007 112.9297 -5.3981 2.0905 4.6543
# 4 -12.4897 -11.1083 -5.3981 28.5908 -3.6003 2.4061
# 5 18.0060 10.3006 2.0905 -3.6003 47.7727 -8.3464
# 6 21.5194 22.4718 4.6543 2.4061 -8.3464 39.6027
#
#
#
# Elastic Compliance Matrix: (Units=1/GPa)
#
#
# Indices 1 2 3 4 5 6 
#
# 1 0.008727 -0.002415 -0.002032 0.002422 -0.003188 -0.003952
# 2 -0.002415 0.015779 -0.002271 0.004915 -0.003491 -0.008409
# 3 -0.002032 -0.002271 0.010004 0.000134 0.001079 0.001436
# 4 0.002422 0.004915 0.000134 0.038489 -0.000214 -0.006504
# 5 -0.003188 -0.003491 0.001079 -0.000214 0.024349 0.008731
# 6 -0.003952 -0.008409 0.001436 -0.006504 0.008731 0.034236
#
#
# Mechanical properties :
#
#
# Convention : Reuss Voigt Hill
#
# Bulk Modulus (GPa) = 47.45117 65.46610 56.45863
# Shear Modulus (GPa) = 32.88535 39.76108 36.32322
#
# Velocity S-wave (km/s) = 3.97206 4.36760 4.17452
# Velocity P-wave (km/s) = 6.61829 7.53943 7.09382
#
# Compressibility (1/GPa) = 0.02107430
#
# Stress axis : x y z
#
# Youngs Moduli (GPa) = 114.59136 63.37654 99.96088
#
# Poissons Ratio (x) = 0.15303 0.20312
# Poissons Ratio (y) = 0.27669 0.22700
# Poissons Ratio (z) = 0.23285 0.14392
#
# Static dielectric constant tensor:
#      x y z
#    x 3.858920 -0.023880 0.333780 
#    y -0.023880 3.761940 -0.003980 
#    z 0.333780 -0.003980 3.854110 
# 
# 
# High freq. dielectric constant tensor:
#      x y z
#    x 1.823940 0.014560 0.004220 
#    y 0.014560 1.806170 -0.007370 
#    z 0.004220 -0.007370 1.825180 
# 
# From -- ./inp_files/507811.got.cif
#   From: 2010.06.25/outbox.cif.g09.slc.cpg/sg2_254_cif.got.tgz:507811.got - 2010.06.27 13:26:56.
