data_PCOD8024893
_publ_section_title
;
Structure prediction by ZEFSAII (Michael W. Deem and Ramdas Pophale) SiO2 
 PCOD8024893
Probable space group: P -1
;
_chemical_formula_sum "Si O2"
_cell_formula_units_Z 14
_cell_length_a 5.165306
_cell_length_b 21.709396
_cell_length_c 11.931303
_cell_angle_alpha 142.533922
_cell_angle_beta 101.397161
_cell_angle_gamma 105.562474
_cell_volume 559.423865
_symmetry_space_group_name_H-M "P -1"
_symmetry_group_IT_number 2
_symmetry_cell_setting 'triclinic'
loop_
_space_group_symop_operation_xyz
x,y,z
-x,-y,-z
loop_
_atom_site_type_symbol
_atom_site_label
_atom_site_fract_x
_atom_site_fract_y
_atom_site_fract_z
Si Si1 0.859944 0.438270 0.682927
Si Si2 0.303194 0.746812 0.188857
Si Si3 0.227329 0.409729 0.497656
Si Si4 0.032512 0.981899 0.236647
Si Si5 0.927813 0.649352 0.247482
Si Si6 0.612268 0.049176 0.207499
Si Si7 0.872496 0.723380 0.923178
O O1 0.490357 0.403790 0.580401
O O2 0.902683 0.363585 0.484063
O O3 0.827695 0.374801 0.709365
O O4 0.239773 0.611141 0.957987
O O5 0.022962 0.692765 0.189366
O O6 0.726090 0.888090 0.464460
O O7 0.195747 0.786656 0.131561
O O8 0.466798 0.569202 0.700694
O O9 0.016843 0.294180 0.212814
O O10 0.280987 0.013230 0.197266
O O11 0.699098 0.963352 0.142156
O O12 0.843539 0.836198 0.073788
O O13 0.016172 0.777948 0.506677
O O14 0.500000 0.500000 0.000000
O O15 0.500000 0.000000 0.000000
#
# Coordination Sequence:
#
# PCOD8024893 Si02
#       7
#     2   2   2   2   2   2   2
#     4  11  23  42  69  95 137 170 230 277 345 383
#     4  10  23  44  65 107 135 181 224 285 329 415
#     4  10  25  41  66 103 129 179 223 287 319 413
#     4  11  25  44  71  95 138 178 228 272 348 399
#     4  11  23  43  72 100 139 179 230 281 345 397
#     4  11  27  46  67 103 137 179 229 283 335 414
#     4  10  23  44  69  96 142 173 232 267 347 395
#
# _framework density 25.025748
#
# number of rings (size 3 to 8) (size 9 to 14) (size 15 to 20)
#    0.000    1.429    0.000    3.857    4.000   13.143 
#    0.000    4.286    0.000    0.000    0.000    0.000 
#    0.000    0.000    0.000    0.000    0.000    0.000 
#
# Total GULP energy -173635.956238 kJ/mol
# GULP energy per Si atom -12402.568303 kJ/mol
# Density = 2.496879 g / cm^3
# Si number density = 25.025748 Si / 1000 Ang^3
#
#
#
# Elastic Constant Matrix: (Units=GPa)
#
#
# Indices 1 2 3 4 5 6 
#
# 1 77.1094 26.7843 25.0733 -1.4482 -19.7333 -18.8179
# 2 26.7843 116.0419 61.9259 -15.1373 -11.8082 -44.8286
# 3 25.0733 61.9259 116.1946 -18.4083 -13.8997 -14.6210
# 4 -1.4482 -15.1373 -18.4083 46.9676 2.8887 -6.7592
# 5 -19.7333 -11.8082 -13.8997 2.8887 27.3800 3.7993
# 6 -18.8179 -44.8286 -14.6210 -6.7592 3.7993 41.4538
#
#
#
# Elastic Compliance Matrix: (Units=1/GPa)
#
#
# Indices 1 2 3 4 5 6 
#
# 1 0.018046 0.001189 -0.002110 0.000537 0.011311 0.007785
# 2 0.001189 0.022965 -0.008030 0.007515 0.002627 0.023526
# 3 -0.002110 -0.008030 0.013265 0.001703 0.002249 -0.004892
# 4 0.000537 0.007515 0.001703 0.026315 -0.000125 0.013273
# 5 0.011311 0.002627 0.002249 -0.000125 0.046338 0.004501
# 6 0.007785 0.023526 -0.004892 0.013273 0.004501 0.053125
#
#
# Mechanical properties :
#
#
# Convention : Reuss Voigt Hill
#
# Bulk Modulus (GPa) = 27.49336 59.65699 43.57517
# Shear Modulus (GPa) = 23.80038 36.19778 29.99908
#
# Velocity S-wave (km/s) = 3.08723 3.80731 3.46602
# Velocity P-wave (km/s) = 4.87010 6.57400 5.78513
#
# Compressibility (1/GPa) = 0.03637242
#
# Stress axis : x y z
#
# Youngs Moduli (GPa) = 55.41357 43.54534 75.38779
#
# Poissons Ratio (x) = -0.05178 0.15908
# Poissons Ratio (y) = -0.06589 0.60540
# Poissons Ratio (z) = 0.11693 0.34969
#
# Static dielectric constant tensor:
#      x y z
#    x 4.100440 -0.245790 -0.353530 
#    y -0.245790 4.842530 0.007200 
#    z -0.353530 0.007200 4.988080 
# 
# 
# High freq. dielectric constant tensor:
#      x y z
#    x 1.974120 -0.012230 -0.016820 
#    y -0.012230 2.010000 -0.006030 
#    z -0.016820 -0.006030 2.013840 
# 
# From -- ./inp_files/363844.got.cif
#   From: 2010.06.25/outbox.cif.g09.slc.cpg/sg2_182_cif.got.tgz:363844.got - 2010.06.27 13:26:56.
