data_PCOD8024646
_publ_section_title
;
Structure prediction by ZEFSAII (Michael W. Deem and Ramdas Pophale) SiO2 
 PCOD8024646
Probable space group: P -1
;
_chemical_formula_sum "Si O2"
_cell_formula_units_Z 14
_cell_length_a 11.112199
_cell_length_b 12.728394
_cell_length_c 13.827959
_cell_angle_alpha 121.298688
_cell_angle_beta 19.524238
_cell_angle_gamma 119.987437
_cell_volume 558.169880
_symmetry_space_group_name_H-M "P -1"
_symmetry_group_IT_number 2
_symmetry_cell_setting 'triclinic'
loop_
_space_group_symop_operation_xyz
x,y,z
-x,-y,-z
loop_
_atom_site_type_symbol
_atom_site_label
_atom_site_fract_x
_atom_site_fract_y
_atom_site_fract_z
Si Si1 0.264050 0.250773 0.643169
Si Si2 0.403753 0.593801 0.835453
Si Si3 0.080720 0.569045 0.744796
Si Si4 0.012207 0.965546 0.362997
Si Si5 0.805580 0.768815 0.928292
Si Si6 0.641226 0.815415 0.874656
Si Si7 0.554685 0.864823 0.358139
O O1 0.638726 0.326950 0.376882
O O2 0.221359 0.205816 0.764352
O O3 0.292970 0.131986 0.492402
O O4 0.918750 0.332742 0.930808
O O5 0.684927 0.545385 0.520964
O O6 0.661109 0.678523 0.750631
O O7 0.212984 0.476491 0.976272
O O8 0.830624 0.628095 0.878620
O O9 0.009096 0.089895 0.358113
O O10 0.366459 0.885460 0.047333
O O11 0.000000 0.000000 0.500000
O O12 0.522197 0.795510 0.068635
O O13 0.170944 0.795376 0.604711
O O14 0.756860 0.859930 0.099333
O O15 0.500000 0.000000 0.500000
#
# Coordination Sequence:
#
# PCOD8024646 Si02
#       7
#     2   2   2   2   2   2   2
#     4  10  23  43  70 101 135 180 227 288 341 403
#     4  11  25  43  71 100 137 182 232 284 334 399
#     4  11  24  45  66 104 136 181 233 280 339 396
#     4  10  23  45  69  99 135 175 227 283 345 411
#     4  11  25  43  67  97 140 179 228 277 337 410
#     4  10  25  43  67 102 136 181 227 280 343 409
#     4  11  24  42  66 102 135 180 226 278 342 407
#
# _framework density 25.081970999999999
#
# number of rings (size 3 to 8) (size 9 to 14) (size 15 to 20)
#    0.000    1.429    0.000    3.857    8.000    3.429 
#   12.857    0.000    0.000    0.000    0.000    0.000 
#    0.000    0.000    0.000    0.000    0.000    0.000 
#
# Total GULP energy -173448.765580 kJ/mol
# GULP energy per Si atom -12389.197541 kJ/mol
# Density = 2.502488 g / cm^3
# Si number density = 25.081971 Si / 1000 Ang^3
#
#
#
# Elastic Constant Matrix: (Units=GPa)
#
#
# Indices 1 2 3 4 5 6 
#
# 1 122.5845 49.3780 7.7509 1.0398 10.7087 -2.4884
# 2 49.3780 140.1201 18.0993 -1.7030 -7.1811 11.1381
# 3 7.7509 18.0993 52.2447 6.8974 13.2417 -0.2632
# 4 1.0398 -1.7030 6.8974 25.5782 1.8209 -2.9006
# 5 10.7087 -7.1811 13.2417 1.8209 25.6377 9.6707
# 6 -2.4884 11.1381 -0.2632 -2.9006 9.6707 54.7707
#
#
#
# Elastic Compliance Matrix: (Units=1/GPa)
#
#
# Indices 1 2 3 4 5 6 
#
# 1 0.010647 -0.004654 0.002096 -0.000430 -0.007861 0.002805
# 2 -0.004654 0.010235 -0.005293 0.001231 0.008900 -0.003825
# 3 0.002096 -0.005293 0.025671 -0.005725 -0.016696 0.003940
# 4 -0.000430 0.001231 -0.005725 0.040964 -0.000144 0.001898
# 5 -0.007861 0.008900 -0.016696 -0.000144 0.058138 -0.012520
# 6 0.002805 -0.003825 0.003940 0.001898 -0.012520 0.021493
#
#
# Mechanical properties :
#
#
# Convention : Reuss Voigt Hill
#
# Bulk Modulus (GPa) = 32.41311 51.71174 42.06243
# Shear Modulus (GPa) = 25.88876 37.17872 31.53374
#
# Velocity S-wave (km/s) = 3.21622 3.85423 3.54959
# Velocity P-wave (km/s) = 5.17137 6.36149 5.79705
#
# Compressibility (1/GPa) = 0.03085171
#
# Stress axis : x y z
#
# Youngs Moduli (GPa) = 93.92307 97.69920 38.95485
#
# Poissons Ratio (x) = 0.45467 -0.08165
# Poissons Ratio (y) = 0.43710 0.20619
# Poissons Ratio (z) = -0.19686 0.51711
#
# Static dielectric constant tensor:
#      x y z
#    x 5.022860 -0.252080 -0.090160 
#    y -0.252080 5.157770 -0.033820 
#    z -0.090160 -0.033820 4.475350 
# 
# 
# High freq. dielectric constant tensor:
#      x y z
#    x 2.006970 -0.010880 -0.001890 
#    y -0.010880 2.014300 0.007190 
#    z -0.001890 0.007190 1.980620 
# 
# From -- ./inp_files/519787.got.cif
#   From: 2010.06.25/outbox.cif.g09.slc.cpg/sg2_260_cif.got.tgz:519787.got - 2010.06.27 13:26:56.
