data_PCOD8024500
_publ_section_title
;
Structure prediction by ZEFSAII (Michael W. Deem and Ramdas Pophale) SiO2 
 PCOD8024500
Probable space group: P -1
;
_chemical_formula_sum "Si O2"
_cell_formula_units_Z 14
_cell_length_a 6.385401
_cell_length_b 15.622158
_cell_length_c 15.829356
_cell_angle_alpha 153.454819
_cell_angle_beta 100.734958
_cell_angle_gamma 69.037649
_cell_volume 624.199008
_symmetry_space_group_name_H-M "P -1"
_symmetry_group_IT_number 2
_symmetry_cell_setting 'triclinic'
loop_
_space_group_symop_operation_xyz
x,y,z
-x,-y,-z
loop_
_atom_site_type_symbol
_atom_site_label
_atom_site_fract_x
_atom_site_fract_y
_atom_site_fract_z
Si Si1 0.347058 0.878902 0.695554
Si Si2 0.072755 0.198010 0.662504
Si Si3 0.132741 0.445220 0.550586
Si Si4 0.958519 0.105592 0.000460
Si Si5 0.915710 0.336829 0.593989
Si Si6 0.477131 0.234875 0.989514
Si Si7 0.639421 0.606735 0.055092
O O1 0.594368 0.684459 0.568180
O O2 0.222252 0.807014 0.550417
O O3 0.370658 0.069622 0.819673
O O4 0.194005 0.959829 0.839684
O O5 0.093193 0.233991 0.595282
O O6 0.311884 0.204407 0.727200
O O7 0.878152 0.412715 0.874558
O O8 0.000000 0.000000 0.500000
O O9 0.081525 0.653772 0.784526
O O10 0.000000 0.500000 0.500000
O O11 0.051642 0.313040 0.493860
O O12 0.723234 0.110294 0.946266
O O13 0.000000 0.000000 0.000000
O O14 0.717508 0.575506 0.803693
O O15 0.522776 0.300633 0.958191
O O16 0.500000 0.500000 0.000000
#
# Coordination Sequence:
#
# PCOD8024500 Si02
#       7
#     2   2   2   2   2   2   2
#     4  12  25  45  72  99 142 186 235 288 356 413
#     4  10  23  43  68 104 143 184 239 290 359 429
#     4  12  27  45  70 104 140 184 241 293 349 426
#     4  12  27  45  71 102 141 188 235 294 354 418
#     4  11  24  43  71 102 141 190 234 292 354 424
#     4  11  24  44  69 102 142 188 235 291 358 420
#     4  10  24  41  69 103 143 184 234 298 355 422
#
# _framework density 22.428743000000001
#
# number of rings (size 3 to 8) (size 9 to 14) (size 15 to 20)
#    0.000    0.857    2.857    3.429    4.000    6.286 
#    0.000    0.000    0.000    0.000    0.000    0.000 
#    0.000    0.000    0.000    0.000    0.000    0.000 
#
# Total GULP energy -173485.094718 kJ/mol
# GULP energy per Si atom -12391.792480 kJ/mol
# Density = 2.237769 g / cm^3
# Si number density = 22.428743 Si / 1000 Ang^3
#
#
#
# Elastic Constant Matrix: (Units=GPa)
#
#
# Indices 1 2 3 4 5 6 
#
# 1 97.6905 56.1897 36.6467 -6.5090 12.2493 -9.4823
# 2 56.1897 153.4432 27.8502 -14.5586 -3.2848 2.2348
# 3 36.6467 27.8502 120.6181 0.4513 14.1168 -14.1339
# 4 -6.5090 -14.5586 0.4513 25.7331 2.2946 5.8441
# 5 12.2493 -3.2848 14.1168 2.2946 56.3275 5.4447
# 6 -9.4823 2.2348 -14.1339 5.8441 5.4447 27.5062
#
#
#
# Elastic Compliance Matrix: (Units=1/GPa)
#
#
# Indices 1 2 3 4 5 6 
#
# 1 0.015066 -0.005231 -0.002367 0.000049 -0.003481 0.005081
# 2 -0.005231 0.009260 -0.001391 0.004814 0.002289 -0.004746
# 3 -0.002367 -0.001391 0.010307 -0.002621 -0.002590 0.005663
# 4 0.000049 0.004814 -0.002621 0.044155 0.000205 -0.011143
# 5 -0.003481 0.002289 -0.002590 0.000205 0.019933 -0.006706
# 6 0.005081 -0.004746 0.005663 -0.011143 -0.006706 0.045098
#
#
# Mechanical properties :
#
#
# Convention : Reuss Voigt Hill
#
# Bulk Modulus (GPa) = 60.03948 68.12499 64.08223
# Shear Modulus (GPa) = 29.87764 38.65106 34.26435
#
# Velocity S-wave (km/s) = 3.65377 4.15575 3.91282
# Velocity P-wave (km/s) = 6.68036 7.31211 7.00336
#
# Compressibility (1/GPa) = 0.01665571
#
# Stress axis : x y z
#
# Youngs Moduli (GPa) = 66.37295 107.99048 97.01749
#
# Poissons Ratio (x) = 0.56495 0.22963
# Poissons Ratio (y) = 0.34723 0.13493
# Poissons Ratio (z) = 0.15710 0.15019
#
# Static dielectric constant tensor:
#      x y z
#    x 1.855790 -0.577980 0.579860 
#    y -0.577980 3.954140 0.023530 
#    z 0.579860 0.023530 4.248830 
# 
# 
# High freq. dielectric constant tensor:
#      x y z
#    x 1.885870 0.001980 0.009680 
#    y 0.001980 1.886900 -0.002500 
#    z 0.009680 -0.002500 1.908180 
# 
# From -- ./inp_files/484647.got.cif
#   From: 2010.06.25/outbox.cif.g09.slc.cpg/sg2_243_cif.got.tgz:484647.got - 2010.06.27 13:26:56.
