data_PCOD8024839
_publ_section_title
;
Structure prediction by ZEFSAII (Michael W. Deem and Ramdas Pophale) SiO2 
 PCOD8024839
Probable space group: P -1
;
_chemical_formula_sum "Si O2"
_cell_formula_units_Z 14
_cell_length_a 5.200291
_cell_length_b 9.394407
_cell_length_c 15.180972
_cell_angle_alpha 115.602257
_cell_angle_beta 71.717709
_cell_angle_gamma 110.935064
_cell_volume 613.402090
_symmetry_space_group_name_H-M "P -1"
_symmetry_group_IT_number 2
_symmetry_cell_setting 'triclinic'
loop_
_space_group_symop_operation_xyz
x,y,z
-x,-y,-z
loop_
_atom_site_type_symbol
_atom_site_label
_atom_site_fract_x
_atom_site_fract_y
_atom_site_fract_z
Si Si1 0.932219 0.416251 0.231448
Si Si2 0.787662 0.059843 0.435704
Si Si3 0.707098 0.773126 0.758702
Si Si4 0.946643 0.961971 0.096846
Si Si5 0.516472 0.038204 0.291288
Si Si6 0.067683 0.789409 0.364506
Si Si7 0.177207 0.407760 0.013778
O O1 0.607169 0.337393 0.224529
O O2 0.065539 0.331021 0.273856
O O3 0.958491 0.602077 0.302109
O O4 0.100249 0.396586 0.121237
O O5 0.746083 0.136626 0.364677
O O6 0.968484 0.192450 0.520715
O O7 0.500000 0.000000 0.500000
O O8 0.890467 0.897539 0.364611
O O9 0.705578 0.852666 0.680575
O O10 0.772960 0.932913 0.857268
O O11 0.678316 0.017595 0.178453
O O12 0.889336 0.770657 0.070298
O O13 0.000000 0.000000 0.000000
O O14 0.376127 0.865823 0.308683
O O15 0.500000 0.500000 0.000000
O O16 0.000000 0.500000 0.000000
#
# Coordination Sequence:
#
# PCOD8024839 Si02
#       7
#     2   2   2   2   2   2   2
#     4  12  27  46  68 104 147 186 234 301 361 410
#     4   9  21  43  72 107 135 184 237 296 365 428
#     4  12  26  47  67 101 145 193 234 283 356 429
#     4  12  26  47  71 100 147 197 234 285 353 427
#     4  11  23  43  75 103 139 191 246 285 351 434
#     4  10  23  43  76 103 144 180 242 300 360 420
#     4  12  28  44  68 105 139 181 244 300 347 415
#
# _framework density 22.823528
#
# number of rings (size 3 to 8) (size 9 to 14) (size 15 to 20)
#    0.000    0.857    2.857    2.571   10.000    1.143 
#    0.000    1.429    0.000    0.000    0.000    0.000 
#    0.000    0.000    0.000    0.000    0.000    0.000 
#
# Total GULP energy -173454.505487 kJ/mol
# GULP energy per Si atom -12389.607535 kJ/mol
# Density = 2.277158 g / cm^3
# Si number density = 22.823528 Si / 1000 Ang^3
#
#
#
# Elastic Constant Matrix: (Units=GPa)
#
#
# Indices 1 2 3 4 5 6 
#
# 1 134.5701 49.8427 33.0512 7.2984 23.2943 -1.3258
# 2 49.8427 137.1811 48.9575 12.6986 11.2070 19.8263
# 3 33.0512 48.9575 105.8935 -1.3591 11.3663 -3.5097
# 4 7.2984 12.6986 -1.3591 40.3674 -4.6696 15.7099
# 5 23.2943 11.2070 11.3663 -4.6696 36.3620 -3.0532
# 6 -1.3258 19.8263 -3.5097 15.7099 -3.0532 32.7845
#
#
#
# Elastic Compliance Matrix: (Units=1/GPa)
#
#
# Indices 1 2 3 4 5 6 
#
# 1 0.009848 -0.002929 -0.001106 -0.002587 -0.005157 0.002810
# 2 -0.002929 0.011041 -0.004344 -0.000405 -0.000820 -0.007143
# 3 -0.001106 -0.004344 0.012067 0.000438 -0.001371 0.003537
# 4 -0.002587 -0.000405 0.000438 0.031549 0.004478 -0.014513
# 5 -0.005157 -0.000820 -0.001371 0.004478 0.032144 0.000989
# 6 0.002810 -0.007143 0.003537 -0.014513 0.000989 0.042361
#
#
# Mechanical properties :
#
#
# Convention : Reuss Voigt Hill
#
# Bulk Modulus (GPa) = 61.73729 71.26081 66.49905
# Shear Modulus (GPa) = 31.02352 38.28901 34.65626
#
# Velocity S-wave (km/s) = 3.69084 4.10031 3.90095
# Velocity P-wave (km/s) = 6.72842 7.32851 7.03486
#
# Compressibility (1/GPa) = 0.01619767
#
# Stress axis : x y z
#
# Youngs Moduli (GPa) = 101.54167 90.57117 82.86890
#
# Poissons Ratio (x) = 0.26527 0.09167
# Poissons Ratio (y) = 0.29740 0.36001
# Poissons Ratio (z) = 0.11233 0.39347
#
# Static dielectric constant tensor:
#      x y z
#    x 4.357490 -0.092230 0.308140 
#    y -0.092230 4.262440 -0.166320 
#    z 0.308140 -0.166320 5.056100 
# 
# 
# High freq. dielectric constant tensor:
#      x y z
#    x 1.922760 0.005110 0.008810 
#    y 0.005110 1.902640 -0.016670 
#    z 0.008810 -0.016670 1.899070 
# 
# From -- ./inp_files/479984.got.cif
#   From: 2010.06.25/outbox.cif.g09.slc.cpg/sg2_240_cif.got.tgz:479984.got - 2010.06.27 13:26:56.
