data_PCOD8024993
_publ_section_title
;
Structure prediction by ZEFSAII (Michael W. Deem and Ramdas Pophale) SiO2 
 PCOD8024993
Probable space group: P -1
;
_chemical_formula_sum "Si O2"
_cell_formula_units_Z 12
_cell_length_a 9.034229
_cell_length_b 7.786258
_cell_length_c 7.877664
_cell_angle_alpha 102.144927
_cell_angle_beta 74.375715
_cell_angle_gamma 129.346738
_cell_volume 412.107863
_symmetry_space_group_name_H-M "P -1"
_symmetry_group_IT_number 2
_symmetry_cell_setting 'triclinic'
loop_
_space_group_symop_operation_xyz
x,y,z
-x,-y,-z
loop_
_atom_site_type_symbol
_atom_site_label
_atom_site_fract_x
_atom_site_fract_y
_atom_site_fract_z
Si Si1 0.942213 0.112088 0.915564
Si Si2 0.268951 0.315068 0.312467
Si Si3 0.295770 0.896632 0.725472
Si Si4 0.322451 0.689010 0.166259
Si Si5 0.944598 0.278014 0.548636
Si Si6 0.333099 0.564898 0.775430
O O1 0.127764 0.327092 0.812633
O O2 0.811251 0.932282 0.769061
O O3 0.828711 0.172462 0.077997
O O4 0.000000 0.000000 0.000000
O O5 0.238634 0.440153 0.199728
O O6 0.495287 0.454089 0.321160
O O7 0.138857 0.290728 0.510179
O O8 0.199018 0.910075 0.587287
O O9 0.321075 0.702277 0.657990
O O10 0.499742 0.139098 0.729679
O O11 0.164039 0.740701 0.244221
O O12 0.392482 0.715380 0.958562
O O13 0.000000 0.500000 0.500000
#
# Coordination Sequence:
#
# PCOD8024993 Si02
#       6
#     2   2   2   2   2   2
#     4  12  21  39  69 100 129 172 228 268 316 391
#     4  11  23  42  68 100 127 176 226 266 317 402
#     4  12  24  42  68 102 133 173 216 280 334 378
#     4  11  22  42  71  95 131 178 220 266 324 403
#     4  10  23  44  67  93 134 178 223 262 324 403
#     4  12  25  42  70 102 135 165 222 282 327 377
#
# _framework density 29.118587000000002
#
# number of rings (size 3 to 8) (size 9 to 14) (size 15 to 20)
#    0.000    0.667    5.000    4.000    0.000    0.000 
#    0.000    4.167    0.000    0.000    0.000    0.000 
#    0.000    0.000    0.000    0.000    0.000    0.000 
#
# Total GULP energy -148806.289423 kJ/mol
# GULP energy per Si atom -12400.524119 kJ/mol
# Density = 2.905231 g / cm^3
# Si number density = 29.118587 Si / 1000 Ang^3
#
#
#
# Elastic Constant Matrix: (Units=GPa)
#
#
# Indices 1 2 3 4 5 6 
#
# 1 174.2226 28.4921 44.2480 -6.7993 -56.7214 24.7439
# 2 28.4921 132.4431 0.2176 17.9131 -15.4642 16.8557
# 3 44.2480 0.2176 147.1631 -7.0547 -33.2922 17.0807
# 4 -6.7993 17.9131 -7.0547 25.9690 1.0729 -5.6205
# 5 -56.7214 -15.4642 -33.2922 1.0729 43.6563 -9.1639
# 6 24.7439 16.8557 17.0807 -5.6205 -9.1639 54.9875
#
#
#
# Elastic Compliance Matrix: (Units=1/GPa)
#
#
# Indices 1 2 3 4 5 6 
#
# 1 0.010405 -0.000784 0.000134 0.002315 0.012845 -0.002106
# 2 -0.000784 0.009373 0.000784 -0.007229 0.002427 -0.003098
# 3 0.000134 0.000784 0.008488 0.001156 0.006533 -0.001730
# 4 0.002315 -0.007229 0.001156 0.045591 0.001407 0.005710
# 5 0.012845 0.002427 0.006533 0.001407 0.045219 -0.000874
# 6 -0.002106 -0.003098 -0.001730 0.005710 -0.000874 0.021059
#
#
# Mechanical properties :
#
#
# Convention : Reuss Voigt Hill
#
# Bulk Modulus (GPa) = 35.04597 66.63824 50.84210
# Shear Modulus (GPa) = 33.47189 50.31394 41.89292
#
# Velocity S-wave (km/s) = 3.39411 4.16131 3.79714
# Velocity P-wave (km/s) = 5.23657 6.78406 6.05992
#
# Compressibility (1/GPa) = 0.02853395
#
# Stress axis : x y z
#
# Youngs Moduli (GPa) = 96.10467 106.68799 117.81452
#
# Poissons Ratio (x) = 0.08364 -0.01576
# Poissons Ratio (y) = 0.07534 -0.09236
# Poissons Ratio (z) = -0.01286 -0.08364
#
# Static dielectric constant tensor:
#      x y z
#    x 5.591480 0.104970 -0.105180 
#    y 0.104970 4.186820 0.379440 
#    z -0.105180 0.379440 7.397560 
# 
# 
# High freq. dielectric constant tensor:
#      x y z
#    x 2.197330 0.003540 -0.003830 
#    y 0.003540 2.189350 0.010010 
#    z -0.003830 0.010010 2.196380 
# 
# From -- ./inp_files/159626.got.cif
#   From: 2010.06.25/outbox.cif.g09.slc.cpg/sg2_80_cif.got.tgz:159626.got - 2010.06.27 13:26:56.
