data_PCOD8024880
_publ_section_title
;
Structure prediction by ZEFSAII (Michael W. Deem and Ramdas Pophale) SiO2 
 PCOD8024880
Probable space group: P -1
;
_chemical_formula_sum "Si O2"
_cell_formula_units_Z 16
_cell_length_a 14.378108
_cell_length_b 13.680325
_cell_length_c 10.730716
_cell_angle_alpha 150.449218
_cell_angle_beta 44.515955
_cell_angle_gamma 134.876508
_cell_volume 707.298857
_symmetry_space_group_name_H-M "P -1"
_symmetry_group_IT_number 2
_symmetry_cell_setting 'triclinic'
loop_
_space_group_symop_operation_xyz
x,y,z
-x,-y,-z
loop_
_atom_site_type_symbol
_atom_site_label
_atom_site_fract_x
_atom_site_fract_y
_atom_site_fract_z
Si Si1 0.116180 0.589167 0.385570
Si Si2 0.804694 0.807003 0.213879
Si Si3 0.274567 0.340922 0.378931
Si Si4 0.159591 0.085993 0.429665
Si Si5 0.355755 0.935584 0.494847
Si Si6 0.969277 0.888407 0.774343
Si Si7 0.473342 0.831021 0.022307
Si Si8 0.333923 0.791357 0.856556
O O1 0.245139 0.778553 0.514213
O O2 0.000000 0.500000 0.500000
O O3 0.036081 0.694206 0.478312
O O4 0.186160 0.422336 0.075791
O O5 0.760658 0.834590 0.428946
O O6 0.704503 0.872381 0.279182
O O7 0.959931 0.947454 0.214014
O O8 0.195904 0.278944 0.516025
O O9 0.192365 0.193097 0.184819
O O10 0.277189 0.574753 0.602456
O O11 0.426498 0.312692 0.201853
O O12 0.213802 0.902624 0.116263
O O13 0.000000 0.000000 0.500000
O O14 0.373249 0.817584 0.219938
O O15 0.500000 0.000000 0.500000
O O16 0.000000 0.000000 0.000000
O O17 0.392507 0.738757 0.874095
O O18 0.551588 0.067240 0.183931
#
# Coordination Sequence:
#
# PCOD8024880 Si02
#       8
#     2   2   2   2   2   2   2   2
#     4  11  26  44  73  99 132 187 231 281 353 410
#     4  11  24  45  66  98 140 176 226 288 343 406
#     4  11  25  38  72  98 130 186 233 279 345 425
#     4  11  23  41  66  99 139 174 224 287 345 405
#     4  11  27  45  72 101 140 182 231 289 346 419
#     4  11  24  43  64  98 137 175 225 289 344 407
#     4  10  23  44  64  96 135 179 225 289 348 398
#     4  10  23  44  65  95 136 178 229 288 343 411
#
# _framework density 22.621272000000001
#
# number of rings (size 3 to 8) (size 9 to 14) (size 15 to 20)
#    0.000    1.250    3.750    0.375    7.000    3.000 
#    0.000    0.000    0.000    0.000    0.000    0.000 
#    0.000    0.000    0.000    0.000    0.000    0.000 
#
# Total GULP energy -198326.620050 kJ/mol
# GULP energy per Si atom -12395.413753 kJ/mol
# Density = 2.256978 g / cm^3
# Si number density = 22.621272 Si / 1000 Ang^3
#
#
#
# Elastic Constant Matrix: (Units=GPa)
#
#
# Indices 1 2 3 4 5 6 
#
# 1 87.7782 22.4916 20.8737 7.9645 0.7264 11.3787
# 2 22.4916 103.8004 25.9183 4.1101 0.2603 3.9395
# 3 20.8737 25.9183 93.5963 13.6029 -8.1962 -5.9601
# 4 7.9645 4.1101 13.6029 40.2905 -1.4835 -3.6635
# 5 0.7264 0.2603 -8.1962 -1.4835 36.2347 -5.7897
# 6 11.3787 3.9395 -5.9601 -3.6635 -5.7897 34.1578
#
#
#
# Elastic Compliance Matrix: (Units=1/GPa)
#
#
# Indices 1 2 3 4 5 6 
#
# 1 0.013402 -0.001962 -0.002628 -0.002102 -0.001769 -0.005222
# 2 -0.001962 0.010780 -0.002706 0.000062 -0.000839 -0.001197
# 3 -0.002628 -0.002706 0.013016 -0.003133 0.003481 0.003713
# 4 -0.002102 0.000062 -0.003133 0.026608 0.000927 0.003157
# 5 -0.001769 -0.000839 0.003481 0.000927 0.029486 0.006391
# 6 -0.005222 -0.001197 0.003713 0.003157 0.006391 0.033223
#
#
# Mechanical properties :
#
#
# Convention : Reuss Voigt Hill
#
# Bulk Modulus (GPa) = 44.23517 47.08244 45.65881
# Shear Modulus (GPa) = 33.63766 36.52935 35.08351
#
# Velocity S-wave (km/s) = 3.86034 4.02285 3.94243
# Velocity P-wave (km/s) = 6.28226 6.51431 6.39934
#
# Compressibility (1/GPa) = 0.02260645
#
# Stress axis : x y z
#
# Youngs Moduli (GPa) = 74.61428 92.76570 76.82701
#
# Poissons Ratio (x) = 0.18201 0.20187
# Poissons Ratio (y) = 0.14640 0.20792
# Poissons Ratio (z) = 0.19606 0.25105
#
# Static dielectric constant tensor:
#      x y z
#    x 4.099160 -0.080390 -0.131250 
#    y -0.080390 4.313540 -0.059160 
#    z -0.131250 -0.059160 4.047700 
# 
# 
# High freq. dielectric constant tensor:
#      x y z
#    x 1.887270 -0.000170 -0.016010 
#    y -0.000170 1.897380 -0.002830 
#    z -0.016010 -0.002830 1.889630 
# 
# From -- ./inp_files/455207.got.cif
#   From: 2010.06.25/outbox.cif.g09.slc.cpg/sg2_228_cif.got.tgz:455207.got - 2010.06.27 13:26:56.
