data_PCOD8024760
_publ_section_title
;
Structure prediction by ZEFSAII (Michael W. Deem and Ramdas Pophale) SiO2 
 PCOD8024760
Probable space group: P -1
;
_chemical_formula_sum "Si O2"
_cell_formula_units_Z 16
_cell_length_a 11.321146
_cell_length_b 17.106898
_cell_length_c 8.813131
_cell_angle_alpha 125.619473
_cell_angle_beta 115.756235
_cell_angle_gamma 29.298208
_cell_volume 667.331560
_symmetry_space_group_name_H-M "P -1"
_symmetry_group_IT_number 2
_symmetry_cell_setting 'triclinic'
loop_
_space_group_symop_operation_xyz
x,y,z
-x,-y,-z
loop_
_atom_site_type_symbol
_atom_site_label
_atom_site_fract_x
_atom_site_fract_y
_atom_site_fract_z
Si Si1 0.205040 0.350507 0.567080
Si Si2 0.932775 0.217196 0.473081
Si Si3 0.649694 0.368107 0.770824
Si Si4 0.099509 0.734747 0.819498
Si Si5 0.801208 0.140473 0.855228
Si Si6 0.860327 0.718404 0.235782
Si Si7 0.727692 0.530019 0.040674
Si Si8 0.410296 0.053412 0.182538
O O1 0.120561 0.345259 0.664117
O O2 0.410914 0.160020 0.378473
O O3 0.000000 0.500000 0.500000
O O4 0.288313 0.403983 0.732061
O O5 0.712195 0.318174 0.571277
O O6 0.827975 0.327865 0.385572
O O7 0.101320 0.191438 0.619939
O O8 0.096669 0.027556 0.297554
O O9 0.355657 0.555622 0.849848
O O10 0.756176 0.211526 0.742223
O O11 0.786471 0.380301 0.922728
O O12 0.870649 0.809555 0.820785
O O13 0.024727 0.892931 0.992041
O O14 0.546461 0.291264 0.979604
O O15 0.074405 0.544222 0.046962
O O16 0.592576 0.873084 0.180610
O O17 0.500000 0.000000 0.000000
#
# Coordination Sequence:
#
# PCOD8024760 Si02
#       8
#     2   2   2   2   2   2   2   2
#     4  12  26  45  71 105 138 186 239 290 346 422
#     4  11  23  45  72 104 136 177 236 284 356 414
#     4  10  24  43  75  98 139 181 227 295 346 408
#     4  11  24  45  67  98 141 182 229 283 352 412
#     4  11  24  42  73 100 137 182 228 297 340 412
#     4  11  25  47  72 100 145 191 227 294 351 412
#     4  10  23  43  72 101 141 182 235 281 358 408
#     4  12  28  46  72 101 147 188 234 286 351 421
#
# _framework density 23.976089000000002
#
# number of rings (size 3 to 8) (size 9 to 14) (size 15 to 20)
#    0.000    1.000    1.250    4.875   10.500    0.000 
#    2.250    1.250    0.000    0.000    0.000    0.000 
#    0.000    0.000    0.000    0.000    0.000    0.000 
#
# Total GULP energy -198282.644045 kJ/mol
# GULP energy per Si atom -12392.665253 kJ/mol
# Density = 2.392152 g / cm^3
# Si number density = 23.976089 Si / 1000 Ang^3
#
#
#
# Elastic Constant Matrix: (Units=GPa)
#
#
# Indices 1 2 3 4 5 6 
#
# 1 88.6140 44.9428 34.0887 -11.4609 -22.5493 -6.7110
# 2 44.9428 80.2618 25.5629 -9.7208 -8.5371 -3.8685
# 3 34.0887 25.5629 140.6743 -3.4969 -13.9531 -1.1407
# 4 -11.4609 -9.7208 -3.4969 36.6638 2.4773 -0.7688
# 5 -22.5493 -8.5371 -13.9531 2.4773 53.6174 -4.8576
# 6 -6.7110 -3.8685 -1.1407 -0.7688 -4.8576 28.5903
#
#
#
# Elastic Compliance Matrix: (Units=1/GPa)
#
#
# Indices 1 2 3 4 5 6 
#
# 1 0.018804 -0.008568 -0.002274 0.003061 0.006201 0.004300
# 2 -0.008568 0.017773 -0.001218 0.002001 -0.001165 0.000201
# 3 -0.002274 -0.001218 0.007961 -0.000341 0.000916 -0.000234
# 4 0.003061 0.002001 -0.000341 0.028744 0.000353 0.001808
# 5 0.006201 -0.001165 0.000916 0.000353 0.021752 0.005040
# 6 0.004300 0.000201 -0.000234 0.001808 0.005040 0.036909
#
#
# Mechanical properties :
#
#
# Convention : Reuss Voigt Hill
#
# Bulk Modulus (GPa) = 48.97175 57.63767 53.30471
# Shear Modulus (GPa) = 30.69972 37.43801 34.06886
#
# Velocity S-wave (km/s) = 3.58219 3.95583 3.77364
# Velocity P-wave (km/s) = 6.13018 6.70497 6.42401
#
# Compressibility (1/GPa) = 0.02041993
#
# Stress axis : x y z
#
# Youngs Moduli (GPa) = 53.17909 56.26595 125.60653
#
# Poissons Ratio (x) = 0.48208 0.28561
# Poissons Ratio (y) = 0.45563 0.15293
# Poissons Ratio (z) = 0.12092 0.06851
#
# Static dielectric constant tensor:
#      x y z
#    x 4.452800 -0.047700 0.101870 
#    y -0.047700 4.150660 -0.043720 
#    z 0.101870 -0.043720 4.855360 
# 
# 
# High freq. dielectric constant tensor:
#      x y z
#    x 1.953090 0.005860 -0.001530 
#    y 0.005860 1.936900 -0.006040 
#    z -0.001530 -0.006040 1.973130 
# 
# From -- ./inp_files/279954.got.cif
#   From: 2010.06.25/outbox.cif.g09.slc.cpg/sg2_140_cif.got.tgz:279954.got - 2010.06.27 13:26:56.
