data_PCOD8024868
_publ_section_title
;
Structure prediction by ZEFSAII (Michael W. Deem and Ramdas Pophale) SiO2 
 PCOD8024868
Probable space group: P -1
;
_chemical_formula_sum "Si O2"
_cell_formula_units_Z 16
_cell_length_a 10.647234
_cell_length_b 5.261438
_cell_length_c 16.871362
_cell_angle_alpha 62.646764
_cell_angle_beta 56.767278
_cell_angle_gamma 88.533157
_cell_volume 668.822288
_symmetry_space_group_name_H-M "P -1"
_symmetry_group_IT_number 2
_symmetry_cell_setting 'triclinic'
loop_
_space_group_symop_operation_xyz
x,y,z
-x,-y,-z
loop_
_atom_site_type_symbol
_atom_site_label
_atom_site_fract_x
_atom_site_fract_y
_atom_site_fract_z
Si Si1 0.399246 0.959371 0.618581
Si Si2 0.712673 0.084667 0.567980
Si Si3 0.460757 0.035520 0.917551
Si Si4 0.365260 0.314147 0.204077
Si Si5 0.106960 0.229754 0.188308
Si Si6 0.127338 0.430537 0.838760
Si Si7 0.821915 0.779805 0.423038
Si Si8 0.143978 0.103187 0.026324
O O1 0.291624 0.611041 0.714556
O O2 0.500000 0.000000 0.500000
O O3 0.524987 0.049859 0.633217
O O4 0.290075 0.179375 0.617303
O O5 0.807381 0.434895 0.491144
O O6 0.736770 0.926279 0.663216
O O7 0.778774 0.937713 0.493212
O O8 0.533100 0.394474 0.824463
O O9 0.273713 0.946370 0.973300
O O10 0.530039 0.835505 0.864553
O O11 0.500000 0.000000 0.000000
O O12 0.241709 0.412414 0.176118
O O13 0.000749 0.410917 0.161558
O O14 0.196462 0.156970 0.091655
O O15 0.001881 0.934546 0.313064
O O16 0.157371 0.402839 0.926523
O O17 0.042588 0.092689 0.884718
#
# Coordination Sequence:
#
# PCOD8024868 Si02
#       8
#     2   2   2   2   2   2   2   2
#     4   9  20  41  69  95 136 174 225 286 341 407
#     4  11  23  45  65 104 133 179 228 287 338 410
#     4  12  25  46  69 102 133 187 229 282 342 415
#     4  12  27  44  73  99 141 182 234 282 348 410
#     4  11  25  42  68  98 138 187 224 288 342 417
#     4  10  23  44  64 105 131 183 231 285 351 405
#     4  10  24  41  70  96 138 177 229 279 349 402
#     4  11  24  42  71  95 144 178 236 285 343 413
#
# _framework density 23.922646
#
# number of rings (size 3 to 8) (size 9 to 14) (size 15 to 20)
#    0.000    1.250    1.250    3.375    7.000    2.000 
#   11.250    0.000    0.000    0.000    0.000    0.000 
#    0.000    0.000    0.000    0.000    0.000    0.000 
#
# Total GULP energy -198281.291220 kJ/mol
# GULP energy per Si atom -12392.580701 kJ/mol
# Density = 2.386820 g / cm^3
# Si number density = 23.922646 Si / 1000 Ang^3
#
#
#
# Elastic Constant Matrix: (Units=GPa)
#
#
# Indices 1 2 3 4 5 6 
#
# 1 90.0134 8.6761 34.5417 7.1613 0.1242 -3.4307
# 2 8.6761 92.9628 32.3905 -5.5765 1.2065 -3.1509
# 3 34.5417 32.3905 142.4556 -12.3434 3.0746 -0.2872
# 4 7.1613 -5.5765 -12.3434 34.2922 0.5647 -1.3075
# 5 0.1242 1.2065 3.0746 0.5647 38.0725 -8.2193
# 6 -3.4307 -3.1509 -0.2872 -1.3075 -8.2193 23.9762
#
#
#
# Elastic Compliance Matrix: (Units=1/GPa)
#
#
# Indices 1 2 3 4 5 6 
#
# 1 0.012812 -0.000188 -0.003411 -0.003877 0.000684 0.001791
# 2 -0.000188 0.011777 -0.002537 0.001100 0.000163 0.001606
# 3 -0.003411 -0.002537 0.008737 0.003427 -0.000842 -0.000818
# 4 -0.003877 0.001100 0.003427 0.031436 -0.000513 0.001169
# 5 0.000684 0.000163 -0.000842 -0.000513 0.028457 0.009837
# 6 0.001791 0.001606 -0.000818 0.001169 0.009837 0.045601
#
#
# Mechanical properties :
#
#
# Convention : Reuss Voigt Hill
#
# Bulk Modulus (GPa) = 47.49687 52.96093 50.22890
# Shear Modulus (GPa) = 31.62324 35.92308 33.77316
#
# Velocity S-wave (km/s) = 3.63973 3.87930 3.76142
# Velocity P-wave (km/s) = 6.12870 6.50013 6.31715
#
# Compressibility (1/GPa) = 0.02105402
#
# Stress axis : x y z
#
# Youngs Moduli (GPa) = 78.05031 84.91246 114.45383
#
# Poissons Ratio (x) = 0.01597 0.39040
# Poissons Ratio (y) = 0.01468 0.29038
# Poissons Ratio (z) = 0.26623 0.21543
#
# Static dielectric constant tensor:
#      x y z
#    x 4.847550 0.105150 -0.095850 
#    y 0.105150 4.225150 -0.272850 
#    z -0.095850 -0.272850 4.672950 
# 
# 
# High freq. dielectric constant tensor:
#      x y z
#    x 1.959580 -0.004120 0.001550 
#    y -0.004120 1.919200 -0.013790 
#    z 0.001550 -0.013790 1.968110 
# 
# From -- ./inp_files/564399.got.cif
#   From: 2010.06.25/outbox.cif.g09.slc.cpg/sg2_283_cif.got.tgz:564399.got - 2010.06.27 13:26:56.
