data_PCOD8024049
_publ_section_title
;
Structure prediction by ZEFSAII (Michael W. Deem and Ramdas Pophale) SiO2 
 PCOD8024049
Probable space group: P -1
;
_chemical_formula_sum "Si O2"
_cell_formula_units_Z 16
_cell_length_a 11.578471
_cell_length_b 15.310385
_cell_length_c 9.026508
_cell_angle_alpha 83.595439
_cell_angle_beta 70.343587
_cell_angle_gamma 31.921561
_cell_volume 746.574870
_symmetry_space_group_name_H-M "P -1"
_symmetry_group_IT_number 2
_symmetry_cell_setting 'triclinic'
loop_
_space_group_symop_operation_xyz
x,y,z
-x,-y,-z
loop_
_atom_site_type_symbol
_atom_site_label
_atom_site_fract_x
_atom_site_fract_y
_atom_site_fract_z
Si Si1 0.243662 0.087347 0.170214
Si Si2 0.099038 0.881656 0.340407
Si Si3 0.331978 0.099584 0.820148
Si Si4 0.682925 0.082242 0.258186
Si Si5 0.246934 0.632198 0.512072
Si Si6 0.552131 0.213818 0.971418
Si Si7 0.989369 0.448083 0.750519
Si Si8 0.805398 0.533128 0.501644
O O1 0.978679 0.216237 0.306652
O O2 0.375401 0.063011 0.247956
O O3 0.423952 0.893839 0.099751
O O4 0.207577 0.165544 0.022131
O O5 0.195644 0.726299 0.376840
O O6 0.330496 0.784311 0.181745
O O7 0.000000 0.000000 0.500000
O O8 0.890694 0.995939 0.286688
O O9 0.208693 0.260240 0.768919
O O10 0.291221 0.039157 0.747484
O O11 0.424593 0.260172 0.413005
O O12 0.691469 0.124008 0.086325
O O13 0.500000 0.500000 0.500000
O O14 0.284316 0.508783 0.476967
O O15 0.262824 0.411994 0.079123
O O16 0.978913 0.421351 0.591071
O O17 0.052797 0.513545 0.694445
#
# Coordination Sequence:
#
# PCOD8024049 Si02
#       8
#     2   2   2   2   2   2   2   2
#     4  10  24  42  65  97 134 177 221 272 333 396
#     4  12  24  44  70  99 132 178 230 268 332 402
#     4  10  23  42  69  97 132 176 223 274 332 395
#     4  10  23  45  70  98 134 178 220 278 335 397
#     4  12  27  43  64  95 139 175 218 277 331 396
#     4  10  23  45  68  98 138 174 223 273 336 394
#     4  10  23  42  69  99 131 170 220 282 327 395
#     4  10  24  42  66  98 132 170 220 275 339 387
#
# _framework density 21.431206
#
# number of rings (size 3 to 8) (size 9 to 14) (size 15 to 20)
#    0.000    1.500    1.250    1.875   12.250    2.000 
#    2.250    3.125    0.000    0.000    0.000    0.000 
#    0.000    0.000    0.000    0.000    0.000    0.000 
#
# Total GULP energy -198391.487210 kJ/mol
# GULP energy per Si atom -12399.467951 kJ/mol
# Density = 2.138243 g / cm^3
# Si number density = 21.431206 Si / 1000 Ang^3
#
#
#
# Elastic Constant Matrix: (Units=GPa)
#
#
# Indices 1 2 3 4 5 6 
#
# 1 123.4609 42.1901 61.5007 -5.0703 -15.9589 3.8804
# 2 42.1901 107.7640 54.8606 -13.0064 -10.5018 1.8513
# 3 61.5007 54.8606 117.2539 -1.7184 -25.3334 0.0673
# 4 -5.0703 -13.0064 -1.7184 30.1222 6.1765 -5.4285
# 5 -15.9589 -10.5018 -25.3334 6.1765 39.1231 2.0033
# 6 3.8804 1.8513 0.0673 -5.4285 2.0033 33.2031
#
#
#
# Elastic Compliance Matrix: (Units=1/GPa)
#
#
# Indices 1 2 3 4 5 6 
#
# 1 0.011325 -0.001773 -0.004894 0.000447 0.000965 -0.001200
# 2 -0.001773 0.013314 -0.005577 0.005561 -0.001664 0.000486
# 3 -0.004894 -0.005577 0.015146 -0.003823 0.006927 -0.000191
# 4 0.000447 0.005561 -0.003823 0.038053 -0.007130 0.006297
# 5 0.000965 -0.001664 0.006927 -0.007130 0.031277 -0.003087
# 6 -0.001200 0.000486 -0.000191 0.006297 -0.003087 0.031447
#
#
# Mechanical properties :
#
#
# Convention : Reuss Voigt Hill
#
# Bulk Modulus (GPa) = 65.38479 73.95351 69.66915
# Shear Modulus (GPa) = 29.38589 33.15151 31.26870
#
# Velocity S-wave (km/s) = 3.70695 3.93731 3.82386
# Velocity P-wave (km/s) = 6.99267 7.43318 7.21628
#
# Compressibility (1/GPa) = 0.01529408
#
# Stress axis : x y z
#
# Youngs Moduli (GPa) = 88.30290 75.10994 66.02435
#
# Poissons Ratio (x) = 0.13320 0.32315
# Poissons Ratio (y) = 0.15659 0.36824
# Poissons Ratio (z) = 0.43219 0.41892
#
# Static dielectric constant tensor:
#      x y z
#    x 4.187210 0.121820 -0.022870 
#    y 0.121820 3.873520 -0.124230 
#    z -0.022870 -0.124230 4.029020 
# 
# 
# High freq. dielectric constant tensor:
#      x y z
#    x 1.850180 0.001240 -0.009380 
#    y 0.001240 1.842580 -0.006580 
#    z -0.009380 -0.006580 1.843080 
# 
# From -- ./inp_files/272853.got.cif
#   From: 2010.06.25/outbox.cif.g09.slc.cpg/sg2_137_cif.got.tgz:272853.got - 2010.06.27 13:26:56.
