data_PCOD8024733
_publ_section_title
;
Structure prediction by ZEFSAII (Michael W. Deem and Ramdas Pophale) SiO2 
 PCOD8024733
Probable space group: P -1
;
_chemical_formula_sum "Si O2"
_cell_formula_units_Z 16
_cell_length_a 21.378785
_cell_length_b 11.816978
_cell_length_c 7.374367
_cell_angle_alpha 53.885456
_cell_angle_beta 42.167387
_cell_angle_gamma 32.264210
_cell_volume 663.983826
_symmetry_space_group_name_H-M "P -1"
_symmetry_group_IT_number 2
_symmetry_cell_setting 'triclinic'
loop_
_space_group_symop_operation_xyz
x,y,z
-x,-y,-z
loop_
_atom_site_type_symbol
_atom_site_label
_atom_site_fract_x
_atom_site_fract_y
_atom_site_fract_z
Si Si1 0.462922 0.345530 0.576531
Si Si2 0.147356 0.668201 0.832543
Si Si3 0.779949 0.471189 0.595631
Si Si4 0.732343 0.992736 0.886707
Si Si5 0.293567 0.136295 0.589685
Si Si6 0.952772 0.957651 0.478461
Si Si7 0.087626 0.272349 0.597349
Si Si8 0.527765 0.572402 0.116473
O O1 0.297385 0.491471 0.782610
O O2 0.502833 0.433280 0.279293
O O3 0.503656 0.343556 0.692075
O O4 0.555516 0.104759 0.553066
O O5 0.165864 0.577596 0.680634
O O6 0.097076 0.887618 0.726420
O O7 0.021298 0.732019 0.145811
O O8 0.698129 0.705606 0.609324
O O9 0.912531 0.296473 0.614243
O O10 0.684219 0.440614 0.844666
O O11 0.573286 0.227798 0.989648
O O12 0.822350 0.011635 0.773156
O O13 0.794265 0.895128 0.647264
O O14 0.738117 0.852092 0.139562
O O15 0.166682 0.214433 0.670670
O O16 0.000000 0.000000 0.500000
O O17 0.000000 0.500000 0.500000
#
# Coordination Sequence:
#
# PCOD8024733 Si02
#       8
#     2   2   2   2   2   2   2   2
#     4  11  26  47  74 107 146 189 246 306 362 436
#     4  11  25  45  73 108 142 191 246 298 363 432
#     4  11  26  45  73 107 145 193 241 300 366 437
#     4  12  25  47  75 105 146 194 244 300 362 432
#     4  12  27  48  75 109 148 192 245 299 366 442
#     4  10  23  43  71 108 143 187 238 299 360 425
#     4  12  28  47  73 108 152 193 239 301 367 434
#     4  11  26  47  74 108 142 192 249 299 366 432
#
# _framework density 24.096972999999998
#
# number of rings (size 3 to 8) (size 9 to 14) (size 15 to 20)
#    0.000    0.750    2.500    3.750    8.750    6.500 
#    0.000    0.000    0.000    0.000    0.000    0.000 
#    0.000    0.000    0.000    0.000    0.000    0.000 
#
# Total GULP energy -198417.569542 kJ/mol
# GULP energy per Si atom -12401.098096 kJ/mol
# Density = 2.404213 g / cm^3
# Si number density = 24.096973 Si / 1000 Ang^3
#
#
#
# Elastic Constant Matrix: (Units=GPa)
#
#
# Indices 1 2 3 4 5 6 
#
# 1 73.3143 32.9638 5.4684 6.0010 -6.5486 -10.0593
# 2 32.9638 168.3381 27.8695 -11.5484 -4.4725 -14.0492
# 3 5.4684 27.8695 80.1016 5.8681 -4.9083 -9.5962
# 4 6.0010 -11.5484 5.8681 31.8459 0.6306 -6.9626
# 5 -6.5486 -4.4725 -4.9083 0.6306 37.3167 7.1369
# 6 -10.0593 -14.0492 -9.5962 -6.9626 7.1369 46.7326
#
#
#
# Elastic Compliance Matrix: (Units=1/GPa)
#
#
# Indices 1 2 3 4 5 6 
#
# 1 0.015816 -0.003290 0.000688 -0.003990 0.002229 0.001622
# 2 -0.003290 0.007409 -0.002479 0.004141 -0.000409 0.001690
# 3 0.000688 -0.002479 0.013809 -0.003265 0.001401 0.001538
# 4 -0.003990 0.004141 -0.003265 0.035470 -0.002255 0.005345
# 5 0.002229 -0.000409 0.001401 -0.002255 0.028125 -0.003986
# 6 0.001622 0.001690 0.001538 0.005345 -0.003986 0.023976
#
#
# Mechanical properties :
#
#
# Convention : Reuss Voigt Hill
#
# Bulk Modulus (GPa) = 37.21358 50.48419 43.84889
# Shear Modulus (GPa) = 34.78861 40.20918 37.49889
#
# Velocity S-wave (km/s) = 3.80372 4.08933 3.94911
# Velocity P-wave (km/s) = 5.89642 6.57972 6.24742
#
# Compressibility (1/GPa) = 0.02687191
#
# Stress axis : x y z
#
# Youngs Moduli (GPa) = 63.22665 134.96314 72.41622
#
# Poissons Ratio (x) = 0.44405 -0.04983
# Poissons Ratio (y) = 0.20803 0.17954
# Poissons Ratio (z) = -0.04351 0.33462
#
# Static dielectric constant tensor:
#      x y z
#    x 4.282780 -0.263360 -0.075780 
#    y -0.263360 4.808610 -0.147160 
#    z -0.075780 -0.147160 4.172410 
# 
# 
# High freq. dielectric constant tensor:
#      x y z
#    x 1.962670 -0.011270 -0.000190 
#    y -0.011270 1.972660 -0.000790 
#    z -0.000190 -0.000790 1.951870 
# 
# From -- ./inp_files/345939.got.cif
#   From: 2010.06.25/outbox.cif.g09.slc.cpg/sg2_173_cif.got.tgz:345939.got - 2010.06.27 13:26:56.
