data_PCOD8024864
_publ_section_title
;
Structure prediction by ZEFSAII (Michael W. Deem and Ramdas Pophale) SiO2 
 PCOD8024864
Probable space group: P -1
;
_chemical_formula_sum "Si O2"
_cell_formula_units_Z 14
_cell_length_a 21.224061
_cell_length_b 8.931390
_cell_length_c 20.633837
_cell_angle_alpha 149.828158
_cell_angle_beta 20.221251
_cell_angle_gamma 150.339655
_cell_volume 640.855371
_symmetry_space_group_name_H-M "P -1"
_symmetry_group_IT_number 2
_symmetry_cell_setting 'triclinic'
loop_
_space_group_symop_operation_xyz
x,y,z
-x,-y,-z
loop_
_atom_site_type_symbol
_atom_site_label
_atom_site_fract_x
_atom_site_fract_y
_atom_site_fract_z
Si Si1 0.838017 0.660750 0.888176
Si Si2 0.454205 0.419454 0.087705
Si Si3 0.189602 0.374784 0.696555
Si Si4 0.489323 0.329181 0.607394
Si Si5 0.891144 0.350437 0.485416
Si Si6 0.120837 0.349358 0.896787
Si Si7 0.403643 0.784469 0.951553
O O1 0.970129 0.533019 0.666421
O O2 0.633975 0.600806 0.027319
O O3 0.797927 0.468027 0.922768
O O4 0.942779 0.026907 0.937697
O O5 0.287370 0.541606 0.319522
O O6 0.500000 0.500000 0.000000
O O7 0.378167 0.036121 0.018942
O O8 0.363223 0.573727 0.557927
O O9 0.226275 0.486119 0.778106
O O10 0.180130 0.017923 0.569942
O O11 0.985232 0.410650 0.883810
O O12 0.273315 0.296646 0.780102
O O13 0.533506 0.591521 0.720638
O O14 0.500000 0.000000 0.500000
O O15 0.000000 0.500000 0.500000
O O16 0.500000 0.000000 0.000000
#
# Coordination Sequence:
#
# PCOD8024864 Si02
#       7
#     2   2   2   2   2   2   2
#     4  10  23  44  63  97 138 172 226 284 339 401
#     4  11  22  41  67  93 137 176 224 280 336 400
#     4  10  24  42  69  99 138 172 230 281 342 402
#     4  12  26  45  72 101 137 184 232 277 347 413
#     4  11  23  38  67 102 125 176 229 273 332 403
#     4  10  24  45  69 101 134 179 227 287 341 405
#     4  10  25  43  65  98 138 182 220 282 348 395
#
# _framework density 21.845801999999999
#
# number of rings (size 3 to 8) (size 9 to 14) (size 15 to 20)
#    0.000    1.429    1.429    2.143    4.000   14.286 
#    0.000    0.000    0.000    0.000    0.000    0.000 
#    0.000    0.000    0.000    0.000    0.000    0.000 
#
# Total GULP energy -173538.245581 kJ/mol
# GULP energy per Si atom -12395.588970 kJ/mol
# Density = 2.179608 g / cm^3
# Si number density = 21.845802 Si / 1000 Ang^3
#
#
#
# Elastic Constant Matrix: (Units=GPa)
#
#
# Indices 1 2 3 4 5 6 
#
# 1 92.2147 46.7219 49.3064 -1.4180 -1.4422 -18.4209
# 2 46.7219 114.2046 60.5293 4.6940 8.7073 -34.2099
# 3 49.3064 60.5293 169.7204 11.2937 -6.3542 -14.7380
# 4 -1.4180 4.6940 11.2937 44.9210 -5.4355 2.8953
# 5 -1.4422 8.7073 -6.3542 -5.4355 46.2410 -5.6608
# 6 -18.4209 -34.2099 -14.7380 2.8953 -5.6608 47.8117
#
#
#
# Elastic Compliance Matrix: (Units=1/GPa)
#
#
# Indices 1 2 3 4 5 6 
#
# 1 0.014866 -0.004246 -0.002697 0.001627 0.001318 0.001916
# 2 -0.004246 0.014883 -0.003390 -0.001657 -0.002646 0.007755
# 3 -0.002697 -0.003390 0.007972 -0.001520 0.001379 -0.000752
# 4 0.001627 -0.001657 -0.001520 0.023324 0.002635 -0.002128
# 5 0.001318 -0.002646 0.001379 0.002635 0.022859 0.001587
# 6 0.001916 0.007755 -0.000752 -0.002128 0.001587 0.027287
#
#
# Mechanical properties :
#
#
# Convention : Reuss Voigt Hill
#
# Bulk Modulus (GPa) = 58.63244 76.58387 67.60815
# Shear Modulus (GPa) = 36.35293 42.43356 39.39324
#
# Velocity S-wave (km/s) = 4.08373 4.41206 4.25107
# Velocity P-wave (km/s) = 7.00951 7.81586 7.42364
#
# Compressibility (1/GPa) = 0.01705540
#
# Stress axis : x y z
#
# Youngs Moduli (GPa) = 67.26809 67.19251 125.43951
#
# Poissons Ratio (x) = 0.28528 0.33832
# Poissons Ratio (y) = 0.28560 0.42520
# Poissons Ratio (z) = 0.18143 0.22776
#
# Static dielectric constant tensor:
#      x y z
#    x 4.294720 -0.343530 0.235240 
#    y -0.343530 4.010490 -0.103690 
#    z 0.235240 -0.103690 4.160980 
# 
# 
# High freq. dielectric constant tensor:
#      x y z
#    x 1.858100 -0.015070 0.014650 
#    y -0.015070 1.867560 0.005830 
#    z 0.014650 0.005830 1.869000 
# 
# From -- ./inp_files/591817.got.cif
#   From: 2010.06.25/outbox.cif.g09.slc.cpg/sg2_296_cif.got.tgz:591817.got - 2010.06.27 13:26:56.
