data_PCOD8024252
_publ_section_title
;
Structure prediction by ZEFSAII (Michael W. Deem and Ramdas Pophale) SiO2 
 PCOD8024252
Probable space group: P -1
;
_chemical_formula_sum "Si O2"
_cell_formula_units_Z 14
_cell_length_a 11.838801
_cell_length_b 15.176671
_cell_length_c 20.776641
_cell_angle_alpha 20.305848
_cell_angle_beta 29.132163
_cell_angle_gamma 29.140896
_cell_volume 597.319725
_symmetry_space_group_name_H-M "P -1"
_symmetry_group_IT_number 2
_symmetry_cell_setting 'triclinic'
loop_
_space_group_symop_operation_xyz
x,y,z
-x,-y,-z
loop_
_atom_site_type_symbol
_atom_site_label
_atom_site_fract_x
_atom_site_fract_y
_atom_site_fract_z
Si Si1 0.257019 0.594572 0.245361
Si Si2 0.426665 0.700368 0.339062
Si Si3 0.970579 0.205296 0.206979
Si Si4 0.511203 0.895884 0.450298
Si Si5 0.790641 0.688106 0.337860
Si Si6 0.694200 0.306959 0.148403
Si Si7 0.126301 0.180719 0.938663
O O1 0.297271 0.370450 0.432861
O O2 0.509655 0.564926 0.099859
O O3 0.065179 0.564275 0.309734
O O4 0.152574 0.871409 0.146078
O O5 0.500000 0.500000 0.500000
O O6 0.332851 0.546340 0.435946
O O7 0.676562 0.753930 0.157276
O O8 0.218661 0.986010 0.259276
O O9 0.753373 0.145303 0.397279
O O10 0.904256 0.159665 0.197077
O O11 0.000000 0.500000 0.000000
O O12 0.621211 0.928924 0.302354
O O13 0.520209 0.137405 0.327025
O O14 0.808996 0.788470 0.188387
O O15 0.850860 0.364886 0.970462
#
# Coordination Sequence:
#
# PCOD8024252 Si02
#       7
#     2   2   2   2   2   2   2
#     4  11  22  42  67  95 131 171 229 278 333 395
#     4  10  23  43  63  92 135 179 222 271 337 402
#     4  11  24  44  70 102 131 175 231 282 337 400
#     4  11  23  41  68 100 129 175 221 282 334 400
#     4  11  23  42  66  95 137 177 219 273 342 400
#     4  11  24  41  68  98 134 171 225 277 339 394
#     4  11  25  43  61  99 134 174 225 276 331 405
#
# _framework density 23.438033999999998
#
# number of rings (size 3 to 8) (size 9 to 14) (size 15 to 20)
#    0.000    1.143    1.429    6.000    4.000    1.143 
#    5.143    1.429    0.000    0.000    0.000    0.000 
#    0.000    0.000    0.000    0.000    0.000    0.000 
#
# Total GULP energy -173459.118523 kJ/mol
# GULP energy per Si atom -12389.937037 kJ/mol
# Density = 2.338469 g / cm^3
# Si number density = 23.438034 Si / 1000 Ang^3
#
#
#
# Elastic Constant Matrix: (Units=GPa)
#
#
# Indices 1 2 3 4 5 6 
#
# 1 65.2917 22.5068 30.8022 4.5355 -20.4606 -9.8946
# 2 22.5068 98.8531 20.4045 20.9854 -2.9161 -0.6774
# 3 30.8022 20.4045 74.9528 11.4990 -25.5101 -4.9499
# 4 4.5355 20.9854 11.4990 46.4805 1.7487 2.8096
# 5 -20.4606 -2.9161 -25.5101 1.7487 40.0805 10.8271
# 6 -9.8946 -0.6774 -4.9499 2.8096 10.8271 43.9933
#
#
#
# Elastic Compliance Matrix: (Units=1/GPa)
#
#
# Indices 1 2 3 4 5 6 
#
# 1 0.021597 -0.003669 -0.005579 0.000531 0.006498 0.002540
# 2 -0.003669 0.012247 -0.001754 -0.004663 -0.001875 -0.000075
# 3 -0.005579 -0.001754 0.020169 -0.003965 0.010390 -0.001316
# 4 0.000531 -0.004663 -0.003965 0.024745 -0.003360 -0.001152
# 5 0.006498 -0.001875 0.010390 -0.003360 0.036560 -0.006181
# 6 0.002540 -0.000075 -0.001316 -0.001152 -0.006181 0.024748
#
#
# Mechanical properties :
#
#
# Convention : Reuss Voigt Hill
#
# Bulk Modulus (GPa) = 31.24018 42.94716 37.09367
# Shear Modulus (GPa) = 28.94528 37.13648 33.04088
#
# Velocity S-wave (km/s) = 3.51803 3.98484 3.75869
# Velocity P-wave (km/s) = 5.46441 6.28772 5.89047
#
# Compressibility (1/GPa) = 0.03201006
#
# Stress axis : x y z
#
# Youngs Moduli (GPa) = 46.30315 81.64941 49.57994
#
# Poissons Ratio (x) = 0.29960 0.27659
# Poissons Ratio (y) = 0.16990 0.08696
# Poissons Ratio (z) = 0.25831 0.14320
#
# Static dielectric constant tensor:
#      x y z
#    x 4.494700 -0.112740 -0.552140 
#    y -0.112740 4.139640 0.201540 
#    z -0.552140 0.201540 4.484620 
# 
# 
# High freq. dielectric constant tensor:
#      x y z
#    x 1.931030 -0.003560 -0.022870 
#    y -0.003560 1.927730 0.016750 
#    z -0.022870 0.016750 1.922290 
# 
# From -- ./inp_files/457670.got.cif
#   From: 2010.06.25/outbox.cif.g09.slc.cpg/sg2_229_cif.got.tgz:457670.got - 2010.06.27 13:26:56.
