data_PCOD8024342
_publ_section_title
;
Structure prediction by ZEFSAII (Michael W. Deem and Ramdas Pophale) SiO2 
 PCOD8024342
Probable space group: P -1
;
_chemical_formula_sum "Si O2"
_cell_formula_units_Z 14
_cell_length_a 26.167968
_cell_length_b 23.623759
_cell_length_c 11.043523
_cell_angle_alpha 152.063053
_cell_angle_beta 26.779213
_cell_angle_gamma 170.136959
_cell_volume 526.206876
_symmetry_space_group_name_H-M "P -1"
_symmetry_group_IT_number 2
_symmetry_cell_setting 'triclinic'
loop_
_space_group_symop_operation_xyz
x,y,z
-x,-y,-z
loop_
_atom_site_type_symbol
_atom_site_label
_atom_site_fract_x
_atom_site_fract_y
_atom_site_fract_z
Si Si1 0.458820 0.206176 0.983929
Si Si2 0.124509 0.278923 0.118150
Si Si3 0.851301 0.725613 0.320750
Si Si4 0.766162 0.533472 0.514042
Si Si5 0.428584 0.976939 0.238368
Si Si6 0.630588 0.619835 0.812025
Si Si7 0.849375 0.266256 0.085596
O O1 0.568059 0.417755 0.247114
O O2 0.117038 0.888904 0.052845
O O3 0.416521 0.040416 0.836772
O O4 0.696459 0.441032 0.811961
O O5 0.007313 0.223660 0.388326
O O6 0.339231 0.381245 0.903273
O O7 0.872444 0.968449 0.977835
O O8 0.744928 0.623127 0.490939
O O9 0.000000 0.000000 0.500000
O O10 0.604225 0.506698 0.775967
O O11 0.965226 0.663956 0.235735
O O12 0.467710 0.161084 0.492065
O O13 0.086419 0.590714 0.268794
O O14 0.500000 0.000000 0.000000
O O15 0.688230 0.184217 0.169339
#
# Coordination Sequence:
#
# PCOD8024342 Si02
#       7
#     2   2   2   2   2   2   2
#     4  12  23  40  65  93 126 165 207 262 311 362
#     4  12  26  42  60  97 136 165 203 252 314 390
#     4  12  21  39  63  89 128 169 213 253 297 367
#     4  11  25  43  66  92 130 170 203 261 322 363
#     4  10  23  43  65  96 120 157 218 271 304 362
#     4  12  25  40  64  94 130 171 211 246 307 385
#     4  11  24  42  69  94 118 161 222 263 307 365
#
# _framework density 26.605505000000001
#
# number of rings (size 3 to 8) (size 9 to 14) (size 15 to 20)
#    0.000    0.571    4.286    4.714    2.000    4.571 
#    0.000    1.429    0.000    0.000    0.000    0.000 
#    0.000    0.000    0.000    0.000    0.000    0.000 
#
# Total GULP energy -173479.653518 kJ/mol
# GULP energy per Si atom -12391.403823 kJ/mol
# Density = 2.654495 g / cm^3
# Si number density = 26.605505 Si / 1000 Ang^3
#
#
#
# Elastic Constant Matrix: (Units=GPa)
#
#
# Indices 1 2 3 4 5 6 
#
# 1 106.9606 28.4147 26.1206 7.2389 -14.9398 -12.1838
# 2 28.4147 98.3021 15.7701 10.5768 -9.1210 -10.5380
# 3 26.1206 15.7701 60.7226 12.5558 -13.3656 -0.0712
# 4 7.2389 10.5768 12.5558 26.8191 -5.1898 0.4104
# 5 -14.9398 -9.1210 -13.3656 -5.1898 47.5595 7.3816
# 6 -12.1838 -10.5380 -0.0712 0.4104 7.3816 58.7956
#
#
#
# Elastic Compliance Matrix: (Units=1/GPa)
#
#
# Indices 1 2 3 4 5 6 
#
# 1 0.011356 -0.002309 -0.003891 -0.000018 0.001763 0.001713
# 2 -0.002309 0.011609 -0.001214 -0.003302 0.000558 0.001554
# 3 -0.003891 -0.001214 0.020838 -0.007468 0.003807 -0.001425
# 4 -0.000018 -0.003302 -0.007468 0.042511 0.002082 -0.001163
# 5 0.001763 0.000558 0.003807 0.002082 0.023369 -0.002478
# 6 0.001713 0.001554 -0.001425 -0.001163 -0.002478 0.017959
#
#
# Mechanical properties :
#
#
# Convention : Reuss Voigt Hill
#
# Bulk Modulus (GPa) = 34.51453 45.17733 39.84593
# Shear Modulus (GPa) = 32.86717 39.68018 36.27367
#
# Velocity S-wave (km/s) = 3.51857 3.86609 3.69642
# Velocity P-wave (km/s) = 5.43213 6.07834 5.76429
#
# Compressibility (1/GPa) = 0.02897330
#
# Stress axis : x y z
#
# Youngs Moduli (GPa) = 88.06286 86.14328 47.98916
#
# Poissons Ratio (x) = 0.19890 0.18674
# Poissons Ratio (y) = 0.20333 0.05826
# Poissons Ratio (z) = 0.34269 0.10458
#
# Static dielectric constant tensor:
#      x y z
#    x 5.424650 -0.534950 0.820190 
#    y -0.534950 5.817560 -0.024730 
#    z 0.820190 -0.024730 5.728250 
# 
# 
# High freq. dielectric constant tensor:
#      x y z
#    x 2.094100 -0.001820 0.001070 
#    y -0.001820 2.067260 0.013590 
#    z 0.001070 0.013590 2.052830 
# 
# From -- ./inp_files/477112.got.cif
#   From: 2010.06.25/outbox.cif.g09.slc.cpg/sg2_239_cif.got.tgz:477112.got - 2010.06.27 13:26:56.
