data_PCOD8024235
_publ_section_title
;
Structure prediction by ZEFSAII (Michael W. Deem and Ramdas Pophale) SiO2 
 PCOD8024235
Probable space group: P -1
;
_chemical_formula_sum "Si O2"
_cell_formula_units_Z 14
_cell_length_a 11.730956
_cell_length_b 12.219525
_cell_length_c 12.194629
_cell_angle_alpha 85.180160
_cell_angle_beta 128.618438
_cell_angle_gamma 51.731801
_cell_volume 687.892201
_symmetry_space_group_name_H-M "P -1"
_symmetry_group_IT_number 2
_symmetry_cell_setting 'triclinic'
loop_
_space_group_symop_operation_xyz
x,y,z
-x,-y,-z
loop_
_atom_site_type_symbol
_atom_site_label
_atom_site_fract_x
_atom_site_fract_y
_atom_site_fract_z
Si Si1 0.017605 0.280237 0.881753
Si Si2 0.415417 0.774763 0.515515
Si Si3 0.278184 0.316686 0.107349
Si Si4 0.521318 0.663928 0.952133
Si Si5 0.978361 0.121591 0.049838
Si Si6 0.626802 0.462889 0.233601
Si Si7 0.000243 0.849945 0.328197
O O1 0.720429 0.540499 0.666548
O O2 0.091373 0.164125 0.828245
O O3 0.286384 0.189623 0.069837
O O4 0.982719 0.226872 0.970996
O O5 0.449394 0.830452 0.638844
O O6 0.243565 0.777241 0.443970
O O7 0.245827 0.954321 0.307826
O O8 0.254389 0.424143 0.988644
O O9 0.000000 0.500000 0.000000
O O10 0.360214 0.667303 0.797556
O O11 0.694566 0.508599 0.176025
O O12 0.283363 0.908095 0.818533
O O13 0.687867 0.304498 0.929461
O O14 0.000000 0.000000 0.000000
O O15 0.868685 0.314241 0.485267
#
# Coordination Sequence:
#
# PCOD8024235 Si02
#       7
#     2   2   2   2   2   2   2
#     4  11  23  40  61  90 130 162 193 250 305 353
#     4  11  21  38  65  91 121 158 205 249 295 358
#     4  10  23  43  61  84 125 164 196 245 307 367
#     4  11  23  39  61  90 125 153 207 250 299 358
#     4  12  21  36  63  97 122 152 206 254 296 352
#     4  11  22  36  62  95 121 154 200 259 302 341
#     4  12  21  38  64  95 118 160 204 250 302 349
#
# _framework density 20.352025999999999
#
# number of rings (size 3 to 8) (size 9 to 14) (size 15 to 20)
#    0.000    0.857    5.714    2.571    0.000    1.143 
#    0.000    3.571    0.000    0.000    0.000    0.000 
#    0.000    0.000    0.000    0.000    0.000    0.000 
#
# Total GULP energy -173627.207906 kJ/mol
# GULP energy per Si atom -12401.943422 kJ/mol
# Density = 2.030570 g / cm^3
# Si number density = 20.352026 Si / 1000 Ang^3
#
#
#
# Elastic Constant Matrix: (Units=GPa)
#
#
# Indices 1 2 3 4 5 6 
#
# 1 128.3343 37.2505 48.6307 11.1678 -21.6669 -3.5125
# 2 37.2505 122.7761 59.9150 14.1184 1.6753 -4.3895
# 3 48.6307 59.9150 102.9131 16.7139 -22.5902 6.1209
# 4 11.1678 14.1184 16.7139 41.5651 2.3572 3.8583
# 5 -21.6669 1.6753 -22.5902 2.3572 29.3243 9.0933
# 6 -3.5125 -4.3895 6.1209 3.8583 9.0933 26.9008
#
#
#
# Elastic Compliance Matrix: (Units=1/GPa)
#
#
# Indices 1 2 3 4 5 6 
#
# 1 0.010381 -0.002146 -0.001903 -0.001618 0.006635 -0.000572
# 2 -0.002146 0.014816 -0.011249 -0.000013 -0.014024 0.009440
# 3 -0.001903 -0.011249 0.023777 -0.005170 0.022412 -0.014329
# 4 -0.001618 -0.000013 -0.005170 0.027030 -0.007201 -0.000480
# 5 0.006635 -0.014024 0.022412 -0.007201 0.066301 -0.027900
# 6 -0.000572 0.009440 -0.014329 -0.000480 -0.027900 0.051399
#
#
# Mechanical properties :
#
#
# Convention : Reuss Voigt Hill
#
# Bulk Modulus (GPa) = 54.41415 71.73510 63.07463
# Shear Modulus (GPa) = 21.69883 33.43986 27.56934
#
# Velocity S-wave (km/s) = 3.26878 4.05788 3.68451
# Velocity P-wave (km/s) = 6.40633 7.56828 7.01142
#
# Compressibility (1/GPa) = 0.01837757
#
# Stress axis : x y z
#
# Youngs Moduli (GPa) = 96.32528 67.49406 42.05746
#
# Poissons Ratio (x) = 0.14484 0.08004
# Poissons Ratio (y) = 0.20670 0.47312
# Poissons Ratio (z) = 0.18332 0.75927
#
# Static dielectric constant tensor:
#      x y z
#    x 3.899820 0.096460 -0.111700 
#    y 0.096460 4.097190 0.544870 
#    z -0.111700 0.544870 4.212990 
# 
# 
# High freq. dielectric constant tensor:
#      x y z
#    x 1.792620 -0.006900 -0.020740 
#    y -0.006900 1.805200 0.009470 
#    z -0.020740 0.009470 1.785330 
# 
# From -- ./inp_files/424542.got.cif
#   From: 2010.06.25/outbox.cif.g09.slc.cpg/sg2_213_cif.got.tgz:424542.got - 2010.06.27 13:26:56.
