data_PCOD8024820
_publ_section_title
;
Structure prediction by ZEFSAII (Michael W. Deem and Ramdas Pophale) SiO2 
 PCOD8024820
Probable space group: P -1
;
_chemical_formula_sum "Si O2"
_cell_formula_units_Z 14
_cell_length_a 8.999789
_cell_length_b 20.658377
_cell_length_c 8.743573
_cell_angle_alpha 133.144453
_cell_angle_beta 48.400433
_cell_angle_gamma 151.406407
_cell_volume 558.200211
_symmetry_space_group_name_H-M "P -1"
_symmetry_group_IT_number 2
_symmetry_cell_setting 'triclinic'
loop_
_space_group_symop_operation_xyz
x,y,z
-x,-y,-z
loop_
_atom_site_type_symbol
_atom_site_label
_atom_site_fract_x
_atom_site_fract_y
_atom_site_fract_z
Si Si1 0.951506 0.623005 0.376227
Si Si2 0.800510 0.348316 0.447390
Si Si3 0.872096 0.042638 0.084693
Si Si4 0.817885 0.148689 0.650546
Si Si5 0.608333 0.644759 0.817680
Si Si6 0.809988 0.659600 0.002451
Si Si7 0.873321 0.921274 0.618790
O O1 0.706786 0.579151 0.595747
O O2 0.764013 0.481120 0.177692
O O3 0.206085 0.664266 0.381296
O O4 0.104219 0.750876 0.369417
O O5 0.449552 0.243164 0.458093
O O6 0.000000 0.500000 0.500000
O O7 0.926161 0.304514 0.207547
O O8 0.813464 0.991809 0.867870
O O9 0.557413 0.977514 0.265794
O O10 0.000000 0.000000 0.000000
O O11 0.164028 0.209199 0.189887
O O12 0.901217 0.073363 0.436738
O O13 0.025224 0.239269 0.803607
O O14 0.672140 0.684552 0.017919
O O15 0.500000 0.500000 0.000000
O O16 0.000000 0.000000 0.500000
#
# Coordination Sequence:
#
# PCOD8024820 Si02
#       7
#     2   2   2   2   2   2   2
#     4  10  24  45  76 108 141 197 246 307 376 428
#     4  11  26  46  75 109 153 192 253 309 366 452
#     4  12  29  48  74 110 150 194 251 307 371 449
#     4  12  26  49  79 105 153 195 249 311 372 441
#     4  10  23  43  74 106 146 189 251 302 368 443
#     4  11  21  43  74 110 143 194 245 309 374 430
#     4  12  29  49  75 113 151 201 248 302 381 447
#
# _framework density 25.080608000000002
#
# number of rings (size 3 to 8) (size 9 to 14) (size 15 to 20)
#    0.000    0.857    2.857    2.571   12.000    2.286 
#    0.000    1.429    0.000    0.000    0.000    0.000 
#    0.000    0.000    0.000    0.000    0.000    0.000 
#
# Total GULP energy -173465.418465 kJ/mol
# GULP energy per Si atom -12390.387033 kJ/mol
# Density = 2.502352 g / cm^3
# Si number density = 25.080608 Si / 1000 Ang^3
#
#
#
# Elastic Constant Matrix: (Units=GPa)
#
#
# Indices 1 2 3 4 5 6 
#
# 1 117.5023 35.8710 36.9329 -7.3078 -0.1690 -0.8211
# 2 35.8710 148.5754 28.1626 5.0646 -12.2585 -5.8524
# 3 36.9329 28.1626 68.3334 -1.6066 -2.7589 7.1484
# 4 -7.3078 5.0646 -1.6066 41.6768 4.0705 5.5451
# 5 -0.1690 -12.2585 -2.7589 4.0705 35.6173 -7.9405
# 6 -0.8211 -5.8524 7.1484 5.5451 -7.9405 43.0103
#
#
#
# Elastic Compliance Matrix: (Units=1/GPa)
#
#
# Indices 1 2 3 4 5 6 
#
# 1 0.010790 -0.001775 -0.005136 0.001969 -0.001102 0.000361
# 2 -0.001775 0.008076 -0.002529 -0.002030 0.003334 0.002363
# 3 -0.005136 -0.002529 0.018844 0.000662 -0.000341 -0.003722
# 4 0.001969 -0.002030 0.000662 0.025657 -0.004574 -0.004501
# 5 -0.001102 0.003334 -0.000341 -0.004574 0.031241 0.006847
# 6 0.000361 0.002363 -0.003722 -0.004501 0.006847 0.026042
#
#
# Mechanical properties :
#
#
# Convention : Reuss Voigt Hill
#
# Bulk Modulus (GPa) = 53.11087 59.59379 56.35233
# Shear Modulus (GPa) = 34.29182 39.62384 36.95783
#
# Velocity S-wave (km/s) = 3.70166 3.97906 3.84286
# Velocity P-wave (km/s) = 6.28425 6.70246 6.49672
#
# Compressibility (1/GPa) = 0.01882854
#
# Stress axis : x y z
#
# Youngs Moduli (GPa) = 92.67605 123.82412 53.06836
#
# Poissons Ratio (x) = 0.21984 0.27257
# Poissons Ratio (y) = 0.16454 0.13421
# Poissons Ratio (z) = 0.47600 0.31316
#
# Static dielectric constant tensor:
#      x y z
#    x 5.195320 0.022020 -1.043270 
#    y 0.022020 3.888940 -1.041060 
#    z -1.043270 -1.041060 4.820840 
# 
# 
# High freq. dielectric constant tensor:
#      x y z
#    x 2.009650 0.008060 0.020990 
#    y 0.008060 2.004860 0.006810 
#    z 0.020990 0.006810 2.010000 
# 
# From -- ./inp_files/224002.got.cif
#   From: 2010.06.25/outbox.cif.g09.slc.cpg/sg2_113_cif.got.tgz:224002.got - 2010.06.27 13:26:56.
