data_PCOD8024609
_publ_section_title
;
Structure prediction by ZEFSAII (Michael W. Deem and Ramdas Pophale) SiO2 
 PCOD8024609
Probable space group: P -1
;
_chemical_formula_sum "Si O2"
_cell_formula_units_Z 14
_cell_length_a 9.167892
_cell_length_b 7.220722
_cell_length_c 13.939823
_cell_angle_alpha 100.270445
_cell_angle_beta 55.361374
_cell_angle_gamma 74.529163
_cell_volume 665.385150
_symmetry_space_group_name_H-M "P -1"
_symmetry_group_IT_number 2
_symmetry_cell_setting 'triclinic'
loop_
_space_group_symop_operation_xyz
x,y,z
-x,-y,-z
loop_
_atom_site_type_symbol
_atom_site_label
_atom_site_fract_x
_atom_site_fract_y
_atom_site_fract_z
Si Si1 0.424726 0.182550 0.277319
Si Si2 0.380411 0.674425 0.638459
Si Si3 0.315830 0.083894 0.004795
Si Si4 0.128071 0.526491 0.039488
Si Si5 0.524235 0.522587 0.223278
Si Si6 0.177502 0.956414 0.358276
Si Si7 0.966555 0.052644 0.796338
O O1 0.492736 0.203693 0.362296
O O2 0.394393 0.391803 0.247324
O O3 0.221326 0.159789 0.353722
O O4 0.603425 0.982708 0.139778
O O5 0.500000 0.500000 0.500000
O O6 0.347492 0.555568 0.732960
O O7 0.173989 0.843754 0.687272
O O8 0.191675 0.337931 0.075553
O O9 0.168718 0.987284 0.078923
O O10 0.500000 0.000000 0.000000
O O11 0.002052 0.748571 0.161484
O O12 0.328729 0.525353 0.924802
O O13 0.000000 0.500000 0.000000
O O14 0.375860 0.768865 0.309838
O O15 0.137214 0.892676 0.262998
O O16 0.000000 0.000000 0.500000
#
# Coordination Sequence:
#
# PCOD8024609 Si02
#       7
#     2   2   2   2   2   2   2
#     4  10  23  44  72  90 138 176 215 276 345 375
#     4  10  23  46  67  93 136 185 222 265 329 403
#     4  12  23  42  71 102 137 171 219 279 343 397
#     4  12  25  40  68 106 136 170 222 278 340 398
#     4  10  23  43  69  92 139 176 218 273 342 387
#     4  12  26  46  67  99 133 179 230 272 326 405
#     4  12  25  43  70 104 134 171 228 280 332 396
#
# _framework density 21.040444999999998
#
# number of rings (size 3 to 8) (size 9 to 14) (size 15 to 20)
#    0.857    0.000    4.286    2.571    2.000    3.429 
#    5.143    1.429    0.000    0.000    0.000    0.000 
#    0.000    0.000    0.000    0.000    0.000    0.000 
#
# Total GULP energy -173574.615025 kJ/mol
# GULP energy per Si atom -12398.186787 kJ/mol
# Density = 2.099256 g / cm^3
# Si number density = 21.040445 Si / 1000 Ang^3
#
#
#
# Elastic Constant Matrix: (Units=GPa)
#
#
# Indices 1 2 3 4 5 6 
#
# 1 116.3616 44.1714 32.9539 7.7977 6.3222 14.3377
# 2 44.1714 121.5601 30.8890 10.0555 -1.0593 1.4926
# 3 32.9539 30.8890 109.1440 7.6584 3.6534 16.5286
# 4 7.7977 10.0555 7.6584 41.0328 3.5211 -7.6421
# 5 6.3222 -1.0593 3.6534 3.5211 31.0093 1.0912
# 6 14.3377 1.4926 16.5286 -7.6421 1.0912 39.0236
#
#
#
# Elastic Compliance Matrix: (Units=1/GPa)
#
#
# Indices 1 2 3 4 5 6 
#
# 1 0.010985 -0.003425 -0.001667 -0.001413 -0.001879 -0.003423
# 2 -0.003425 0.010078 -0.001988 -0.001301 0.001375 0.001422
# 3 -0.001667 -0.001988 0.011053 -0.002017 -0.000647 -0.004370
# 4 -0.001413 -0.001301 -0.002017 0.026834 -0.002803 0.006757
# 5 -0.001879 0.001375 -0.000647 -0.002803 0.033093 -0.000562
# 6 -0.003423 0.001422 -0.004370 0.006757 -0.000562 0.030019
#
#
# Mechanical properties :
#
#
# Convention : Reuss Voigt Hill
#
# Bulk Modulus (GPa) = 55.69246 62.56601 59.12924
# Shear Modulus (GPa) = 35.15986 38.14991 36.65489
#
# Velocity S-wave (km/s) = 4.09230 4.26275 4.17839
# Velocity P-wave (km/s) = 6.98970 7.35042 7.17233
#
# Compressibility (1/GPa) = 0.01795575
#
# Stress axis : x y z
#
# Youngs Moduli (GPa) = 91.03434 99.22192 90.47206
#
# Poissons Ratio (x) = 0.33988 0.15079
# Poissons Ratio (y) = 0.31184 0.17987
# Poissons Ratio (z) = 0.15173 0.19726
#
# Static dielectric constant tensor:
#      x y z
#    x 3.744280 0.106520 -0.019650 
#    y 0.106520 3.997800 0.011190 
#    z -0.019650 0.011190 3.646350 
# 
# 
# High freq. dielectric constant tensor:
#      x y z
#    x 1.818030 0.005910 0.003030 
#    y 0.005910 1.834030 0.002600 
#    z 0.003030 0.002600 1.812830 
# 
# From -- ./inp_files/493119.got.cif
#   From: 2010.06.25/outbox.cif.g09.slc.cpg/sg2_247_cif.got.tgz:493119.got - 2010.06.27 13:26:56.
