data_PCOD8024424
_publ_section_title
;
Structure prediction by ZEFSAII (Michael W. Deem and Ramdas Pophale) SiO2 
 PCOD8024424
Probable space group: P -1
;
_chemical_formula_sum "Si O2"
_cell_formula_units_Z 10
_cell_length_a 13.522348
_cell_length_b 11.130614
_cell_length_c 8.222569
_cell_angle_alpha 38.523215
_cell_angle_beta 50.989647
_cell_angle_gamma 34.526881
_cell_volume 436.492310
_symmetry_space_group_name_H-M "P -1"
_symmetry_group_IT_number 2
_symmetry_cell_setting 'triclinic'
loop_
_space_group_symop_operation_xyz
x,y,z
-x,-y,-z
loop_
_atom_site_type_symbol
_atom_site_label
_atom_site_fract_x
_atom_site_fract_y
_atom_site_fract_z
Si Si1 0.241321 0.966694 0.114171
Si Si2 0.122816 0.470556 0.535320
Si Si3 0.372842 0.523895 0.227268
Si Si4 0.046410 0.669617 0.735475
Si Si5 0.552844 0.725257 0.256444
O O1 0.235304 0.822584 0.125068
O O2 0.427882 0.736770 0.251669
O O3 0.088224 0.065691 0.295913
O O4 0.225934 0.199438 0.816107
O O5 0.262359 0.469832 0.305750
O O6 0.022073 0.708059 0.522846
O O7 0.000000 0.500000 0.500000
O O8 0.481304 0.307525 0.488317
O O9 0.500000 0.500000 0.000000
O O10 0.244144 0.519372 0.740705
O O11 0.000000 0.500000 0.000000
O O12 0.500000 0.000000 0.000000
#
# Coordination Sequence:
#
# PCOD8024424 Si02
#       5
#     2   2   2   2   2
#     4  11  23  44  71  99 137 180 235 294 338 410
#     4  10  23  43  67 101 142 182 230 279 356 416
#     4  11  26  44  67 108 140 181 232 288 357 410
#     4   9  19  38  68 100 126 174 236 276 336 405
#     4  11  20  43  72  99 134 181 234 281 343 416
#
# _framework density 22.909911000000001
#
# number of rings (size 3 to 8) (size 9 to 14) (size 15 to 20)
#    0.000    1.600    6.000    0.600    0.000    9.600 
#    0.000    2.000    0.000    0.000    0.000    0.000 
#    0.000    0.000    0.000    0.000    0.000    0.000 
#
# Total GULP energy -123912.960629 kJ/mol
# GULP energy per Si atom -12391.296063 kJ/mol
# Density = 2.285777 g / cm^3
# Si number density = 22.909911 Si / 1000 Ang^3
#
#
#
# Elastic Constant Matrix: (Units=GPa)
#
#
# Indices 1 2 3 4 5 6 
#
# 1 170.1504 81.3368 44.4237 24.6870 -2.1947 -30.8672
# 2 81.3368 162.9169 60.2678 14.8473 1.7750 -5.8900
# 3 44.4237 60.2678 130.7419 32.1720 -10.7414 -9.4538
# 4 24.6870 14.8473 32.1720 35.1379 -8.8194 -9.4688
# 5 -2.1947 1.7750 -10.7414 -8.8194 30.7104 1.3127
# 6 -30.8672 -5.8900 -9.4538 -9.4688 1.3127 41.7008
#
#
#
# Elastic Compliance Matrix: (Units=1/GPa)
#
#
# Indices 1 2 3 4 5 6 
#
# 1 0.009370 -0.004140 -0.000076 -0.003338 -0.000315 0.005585
# 2 -0.004140 0.009320 -0.003463 0.001134 -0.001625 -0.002225
# 3 -0.000076 -0.003463 0.011532 -0.008583 0.001761 0.000065
# 4 -0.003338 0.001134 -0.008583 0.041631 0.008439 0.004931
# 5 -0.000315 -0.001625 0.001761 0.008439 0.035642 0.000731
# 6 0.005585 -0.002225 0.000065 0.004931 0.000731 0.028912
#
#
# Mechanical properties :
#
#
# Convention : Reuss Voigt Hill
#
# Bulk Modulus (GPa) = 67.27652 92.87398 80.07525
# Shear Modulus (GPa) = 31.90444 40.02853 35.96648
#
# Velocity S-wave (km/s) = 3.73581 4.18450 3.96651
# Velocity P-wave (km/s) = 6.93093 7.99835 7.48369
#
# Compressibility (1/GPa) = 0.01486403
#
# Stress axis : x y z
#
# Youngs Moduli (GPa) = 106.72851 107.29537 86.71534
#
# Poissons Ratio (x) = 0.44422 0.00657
# Poissons Ratio (y) = 0.44188 0.30028
# Poissons Ratio (z) = 0.00808 0.37155
#
# Static dielectric constant tensor:
#      x y z
#    x 3.998200 0.182200 -0.458660 
#    y 0.182200 4.421600 0.348090 
#    z -0.458660 0.348090 4.135930 
# 
# 
# High freq. dielectric constant tensor:
#      x y z
#    x 1.910650 0.000480 -0.030470 
#    y 0.000480 1.887630 0.003630 
#    z -0.030470 0.003630 1.915500 
# 
# From -- ./inp_files/232035.got.cif
#   From: 2010.06.25/outbox.cif.g09.slc.cpg/sg2_117_cif.got.tgz:232035.got - 2010.06.27 13:26:56.
