data_PCOD8024257
_publ_section_title
;
Structure prediction by ZEFSAII (Michael W. Deem and Ramdas Pophale) SiO2 
 PCOD8024257
Probable space group: P -1
;
_chemical_formula_sum "Si O2"
_cell_formula_units_Z 16
_cell_length_a 15.156785
_cell_length_b 7.732282
_cell_length_c 9.927624
_cell_angle_alpha 47.865532
_cell_angle_beta 62.222864
_cell_angle_gamma 63.366347
_cell_volume 746.893691
_symmetry_space_group_name_H-M "P -1"
_symmetry_group_IT_number 2
_symmetry_cell_setting 'triclinic'
loop_
_space_group_symop_operation_xyz
x,y,z
-x,-y,-z
loop_
_atom_site_type_symbol
_atom_site_label
_atom_site_fract_x
_atom_site_fract_y
_atom_site_fract_z
Si Si1 0.275805 0.858174 0.203059
Si Si2 0.888737 0.336948 0.245932
Si Si3 0.600020 0.012182 0.719264
Si Si4 0.545906 0.764733 0.506263
Si Si5 0.476331 0.648864 0.071168
Si Si6 0.114320 0.295281 0.162571
Si Si7 0.804345 0.863956 0.530808
Si Si8 0.218764 0.402511 0.564667
O O1 0.361743 0.811570 0.049694
O O2 0.213667 0.648532 0.359449
O O3 0.340253 0.839776 0.305301
O O4 0.197031 0.106669 0.117851
O O5 0.842543 0.540749 0.281777
O O6 0.004809 0.225943 0.262214
O O7 0.828026 0.125572 0.394047
O O8 0.885697 0.450966 0.039353
O O9 0.681990 0.880155 0.619550
O O10 0.507639 0.197253 0.620921
O O11 0.557744 0.817492 0.940971
O O12 0.516951 0.530917 0.714795
O O13 0.666442 0.734333 0.414838
O O14 0.500000 0.000000 0.500000
O O15 0.500000 0.500000 0.000000
O O16 0.141797 0.301523 0.297964
O O17 0.836509 0.752958 0.418243
#
# Coordination Sequence:
#
# PCOD8024257 Si02
#       8
#     2   2   2   2   2   2   2   2
#     4  10  23  43  63  94 128 175 216 262 326 391
#     4  11  24  47  69  99 127 173 220 276 331 392
#     4  11  21  40  60  91 129 169 215 254 320 380
#     4  11  22  39  60  90 131 173 210 262 313 378
#     4  11  22  36  59  90 128 166 212 259 310 379
#     4  10  24  46  70  94 135 166 221 277 331 389
#     4  11  23  45  67  99 135 170 218 272 327 394
#     4  11  23  42  69  97 132 174 223 265 329 391
#
# _framework density 21.422058
#
# number of rings (size 3 to 8) (size 9 to 14) (size 15 to 20)
#    0.000    1.250    5.000    1.500    1.750    4.500 
#    2.250    1.250    0.000    0.000    0.000    0.000 
#    0.000    0.000    0.000    0.000    0.000    0.000 
#
# Total GULP energy -198350.108174 kJ/mol
# GULP energy per Si atom -12396.881761 kJ/mol
# Density = 2.137330 g / cm^3
# Si number density = 21.422058 Si / 1000 Ang^3
#
#
#
# Elastic Constant Matrix: (Units=GPa)
#
#
# Indices 1 2 3 4 5 6 
#
# 1 109.2906 52.8028 47.7869 -3.5330 11.5674 -13.3753
# 2 52.8028 114.0727 24.8593 9.4614 2.2337 2.3347
# 3 47.7869 24.8593 106.8697 -4.2104 -1.1572 -1.8999
# 4 -3.5330 9.4614 -4.2104 23.9663 -4.0584 0.5785
# 5 11.5674 2.2337 -1.1572 -4.0584 32.6486 1.3127
# 6 -13.3753 2.3347 -1.8999 0.5785 1.3127 36.7079
#
#
#
# Elastic Compliance Matrix: (Units=1/GPa)
#
#
# Indices 1 2 3 4 5 6 
#
# 1 0.016136 -0.006528 -0.005530 0.002930 -0.005349 0.006154
# 2 -0.006528 0.012352 -0.000223 -0.005653 0.000883 -0.003118
# 3 -0.005530 -0.000223 0.011957 0.001866 0.002691 -0.001507
# 4 0.002930 -0.005653 0.001866 0.045557 0.005053 0.000625
# 5 -0.005349 0.000883 0.002691 0.005053 0.033314 -0.003137
# 6 0.006154 -0.003118 -0.001507 0.000625 -0.003137 0.029707
#
#
# Mechanical properties :
#
#
# Convention : Reuss Voigt Hill
#
# Bulk Modulus (GPa) = 62.95626 64.57010 63.76318
# Shear Modulus (GPa) = 27.95182 32.31681 30.13432
#
# Velocity S-wave (km/s) = 3.61614 3.88825 3.75466
# Velocity P-wave (km/s) = 6.84745 7.09685 6.97327
#
# Compressibility (1/GPa) = 0.01588405
#
# Stress axis : x y z
#
# Youngs Moduli (GPa) = 61.97398 80.95771 83.62984
#
# Poissons Ratio (x) = 0.52851 0.46245
# Poissons Ratio (y) = 0.40458 0.01863
# Poissons Ratio (z) = 0.34270 0.01804
#
# Static dielectric constant tensor:
#      x y z
#    x 3.751450 -0.206880 0.225890 
#    y -0.206880 4.212460 0.027340 
#    z 0.225890 0.027340 3.291470 
# 
# 
# High freq. dielectric constant tensor:
#      x y z
#    x 1.831310 -0.006480 -0.003610 
#    y -0.006480 1.849820 0.002890 
#    z -0.003610 0.002890 1.835200 
# 
# From -- ./inp_files/446612.got.cif
#   From: 2010.06.25/outbox.cif.g09.slc.cpg/sg2_224_cif.got.tgz:446612.got - 2010.06.27 13:26:56.
