data_PCOD8024858
_publ_section_title
;
Structure prediction by ZEFSAII (Michael W. Deem and Ramdas Pophale) SiO2 
 PCOD8024858
Probable space group: P -1
;
_chemical_formula_sum "Si O2"
_cell_formula_units_Z 14
_cell_length_a 8.544142
_cell_length_b 14.043814
_cell_length_c 7.033431
_cell_angle_alpha 122.115858
_cell_angle_beta 102.143776
_cell_angle_gamma 101.790288
_cell_volume 645.866784
_symmetry_space_group_name_H-M "P -1"
_symmetry_group_IT_number 2
_symmetry_cell_setting 'triclinic'
loop_
_space_group_symop_operation_xyz
x,y,z
-x,-y,-z
loop_
_atom_site_type_symbol
_atom_site_label
_atom_site_fract_x
_atom_site_fract_y
_atom_site_fract_z
Si Si1 0.201723 0.138989 0.550019
Si Si2 0.359754 0.870246 0.763913
Si Si3 0.863401 0.284765 0.113796
Si Si4 0.509202 0.307896 0.620935
Si Si5 0.156779 0.513751 0.916377
Si Si6 0.131839 0.883169 0.381330
Si Si7 0.824872 0.691614 0.548247
O O1 0.399543 0.240338 0.711634
O O2 0.119678 0.168109 0.363106
O O3 0.075380 0.148951 0.696427
O O4 0.214428 0.008292 0.417353
O O5 0.264774 0.791260 0.837199
O O6 0.448290 0.791554 0.593455
O O7 0.219160 0.894765 0.622150
O O8 0.500000 0.000000 0.000000
O O9 0.841576 0.410352 0.195037
O O10 0.063597 0.313329 0.247273
O O11 0.823358 0.215571 0.829624
O O12 0.382889 0.356601 0.513986
O O13 0.671699 0.423926 0.849068
O O14 0.138784 0.382157 0.699287
O O15 0.000000 0.500000 0.000000
#
# Coordination Sequence:
#
# PCOD8024858 Si02
#       7
#     2   2   2   2   2   2   2
#     4   9  22  41  69  95 140 175 226 273 349 391
#     4  12  25  41  68 105 139 177 227 274 339 419
#     4  12  25  44  72  97 138 177 232 276 340 404
#     4  10  23  44  67 100 140 173 226 282 336 395
#     4  12  24  45  74  95 136 184 229 281 341 394
#     4  11  22  44  68  99 138 184 217 281 343 406
#     4  10  23  44  63 102 131 176 233 275 327 404
#
# _framework density 21.676299
#
# number of rings (size 3 to 8) (size 9 to 14) (size 15 to 20)
#    0.857    0.286    2.857    3.429    2.000    4.000 
#    0.000    1.429    0.000    0.000    0.000    0.000 
#    0.000    0.000    0.000    0.000    0.000    0.000 
#
# Total GULP energy -173450.701181 kJ/mol
# GULP energy per Si atom -12389.335799 kJ/mol
# Density = 2.162696 g / cm^3
# Si number density = 21.676299 Si / 1000 Ang^3
#
#
#
# Elastic Constant Matrix: (Units=GPa)
#
#
# Indices 1 2 3 4 5 6 
#
# 1 118.8810 27.1281 29.4655 -5.4071 10.9389 11.9697
# 2 27.1281 89.5729 21.0060 -11.6498 9.6985 5.2740
# 3 29.4655 21.0060 80.6096 -6.0445 6.5860 5.0149
# 4 -5.4071 -11.6498 -6.0445 20.6115 -4.5207 2.1413
# 5 10.9389 9.6985 6.5860 -4.5207 34.0047 4.4702
# 6 11.9697 5.2740 5.0149 2.1413 4.4702 40.3692
#
#
#
# Elastic Compliance Matrix: (Units=1/GPa)
#
#
# Indices 1 2 3 4 5 6 
#
# 1 0.009962 -0.001974 -0.002810 0.000518 -0.001742 -0.002182
# 2 -0.001974 0.013298 -0.002075 0.006098 -0.001811 -0.001017
# 3 -0.002810 -0.002075 0.014249 0.002144 -0.000889 -0.000681
# 4 0.000518 0.006098 0.002144 0.054432 0.005535 -0.004717
# 5 -0.001742 -0.001811 -0.000889 0.005535 0.031780 -0.002949
# 6 -0.002182 -0.001017 -0.000681 -0.004717 -0.002949 0.026212
#
#
# Mechanical properties :
#
#
# Convention : Reuss Voigt Hill
#
# Bulk Modulus (GPa) = 42.03318 49.36252 45.69785
# Shear Modulus (GPa) = 29.14044 33.09466 31.11755
#
# Velocity S-wave (km/s) = 3.67051 3.91163 3.79298
# Velocity P-wave (km/s) = 6.11530 6.57443 6.34902
#
# Compressibility (1/GPa) = 0.02379073
#
# Stress axis : x y z
#
# Youngs Moduli (GPa) = 100.37937 75.20141 70.17873
#
# Poissons Ratio (x) = 0.14842 0.19722
# Poissons Ratio (y) = 0.19811 0.14564
# Poissons Ratio (z) = 0.28210 0.15606
#
# Static dielectric constant tensor:
#      x y z
#    x 4.134240 -0.043260 0.028670 
#    y -0.043260 3.976860 0.084980 
#    z 0.028670 0.084980 3.608770 
# 
# 
# High freq. dielectric constant tensor:
#      x y z
#    x 1.871170 -0.005890 -0.002040 
#    y -0.005890 1.856760 0.007110 
#    z -0.002040 0.007110 1.821790 
# 
# From -- ./inp_files/40275.got.cif
#   From: 2010.06.25/outbox.cif.g09.slc.cpg/sg2_21_cif.got.tgz:40275.got - 2010.06.27 13:26:56.
