data_PCOD8024097
_publ_section_title
;
Structure prediction by ZEFSAII (Michael W. Deem and Ramdas Pophale) SiO2 
 PCOD8024097
Probable space group: P -1
;
_chemical_formula_sum "Si O2"
_cell_formula_units_Z 16
_cell_length_a 8.583260
_cell_length_b 14.627787
_cell_length_c 12.484449
_cell_angle_alpha 112.383557
_cell_angle_beta 67.298215
_cell_angle_gamma 55.496002
_cell_volume 732.966188
_symmetry_space_group_name_H-M "P -1"
_symmetry_group_IT_number 2
_symmetry_cell_setting 'triclinic'
loop_
_space_group_symop_operation_xyz
x,y,z
-x,-y,-z
loop_
_atom_site_type_symbol
_atom_site_label
_atom_site_fract_x
_atom_site_fract_y
_atom_site_fract_z
Si Si1 0.140040 0.858403 0.811081
Si Si2 0.680137 0.856745 0.180496
Si Si3 0.318374 0.203923 0.519760
Si Si4 0.812111 0.815583 0.889969
Si Si5 0.188969 0.596190 0.089680
Si Si6 0.143486 0.942312 0.610043
Si Si7 0.829017 0.538717 0.464888
Si Si8 0.563125 0.238027 0.758116
O O1 0.085161 0.917544 0.728474
O O2 0.497786 0.670764 0.654769
O O3 0.012316 0.814192 0.848295
O O4 0.000000 0.000000 0.000000
O O5 0.538282 0.826336 0.253762
O O6 0.991095 0.740190 0.108597
O O7 0.422333 0.069985 0.346890
O O8 0.752688 0.797634 0.012824
O O9 0.629299 0.074879 0.446615
O O10 0.198155 0.365509 0.576320
O O11 0.040437 0.295094 0.701242
O O12 0.989759 0.646420 0.701255
O O13 0.500000 0.000000 0.000000
O O14 0.500000 0.500000 0.000000
O O15 0.270469 0.447052 0.959046
O O16 0.297370 0.797810 0.411440
O O17 0.813188 0.137619 0.740083
O O18 0.000000 0.500000 0.500000
#
# Coordination Sequence:
#
# PCOD8024097 Si02
#       8
#     2   2   2   2   2   2   2   2
#     4  11  24  44  70 101 141 181 232 285 340 408
#     4  12  25  43  72  97 139 182 226 280 344 405
#     4  11  24  45  66  96 138 177 224 281 339 408
#     4  12  25  45  70 105 137 180 233 285 346 411
#     4  12  27  42  65 101 140 175 229 275 345 407
#     4  10  23  42  70  94 138 176 224 274 346 395
#     4  11  25  45  71  98 138 183 231 285 343 405
#     4  11  24  42  69 101 134 177 225 280 340 412
#
# _framework density 21.829111000000001
#
# number of rings (size 3 to 8) (size 9 to 14) (size 15 to 20)
#    0.000    0.750    1.250    6.375    7.000    2.000 
#    0.000    0.000    0.000    0.000    0.000    0.000 
#    0.000    0.000    0.000    0.000    0.000    0.000 
#
# Total GULP energy -198355.720083 kJ/mol
# GULP energy per Si atom -12397.232505 kJ/mol
# Density = 2.177943 g / cm^3
# Si number density = 21.829111 Si / 1000 Ang^3
#
#
#
# Elastic Constant Matrix: (Units=GPa)
#
#
# Indices 1 2 3 4 5 6 
#
# 1 112.5316 45.2345 49.0083 11.5470 4.1412 -6.9776
# 2 45.2345 98.2864 58.4246 3.0746 4.2703 -10.6760
# 3 49.0083 58.4246 156.7762 13.4430 20.3193 -3.3424
# 4 11.5470 3.0746 13.4430 44.0503 2.2110 4.4532
# 5 4.1412 4.2703 20.3193 2.2110 46.7678 8.7521
# 6 -6.9776 -10.6760 -3.3424 4.4532 8.7521 40.7226
#
#
#
# Elastic Compliance Matrix: (Units=1/GPa)
#
#
# Indices 1 2 3 4 5 6 
#
# 1 0.011642 -0.004033 -0.001931 -0.002288 0.000096 0.001009
# 2 -0.004033 0.014861 -0.004356 0.001064 0.000346 0.002657
# 3 -0.001931 -0.004356 0.009208 -0.001851 -0.003384 0.000212
# 4 -0.002288 0.001064 -0.001851 0.024075 0.000327 -0.002968
# 5 0.000096 0.000346 -0.003384 0.000327 0.023792 -0.005320
# 6 0.001009 0.002657 0.000212 -0.002968 -0.005320 0.026911
#
#
# Mechanical properties :
#
#
# Convention : Reuss Voigt Hill
#
# Bulk Modulus (GPa) = 66.36303 74.76990 70.56647
# Shear Modulus (GPa) = 36.72306 40.63660 38.67983
#
# Velocity S-wave (km/s) = 4.10603 4.31928 4.21401
# Velocity P-wave (km/s) = 7.27643 7.69426 7.48826
#
# Compressibility (1/GPa) = 0.01506863
#
# Stress axis : x y z
#
# Youngs Moduli (GPa) = 85.89245 67.29230 108.60697
#
# Poissons Ratio (x) = 0.27141 0.20973
# Poissons Ratio (y) = 0.34644 0.47314
# Poissons Ratio (z) = 0.16587 0.29316
#
# Static dielectric constant tensor:
#      x y z
#    x 3.970560 -0.140070 -0.014120 
#    y -0.140070 3.796470 0.041630 
#    z -0.014120 0.041630 4.152690 
# 
# 
# High freq. dielectric constant tensor:
#      x y z
#    x 1.868750 -0.010490 0.001480 
#    y -0.010490 1.854700 0.002690 
#    z 0.001480 0.002690 1.879010 
# 
# From -- ./inp_files/271339.got.cif
#   From: 2010.06.25/outbox.cif.g09.slc.cpg/sg2_136_cif.got.tgz:271339.got - 2010.06.27 13:26:56.
