data_PCOD8024576
_publ_section_title
;
Structure prediction by ZEFSAII (Michael W. Deem and Ramdas Pophale) SiO2 
 PCOD8024576
Probable space group: P -1
;
_chemical_formula_sum "Si O2"
_cell_formula_units_Z 16
_cell_length_a 5.038478
_cell_length_b 8.977493
_cell_length_c 18.565381
_cell_angle_alpha 122.931808
_cell_angle_beta 92.379063
_cell_angle_gamma 99.799537
_cell_volume 685.365124
_symmetry_space_group_name_H-M "P -1"
_symmetry_group_IT_number 2
_symmetry_cell_setting 'triclinic'
loop_
_space_group_symop_operation_xyz
x,y,z
-x,-y,-z
loop_
_atom_site_type_symbol
_atom_site_label
_atom_site_fract_x
_atom_site_fract_y
_atom_site_fract_z
Si Si1 0.284059 0.684053 0.012167
Si Si2 0.865044 0.911054 0.047229
Si Si3 0.516831 0.224534 0.348916
Si Si4 0.049052 0.654808 0.146141
Si Si5 0.187479 0.668953 0.309277
Si Si6 0.659509 0.934432 0.548856
Si Si7 0.947345 0.045049 0.234474
Si Si8 0.294515 0.395080 0.616339
O O1 0.227007 0.491829 0.919705
O O2 0.537533 0.829960 0.019197
O O3 0.300802 0.665765 0.094711
O O4 0.996678 0.741860 0.017944
O O5 0.939566 0.059365 0.151052
O O6 0.000000 0.000000 0.000000
O O7 0.536234 0.178819 0.421605
O O8 0.676447 0.096796 0.274338
O O9 0.630004 0.439387 0.395363
O O10 0.208183 0.184018 0.306093
O O11 0.162911 0.599127 0.208706
O O12 0.950825 0.840960 0.203822
O O13 0.459382 0.632283 0.337578
O O14 0.935306 0.556231 0.322676
O O15 0.161211 0.881674 0.365433
O O16 0.824755 0.792063 0.479671
O O17 0.500000 0.000000 0.500000
#
# Coordination Sequence:
#
# PCOD8024576 Si02
#       8
#     2   2   2   2   2   2   2   2
#     4  10  24  41  67 100 131 177 227 288 335 405
#     4  11  24  43  65  95 140 181 224 275 348 413
#     4  12  25  45  69  99 139 183 223 282 347 407
#     4  10  23  43  69 101 135 174 237 289 342 397
#     4  11  24  42  71  99 135 178 229 287 339 401
#     4  10  24  45  72 100 135 180 232 280 344 407
#     4  11  25  41  70  98 132 180 233 272 338 412
#     4  11  26  44  65 103 138 175 227 284 342 413
#
# _framework density 23.345220999999999
#
# number of rings (size 3 to 8) (size 9 to 14) (size 15 to 20)
#    0.000    1.250    1.250    3.375    3.500   12.500 
#    0.000    4.375    0.000    0.000    0.000    0.000 
#    0.000    0.000    0.000    0.000    0.000    0.000 
#
# Total GULP energy -198345.266575 kJ/mol
# GULP energy per Si atom -12396.579161 kJ/mol
# Density = 2.329209 g / cm^3
# Si number density = 23.345221 Si / 1000 Ang^3
#
#
#
# Elastic Constant Matrix: (Units=GPa)
#
#
# Indices 1 2 3 4 5 6 
#
# 1 81.5686 9.0757 20.3918 -10.5664 -1.2642 14.2142
# 2 9.0757 94.7364 40.8347 -19.4495 12.2757 19.3835
# 3 20.3918 40.8347 115.1325 -29.4376 4.2455 4.9710
# 4 -10.5664 -19.4495 -29.4376 48.5008 4.0177 -6.6529
# 5 -1.2642 12.2757 4.2455 4.0177 26.3424 -0.3877
# 6 14.2142 19.3835 4.9710 -6.6529 -0.3877 33.5936
#
#
#
# Elastic Compliance Matrix: (Units=1/GPa)
#
#
# Indices 1 2 3 4 5 6 
#
# 1 0.013907 0.001087 -0.002284 0.001246 0.000251 -0.005924
# 2 0.001087 0.015585 -0.004237 0.003379 -0.007165 -0.008240
# 3 -0.002284 -0.004237 0.011906 0.005474 -0.000849 0.002723
# 4 0.001246 0.003379 0.005474 0.026351 -0.006389 0.001858
# 5 0.000251 -0.007165 -0.000849 -0.006389 0.042473 0.003378
# 6 -0.005924 -0.008240 0.002723 0.001858 0.003378 0.037032
#
#
# Mechanical properties :
#
#
# Convention : Reuss Voigt Hill
#
# Bulk Modulus (GPa) = 32.75130 48.00466 40.37798
# Shear Modulus (GPa) = 29.70907 36.42971 33.06939
#
# Velocity S-wave (km/s) = 3.57122 3.95457 3.76778
# Velocity P-wave (km/s) = 5.57354 6.43888 6.02177
#
# Compressibility (1/GPa) = 0.03053314
#
# Stress axis : x y z
#
# Youngs Moduli (GPa) = 71.90494 64.16267 83.99120
#
# Poissons Ratio (x) = -0.06978 0.19181
# Poissons Ratio (y) = -0.07819 0.35583
# Poissons Ratio (z) = 0.16421 0.27183
#
# Static dielectric constant tensor:
#      x y z
#    x 4.005530 -0.062460 0.074620 
#    y -0.062460 4.391870 -0.091340 
#    z 0.074620 -0.091340 4.693370 
# 
# 
# High freq. dielectric constant tensor:
#      x y z
#    x 1.910420 0.001490 -0.004340 
#    y 0.001490 1.926960 -0.004520 
#    z -0.004340 -0.004520 1.936900 
# 
# From -- ./inp_files/547461.got.cif
#   From: 2010.06.25/outbox.cif.g09.slc.cpg/sg2_274_cif.got.tgz:547461.got - 2010.06.27 13:26:56.
