data_PCOD8024350
_publ_section_title
;
Structure prediction by ZEFSAII (Michael W. Deem and Ramdas Pophale) SiO2 
 PCOD8024350
Probable space group: P -1
;
_chemical_formula_sum "Si O2"
_cell_formula_units_Z 16
_cell_length_a 11.810639
_cell_length_b 9.377989
_cell_length_c 14.352007
_cell_angle_alpha 109.125819
_cell_angle_beta 127.393339
_cell_angle_gamma 113.471586
_cell_volume 722.746103
_symmetry_space_group_name_H-M "P -1"
_symmetry_group_IT_number 2
_symmetry_cell_setting 'triclinic'
loop_
_space_group_symop_operation_xyz
x,y,z
-x,-y,-z
loop_
_atom_site_type_symbol
_atom_site_label
_atom_site_fract_x
_atom_site_fract_y
_atom_site_fract_z
Si Si1 0.527411 0.813535 0.645369
Si Si2 0.737494 0.202445 0.608379
Si Si3 0.704589 0.052945 0.092509
Si Si4 0.633187 0.502056 0.184747
Si Si5 0.195960 0.726423 0.004723
Si Si6 0.160856 0.345202 0.483854
Si Si7 0.680065 0.493636 0.996764
Si Si8 0.154889 0.012225 0.324245
O O1 0.302990 0.728436 0.487079
O O2 0.410557 0.613220 0.623894
O O3 0.647598 0.817922 0.623127
O O4 0.735621 0.098405 0.844302
O O5 0.792069 0.072190 0.589078
O O6 0.933111 0.441375 0.825049
O O7 0.500000 0.000000 0.500000
O O8 0.805329 0.181470 0.071155
O O9 0.925832 0.240520 0.315521
O O10 0.500000 0.000000 0.000000
O O11 0.597348 0.795752 0.981667
O O12 0.818095 0.629888 0.388118
O O13 0.554073 0.611148 0.168342
O O14 0.749940 0.564540 0.156946
O O15 0.367958 0.724479 0.093115
O O16 0.138939 0.157019 0.397628
O O17 0.895966 0.747433 0.099283
#
# Coordination Sequence:
#
# PCOD8024350 Si02
#       8
#     2   2   2   2   2   2   2   2
#     4  11  23  42  68 100 134 179 225 270 332 397
#     4   9  21  40  62  94 132 171 221 270 314 393
#     4  12  24  46  67  98 135 172 227 284 332 400
#     4  11  24  45  67  99 131 177 222 279 342 393
#     4  11  22  42  69  96 133 176 219 276 333 390
#     4  12  25  44  69  99 136 177 224 273 344 398
#     4  10  23  45  67  95 138 171 225 278 331 402
#     4  10  23  43  65  97 138 177 220 273 326 404
#
# _framework density 22.137789000000001
#
# number of rings (size 3 to 8) (size 9 to 14) (size 15 to 20)
#    0.000    1.250    5.000    0.375    1.750    5.500 
#    6.750    1.250    0.000    0.000    0.000    0.000 
#    0.000    0.000    0.000    0.000    0.000    0.000 
#
# Total GULP energy -198237.442167 kJ/mol
# GULP energy per Si atom -12389.840135 kJ/mol
# Density = 2.208740 g / cm^3
# Si number density = 22.137789 Si / 1000 Ang^3
#
#
#
# Elastic Constant Matrix: (Units=GPa)
#
#
# Indices 1 2 3 4 5 6 
#
# 1 62.4308 13.9950 22.6550 -0.9562 8.0984 -4.6665
# 2 13.9950 72.2409 25.3407 9.6986 2.2979 -11.2967
# 3 22.6550 25.3407 102.1568 -1.4708 0.5531 -2.5226
# 4 -0.9562 9.6986 -1.4708 36.1472 -0.3340 -0.5647
# 5 8.0984 2.2979 0.5531 -0.3340 28.3050 2.3422
# 6 -4.6665 -11.2967 -2.5226 -0.5647 2.3422 26.8737
#
#
#
# Elastic Compliance Matrix: (Units=1/GPa)
#
#
# Indices 1 2 3 4 5 6 
#
# 1 0.018629 -0.001904 -0.003554 0.000850 -0.005310 0.002582
# 2 -0.001904 0.017237 -0.003752 -0.004738 -0.001382 0.006584
# 3 -0.003554 -0.003752 0.011492 0.001373 0.001212 -0.001192
# 4 0.000850 -0.004738 0.001373 0.029001 0.000552 -0.001154
# 5 -0.005310 -0.001382 0.001212 0.000552 0.037327 -0.004631
# 6 0.002582 0.006584 -0.001192 -0.001154 -0.004631 0.040694
#
#
# Mechanical properties :
#
#
# Convention : Reuss Voigt Hill
#
# Bulk Modulus (GPa) = 34.55662 40.08997 37.32329
# Shear Modulus (GPa) = 27.40541 29.92103 28.66322
#
# Velocity S-wave (km/s) = 3.52226 3.68037 3.60219
# Velocity P-wave (km/s) = 5.67322 6.01738 5.84783
#
# Compressibility (1/GPa) = 0.02893802
#
# Stress axis : x y z
#
# Youngs Moduli (GPa) = 53.67964 58.01467 87.02080
#
# Poissons Ratio (x) = 0.11044 0.30930
# Poissons Ratio (y) = 0.10219 0.32648
# Poissons Ratio (z) = 0.19080 0.21766
#
# Static dielectric constant tensor:
#      x y z
#    x 2.578460 1.759170 -1.390390 
#    y 1.759170 1.721480 2.208490 
#    z -1.390390 2.208490 2.062620 
# 
# 
# High freq. dielectric constant tensor:
#      x y z
#    x 1.854360 -0.008810 0.016960 
#    y -0.008810 1.891630 0.007970 
#    z 0.016960 0.007970 1.861790 
# 
# From -- ./inp_files/95458.got.cif
#   From: 2010.06.25/outbox.cif.g09.slc.cpg/sg2_48_cif.got.tgz:95458.got - 2010.06.27 13:26:56.
