data_PCOD8024805
_publ_section_title
;
Structure prediction by ZEFSAII (Michael W. Deem and Ramdas Pophale) SiO2 
 PCOD8024805
Probable space group: P -1
;
_chemical_formula_sum "Si O2"
_cell_formula_units_Z 14
_cell_length_a 9.020089
_cell_length_b 18.739252
_cell_length_c 5.522177
_cell_angle_alpha 55.680426
_cell_angle_beta 54.396783
_cell_angle_gamma 55.846806
_cell_volume 587.801201
_symmetry_space_group_name_H-M "P -1"
_symmetry_group_IT_number 2
_symmetry_cell_setting 'triclinic'
loop_
_space_group_symop_operation_xyz
x,y,z
-x,-y,-z
loop_
_atom_site_type_symbol
_atom_site_label
_atom_site_fract_x
_atom_site_fract_y
_atom_site_fract_z
Si Si1 0.920011 0.374741 0.268674
Si Si2 0.274176 0.038599 0.702944
Si Si3 0.068618 0.923753 0.378756
Si Si4 0.762897 0.554113 0.322826
Si Si5 0.580057 0.647077 0.812767
Si Si6 0.193209 0.725888 0.805673
Si Si7 0.821942 0.769976 0.362061
O O1 0.813040 0.443972 0.456203
O O2 0.759584 0.348245 0.316977
O O3 0.072755 0.278836 0.400981
O O4 0.035647 0.425712 0.896043
O O5 0.248614 0.119387 0.767678
O O6 0.127004 0.084321 0.536609
O O7 0.500000 0.000000 0.500000
O O8 0.210138 0.954026 0.010138
O O9 0.204810 0.824277 0.532560
O O10 0.000000 0.000000 0.500000
O O11 0.653423 0.581955 0.629876
O O12 0.645671 0.599593 0.100613
O O13 0.345683 0.685776 0.954749
O O14 0.643548 0.735863 0.542858
O O15 0.974589 0.738665 0.060904
#
# Coordination Sequence:
#
# PCOD8024805 Si02
#       7
#     2   2   2   2   2   2   2
#     4  10  23  43  73  93 146 183 229 290 359 410
#     4  11  26  44  72 101 138 184 233 294 353 425
#     4  11  25  45  66 101 140 176 234 288 356 423
#     4  10  24  46  68 107 139 189 236 291 351 428
#     4  11  27  43  72 104 143 181 244 289 350 424
#     4  12  25  43  71  99 137 188 227 296 352 421
#     4  11  24  45  66 102 137 183 232 289 357 422
#
# _framework density 23.817577
#
# number of rings (size 3 to 8) (size 9 to 14) (size 15 to 20)
#    0.000    1.143    4.286    0.000    6.000    6.857 
#    0.000    0.000    0.000    0.000    0.000    0.000 
#    0.000    0.000    0.000    0.000    0.000    0.000 
#
# Total GULP energy -173540.263923 kJ/mol
# GULP energy per Si atom -12395.733137 kJ/mol
# Density = 2.376337 g / cm^3
# Si number density = 23.817577 Si / 1000 Ang^3
#
#
#
# Elastic Constant Matrix: (Units=GPa)
#
#
# Indices 1 2 3 4 5 6 
#
# 1 123.9141 45.0980 21.1484 2.5535 -9.7287 3.4826
# 2 45.0980 121.2104 16.4624 -5.9653 -10.4247 20.0304
# 3 21.1484 16.4624 57.7113 0.7906 -2.0912 0.8099
# 4 2.5535 -5.9653 0.7906 35.0267 4.9318 2.1882
# 5 -9.7287 -10.4247 -2.0912 4.9318 31.6855 3.4536
# 6 3.4826 20.0304 0.8099 2.1882 3.4536 37.1936
#
#
#
# Elastic Compliance Matrix: (Units=1/GPa)
#
#
# Indices 1 2 3 4 5 6 
#
# 1 0.009902 -0.003390 -0.002583 -0.001563 0.001903 0.000870
# 2 -0.003390 0.011091 -0.001765 0.002155 0.002811 -0.006005
# 3 -0.002583 -0.001765 0.018769 -0.000568 -0.000137 0.000830
# 4 -0.001563 0.002155 -0.000568 0.029781 -0.004186 -0.002365
# 5 0.001903 0.002811 -0.000137 -0.004186 0.034215 -0.004620
# 6 0.000870 -0.006005 0.000830 -0.002365 -0.004620 0.030589
#
#
# Mechanical properties :
#
#
# Convention : Reuss Voigt Hill
#
# Bulk Modulus (GPa) = 41.17746 52.02818 46.60282
# Shear Modulus (GPa) = 31.66169 35.45630 33.55900
#
# Velocity S-wave (km/s) = 3.64997 3.86250 3.75774
# Velocity P-wave (km/s) = 5.92362 6.46404 6.19972
#
# Compressibility (1/GPa) = 0.02428513
#
# Stress axis : x y z
#
# Youngs Moduli (GPa) = 100.98880 90.15945 53.27963
#
# Poissons Ratio (x) = 0.30568 0.13764
# Poissons Ratio (y) = 0.34240 0.09403
# Poissons Ratio (z) = 0.26089 0.15912
#
# Static dielectric constant tensor:
#      x y z
#    x 4.304860 0.115050 -0.110680 
#    y 0.115050 4.309320 -0.350330 
#    z -0.110680 -0.350330 4.304030 
# 
# 
# High freq. dielectric constant tensor:
#      x y z
#    x 1.946370 0.013340 -0.004800 
#    y 0.013340 1.950520 -0.011480 
#    z -0.004800 -0.011480 1.938170 
# 
# From -- ./inp_files/46445.got.cif
#   From: 2010.06.25/outbox.cif.g09.slc.cpg/sg2_24_cif.got.tgz:46445.got - 2010.06.27 13:26:56.
