data_PCOD8024348
_publ_section_title
;
Structure prediction by ZEFSAII (Michael W. Deem and Ramdas Pophale) SiO2 
 PCOD8024348
Probable space group: P -1
;
_chemical_formula_sum "Si O2"
_cell_formula_units_Z 14
_cell_length_a 22.465470
_cell_length_b 7.537659
_cell_length_c 6.210946
_cell_angle_alpha 106.789060
_cell_angle_beta 111.516528
_cell_angle_gamma 36.823691
_cell_volume 586.416838
_symmetry_space_group_name_H-M "P -1"
_symmetry_group_IT_number 2
_symmetry_cell_setting 'triclinic'
loop_
_space_group_symop_operation_xyz
x,y,z
-x,-y,-z
loop_
_atom_site_type_symbol
_atom_site_label
_atom_site_fract_x
_atom_site_fract_y
_atom_site_fract_z
Si Si1 0.222204 0.583777 0.375600
Si Si2 0.548364 0.504446 0.867921
Si Si3 0.885107 0.863044 0.848709
Si Si4 0.075167 0.662548 0.999814
Si Si5 0.373075 0.992211 0.502022
Si Si6 0.748487 0.191541 0.174498
Si Si7 0.810121 0.743836 0.394324
O O1 0.186706 0.805805 0.220220
O O2 0.156657 0.539667 0.248249
O O3 0.208844 0.713336 0.635635
O O4 0.343058 0.243808 0.406440
O O5 0.465983 0.806643 0.726674
O O6 0.607780 0.225457 0.699364
O O7 0.500000 0.500000 0.000000
O O8 0.631937 0.470539 0.032954
O O9 0.886646 0.681168 0.632744
O O10 0.830868 0.928346 0.021446
O O11 0.004458 0.647217 0.969800
O O12 0.125092 0.519872 0.782729
O O13 0.000000 0.000000 0.000000
O O14 0.268537 0.211907 0.575893
O O15 0.738858 0.057130 0.296036
#
# Coordination Sequence:
#
# PCOD8024348 Si02
#       7
#     2   2   2   2   2   2   2
#     4  10  25  41  64  98 135 172 215 268 330 382
#     4  11  23  43  71  97 128 171 222 266 332 394
#     4  10  23  44  65  95 135 172 226 268 321 385
#     4  10  23  43  65  97 135 178 219 266 321 391
#     4  11  24  41  69 100 127 171 219 274 327 389
#     4  11  23  43  68  97 132 173 216 278 321 393
#     4  11  22  42  68  96 133 171 225 268 325 384
#
# _framework density 23.873802999999999
#
# number of rings (size 3 to 8) (size 9 to 14) (size 15 to 20)
#    0.000    1.429    2.857    1.286    4.000    1.714 
#    5.143    1.429    0.000    0.000    0.000    0.000 
#    0.000    0.000    0.000    0.000    0.000    0.000 
#
# Total GULP energy -173499.809911 kJ/mol
# GULP energy per Si atom -12392.843565 kJ/mol
# Density = 2.381946 g / cm^3
# Si number density = 23.873803 Si / 1000 Ang^3
#
#
#
# Elastic Constant Matrix: (Units=GPa)
#
#
# Indices 1 2 3 4 5 6 
#
# 1 70.0033 0.3717 39.7811 9.5727 6.6078 -26.0365
# 2 0.3717 98.3265 42.5709 2.4956 6.2161 -12.1964
# 3 39.7811 42.5709 162.9348 4.4963 31.5439 -25.3984
# 4 9.5727 2.4956 4.4963 39.8240 -1.8938 -0.4814
# 5 6.6078 6.2161 31.5439 -1.8938 36.0278 -0.6192
# 6 -26.0365 -12.1964 -25.3984 -0.4814 -0.6192 38.7433
#
#
#
# Elastic Compliance Matrix: (Units=1/GPa)
#
#
# Indices 1 2 3 4 5 6 
#
# 1 0.022271 0.003462 -0.003845 -0.005038 -0.001349 0.013452
# 2 0.003462 0.012137 -0.003434 -0.001145 0.000284 0.003887
# 3 -0.003845 -0.003434 0.009795 -0.000279 -0.007248 0.002637
# 4 -0.005038 -0.001145 -0.000279 0.026510 0.002698 -0.003556
# 5 -0.001349 0.000284 -0.007248 0.002698 0.034357 -0.004986
# 6 0.013452 0.003887 0.002637 -0.003556 -0.004986 0.037679
#
#
# Mechanical properties :
#
#
# Convention : Reuss Voigt Hill
#
# Bulk Modulus (GPa) = 27.34483 55.19024 41.26753
# Shear Modulus (GPa) = 30.75531 39.48840 35.12185
#
# Velocity S-wave (km/s) = 3.59311 4.07141 3.83971
# Velocity P-wave (km/s) = 5.35655 6.72826 6.08121
#
# Compressibility (1/GPa) = 0.03656999
#
# Stress axis : x y z
#
# Youngs Moduli (GPa) = 44.90109 82.39228 102.08858
#
# Poissons Ratio (x) = -0.28526 0.39254
# Poissons Ratio (y) = -0.15546 0.35057
# Poissons Ratio (z) = 0.17265 0.28294
#
# Static dielectric constant tensor:
#      x y z
#    x 4.522990 -0.106440 0.570180 
#    y -0.106440 4.524920 -0.373260 
#    z 0.570180 -0.373260 5.043100 
# 
# 
# High freq. dielectric constant tensor:
#      x y z
#    x 1.925180 0.011690 0.008770 
#    y 0.011690 1.966230 -0.016610 
#    z 0.008770 -0.016610 1.962020 
# 
# From -- ./inp_files/31607.got.cif
#   From: 2010.06.25/outbox.cif.g09.slc.cpg/sg2_16_cif.got.tgz:31607.got - 2010.06.27 13:26:56.
