data_PCOD8024944
_publ_section_title
;
Structure prediction by ZEFSAII (Michael W. Deem and Ramdas Pophale) SiO2 
 PCOD8024944
Probable space group: P -1
;
_chemical_formula_sum "Si O2"
_cell_formula_units_Z 14
_cell_length_a 9.653839
_cell_length_b 16.858287
_cell_length_c 5.048060
_cell_angle_alpha 108.231352
_cell_angle_beta 113.466937
_cell_angle_gamma 47.694730
_cell_volume 556.126457
_symmetry_space_group_name_H-M "P -1"
_symmetry_group_IT_number 2
_symmetry_cell_setting 'triclinic'
loop_
_space_group_symop_operation_xyz
x,y,z
-x,-y,-z
loop_
_atom_site_type_symbol
_atom_site_label
_atom_site_fract_x
_atom_site_fract_y
_atom_site_fract_z
Si Si1 0.903449 0.898815 0.345556
Si Si2 0.717491 0.661976 0.855617
Si Si3 0.595994 0.140090 0.516757
Si Si4 0.701264 0.478701 0.640490
Si Si5 0.948681 0.376517 0.208331
Si Si6 0.246994 0.202468 0.597225
Si Si7 0.103995 0.876667 0.969609
O O1 0.772417 0.863480 0.269861
O O2 0.990966 0.859501 0.080689
O O3 0.772388 0.028330 0.398840
O O4 0.084434 0.839083 0.630050
O O5 0.522306 0.769335 0.699576
O O6 0.673238 0.583284 0.832401
O O7 0.901181 0.600370 0.727185
O O8 0.778747 0.696588 0.189574
O O9 0.460914 0.120678 0.547395
O O10 0.675538 0.182314 0.830142
O O11 0.500000 0.500000 0.500000
O O12 0.788896 0.454944 0.388406
O O13 0.840442 0.384086 0.862900
O O14 0.081414 0.254494 0.297005
O O15 0.000000 0.000000 0.000000
#
# Coordination Sequence:
#
# PCOD8024944 Si02
#       7
#     2   2   2   2   2   2   2
#     4  11  25  43  69  97 142 186 231 277 334 400
#     4  11  26  44  73 100 138 180 227 279 346 405
#     4  10  24  42  67 100 140 182 229 281 336 399
#     4  12  27  48  74 103 133 176 225 285 346 409
#     4  11  25  49  71  98 138 177 222 279 346 411
#     4  11  26  43  70 105 135 183 231 279 335 400
#     4  10  23  44  66  94 134 188 230 277 337 389
#
# _framework density 25.174132
#
# number of rings (size 3 to 8) (size 9 to 14) (size 15 to 20)
#    0.000    1.143    1.429    3.429   14.000    2.857 
#    0.000    0.000    0.000    0.000    0.000    0.000 
#    0.000    0.000    0.000    0.000    0.000    0.000 
#
# Total GULP energy -173572.566732 kJ/mol
# GULP energy per Si atom -12398.040481 kJ/mol
# Density = 2.511683 g / cm^3
# Si number density = 25.174132 Si / 1000 Ang^3
#
#
#
# Elastic Constant Matrix: (Units=GPa)
#
#
# Indices 1 2 3 4 5 6 
#
# 1 107.2922 37.1640 37.8654 -20.5613 8.5369 8.8295
# 2 37.1640 46.8792 33.0608 -17.7464 13.6589 -7.9876
# 3 37.8654 33.0608 116.8072 -18.8031 -0.9459 -4.6428
# 4 -20.5613 -17.7464 -18.8031 39.2188 0.4513 7.7997
# 5 8.5369 13.6589 -0.9459 0.4513 41.6730 -6.6258
# 6 8.8295 -7.9876 -4.6428 7.7997 -6.6258 26.7767
#
#
#
# Elastic Compliance Matrix: (Units=1/GPa)
#
#
# Indices 1 2 3 4 5 6 
#
# 1 0.015422 -0.010691 -0.001667 0.004495 -0.001365 -0.010211
# 2 -0.010691 0.042662 -0.006927 0.008513 -0.010455 0.009983
# 3 -0.001667 -0.006927 0.011315 0.001217 0.002987 0.000830
# 4 0.004495 0.008513 0.001217 0.034374 -0.005669 -0.010147
# 5 -0.001365 -0.010455 0.002987 -0.005669 0.028889 0.006649
# 6 -0.010211 0.009983 0.000830 -0.010147 0.006649 0.048436
#
#
# Mechanical properties :
#
#
# Convention : Reuss Voigt Hill
#
# Bulk Modulus (GPa) = 32.43572 54.12879 43.28226
# Shear Modulus (GPa) = 21.74460 32.39293 27.06876
#
# Velocity S-wave (km/s) = 2.94218 3.59103 3.28267
# Velocity P-wave (km/s) = 4.94514 6.22434 5.62125
#
# Compressibility (1/GPa) = 0.03083021
#
# Stress axis : x y z
#
# Youngs Moduli (GPa) = 64.84260 23.44029 88.37785
#
# Poissons Ratio (x) = 0.25060 0.14730
# Poissons Ratio (y) = 0.69323 0.61215
# Poissons Ratio (z) = 0.10808 0.16236
#
# Static dielectric constant tensor:
#      x y z
#    x 4.877090 -0.062510 0.331650 
#    y -0.062510 4.176240 -0.354810 
#    z 0.331650 -0.354810 5.217360 
# 
# 
# High freq. dielectric constant tensor:
#      x y z
#    x 2.015820 -0.000490 -0.002130 
#    y -0.000490 1.976250 -0.017770 
#    z -0.002130 -0.017770 2.012420 
# 
# From -- ./inp_files/48699.got.cif
#   From: 2010.06.25/outbox.cif.g09.slc.cpg/sg2_25_cif.got.tgz:48699.got - 2010.06.27 13:26:56.
