data_PCOD8024559
_publ_section_title
;
Structure prediction by ZEFSAII (Michael W. Deem and Ramdas Pophale) SiO2 
 PCOD8024559
Probable space group: P -1
;
_chemical_formula_sum "Si O2"
_cell_formula_units_Z 14
_cell_length_a 13.501773
_cell_length_b 8.936315
_cell_length_c 8.257080
_cell_angle_alpha 133.984386
_cell_angle_beta 80.863967
_cell_angle_gamma 78.282970
_cell_volume 635.181941
_symmetry_space_group_name_H-M "P -1"
_symmetry_group_IT_number 2
_symmetry_cell_setting 'triclinic'
loop_
_space_group_symop_operation_xyz
x,y,z
-x,-y,-z
loop_
_atom_site_type_symbol
_atom_site_label
_atom_site_fract_x
_atom_site_fract_y
_atom_site_fract_z
Si Si1 0.664120 0.309422 0.035671
Si Si2 0.545380 0.778498 0.938682
Si Si3 0.261057 0.646638 0.602675
Si Si4 0.157302 0.126893 0.851504
Si Si5 0.210890 0.145070 0.516943
Si Si6 0.055640 0.584302 0.686038
Si Si7 0.678497 0.707860 0.147968
O O1 0.540245 0.332422 0.102096
O O2 0.748762 0.044682 0.776642
O O3 0.696106 0.391441 0.254274
O O4 0.675239 0.465585 0.005226
O O5 0.573862 0.849722 0.161982
O O6 0.658879 0.575463 0.687593
O O7 0.500000 0.000000 0.000000
O O8 0.134568 0.678968 0.650734
O O9 0.253548 0.886798 0.716504
O O10 0.142529 0.087440 0.633665
O O11 0.207823 0.317689 0.994118
O O12 0.040348 0.209930 0.034411
O O13 0.320140 0.158993 0.583587
O O14 0.128924 0.385474 0.641093
O O15 0.000000 0.500000 0.500000
#
# Coordination Sequence:
#
# PCOD8024559 Si02
#       7
#     2   2   2   2   2   2   2
#     4  12  24  45  71 100 140 185 225 280 346 400
#     4  12  26  44  72 101 136 187 228 282 343 401
#     4  12  24  46  67 105 138 176 233 285 338 413
#     4  10  23  43  68  99 138 177 223 283 337 400
#     4  10  24  44  68 100 142 176 226 279 339 401
#     4  12  23  43  71 101 138 181 227 280 345 403
#     4  10  24  46  67  98 145 170 235 277 333 407
#
# _framework density 22.040928000000001
#
# number of rings (size 3 to 8) (size 9 to 14) (size 15 to 20)
#    0.857    0.000    1.429    6.000    0.000    0.571 
#    0.000    2.143    0.000    0.000    0.000    0.000 
#    0.000    0.000    0.000    0.000    0.000    0.000 
#
# Total GULP energy -173514.389624 kJ/mol
# GULP energy per Si atom -12393.884973 kJ/mol
# Density = 2.199076 g / cm^3
# Si number density = 22.040928 Si / 1000 Ang^3
#
#
#
# Elastic Constant Matrix: (Units=GPa)
#
#
# Indices 1 2 3 4 5 6 
#
# 1 129.9993 37.2752 19.8783 -9.2124 1.8203 8.9875
# 2 37.2752 141.6376 25.4370 13.3978 -1.3758 -3.8020
# 3 19.8783 25.4370 74.9882 0.4581 -11.6964 6.8705
# 4 -9.2124 13.3978 0.4581 30.7900 -5.9672 5.6631
# 5 1.8203 -1.3758 -11.6964 -5.9672 34.0484 -14.6449
# 6 8.9875 -3.8020 6.8705 5.6631 -14.6449 47.4510
#
#
#
# Elastic Compliance Matrix: (Units=1/GPa)
#
#
# Indices 1 2 3 4 5 6 
#
# 1 0.009179 -0.002608 -0.001573 0.004095 -0.001578 -0.002696
# 2 -0.002608 0.008713 -0.002476 -0.004978 -0.000356 0.002035
# 3 -0.001573 -0.002476 0.015468 0.001525 0.005265 -0.000697
# 4 0.004095 -0.004978 0.001525 0.037586 0.004799 -0.004400
# 5 -0.001578 -0.000356 0.005265 0.004799 0.036473 0.010192
# 6 -0.002696 0.002035 -0.000697 -0.004400 0.010192 0.025520
#
#
# Mechanical properties :
#
#
# Convention : Reuss Voigt Hill
#
# Bulk Modulus (GPa) = 49.88305 56.86736 53.37521
# Shear Modulus (GPa) = 32.69334 40.06019 36.37677
#
# Velocity S-wave (km/s) = 3.85554 4.26788 4.06694
# Velocity P-wave (km/s) = 6.51931 7.08119 6.80605
#
# Compressibility (1/GPa) = 0.02004689
#
# Stress axis : x y z
#
# Youngs Moduli (GPa) = 108.93974 114.76516 64.64970
#
# Poissons Ratio (x) = 0.29935 0.10168
# Poissons Ratio (y) = 0.28415 0.16006
# Poissons Ratio (z) = 0.17133 0.28414
#
# Static dielectric constant tensor:
#      x y z
#    x 4.081140 0.076000 -0.018010 
#    y 0.076000 4.155860 -0.207080 
#    z -0.018010 -0.207080 3.766060 
# 
# 
# High freq. dielectric constant tensor:
#      x y z
#    x 1.867100 0.001550 0.004340 
#    y 0.001550 1.887040 -0.009910 
#    z 0.004340 -0.009910 1.851810 
# 
# From -- ./inp_files/299607.got.cif
#   From: 2010.06.25/outbox.cif.g09.slc.cpg/sg2_150_cif.got.tgz:299607.got - 2010.06.27 13:26:56.
