data_PCOD8024898
_publ_section_title
;
Structure prediction by ZEFSAII (Michael W. Deem and Ramdas Pophale) SiO2 
 PCOD8024898
Probable space group: P -1
;
_chemical_formula_sum "Si O2"
_cell_formula_units_Z 14
_cell_length_a 7.187725
_cell_length_b 9.499896
_cell_length_c 17.728299
_cell_angle_alpha 125.213604
_cell_angle_beta 125.718180
_cell_angle_gamma 46.204929
_cell_volume 677.965031
_symmetry_space_group_name_H-M "P -1"
_symmetry_group_IT_number 2
_symmetry_cell_setting 'triclinic'
loop_
_space_group_symop_operation_xyz
x,y,z
-x,-y,-z
loop_
_atom_site_type_symbol
_atom_site_label
_atom_site_fract_x
_atom_site_fract_y
_atom_site_fract_z
Si Si1 0.201209 0.143826 0.883837
Si Si2 0.026010 0.450619 0.404423
Si Si3 0.832018 0.912330 0.969121
Si Si4 0.729018 0.237903 0.288166
Si Si5 0.637019 0.213334 0.428556
Si Si6 0.064438 0.242548 0.631541
Si Si7 0.122410 0.487846 0.182254
O O1 0.009299 0.375569 0.881321
O O2 0.513345 0.078932 0.933563
O O3 0.155463 0.997442 0.774215
O O4 0.108518 0.129277 0.941006
O O5 0.323078 0.367669 0.417148
O O6 0.838221 0.662203 0.380169
O O7 0.000000 0.500000 0.500000
O O8 0.937220 0.291245 0.318774
O O9 0.927523 0.697533 0.884788
O O10 0.000000 0.000000 0.000000
O O11 0.708576 0.272093 0.383898
O O12 0.444677 0.387229 0.225497
O O13 0.802498 0.236789 0.542212
O O14 0.689683 0.987786 0.367744
O O15 0.009551 0.372138 0.733360
#
# Coordination Sequence:
#
# PCOD8024898 Si02
#       7
#     2   2   2   2   2   2   2
#     4  10  23  44  65  93 126 161 205 257 320 376
#     4  12  24  39  63  92 128 174 215 254 309 367
#     4  10  24  44  68  93 125 160 203 263 317 378
#     4  11  23  40  64  93 127 169 210 258 307 368
#     4  11  23  43  61  88 136 170 211 261 302 363
#     4  11  23  40  64  91 127 174 211 257 311 364
#     4  11  22  42  67  92 128 165 208 257 317 372
#
# _framework density 20.650031999999999
#
# number of rings (size 3 to 8) (size 9 to 14) (size 15 to 20)
#    0.000    1.143    4.286    1.714    2.000    2.286 
#    2.571    0.000    0.000    0.000    0.000    0.000 
#    0.000    0.000    0.000    0.000    0.000    0.000 
#
# Total GULP energy -173641.113733 kJ/mol
# GULP energy per Si atom -12402.936695 kJ/mol
# Density = 2.060303 g / cm^3
# Si number density = 20.650032 Si / 1000 Ang^3
#
#
#
# Elastic Constant Matrix: (Units=GPa)
#
#
# Indices 1 2 3 4 5 6 
#
# 1 100.1878 22.1765 28.2159 3.8678 -3.7307 24.4065
# 2 22.1765 114.0078 21.2230 -2.1069 -5.7775 20.0737
# 3 28.2159 21.2230 90.1965 8.9895 -12.4543 6.3285
# 4 3.8678 -2.1069 8.9895 35.0240 1.8033 -4.9626
# 5 -3.7307 -5.7775 -12.4543 1.8033 29.3003 4.2761
# 6 24.4065 20.0737 6.3285 -4.9626 4.2761 27.3842
#
#
#
# Elastic Compliance Matrix: (Units=1/GPa)
#
#
# Indices 1 2 3 4 5 6 
#
# 1 0.014125 0.000156 -0.002903 -0.002777 0.002656 -0.012951
# 2 0.000156 0.010568 -0.001594 -0.000235 0.002604 -0.007967
# 3 -0.002903 -0.001594 0.013546 -0.003657 0.005428 -0.000885
# 4 -0.002777 -0.000235 -0.003657 0.031481 -0.005356 0.010034
# 5 0.002656 0.002604 0.005428 -0.005356 0.039466 -0.012664
# 6 -0.012951 -0.007967 -0.000885 0.010034 -0.012664 0.057901
#
#
# Mechanical properties :
#
#
# Convention : Reuss Voigt Hill
#
# Bulk Modulus (GPa) = 33.83099 49.73588 41.78344
# Shear Modulus (GPa) = 26.93657 33.86014 30.39836
#
# Velocity S-wave (km/s) = 3.61561 4.05373 3.84092
# Velocity P-wave (km/s) = 5.81797 6.78585 6.32046
#
# Compressibility (1/GPa) = 0.02955869
#
# Stress axis : x y z
#
# Youngs Moduli (GPa) = 70.79420 94.62581 73.82129
#
# Poissons Ratio (x) = -0.01481 0.21433
# Poissons Ratio (y) = -0.01108 0.11764
# Poissons Ratio (z) = 0.20554 0.15079
#
# Static dielectric constant tensor:
#      x y z
#    x 4.011600 0.152220 -0.195650 
#    y 0.152220 4.109100 0.171030 
#    z -0.195650 0.171030 4.048990 
# 
# 
# High freq. dielectric constant tensor:
#      x y z
#    x 1.790980 0.015200 -0.006650 
#    y 0.015200 1.822070 0.008390 
#    z -0.006650 0.008390 1.819320 
# 
# From -- ./inp_files/89710.got.cif
#   From: 2010.06.25/outbox.cif.g09.slc.cpg/sg2_45_cif.got.tgz:89710.got - 2010.06.27 13:26:56.
