data_PCOD8024158
_publ_section_title
;
Structure prediction by ZEFSAII (Michael W. Deem and Ramdas Pophale) SiO2 
 PCOD8024158
Probable space group: P -1
;
_chemical_formula_sum "Si O2"
_cell_formula_units_Z 14
_cell_length_a 11.806267
_cell_length_b 14.855168
_cell_length_c 4.966029
_cell_angle_alpha 67.495419
_cell_angle_beta 112.052705
_cell_angle_gamma 128.346116
_cell_volume 619.508484
_symmetry_space_group_name_H-M "P -1"
_symmetry_group_IT_number 2
_symmetry_cell_setting 'triclinic'
loop_
_space_group_symop_operation_xyz
x,y,z
-x,-y,-z
loop_
_atom_site_type_symbol
_atom_site_label
_atom_site_fract_x
_atom_site_fract_y
_atom_site_fract_z
Si Si1 0.472996 0.094494 0.252149
Si Si2 0.821487 0.956857 0.156696
Si Si3 0.049177 0.584319 0.202694
Si Si4 0.624060 0.474854 0.599263
Si Si5 0.395244 0.747866 0.308083
Si Si6 0.198966 0.393729 0.913294
Si Si7 0.143275 0.151427 0.197860
O O1 0.520195 0.192516 0.408189
O O2 0.500000 0.000000 0.500000
O O3 0.302590 0.027507 0.090673
O O4 0.565671 0.156217 0.995725
O O5 0.774603 0.886108 0.479690
O O6 0.847414 0.880184 0.062566
O O7 0.970251 0.083937 0.195788
O O8 0.221317 0.679475 0.261450
O O9 0.000000 0.500000 0.500000
O O10 0.967860 0.651442 0.104638
O O11 0.000000 0.500000 0.000000
O O12 0.500000 0.500000 0.500000
O O13 0.554380 0.339326 0.621835
O O14 0.749858 0.562186 0.396718
O O15 0.698426 0.495082 0.932510
O O16 0.220477 0.290188 0.122349
#
# Coordination Sequence:
#
# PCOD8024158 Si02
#       7
#     2   2   2   2   2   2   2
#     4  12  28  47  71 103 139 186 241 286 357 423
#     4  10  23  46  66  97 136 174 233 284 350 405
#     4  12  23  46  69  98 139 180 235 281 340 420
#     4  12  27  44  69 106 143 179 233 278 355 436
#     4  12  26  47  72 101 142 191 227 296 355 410
#     4  12  24  44  70 103 135 180 235 283 349 414
#     4  10  23  42  71  98 130 180 226 292 342 405
#
# _framework density 22.598559999999999
#
# number of rings (size 3 to 8) (size 9 to 14) (size 15 to 20)
#    0.000    0.571    2.857    4.286    8.000    0.000 
#    5.143    0.000    0.000    0.000    0.000    0.000 
#    0.000    0.000    0.000    0.000    0.000    0.000 
#
# Total GULP energy -173605.905895 kJ/mol
# GULP energy per Si atom -12400.421850 kJ/mol
# Density = 2.254712 g / cm^3
# Si number density = 22.598560 Si / 1000 Ang^3
#
#
#
# Elastic Constant Matrix: (Units=GPa)
#
#
# Indices 1 2 3 4 5 6 
#
# 1 112.9857 12.8690 22.5430 1.0347 10.3568 10.1311
# 2 12.8690 74.9683 25.1440 4.6071 4.6377 -0.9992
# 3 22.5430 25.1440 115.7244 7.5514 -1.0402 8.5333
# 4 1.0347 4.6071 7.5514 43.8631 -1.3992 -1.8228
# 5 10.3568 4.6377 -1.0402 -1.3992 51.9623 0.1985
# 6 10.1311 -0.9992 8.5333 -1.8228 0.1985 32.9744
#
#
#
# Elastic Compliance Matrix: (Units=1/GPa)
#
#
# Indices 1 2 3 4 5 6 
#
# 1 0.009672 -0.001086 -0.001470 -0.000029 -0.001851 -0.002615
# 2 -0.001086 0.014699 -0.003042 -0.000969 -0.001188 0.001520
# 3 -0.001470 -0.003042 0.009855 -0.001414 0.000732 -0.002273
# 4 -0.000029 -0.000969 -0.001414 0.023233 0.000683 0.001625
# 5 -0.001851 -0.001188 0.000732 0.000683 0.019752 0.000262
# 6 -0.002615 0.001520 -0.002273 0.001625 0.000262 0.031852
#
#
# Mechanical properties :
#
#
# Convention : Reuss Voigt Hill
#
# Bulk Modulus (GPa) = 43.42049 47.19894 45.30971
# Shear Modulus (GPa) = 39.08216 41.96813 40.52514
#
# Velocity S-wave (km/s) = 4.16313 4.31410 4.23929
# Velocity P-wave (km/s) = 6.50879 6.76361 6.63743
#
# Compressibility (1/GPa) = 0.02303060
#
# Stress axis : x y z
#
# Youngs Moduli (GPa) = 103.39062 68.03250 101.47192
#
# Poissons Ratio (x) = 0.07387 0.14918
# Poissons Ratio (y) = 0.11226 0.30864
# Poissons Ratio (z) = 0.15200 0.20693
#
# Static dielectric constant tensor:
#      x y z
#    x 4.098980 0.028560 -0.099170 
#    y 0.028560 4.136130 0.148890 
#    z -0.099170 0.148890 4.241170 
# 
# 
# High freq. dielectric constant tensor:
#      x y z
#    x 1.899390 0.002360 -0.006400 
#    y 0.002360 1.888730 0.009140 
#    z -0.006400 0.009140 1.907360 
# 
# From -- ./inp_files/75584.got.cif
#   From: 2010.06.25/outbox.cif.g09.slc.cpg/sg2_38_cif.got.tgz:75584.got - 2010.06.27 13:26:56.
