data_PCOD8024279
_publ_section_title
;
Structure prediction by ZEFSAII (Michael W. Deem and Ramdas Pophale) SiO2 
 PCOD8024279
Probable space group: P -1
;
_chemical_formula_sum "Si O2"
_cell_formula_units_Z 16
_cell_length_a 9.735561
_cell_length_b 11.115985
_cell_length_c 13.005321
_cell_angle_alpha 142.756526
_cell_angle_beta 89.544601
_cell_angle_gamma 77.427935
_cell_volume 791.269829
_symmetry_space_group_name_H-M "P -1"
_symmetry_group_IT_number 2
_symmetry_cell_setting 'triclinic'
loop_
_space_group_symop_operation_xyz
x,y,z
-x,-y,-z
loop_
_atom_site_type_symbol
_atom_site_label
_atom_site_fract_x
_atom_site_fract_y
_atom_site_fract_z
Si Si1 0.904015 0.785222 0.910887
Si Si2 0.109345 0.948636 0.557753
Si Si3 0.753265 0.481569 0.631051
Si Si4 0.176676 0.732034 0.735563
Si Si5 0.043257 0.664651 0.042707
Si Si6 0.382425 0.449958 0.899818
Si Si7 0.596492 0.994928 0.398781
Si Si8 0.541916 0.555330 0.340312
O O1 0.786825 0.691426 0.801682
O O2 0.017201 0.764022 0.803264
O O3 0.992349 0.650484 0.916612
O O4 0.814395 0.032700 0.112201
O O5 0.152043 0.701530 0.415914
O O6 0.252204 0.993578 0.552178
O O7 0.000000 0.000000 0.500000
O O8 0.037300 0.092949 0.754755
O O9 0.801322 0.393001 0.456430
O O10 0.577874 0.542731 0.689156
O O11 0.301657 0.582781 0.708678
O O12 0.216902 0.624273 0.020527
O O13 0.000000 0.500000 0.000000
O O14 0.371665 0.237055 0.808118
O O15 0.447065 0.431207 0.772659
O O16 0.500000 0.500000 0.000000
O O17 0.500000 0.000000 0.500000
O O18 0.516878 0.191395 0.453138
#
# Coordination Sequence:
#
# PCOD8024279 Si02
#       8
#     2   2   2   2   2   2   2   2
#     4  11  25  44  68  96 133 167 220 276 323 388
#     4  11  23  38  63  96 129 170 220 266 331 392
#     4  11  24  42  67  96 127 171 225 267 324 399
#     4  11  23  48  66  93 133 172 219 270 329 384
#     4  12  23  41  68  96 133 174 210 278 332 377
#     4  11  24  41  61  97 133 172 219 262 332 398
#     4   9  21  40  58  87 129 167 204 266 316 377
#     4  10  23  43  64  90 132 172 213 270 325 388
#
# _framework density 20.220662000000001
#
# number of rings (size 3 to 8) (size 9 to 14) (size 15 to 20)
#    0.000    1.250    3.750    1.500    7.000    0.500 
#    2.250    0.000    0.000    0.000    0.000    0.000 
#    0.000    0.000    0.000    0.000    0.000    0.000 
#
# Total GULP energy -198352.819143 kJ/mol
# GULP energy per Si atom -12397.051196 kJ/mol
# Density = 2.017464 g / cm^3
# Si number density = 20.220662 Si / 1000 Ang^3
#
#
#
# Elastic Constant Matrix: (Units=GPa)
#
#
# Indices 1 2 3 4 5 6 
#
# 1 113.3587 35.4681 45.9286 6.8173 6.2751 0.8137
# 2 35.4681 86.0792 30.3906 -0.8541 14.7124 -6.6683
# 3 45.9286 30.3906 86.7178 5.0848 14.2967 -1.0625
# 4 6.8173 -0.8541 5.0848 35.8647 2.7352 -4.0609
# 5 6.2751 14.7124 14.2967 2.7352 39.1128 0.4869
# 6 0.8137 -6.6683 -1.0625 -4.0609 0.4869 35.4100
#
#
#
# Elastic Compliance Matrix: (Units=1/GPa)
#
#
# Indices 1 2 3 4 5 6 
#
# 1 0.012118 -0.003478 -0.005347 -0.001891 0.001467 -0.001331
# 2 -0.003478 0.015032 -0.002809 0.002096 -0.004255 0.003125
# 3 -0.005347 -0.002809 0.016048 -0.001029 -0.003880 0.000011
# 4 -0.001891 0.002096 -0.001029 0.029031 -0.002186 0.003767
# 5 0.001467 -0.004255 -0.003880 -0.002186 0.028523 -0.001594
# 6 -0.001331 0.003125 0.000011 0.003767 -0.001594 0.029314
#
#
# Mechanical properties :
#
#
# Convention : Reuss Voigt Hill
#
# Bulk Modulus (GPa) = 50.17374 56.63671 53.40522
# Shear Modulus (GPa) = 31.25444 33.70206 32.47825
#
# Velocity S-wave (km/s) = 3.93576 4.08697 4.01208
# Velocity P-wave (km/s) = 6.74690 7.09515 6.92322
#
# Compressibility (1/GPa) = 0.01993074
#
# Stress axis : x y z
#
# Youngs Moduli (GPa) = 82.52135 66.52349 62.31358
#
# Poissons Ratio (x) = 0.23138 0.33316
# Poissons Ratio (y) = 0.28702 0.17504
# Poissons Ratio (z) = 0.44120 0.18687
#
# Static dielectric constant tensor:
#      x y z
#    x 3.785210 0.217990 0.005970 
#    y 0.217990 3.870820 0.601650 
#    z 0.005970 0.601650 4.190950 
# 
# 
# High freq. dielectric constant tensor:
#      x y z
#    x 1.799190 0.007490 -0.010880 
#    y 0.007490 1.788600 0.008970 
#    z -0.010880 0.008970 1.793360 
# 
# From -- ./inp_files/314157.got.cif
#   From: 2010.06.25/outbox.cif.g09.slc.cpg/sg2_158_cif.got.tgz:314157.got - 2010.06.27 13:26:56.
