data_PCOD8024196
_publ_section_title
;
Structure prediction by ZEFSAII (Michael W. Deem and Ramdas Pophale) SiO2 
 PCOD8024196
Probable space group: P -1
;
_chemical_formula_sum "Si O2"
_cell_formula_units_Z 14
_cell_length_a 5.341851
_cell_length_b 12.376039
_cell_length_c 14.664862
_cell_angle_alpha 139.793187
_cell_angle_beta 66.587439
_cell_angle_gamma 106.936468
_cell_volume 574.214659
_symmetry_space_group_name_H-M "P -1"
_symmetry_group_IT_number 2
_symmetry_cell_setting 'triclinic'
loop_
_space_group_symop_operation_xyz
x,y,z
-x,-y,-z
loop_
_atom_site_type_symbol
_atom_site_label
_atom_site_fract_x
_atom_site_fract_y
_atom_site_fract_z
Si Si1 0.934028 0.834879 0.459607
Si Si2 0.907543 0.236418 0.091926
Si Si3 0.910872 0.875597 0.811631
Si Si4 0.225517 0.306841 0.918011
Si Si5 0.298649 0.776187 0.544304
Si Si6 0.429246 0.428639 0.366365
Si Si7 0.819248 0.314475 0.835944
O O1 0.614601 0.819828 0.516204
O O2 0.114077 0.832492 0.522739
O O3 0.030432 0.683554 0.282149
O O4 0.000000 0.000000 0.500000
O O5 0.055319 0.195431 0.138143
O O6 0.684300 0.382129 0.234549
O O7 0.130870 0.303926 0.033970
O O8 0.783019 0.063964 0.957425
O O9 0.193434 0.877700 0.714791
O O10 0.721704 0.744262 0.702703
O O11 0.527426 0.220234 0.811113
O O12 0.009960 0.220500 0.824454
O O13 0.246290 0.496834 0.001255
O O14 0.259315 0.575397 0.433794
O O15 0.500000 0.500000 0.500000
#
# Coordination Sequence:
#
# PCOD8024196 Si02
#       7
#     2   2   2   2   2   2   2
#     4  12  28  47  76 107 148 190 252 314 379 445
#     4  11  26  45  74 109 153 199 247 309 385 441
#     4  11  27  46  72 112 155 195 255 306 380 459
#     4  10  23  42  72  99 142 189 236 304 362 444
#     4  12  27  47  80 106 150 202 248 311 385 447
#     4  12  25  48  75 109 153 201 255 309 367 461
#     4  10  23  44  67 105 137 183 251 296 365 436
#
# _framework density 24.381122999999999
#
# number of rings (size 3 to 8) (size 9 to 14) (size 15 to 20)
#    0.000    0.857    1.429    3.857   10.000    1.143 
#    0.000    0.000    0.000    0.000    0.000    0.000 
#    0.000    0.000    0.000    0.000    0.000    0.000 
#
# Total GULP energy -173572.289809 kJ/mol
# GULP energy per Si atom -12398.020701 kJ/mol
# Density = 2.432563 g / cm^3
# Si number density = 24.381123 Si / 1000 Ang^3
#
#
#
# Elastic Constant Matrix: (Units=GPa)
#
#
# Indices 1 2 3 4 5 6 
#
# 1 179.2939 52.4521 48.1647 -24.4963 -8.6200 -6.5743
# 2 52.4521 98.4712 37.4786 -25.4213 4.9784 -12.5517
# 3 48.1647 37.4786 140.7049 -17.6126 0.2493 -0.5495
# 4 -24.4963 -25.4213 -17.6126 53.2947 15.2212 -2.6068
# 5 -8.6200 4.9784 0.2493 15.2212 28.5354 -4.6169
# 6 -6.5743 -12.5517 -0.5495 -2.6068 -4.6169 36.7471
#
#
#
# Elastic Compliance Matrix: (Units=1/GPa)
#
#
# Indices 1 2 3 4 5 6 
#
# 1 0.007121 -0.003108 -0.001536 0.000603 0.002473 0.000543
# 2 -0.003108 0.015418 -0.002086 0.007407 -0.006859 0.004343
# 3 -0.001536 -0.002086 0.008350 0.001304 -0.001014 -0.000897
# 4 0.000603 0.007407 0.001304 0.027526 -0.015371 0.002679
# 5 0.002473 -0.006859 -0.001014 -0.015371 0.045637 0.002728
# 6 0.000543 0.004343 -0.000897 0.002679 0.002728 0.029313
#
#
# Mechanical properties :
#
#
# Convention : Reuss Voigt Hill
#
# Bulk Modulus (GPa) = 57.38447 77.18452 67.28450
# Shear Modulus (GPa) = 32.75790 42.40709 37.58250
#
# Velocity S-wave (km/s) = 3.66946 4.17507 3.93040
# Velocity P-wave (km/s) = 6.44521 7.41403 6.94653
#
# Compressibility (1/GPa) = 0.01742632
#
# Stress axis : x y z
#
# Youngs Moduli (GPa) = 140.43648 64.86077 119.75780
#
# Poissons Ratio (x) = 0.20162 0.18399
# Poissons Ratio (y) = 0.43654 0.24985
# Poissons Ratio (z) = 0.21575 0.13532
#
# Static dielectric constant tensor:
#      x y z
#    x 4.536790 0.037470 -0.079620 
#    y 0.037470 4.525790 0.002770 
#    z -0.079620 0.002770 4.880790 
# 
# 
# High freq. dielectric constant tensor:
#      x y z
#    x 1.962370 0.000020 -0.003940 
#    y 0.000020 1.971340 -0.004920 
#    z -0.003940 -0.004920 1.988170 
# 
# From -- ./inp_files/482314.got.cif
#   From: 2010.06.25/outbox.cif.g09.slc.cpg/sg2_242_cif.got.tgz:482314.got - 2010.06.27 13:26:56.
