data_PCOD8024763
_publ_section_title
;
Structure prediction by ZEFSAII (Michael W. Deem and Ramdas Pophale) SiO2 
 PCOD8024763
Probable space group: P -1
;
_chemical_formula_sum "Si O2"
_cell_formula_units_Z 16
_cell_length_a 17.379403
_cell_length_b 9.927029
_cell_length_c 5.389991
_cell_angle_alpha 126.430665
_cell_angle_beta 110.556085
_cell_angle_gamma 84.195186
_cell_volume 693.395456
_symmetry_space_group_name_H-M "P -1"
_symmetry_group_IT_number 2
_symmetry_cell_setting 'triclinic'
loop_
_space_group_symop_operation_xyz
x,y,z
-x,-y,-z
loop_
_atom_site_type_symbol
_atom_site_label
_atom_site_fract_x
_atom_site_fract_y
_atom_site_fract_z
Si Si1 0.092942 0.344573 0.568598
Si Si2 0.813953 0.813500 0.130813
Si Si3 0.736872 0.586063 0.418179
Si Si4 0.503330 0.104353 0.872224
Si Si5 0.321642 0.778399 0.935053
Si Si6 0.671061 0.870708 0.392501
Si Si7 0.152100 0.849331 0.691215
Si Si8 0.061714 0.712174 0.948408
O O1 0.100391 0.211569 0.655907
O O2 0.187579 0.401232 0.670090
O O3 0.056889 0.513977 0.791858
O O4 0.032712 0.254932 0.185394
O O5 0.745433 0.887488 0.299230
O O6 0.834273 0.944801 0.065352
O O7 0.774198 0.628949 0.781695
O O8 0.687460 0.399579 0.125840
O O9 0.679672 0.730037 0.455311
O O10 0.420782 0.195420 0.893896
O O11 0.500000 0.000000 0.500000
O O12 0.592417 0.223131 0.118935
O O13 0.500000 0.000000 0.000000
O O14 0.240099 0.780268 0.671910
O O15 0.326696 0.939499 0.296146
O O16 0.114852 0.773157 0.826685
O O17 0.094482 0.807857 0.338673
#
# Coordination Sequence:
#
# PCOD8024763 Si02
#       8
#     2   2   2   2   2   2   2   2
#     4  10  25  43  65  96 141 176 233 293 350 402
#     4  11  24  42  69  97 145 178 233 295 344 413
#     4  11  23  43  69 102 136 182 234 282 348 415
#     4  10  23  43  72 103 137 182 226 285 343 408
#     4  11  22  45  73  99 139 183 234 279 351 415
#     4  10  23  45  68 101 142 181 228 286 346 412
#     4  12  24  42  70  97 134 182 236 278 352 411
#     4  11  26  44  69  98 133 185 234 291 345 424
#
# _framework density 23.074857000000002
#
# number of rings (size 3 to 8) (size 9 to 14) (size 15 to 20)
#    0.000    1.250    2.500    2.250    5.250    3.500 
#    9.000    0.625    0.000    0.000    0.000    0.000 
#    0.000    0.000    0.000    0.000    0.000    0.000 
#
# Total GULP energy -198219.962349 kJ/mol
# GULP energy per Si atom -12388.747647 kJ/mol
# Density = 2.302234 g / cm^3
# Si number density = 23.074857 Si / 1000 Ang^3
#
#
#
# Elastic Constant Matrix: (Units=GPa)
#
#
# Indices 1 2 3 4 5 6 
#
# 1 51.5003 27.9872 12.9566 -3.7585 23.5195 -1.0407
# 2 27.9872 119.4955 35.9509 7.5246 8.1302 3.1634
# 3 12.9566 35.9509 52.7879 0.8950 3.0361 3.4673
# 4 -3.7585 7.5246 0.8950 41.0144 0.8610 0.9984
# 5 23.5195 8.1302 3.0361 0.8610 38.8970 -4.1626
# 6 -1.0407 3.1634 3.4673 0.9984 -4.1626 35.2812
#
#
#
# Elastic Compliance Matrix: (Units=1/GPa)
#
#
# Indices 1 2 3 4 5 6 
#
# 1 0.031684 -0.005562 -0.002999 0.004378 -0.017913 -0.000509
# 2 -0.005562 0.011742 -0.006651 -0.002541 0.001450 -0.000320
# 3 -0.002999 -0.006651 0.024254 0.000435 0.001113 -0.001757
# 4 0.004378 -0.002541 0.000435 0.025316 -0.002788 -0.000731
# 5 -0.017913 0.001450 0.001113 -0.002788 0.036600 0.003629
# 6 -0.000509 -0.000320 -0.001757 -0.000731 0.003629 0.028979
#
#
# Mechanical properties :
#
#
# Convention : Reuss Voigt Hill
#
# Bulk Modulus (GPa) = 26.84179 41.95257 34.39718
# Shear Modulus (GPa) = 24.82396 32.83110 28.82753
#
# Velocity S-wave (km/s) = 3.28350 3.77611 3.53839
# Velocity P-wave (km/s) = 5.10224 6.10184 5.62430
#
# Compressibility (1/GPa) = 0.03725534
#
# Stress axis : x y z
#
# Youngs Moduli (GPa) = 31.56132 85.16435 41.23112
#
# Poissons Ratio (x) = 0.47367 0.12367
# Poissons Ratio (y) = 0.17554 0.27423
# Poissons Ratio (z) = 0.09467 0.56642
#
# Static dielectric constant tensor:
#      x y z
#    x 4.643040 -0.100480 0.603740 
#    y -0.100480 4.524800 -0.228900 
#    z 0.603740 -0.228900 4.246370 
# 
# 
# High freq. dielectric constant tensor:
#      x y z
#    x 1.912790 -0.008040 0.019000 
#    y -0.008040 1.921070 -0.012640 
#    z 0.019000 -0.012640 1.900580 
# 
# From -- ./inp_files/44640.got.cif
#   From: 2010.06.25/outbox.cif.g09.slc.cpg/sg2_23_cif.got.tgz:44640.got - 2010.06.27 13:26:56.
