data_PCOD8024700
_publ_section_title
;
Structure prediction by ZEFSAII (Michael W. Deem and Ramdas Pophale) SiO2 
 PCOD8024700
Probable space group: P -1
;
_chemical_formula_sum "Si O2"
_cell_formula_units_Z 16
_cell_length_a 12.401719
_cell_length_b 8.557498
_cell_length_c 9.593498
_cell_angle_alpha 113.896352
_cell_angle_beta 121.771958
_cell_angle_gamma 59.887911
_cell_volume 734.881055
_symmetry_space_group_name_H-M "P -1"
_symmetry_group_IT_number 2
_symmetry_cell_setting 'triclinic'
loop_
_space_group_symop_operation_xyz
x,y,z
-x,-y,-z
loop_
_atom_site_type_symbol
_atom_site_label
_atom_site_fract_x
_atom_site_fract_y
_atom_site_fract_z
Si Si1 0.911930 0.445675 0.607010
Si Si2 0.641890 0.106162 0.211092
Si Si3 0.868489 0.386234 0.106516
Si Si4 0.610175 0.734031 0.083410
Si Si5 0.641891 0.751948 0.430798
Si Si6 0.610175 0.155794 0.526766
Si Si7 0.911930 0.142393 0.304919
Si Si8 0.868488 0.245278 0.761974
O O1 0.786152 0.590605 0.491659
O O2 0.971222 0.264388 0.485612
O O3 0.862204 0.405902 0.709040
O O4 0.031049 0.522155 0.731264
O O5 0.587597 0.173307 0.352524
O O6 0.786152 0.123241 0.294489
O O7 0.661113 0.894255 0.124339
O O8 0.533879 0.237993 0.076169
O O9 0.719283 0.540189 0.038257
O O10 0.862205 0.231894 0.153165
O O11 0.923707 0.288147 0.961854
O O12 0.587597 0.739098 0.235073
O O13 0.533879 0.728130 0.457710
O O14 0.661116 0.944630 0.536775
O O15 0.719282 0.240529 0.681027
O O16 0.031050 0.946795 0.299785
#
# Coordination Sequence:
#
# PCOD8024700 Si02
#       8
#     2   2   2   2   2   2   2   2
#     4  12  25  45  70  97 130 178 223 270 328 391
#     4  10  23  43  70  98 130 175 216 271 325 396
#     4  12  27  44  67 100 135 173 219 277 328 387
#     4  10  23  44  68  97 134 172 218 266 333 388
#     4  10  23  43  70  98 130 175 216 271 325 396
#     4  10  23  44  68  97 134 172 218 266 333 388
#     4  12  25  45  70  97 130 178 223 270 328 391
#     4  12  27  44  67 100 135 173 219 277 328 387
#
# _framework density 21.77223
#
# number of rings (size 3 to 8) (size 9 to 14) (size 15 to 20)
#    0.000    1.000    2.500    3.000    7.000    2.000 
#    4.500    0.000    0.000    0.000    0.000    0.000 
#    0.000    0.000    0.000    0.000    0.000    0.000 
#
# Total GULP energy -198542.979064 kJ/mol
# GULP energy per Si atom -12408.936191 kJ/mol
# Density = 2.172268 g / cm^3
# Si number density = 21.772230 Si / 1000 Ang^3
#
#
#
# Elastic Constant Matrix: (Units=GPa)
#
#
# Indices 1 2 3 4 5 6 
#
# 1 81.0745 10.9909 17.3923 3.0695 -9.3910 5.2062
# 2 10.9909 65.4347 18.6682 -5.8311 -1.0927 -4.1551
# 3 17.3923 18.6682 101.3485 -0.7307 -11.7849 -0.9155
# 4 3.0695 -5.8311 -0.7307 35.2900 3.6518 -7.1579
# 5 -9.3910 -1.0927 -11.7849 3.6518 37.8430 -3.6469
# 6 5.2062 -4.1551 -0.9155 -7.1579 -3.6469 29.1512
#
#
#
# Elastic Compliance Matrix: (Units=1/GPa)
#
#
# Indices 1 2 3 4 5 6 
#
# 1 0.013593 -0.002179 -0.001658 -0.002480 0.002739 -0.003057
# 2 -0.002179 0.016992 -0.002807 0.003752 -0.000947 0.003526
# 3 -0.001658 -0.002807 0.011023 -0.000293 0.003021 0.000548
# 4 -0.002480 0.003752 -0.000293 0.031132 -0.002806 0.008262
# 5 0.002739 -0.000947 0.003021 -0.002806 0.028515 0.002349
# 6 -0.003057 0.003526 0.000548 0.008262 0.002349 0.037692
#
#
# Mechanical properties :
#
#
# Convention : Reuss Voigt Hill
#
# Bulk Modulus (GPa) = 35.31328 37.99560 36.65444
# Shear Modulus (GPa) = 30.92602 33.84392 32.38497
#
# Velocity S-wave (km/s) = 3.77295 3.94693 3.86092
# Velocity P-wave (km/s) = 5.93590 6.18549 6.06198
#
# Compressibility (1/GPa) = 0.02831795
#
# Stress axis : x y z
#
# Youngs Moduli (GPa) = 73.56761 58.85194 90.72173
#
# Poissons Ratio (x) = 0.12827 0.15044
# Poissons Ratio (y) = 0.16034 0.25466
# Poissons Ratio (z) = 0.12199 0.16520
#
# Static dielectric constant tensor:
#      x y z
#    x 3.949600 0.140390 -0.082800 
#    y 0.140390 4.038500 -0.032860 
#    z -0.082800 -0.032860 3.949880 
# 
# 
# High freq. dielectric constant tensor:
#      x y z
#    x 1.861180 0.006570 -0.007360 
#    y 0.006570 1.861080 -0.004330 
#    z -0.007360 -0.004330 1.863030 
# 
# From -- ./inp_files/242882.got.cif
#   From: 2010.06.25/outbox.cif.g09.slc.cpg/sg2_122_cif.got.tgz:242882.got - 2010.06.27 13:26:56.
