data_PCOD8024922
_publ_section_title
;
Structure prediction by ZEFSAII (Michael W. Deem and Ramdas Pophale) SiO2 
 PCOD8024922
Probable space group: P -1
;
_chemical_formula_sum "Si O2"
_cell_formula_units_Z 14
_cell_length_a 11.587523
_cell_length_b 21.261511
_cell_length_c 9.238913
_cell_angle_alpha 29.160332
_cell_angle_beta 119.850930
_cell_angle_gamma 139.091683
_cell_volume 625.404119
_symmetry_space_group_name_H-M "P -1"
_symmetry_group_IT_number 2
_symmetry_cell_setting 'triclinic'
loop_
_space_group_symop_operation_xyz
x,y,z
-x,-y,-z
loop_
_atom_site_type_symbol
_atom_site_label
_atom_site_fract_x
_atom_site_fract_y
_atom_site_fract_z
Si Si1 0.045877 0.390205 0.795710
Si Si2 0.372989 0.929122 0.419878
Si Si3 0.419358 0.677570 0.944764
Si Si4 0.323480 0.285368 0.397966
Si Si5 0.553150 0.314722 0.709727
Si Si6 0.066934 0.316579 0.261987
Si Si7 0.183834 0.034652 0.558320
O O1 0.244343 0.488076 0.639305
O O2 0.000000 0.500000 0.500000
O O3 0.079331 0.426597 0.916110
O O4 0.872491 0.157192 0.115311
O O5 0.356150 0.774716 0.651870
O O6 0.154282 0.835379 0.498751
O O7 0.500000 0.000000 0.500000
O O8 0.501008 0.127649 0.007714
O O9 0.642568 0.801966 0.779067
O O10 0.422416 0.657204 0.159271
O O11 0.242774 0.460430 0.202479
O O12 0.381511 0.283088 0.601117
O O13 0.110874 0.209327 0.431712
O O14 0.280715 0.126770 0.592973
O O15 0.500000 0.500000 0.000000
O O16 0.000000 0.000000 0.500000
#
# Coordination Sequence:
#
# PCOD8024922 Si02
#       7
#     2   2   2   2   2   2   2
#     4  12  24  43  71 104 137 186 240 283 342 418
#     4  10  23  44  66 101 137 179 228 290 350 407
#     4  11  24  44  71 101 138 181 232 289 351 411
#     4  12  24  47  67 102 140 184 234 287 345 421
#     4  11  24  43  67 101 140 176 234 290 343 407
#     4  12  24  45  71  95 146 184 228 289 348 415
#     4  12  24  45  73  98 140 188 226 280 357 412
#
# _framework density 22.385527
#
# number of rings (size 3 to 8) (size 9 to 14) (size 15 to 20)
#    0.000    0.571    4.286    4.714    0.000    3.429 
#    0.000    2.857    0.000    0.000    0.000    0.000 
#    0.000    0.000    0.000    0.000    0.000    0.000 
#
# Total GULP energy -173527.109395 kJ/mol
# GULP energy per Si atom -12394.793528 kJ/mol
# Density = 2.233458 g / cm^3
# Si number density = 22.385527 Si / 1000 Ang^3
#
#
#
# Elastic Constant Matrix: (Units=GPa)
#
#
# Indices 1 2 3 4 5 6 
#
# 1 76.0486 24.4080 0.0143 -11.7701 -1.6783 3.3335
# 2 24.4080 114.9697 49.5403 4.5898 0.8995 -8.0554
# 3 0.0143 49.5403 73.5729 -3.1192 4.1022 -5.5808
# 4 -11.7701 4.5898 -3.1192 38.5258 8.7202 -1.8983
# 5 -1.6783 0.8995 4.1022 8.7202 44.7480 -1.9106
# 6 3.3335 -8.0554 -5.5808 -1.8983 -1.9106 40.8157
#
#
#
# Elastic Compliance Matrix: (Units=1/GPa)
#
#
# Indices 1 2 3 4 5 6 
#
# 1 0.015816 -0.005314 0.003752 0.005885 -0.000859 -0.001594
# 2 -0.005314 0.014321 -0.009765 -0.004333 0.001329 0.001786
# 3 0.003752 -0.009765 0.020544 0.004550 -0.002404 0.000675
# 4 0.005885 -0.004333 0.004550 0.030003 -0.005939 0.000404
# 5 -0.000859 0.001329 -0.002404 -0.005939 0.023702 0.000837
# 6 -0.001594 0.001786 0.000675 0.000404 0.000837 0.025133
#
#
# Mechanical properties :
#
#
# Convention : Reuss Voigt Hill
#
# Bulk Modulus (GPa) = 35.67905 45.83515 40.75710
# Shear Modulus (GPa) = 30.95643 37.52646 34.24145
#
# Velocity S-wave (km/s) = 3.72274 4.09879 3.91528
# Velocity P-wave (km/s) = 5.86953 6.55133 6.21978
#
# Compressibility (1/GPa) = 0.02802765
#
# Stress axis : x y z
#
# Youngs Moduli (GPa) = 63.22665 69.82531 48.67509
#
# Poissons Ratio (x) = 0.37107 -0.18262
# Poissons Ratio (y) = 0.33600 0.47529
# Poissons Ratio (z) = -0.23721 0.68182
#
# Static dielectric constant tensor:
#      x y z
#    x 3.819650 -0.179230 0.125520 
#    y -0.179230 4.115530 -0.194190 
#    z 0.125520 -0.194190 4.293630 
# 
# 
# High freq. dielectric constant tensor:
#      x y z
#    x 1.889540 0.007920 0.002790 
#    y 0.007920 1.886040 -0.005850 
#    z 0.002790 -0.005850 1.877470 
# 
# From -- ./inp_files/164454.got.cif
#   From: 2010.06.25/outbox.cif.g09.slc.cpg/sg2_83_cif.got.tgz:164454.got - 2010.06.27 13:26:56.
