data_PCOD8024590
_publ_section_title
;
Structure prediction by ZEFSAII (Michael W. Deem and Ramdas Pophale) SiO2 
 PCOD8024590
Probable space group: P -1
;
_chemical_formula_sum "Si O2"
_cell_formula_units_Z 16
_cell_length_a 22.884440
_cell_length_b 14.322897
_cell_length_c 9.061184
_cell_angle_alpha 133.202138
_cell_angle_beta 29.020781
_cell_angle_gamma 151.623549
_cell_volume 636.772781
_symmetry_space_group_name_H-M "P -1"
_symmetry_group_IT_number 2
_symmetry_cell_setting 'triclinic'
loop_
_space_group_symop_operation_xyz
x,y,z
-x,-y,-z
loop_
_atom_site_type_symbol
_atom_site_label
_atom_site_fract_x
_atom_site_fract_y
_atom_site_fract_z
Si Si1 0.109662 0.824374 0.444241
Si Si2 0.499922 0.774041 0.490062
Si Si3 0.517806 0.534880 0.324139
Si Si4 0.073981 0.563386 0.738899
Si Si5 0.024824 0.041193 0.249983
Si Si6 0.519748 0.976740 0.264689
Si Si7 0.380343 0.280197 0.092373
Si Si8 0.906855 0.177352 0.188233
O O1 0.135670 0.807871 0.538150
O O2 0.978063 0.610353 0.417406
O O3 0.015880 0.885978 0.706224
O O4 0.327158 0.009720 0.085891
O O5 0.401993 0.570695 0.574164
O O6 0.384099 0.811918 0.795483
O O7 0.710489 0.979168 0.319563
O O8 0.531853 0.769489 0.238687
O O9 0.500000 0.500000 0.500000
O O10 0.423380 0.331164 0.230063
O O11 0.742828 0.745397 0.990624
O O12 0.981347 0.612643 0.918302
O O13 0.311468 0.765798 0.424165
O O14 0.000000 0.500000 0.000000
O O15 0.862054 0.925837 0.616810
O O16 0.971990 0.853966 0.104774
O O17 0.500000 0.000000 0.500000
O O18 0.500000 0.500000 0.000000
#
# Coordination Sequence:
#
# PCOD8024590 Si02
#       8
#     2   2   2   2   2   2   2   2
#     4  12  26  46  74 105 142 191 232 293 370 418
#     4   9  22  44  68 100 137 185 241 288 352 425
#     4  10  24  44  68 107 143 186 238 295 361 426
#     4  11  25  49  71 106 140 186 244 289 356 429
#     4  11  26  47  74 105 151 181 243 299 356 430
#     4  11  23  46  73  98 141 183 237 297 350 426
#     4  10  23  43  69 102 139 191 237 288 362 420
#     4  10  25  47  72 102 144 189 236 296 356 425
#
# _framework density 25.126702000000002
#
# number of rings (size 3 to 8) (size 9 to 14) (size 15 to 20)
#    0.000    1.500    1.250    1.500    7.000   10.500 
#    4.500    0.000    0.000    0.000    0.000    0.000 
#    0.000    0.000    0.000    0.000    0.000    0.000 
#
# Total GULP energy -198231.327556 kJ/mol
# GULP energy per Si atom -12389.457972 kJ/mol
# Density = 2.506951 g / cm^3
# Si number density = 25.126702 Si / 1000 Ang^3
#
#
#
# Elastic Constant Matrix: (Units=GPa)
#
#
# Indices 1 2 3 4 5 6 
#
# 1 87.9962 44.0191 12.0048 26.2322 15.5863 -14.7364
# 2 44.0191 129.9342 30.9226 5.8191 -2.5114 -0.6753
# 3 12.0048 30.9226 55.8561 18.9332 -3.2243 -2.8095
# 4 26.2322 5.8191 18.9332 34.6124 1.0939 0.7749
# 5 15.5863 -2.5114 -3.2243 1.0939 42.7641 12.0901
# 6 -14.7364 -0.6753 -2.8095 0.7749 12.0901 44.2509
#
#
#
# Elastic Compliance Matrix: (Units=1/GPa)
#
#
# Indices 1 2 3 4 5 6 
#
# 1 0.026287 -0.009804 0.007182 -0.022091 -0.012702 0.012918
# 2 -0.009804 0.012585 -0.008129 0.009721 0.004891 -0.005096
# 3 0.007182 -0.008129 0.027490 -0.019163 -0.001909 0.004870
# 4 -0.022091 0.009721 -0.019163 0.054459 0.009142 -0.011877
# 5 -0.012702 0.004891 -0.001909 0.009142 0.031620 -0.013076
# 6 0.012918 -0.005096 0.004870 -0.011877 -0.013076 0.030912
#
#
# Mechanical properties :
#
#
# Convention : Reuss Voigt Hill
#
# Bulk Modulus (GPa) = 22.29097 49.74218 36.01658
# Shear Modulus (GPa) = 22.74716 36.78148 29.76432
#
# Velocity S-wave (km/s) = 3.01208 3.83017 3.44549
# Velocity P-wave (km/s) = 4.58122 6.27692 5.49487
#
# Compressibility (1/GPa) = 0.04486121
#
# Stress axis : x y z
#
# Youngs Moduli (GPa) = 38.04122 79.46043 36.37695
#
# Poissons Ratio (x) = 0.77903 -0.26127
# Poissons Ratio (y) = 0.37295 0.29570
# Poissons Ratio (z) = -0.27323 0.64593
#
# Static dielectric constant tensor:
#      x y z
#    x 4.789140 -0.378830 -0.316500 
#    y -0.378830 5.205560 0.123830 
#    z -0.316500 0.123830 4.375830 
# 
# 
# High freq. dielectric constant tensor:
#      x y z
#    x 2.005510 -0.009310 -0.003600 
#    y -0.009310 2.029570 0.003110 
#    z -0.003600 0.003110 1.983060 
# 
# From -- ./inp_files/354569.got.cif
#   From: 2010.06.25/outbox.cif.g09.slc.cpg/sg2_178_cif.got.tgz:354569.got - 2010.06.27 13:26:56.
