data_PCOD8024909
_publ_section_title
;
Structure prediction by ZEFSAII (Michael W. Deem and Ramdas Pophale) SiO2 
 PCOD8024909
Probable space group: P -1
;
_chemical_formula_sum "Si O2"
_cell_formula_units_Z 16
_cell_length_a 10.976236
_cell_length_b 14.193740
_cell_length_c 9.029869
_cell_angle_alpha 128.247082
_cell_angle_beta 100.081433
_cell_angle_gamma 45.799588
_cell_volume 705.057616
_symmetry_space_group_name_H-M "P -1"
_symmetry_group_IT_number 2
_symmetry_cell_setting 'triclinic'
loop_
_space_group_symop_operation_xyz
x,y,z
-x,-y,-z
loop_
_atom_site_type_symbol
_atom_site_label
_atom_site_fract_x
_atom_site_fract_y
_atom_site_fract_z
Si Si1 0.430525 0.766257 0.930082
Si Si2 0.253577 0.286841 0.010827
Si Si3 0.930843 0.876814 0.681191
Si Si4 0.491770 0.520906 0.193733
Si Si5 0.018682 0.309335 0.765152
Si Si6 0.078430 0.323068 0.275005
Si Si7 0.898504 0.284268 0.994791
Si Si8 0.235030 0.843136 0.669727
O O1 0.536314 0.810565 0.046061
O O2 0.566373 0.557041 0.807438
O O3 0.386809 0.782810 0.761861
O O4 0.233773 0.903971 0.114078
O O5 0.260812 0.224403 0.117320
O O6 0.091476 0.509087 0.176037
O O7 0.202650 0.226353 0.814126
O O8 0.898688 0.847728 0.484056
O O9 0.891247 0.804299 0.724876
O O10 0.133544 0.795665 0.661346
O O11 0.351665 0.728351 0.429959
O O12 0.500000 0.500000 0.000000
O O13 0.714159 0.377702 0.136084
O O14 0.872738 0.342776 0.874030
O O15 0.000000 0.500000 0.500000
O O16 0.934819 0.383456 0.178398
O O17 0.073476 0.061499 0.820197
#
# Coordination Sequence:
#
# PCOD8024909 Si02
#       8
#     2   2   2   2   2   2   2   2
#     4  12  25  44  68 102 141 176 234 291 339 419
#     4  10  23  44  65  97 137 181 234 279 342 412
#     4  12  23  43  71  99 137 181 229 286 350 401
#     4  12  27  43  70 105 137 185 231 283 349 421
#     4  10  23  44  69  95 140 185 223 286 344 412
#     4  11  23  41  70  97 132 185 228 281 341 409
#     4  11  24  47  69 104 140 180 234 280 351 410
#     4  12  26  46  73 103 143 181 228 296 347 406
#
# _framework density 22.693183000000001
#
# number of rings (size 3 to 8) (size 9 to 14) (size 15 to 20)
#    0.000    0.750    3.750    3.750    3.500    2.000 
#    0.000    0.000    0.000    0.000    0.000    0.000 
#    0.000    0.000    0.000    0.000    0.000    0.000 
#
# Total GULP energy -198226.248931 kJ/mol
# GULP energy per Si atom -12389.140558 kJ/mol
# Density = 2.264153 g / cm^3
# Si number density = 22.693183 Si / 1000 Ang^3
#
#
#
# Elastic Constant Matrix: (Units=GPa)
#
#
# Indices 1 2 3 4 5 6 
#
# 1 106.2384 31.5875 29.5083 -6.5917 -4.7168 3.9243
# 2 31.5875 72.8933 33.6669 -4.3583 -3.4361 4.6225
# 3 29.5083 33.6669 152.3158 -10.5736 -0.2119 -9.3329
# 4 -6.5917 -4.3583 -10.5736 37.7085 2.5175 -0.0665
# 5 -4.7168 -3.4361 -0.2119 2.5175 30.2226 1.9817
# 6 3.9243 4.6225 -9.3329 -0.0665 1.9817 34.3343
#
#
#
# Elastic Compliance Matrix: (Units=1/GPa)
#
#
# Indices 1 2 3 4 5 6 
#
# 1 0.011128 -0.004048 -0.001257 0.001039 0.001256 -0.001139
# 2 -0.004048 0.017199 -0.003167 0.000290 0.001461 -0.002797
# 3 -0.001257 -0.003167 0.007790 0.001658 -0.000819 0.002738
# 4 0.001039 0.000290 0.001658 0.027340 -0.002101 0.000467
# 5 0.001256 0.001461 -0.000819 -0.002101 0.033784 -0.002517
# 6 -0.001139 -0.002797 0.002738 0.000467 -0.002517 0.030523
#
#
# Mechanical properties :
#
#
# Convention : Reuss Voigt Hill
#
# Bulk Modulus (GPa) = 52.15357 57.88587 55.01972
# Shear Modulus (GPa) = 33.09088 36.23207 34.66147
#
# Velocity S-wave (km/s) = 3.82276 4.00009 3.91243
# Velocity P-wave (km/s) = 6.52048 6.84819 6.68634
#
# Compressibility (1/GPa) = 0.01917414
#
# Stress axis : x y z
#
# Youngs Moduli (GPa) = 89.86505 58.14313 128.36162
#
# Poissons Ratio (x) = 0.23536 0.16135
# Poissons Ratio (y) = 0.36377 0.40647
# Poissons Ratio (z) = 0.11296 0.18411
#
# Static dielectric constant tensor:
#      x y z
#    x 4.318990 -0.012980 0.096650 
#    y -0.012980 3.999130 -0.078050 
#    z 0.096650 -0.078050 4.231340 
# 
# 
# High freq. dielectric constant tensor:
#      x y z
#    x 1.908590 0.006960 0.010060 
#    y 0.006960 1.881740 -0.014640 
#    z 0.010060 -0.014640 1.900270 
# 
# From -- ./inp_files/274423.got.cif
#   From: 2010.06.25/outbox.cif.g09.slc.cpg/sg2_138_cif.got.tgz:274423.got - 2010.06.27 13:26:56.
