data_PCOD8024823
_publ_section_title
;
Structure prediction by ZEFSAII (Michael W. Deem and Ramdas Pophale) SiO2 
 PCOD8024823
Probable space group: P -1
;
_chemical_formula_sum "Si O2"
_cell_formula_units_Z 14
_cell_length_a 16.383166
_cell_length_b 11.094934
_cell_length_c 16.250550
_cell_angle_alpha 157.702051
_cell_angle_beta 147.054291
_cell_angle_gamma 33.401992
_cell_volume 584.605702
_symmetry_space_group_name_H-M "P -1"
_symmetry_group_IT_number 2
_symmetry_cell_setting 'triclinic'
loop_
_space_group_symop_operation_xyz
x,y,z
-x,-y,-z
loop_
_atom_site_type_symbol
_atom_site_label
_atom_site_fract_x
_atom_site_fract_y
_atom_site_fract_z
Si Si1 0.603887 0.293737 0.336346
Si Si2 0.166139 0.127866 0.513589
Si Si3 0.342470 0.553586 0.851363
Si Si4 0.073717 0.103611 0.928028
Si Si5 0.303908 0.408627 0.239334
Si Si6 0.500954 0.629969 0.292134
Si Si7 0.196556 0.399269 0.886607
O O1 0.448645 0.186645 0.166446
O O2 0.637810 0.546482 0.591353
O O3 0.580623 0.504699 0.367123
O O4 0.741853 0.949626 0.232681
O O5 0.279325 0.238964 0.615793
O O6 0.142021 0.340868 0.711447
O O7 0.252745 0.748613 0.362086
O O8 0.002926 0.150724 0.344643
O O9 0.384260 0.603281 0.823729
O O10 0.203423 0.887125 0.964943
O O11 0.500000 0.500000 0.000000
O O12 0.156862 0.263569 0.028773
O O13 0.953222 0.387336 0.056491
O O14 0.500000 0.000000 0.500000
O O15 0.325644 0.597688 0.116747
#
# Coordination Sequence:
#
# PCOD8024823 Si02
#       7
#     2   2   2   2   2   2   2
#     4  10  23  43  74 110 143 190 245 297 361 425
#     4  11  25  48  73 107 149 188 242 298 370 426
#     4  12  27  49  73 100 145 194 241 296 362 430
#     4  12  27  45  74 110 145 193 237 300 372 430
#     4  10  23  43  77 105 148 189 239 301 360 433
#     4  12  25  43  75 109 142 190 249 297 353 434
#     4  11  25  47  72 105 150 188 239 306 357 439
#
# _framework density 23.947765
#
# number of rings (size 3 to 8) (size 9 to 14) (size 15 to 20)
#    0.000    0.857    1.429    4.714    6.000    6.286 
#    0.000    0.000    0.000    0.000    0.000    0.000 
#    0.000    0.000    0.000    0.000    0.000    0.000 
#
# Total GULP energy -173612.823772 kJ/mol
# GULP energy per Si atom -12400.915984 kJ/mol
# Density = 2.389326 g / cm^3
# Si number density = 23.947765 Si / 1000 Ang^3
#
#
#
# Elastic Constant Matrix: (Units=GPa)
#
#
# Indices 1 2 3 4 5 6 
#
# 1 139.4433 87.7633 46.1197 -5.4767 22.2437 3.0547
# 2 87.7633 175.2013 56.9378 2.3380 -2.2897 -4.7002
# 3 46.1197 56.9378 86.0124 -11.4972 19.4679 0.5842
# 4 -5.4767 2.3380 -11.4972 34.3318 0.8195 1.4465
# 5 22.2437 -2.2897 19.4679 0.8195 44.2887 1.1362
# 6 3.0547 -4.7002 0.5842 1.4465 1.1362 43.5507
#
#
#
# Elastic Compliance Matrix: (Units=1/GPa)
#
#
# Indices 1 2 3 4 5 6 
#
# 1 0.012387 -0.006050 -0.000935 0.002281 -0.006128 -0.001425
# 2 -0.006050 0.010815 -0.005848 -0.003877 0.006198 0.001637
# 3 -0.000935 -0.005848 0.018760 0.006762 -0.008183 -0.000828
# 4 0.002281 -0.003877 0.006762 0.032204 -0.004873 -0.001612
# 5 -0.006128 0.006198 -0.008183 -0.004873 0.029649 0.000597
# 6 -0.001425 0.001637 -0.000828 -0.001612 0.000597 0.023287
#
#
# Mechanical properties :
#
#
# Convention : Reuss Voigt Hill
#
# Bulk Modulus (GPa) = 61.36146 86.92207 74.14176
# Shear Modulus (GPa) = 31.60550 38.42332 35.01441
#
# Velocity S-wave (km/s) = 3.63680 4.00992 3.82791
# Velocity P-wave (km/s) = 6.58132 7.60359 7.11085
#
# Compressibility (1/GPa) = 0.01629687
#
# Stress axis : x y z
#
# Youngs Moduli (GPa) = 80.73213 92.46257 53.30407
#
# Poissons Ratio (x) = 0.55936 0.04986
# Poissons Ratio (y) = 0.48840 0.31170
# Poissons Ratio (z) = 0.07551 0.54069
#
# Static dielectric constant tensor:
#      x y z
#    x 4.734310 -0.020910 -0.070000 
#    y -0.020910 4.406530 -0.179260 
#    z -0.070000 -0.179260 4.601280 
# 
# 
# High freq. dielectric constant tensor:
#      x y z
#    x 1.958430 0.003140 0.008850 
#    y 0.003140 1.960100 0.001380 
#    z 0.008850 0.001380 1.953590 
# 
# From -- ./inp_files/576030.got.cif
#   From: 2010.06.25/outbox.cif.g09.slc.cpg/sg2_289_cif.got.tgz:576030.got - 2010.06.27 13:26:56.
