data_PCOD8024227
_publ_section_title
;
Structure prediction by ZEFSAII (Michael W. Deem and Ramdas Pophale) SiO2 
 PCOD8024227
Probable space group: P -1
;
_chemical_formula_sum "Si O2"
_cell_formula_units_Z 16
_cell_length_a 9.052172
_cell_length_b 8.881347
_cell_length_c 21.214111
_cell_angle_alpha 55.557101
_cell_angle_beta 130.237104
_cell_angle_gamma 83.462889
_cell_volume 696.371967
_symmetry_space_group_name_H-M "P -1"
_symmetry_group_IT_number 2
_symmetry_cell_setting 'triclinic'
loop_
_space_group_symop_operation_xyz
x,y,z
-x,-y,-z
loop_
_atom_site_type_symbol
_atom_site_label
_atom_site_fract_x
_atom_site_fract_y
_atom_site_fract_z
Si Si1 0.360456 0.677194 0.821531
Si Si2 0.675526 0.487258 0.602715
Si Si3 0.327229 0.080808 0.047643
Si Si4 0.274509 0.874320 0.881591
Si Si5 0.273047 0.537791 0.710244
Si Si6 0.361790 0.459154 0.279427
Si Si7 0.371498 0.093241 0.568774
Si Si8 0.672342 0.812725 0.840993
O O1 0.170542 0.861148 0.788626
O O2 0.178573 0.698683 0.712823
O O3 0.456635 0.794815 0.787904
O O4 0.647770 0.348884 0.998046
O O5 0.500000 0.500000 0.500000
O O6 0.548086 0.545928 0.623812
O O7 0.651513 0.717326 0.527353
O O8 0.018906 0.179853 0.768807
O O9 0.430737 0.211190 0.026717
O O10 0.351331 0.040632 0.139557
O O11 0.550400 0.774355 0.151015
O O12 0.994944 0.279666 0.886438
O O13 0.487248 0.511638 0.734589
O O14 0.962933 0.723326 0.545019
O O15 0.467212 0.179642 0.361269
O O16 0.568363 0.002091 0.706367
O O17 0.000000 0.500000 0.000000
#
# Coordination Sequence:
#
# PCOD8024227 Si02
#       8
#     2   2   2   2   2   2   2   2
#     4  10  23  42  75  97 144 183 247 288 357 425
#     4  12  30  47  71 106 150 186 242 298 367 427
#     4  11  24  44  75 105 145 187 244 294 354 427
#     4  10  24  46  69 108 138 200 233 303 353 429
#     4  12  25  45  73 112 144 188 240 304 357 426
#     4  12  27  47  73 108 145 196 237 294 362 431
#     4  12  27  48  73 105 148 194 233 300 362 431
#     4  11  23  44  70 103 140 189 242 290 354 420
#
# _framework density 22.976224999999999
#
# number of rings (size 3 to 8) (size 9 to 14) (size 15 to 20)
#    0.000    0.750    3.750    1.875    7.000    3.500 
#    0.000    0.000    0.000    0.000    0.000    0.000 
#    0.000    0.000    0.000    0.000    0.000    0.000 
#
# Total GULP energy -198451.648179 kJ/mol
# GULP energy per Si atom -12403.228011 kJ/mol
# Density = 2.292393 g / cm^3
# Si number density = 22.976225 Si / 1000 Ang^3
#
#
#
# Elastic Constant Matrix: (Units=GPa)
#
#
# Indices 1 2 3 4 5 6 
#
# 1 55.9438 19.2286 13.0018 6.8349 -13.0752 -8.4315
# 2 19.2286 108.4946 16.5241 7.6579 -11.2114 -5.5648
# 3 13.0018 16.5241 95.8159 -1.0812 -0.9218 -2.2099
# 4 6.8349 7.6579 -1.0812 43.4785 4.3451 -6.0049
# 5 -13.0752 -11.2114 -0.9218 4.3451 34.9275 -0.3446
# 6 -8.4315 -5.5648 -2.2099 -6.0049 -0.3446 30.3716
#
#
#
# Elastic Compliance Matrix: (Units=1/GPa)
#
#
# Indices 1 2 3 4 5 6 
#
# 1 0.022251 -0.002252 -0.002475 -0.003267 0.007998 0.005029
# 2 -0.002252 0.010266 -0.001438 -0.001634 0.002626 0.000858
# 3 -0.002475 -0.001438 0.011022 0.001045 -0.001227 0.000044
# 4 -0.003267 -0.001634 0.001045 0.024818 -0.004771 0.003722
# 5 0.007998 0.002626 -0.001227 -0.004771 0.033049 0.002044
# 6 0.005029 0.000858 0.000044 0.003722 0.002044 0.035241
#
#
# Mechanical properties :
#
#
# Convention : Reuss Voigt Hill
#
# Bulk Modulus (GPa) = 32.04257 39.75146 35.89701
# Shear Modulus (GPa) = 31.37184 35.85551 33.61368
#
# Velocity S-wave (km/s) = 3.69915 3.95466 3.82904
# Velocity P-wave (km/s) = 5.67637 6.17990 5.93348
#
# Compressibility (1/GPa) = 0.03120849
#
# Stress axis : x y z
#
# Youngs Moduli (GPa) = 44.94276 97.41031 90.73118
#
# Poissons Ratio (x) = 0.21932 0.22455
# Poissons Ratio (y) = 0.10119 0.13050
# Poissons Ratio (z) = 0.11123 0.14010
#
# Static dielectric constant tensor:
#      x y z
#    x 3.793480 -0.101930 -0.142470 
#    y -0.101930 4.447320 0.035930 
#    z -0.142470 0.035930 4.112700 
# 
# 
# High freq. dielectric constant tensor:
#      x y z
#    x 1.900950 -0.001710 -0.009160 
#    y -0.001710 1.924030 -0.000170 
#    z -0.009160 -0.000170 1.908240 
# 
# From -- ./inp_files/206975.got.cif
#   From: 2010.06.25/outbox.cif.g09.slc.cpg/sg2_104_cif.got.tgz:206975.got - 2010.06.27 13:26:56.
