data_PCOD8024788
_publ_section_title
;
Structure prediction by ZEFSAII (Michael W. Deem and Ramdas Pophale) SiO2 
 PCOD8024788
Probable space group: P -1
;
_chemical_formula_sum "Si O2"
_cell_formula_units_Z 16
_cell_length_a 17.608196
_cell_length_b 9.632615
_cell_length_c 5.690422
_cell_angle_alpha 39.336940
_cell_angle_beta 94.876112
_cell_angle_gamma 99.541174
_cell_volume 601.895598
_symmetry_space_group_name_H-M "P -1"
_symmetry_group_IT_number 2
_symmetry_cell_setting 'triclinic'
loop_
_space_group_symop_operation_xyz
x,y,z
-x,-y,-z
loop_
_atom_site_type_symbol
_atom_site_label
_atom_site_fract_x
_atom_site_fract_y
_atom_site_fract_z
Si Si1 0.569035 0.062094 0.114443
Si Si2 0.464713 0.709382 0.782253
Si Si3 0.031087 0.259525 0.715533
Si Si4 0.197344 0.778677 0.731732
Si Si5 0.714028 0.862481 0.421069
Si Si6 0.023593 0.759899 0.773141
Si Si7 0.691556 0.435667 0.241031
Si Si8 0.204554 0.371485 0.594352
O O1 0.540641 0.895346 0.541261
O O2 0.652077 0.013401 0.111628
O O3 0.571689 0.295041 0.953974
O O4 0.500000 0.000000 0.000000
O O5 0.393423 0.720651 0.555128
O O6 0.500000 0.500000 0.000000
O O7 0.119736 0.294504 0.781648
O O8 0.025247 0.366711 0.302334
O O9 0.986536 0.350811 0.815621
O O10 0.000000 0.000000 0.000000
O O11 0.109039 0.796350 0.641213
O O12 0.240017 0.705801 0.607826
O O13 0.241491 0.019387 0.498913
O O14 0.203857 0.601100 0.164678
O O15 0.779382 0.840459 0.274447
O O16 0.676359 0.610353 0.804763
O O17 0.000000 0.000000 0.500000
O O18 0.721348 0.582482 0.278025
#
# Coordination Sequence:
#
# PCOD8024788 Si02
#       8
#     2   2   2   2   2   2   2   2
#     4  11  26  42  71 101 140 185 238 289 358 432
#     4  11  24  46  67 103 140 184 235 292 353 429
#     4  10  23  44  71 104 142 190 248 298 372 438
#     4  11  26  46  70 102 146 182 241 295 364 440
#     4  11  24  46  67 101 141 188 234 295 361 435
#     4  10  23  43  73 102 141 194 241 305 365 444
#     4  11  26  45  69 102 143 184 236 297 362 433
#     4  11  28  43  72 104 137 189 238 298 366 434
#
# _framework density 26.582685999999999
#
# number of rings (size 3 to 8) (size 9 to 14) (size 15 to 20)
#    0.000    1.250    2.500    1.500   12.250    2.500 
#    0.000    0.000    0.000    0.000    0.000    0.000 
#    0.000    0.000    0.000    0.000    0.000    0.000 
#
# Total GULP energy -198216.931194 kJ/mol
# GULP energy per Si atom -12388.558200 kJ/mol
# Density = 2.652218 g / cm^3
# Si number density = 26.582686 Si / 1000 Ang^3
#
#
#
# Elastic Constant Matrix: (Units=GPa)
#
#
# Indices 1 2 3 4 5 6 
#
# 1 169.1516 36.3251 6.9383 -5.3469 14.2583 -5.3004
# 2 36.3251 160.0125 12.9424 7.0884 12.9488 -9.8505
# 3 6.9383 12.9424 36.5403 10.6861 4.8485 -5.6233
# 4 -5.3469 7.0884 10.6861 28.4703 7.8625 6.8995
# 5 14.2583 12.9488 4.8485 7.8625 37.8600 -5.0933
# 6 -5.3004 -9.8505 -5.6233 6.8995 -5.0933 61.7221
#
#
#
# Elastic Compliance Matrix: (Units=1/GPa)
#
#
# Indices 1 2 3 4 5 6 
#
# 1 0.006536 -0.001320 -0.001308 0.002796 -0.002461 -0.000284
# 2 -0.001320 0.006886 -0.001516 -0.001252 -0.001285 0.000881
# 3 -0.001308 -0.001516 0.032607 -0.013130 0.000113 0.004094
# 4 0.002796 -0.001252 -0.013130 0.045133 -0.009253 -0.006965
# 5 -0.002461 -0.001285 0.000113 -0.009253 0.030105 0.003112
# 6 -0.000284 0.000881 0.004094 -0.006965 0.003112 0.017726
#
#
# Mechanical properties :
#
#
# Convention : Reuss Voigt Hill
#
# Bulk Modulus (GPa) = 26.49689 53.12399 39.81044
# Shear Modulus (GPa) = 31.27707 46.24373 38.76040
#
# Velocity S-wave (km/s) = 3.43388 4.17540 3.82266
# Velocity P-wave (km/s) = 5.07064 6.57823 5.87301
#
# Compressibility (1/GPa) = 0.03774028
#
# Stress axis : x y z
#
# Youngs Moduli (GPa) = 152.99989 145.23236 30.66802
#
# Poissons Ratio (x) = 0.19172 0.04012
# Poissons Ratio (y) = 0.20198 0.04649
# Poissons Ratio (z) = 0.20016 0.22015
#
# Static dielectric constant tensor:
#      x y z
#    x 5.558920 -0.000660 -0.487070 
#    y -0.000660 1.545010 -0.384380 
#    z -0.487070 -0.384380 5.504950 
# 
# 
# High freq. dielectric constant tensor:
#      x y z
#    x 2.071240 -0.007700 -0.001530 
#    y -0.007700 2.095300 -0.016030 
#    z -0.001530 -0.016030 2.067430 
# 
# From -- ./inp_files/106126.got.cif
#   From: 2010.06.25/outbox.cif.g09.slc.cpg/sg2_54_cif.got.tgz:106126.got - 2010.06.27 13:26:56.
