data_PCOD8024680
_publ_section_title
;
Structure prediction by ZEFSAII (Michael W. Deem and Ramdas Pophale) SiO2 
 PCOD8024680
Probable space group: P -1
;
_chemical_formula_sum "Si O2"
_cell_formula_units_Z 16
_cell_length_a 8.535124
_cell_length_b 17.235820
_cell_length_c 24.331526
_cell_angle_alpha 14.719220
_cell_angle_beta 50.856109
_cell_angle_gamma 50.595053
_cell_volume 699.988517
_symmetry_space_group_name_H-M "P -1"
_symmetry_group_IT_number 2
_symmetry_cell_setting 'triclinic'
loop_
_space_group_symop_operation_xyz
x,y,z
-x,-y,-z
loop_
_atom_site_type_symbol
_atom_site_label
_atom_site_fract_x
_atom_site_fract_y
_atom_site_fract_z
Si Si1 0.287043 0.394419 0.608760
Si Si2 0.393058 0.324567 0.828372
Si Si3 0.024340 0.363715 0.251544
Si Si4 0.872649 0.399000 0.046728
Si Si5 0.894408 0.697154 0.521021
Si Si6 0.313752 0.294520 0.548878
Si Si7 0.618556 0.286843 0.916933
Si Si8 0.425026 0.611060 0.022117
O O1 0.500000 0.500000 0.500000
O O2 0.233297 0.437066 0.526918
O O3 0.135949 0.621255 0.523563
O O4 0.270341 0.057530 0.866597
O O5 0.146423 0.428342 0.814572
O O6 0.469076 0.596295 0.589333
O O7 0.457603 0.326321 0.876463
O O8 0.500000 0.000000 0.000000
O O9 0.002358 0.525877 0.085944
O O10 0.000000 0.000000 0.500000
O O11 0.253833 0.378316 0.213791
O O12 0.638928 0.542609 0.990541
O O13 0.839059 0.050247 0.302794
O O14 0.000000 0.500000 0.000000
O O15 0.836061 0.586217 0.549029
O O16 0.790396 0.509807 0.718356
O O17 0.324485 0.929660 0.800403
O O18 0.507420 0.371545 0.941126
#
# Coordination Sequence:
#
# PCOD8024680 Si02
#       8
#     2   2   2   2   2   2   2   2
#     4  11  24  40  69 100 137 178 229 287 347 418
#     4  11  25  45  72 106 145 182 237 292 350 417
#     4  12  28  46  75 106 144 185 237 292 356 420
#     4  12  28  46  73 100 138 185 239 289 348 418
#     4  11  25  43  67  96 136 183 230 279 353 412
#     4  10  23  43  70  95 138 181 225 284 350 417
#     4  10  25  44  69  99 141 181 230 287 352 413
#     4  11  25  47  72 101 140 184 236 288 353 420
#
# _framework density 22.857517999999999
#
# number of rings (size 3 to 8) (size 9 to 14) (size 15 to 20)
#    0.000    1.000    1.250    3.375   12.250    6.500 
#    0.000    0.000    0.000    0.000    0.000    0.000 
#    0.000    0.000    0.000    0.000    0.000    0.000 
#
# Total GULP energy -198288.386054 kJ/mol
# GULP energy per Si atom -12393.024128 kJ/mol
# Density = 2.280549 g / cm^3
# Si number density = 22.857518 Si / 1000 Ang^3
#
#
#
# Elastic Constant Matrix: (Units=GPa)
#
#
# Indices 1 2 3 4 5 6 
#
# 1 75.4532 17.1245 13.8968 0.3615 -17.0906 -14.6900
# 2 17.1245 83.4882 42.8844 -3.9067 -4.9591 -25.1498
# 3 13.8968 42.8844 115.6864 21.6060 -14.4449 6.8065
# 4 0.3615 -3.9067 21.6060 33.0138 3.9976 -2.0344
# 5 -17.0906 -4.9591 -14.4449 3.9976 31.5226 4.9085
# 6 -14.6900 -25.1498 6.8065 -2.0344 4.9085 39.8052
#
#
#
# Elastic Compliance Matrix: (Units=1/GPa)
#
#
# Indices 1 2 3 4 5 6 
#
# 1 0.016254 -0.001231 -0.000693 -0.000532 0.007689 0.004364
# 2 -0.001231 0.025912 -0.014424 0.014756 -0.008210 0.020151
# 3 -0.000693 -0.014424 0.019374 -0.016583 0.010647 -0.014843
# 4 -0.000532 0.014756 -0.016583 0.045556 -0.013834 0.015996
# 5 0.007689 -0.008210 0.010647 -0.013834 0.042815 -0.010157
# 6 0.004364 0.020151 -0.014843 0.015996 -0.010157 0.044072
#
#
# Mechanical properties :
#
#
# Convention : Reuss Voigt Hill
#
# Bulk Modulus (GPa) = 34.67082 46.93769 40.80426
# Shear Modulus (GPa) = 21.15986 34.24979 27.70482
#
# Velocity S-wave (km/s) = 3.04588 3.87512 3.48525
# Velocity P-wave (km/s) = 5.25081 6.37194 5.83835
#
# Compressibility (1/GPa) = 0.02884270
#
# Stress axis : x y z
#
# Youngs Moduli (GPa) = 61.52262 38.59162 51.61539
#
# Poissons Ratio (x) = 0.04752 0.03578
# Poissons Ratio (y) = 0.07576 0.74451
# Poissons Ratio (z) = 0.04265 0.55665
#
# Static dielectric constant tensor:
#      x y z
#    x 4.609770 0.144310 -0.058070 
#    y 0.144310 4.314320 0.165810 
#    z -0.058070 0.165810 4.188330 
# 
# 
# High freq. dielectric constant tensor:
#      x y z
#    x 1.902590 0.002020 -0.003940 
#    y 0.002020 1.910470 0.014250 
#    z -0.003940 0.014250 1.912730 
# 
# From -- ./inp_files/590389.got.cif
#   From: 2010.06.25/outbox.cif.g09.slc.cpg/sg2_296_cif.got.tgz:590389.got - 2010.06.27 13:26:56.
