data_PCOD8024649
_publ_section_title
;
Structure prediction by ZEFSAII (Michael W. Deem and Ramdas Pophale) SiO2 
 PCOD8024649
Probable space group: P -1
;
_chemical_formula_sum "Si O2"
_cell_formula_units_Z 16
_cell_length_a 29.199722
_cell_length_b 6.839086
_cell_length_c 12.790399
_cell_angle_alpha 132.066525
_cell_angle_beta 23.863262
_cell_angle_gamma 137.657786
_cell_volume 695.840199
_symmetry_space_group_name_H-M "P -1"
_symmetry_group_IT_number 2
_symmetry_cell_setting 'triclinic'
loop_
_space_group_symop_operation_xyz
x,y,z
-x,-y,-z
loop_
_atom_site_type_symbol
_atom_site_label
_atom_site_fract_x
_atom_site_fract_y
_atom_site_fract_z
Si Si1 0.756541 0.700111 0.030178
Si Si2 0.572234 0.336940 0.687127
Si Si3 0.968972 0.232111 0.214210
Si Si4 0.185806 0.414745 0.361693
Si Si5 0.985866 0.179175 0.388132
Si Si6 0.396163 0.860269 0.754893
Si Si7 0.425752 0.699926 0.101540
Si Si8 0.767776 0.262893 0.122942
O O1 0.786712 0.572699 0.814452
O O2 0.873987 0.797970 0.897962
O O3 0.632901 0.462972 0.259570
O O4 0.725665 0.971927 0.173671
O O5 0.623354 0.281589 0.672419
O O6 0.681622 0.413429 0.400591
O O7 0.441188 0.065539 0.834602
O O8 0.537828 0.606468 0.853872
O O9 0.923763 0.085717 0.369465
O O10 0.870877 0.345938 0.409524
O O11 0.089314 0.530489 0.089422
O O12 0.000000 0.000000 0.000000
O O13 0.311206 0.495315 0.195529
O O14 0.093061 0.080037 0.460297
O O15 0.000000 0.500000 0.500000
O O16 0.265871 0.831070 0.962954
O O17 0.500000 0.000000 0.500000
O O18 0.500000 0.000000 0.000000
#
# Coordination Sequence:
#
# PCOD8024649 Si02
#       8
#     2   2   2   2   2   2   2   2
#     4  12  23  42  75 104 143 183 242 301 359 426
#     4  10  25  44  67  97 138 178 241 287 352 421
#     4  12  28  45  71 108 151 192 235 299 372 432
#     4  12  27  45  74 109 143 189 250 293 364 444
#     4  12  25  45  74 104 145 189 242 301 363 430
#     4  10  23  43  70 101 137 184 235 297 358 417
#     4  11  26  45  68  96 138 190 234 288 353 428
#     4  11  24  44  70 105 141 183 236 296 361 433
#
# _framework density 22.993784999999999
#
# number of rings (size 3 to 8) (size 9 to 14) (size 15 to 20)
#    0.000    0.750    3.750    2.625    5.250    6.500 
#    0.000    0.000    0.000    0.000    0.000    0.000 
#    0.000    0.000    0.000    0.000    0.000    0.000 
#
# Total GULP energy -198285.395691 kJ/mol
# GULP energy per Si atom -12392.837231 kJ/mol
# Density = 2.294145 g / cm^3
# Si number density = 22.993785 Si / 1000 Ang^3
#
#
#
# Elastic Constant Matrix: (Units=GPa)
#
#
# Indices 1 2 3 4 5 6 
#
# 1 111.8936 23.5710 12.1070 -1.9180 -0.7952 -5.6349
# 2 23.5710 119.8967 23.3229 -15.6402 7.0500 -16.9126
# 3 12.1070 23.3229 67.0099 -5.6132 1.5817 -6.5269
# 4 -1.9180 -15.6402 -5.6132 48.8595 -0.8514 0.2382
# 5 -0.7952 7.0500 1.5817 -0.8514 30.0886 -1.9969
# 6 -5.6349 -16.9126 -6.5269 0.2382 -1.9969 37.6232
#
#
#
# Elastic Compliance Matrix: (Units=1/GPa)
#
#
# Indices 1 2 3 4 5 6 
#
# 1 0.009431 -0.001640 -0.001122 -0.000274 0.000719 0.000520
# 2 -0.001640 0.010185 -0.002598 0.002845 -0.001963 0.003760
# 3 -0.001122 -0.002598 0.016259 0.000983 -0.000150 0.001471
# 4 -0.000274 0.002845 0.000983 0.021473 -0.000034 0.001271
# 5 0.000719 -0.001963 -0.000150 -0.000034 0.033787 0.000993
# 6 0.000520 0.003760 0.001471 0.001271 0.000993 0.028647
#
#
# Mechanical properties :
#
#
# Convention : Reuss Voigt Hill
#
# Bulk Modulus (GPa) = 39.75430 46.31133 43.03281
# Shear Modulus (GPa) = 36.00032 39.30088 37.65060
#
# Velocity S-wave (km/s) = 3.96113 4.13873 4.05090
# Velocity P-wave (km/s) = 6.18445 6.55921 6.37459
#
# Compressibility (1/GPa) = 0.02515451
#
# Stress axis : x y z
#
# Youngs Moduli (GPa) = 106.03718 98.18104 61.50382
#
# Poissons Ratio (x) = 0.16105 0.06902
# Poissons Ratio (y) = 0.17394 0.15977
# Poissons Ratio (z) = 0.11899 0.25505
#
# Static dielectric constant tensor:
#      x y z
#    x 5.003460 0.031240 -0.139130 
#    y 0.031240 4.253640 -0.116840 
#    z -0.139130 -0.116840 4.031750 
# 
# 
# High freq. dielectric constant tensor:
#      x y z
#    x 1.924220 -0.010340 -0.005600 
#    y -0.010340 1.912910 -0.010500 
#    z -0.005600 -0.010500 1.899060 
# 
# From -- ./inp_files/476023.got.cif
#   From: 2010.06.25/outbox.cif.g09.slc.cpg/sg2_239_cif.got.tgz:476023.got - 2010.06.27 13:26:56.
