data_PCOD8024545
_publ_section_title
;
Structure prediction by ZEFSAII (Michael W. Deem and Ramdas Pophale) SiO2 
 PCOD8024545
Probable space group: P -1
;
_chemical_formula_sum "Si O2"
_cell_formula_units_Z 16
_cell_length_a 12.157986
_cell_length_b 7.939352
_cell_length_c 12.351959
_cell_angle_alpha 131.265804
_cell_angle_beta 129.099832
_cell_angle_gamma 72.858738
_cell_volume 680.304349
_symmetry_space_group_name_H-M "P -1"
_symmetry_group_IT_number 2
_symmetry_cell_setting 'triclinic'
loop_
_space_group_symop_operation_xyz
x,y,z
-x,-y,-z
loop_
_atom_site_type_symbol
_atom_site_label
_atom_site_fract_x
_atom_site_fract_y
_atom_site_fract_z
Si Si1 0.933973 0.708206 0.771613
Si Si2 0.441250 0.745749 0.896339
Si Si3 0.757022 0.304926 0.041539
Si Si4 0.245025 0.241290 0.874145
Si Si5 0.259079 0.752164 0.593130
Si Si6 0.688173 0.948830 0.659603
Si Si7 0.618727 0.236843 0.551499
Si Si8 0.878184 0.631282 0.940532
O O1 0.879854 0.433772 0.610215
O O2 0.832132 0.846323 0.703049
O O3 0.935252 0.775598 0.929267
O O4 0.098302 0.772589 0.857432
O O5 0.363944 0.738956 0.960647
O O6 0.328820 0.633163 0.685918
O O7 0.584222 0.641388 0.952011
O O8 0.500000 0.000000 0.000000
O O9 0.807137 0.573859 0.156662
O O10 0.698084 0.162688 0.837650
O O11 0.213773 0.989878 0.696051
O O12 0.154538 0.205651 0.914709
O O13 0.372886 0.811370 0.591113
O O14 0.548595 0.753285 0.523656
O O15 0.665065 0.029465 0.557965
O O16 0.723870 0.471253 0.749325
O O17 0.000000 0.500000 0.000000
#
# Coordination Sequence:
#
# PCOD8024545 Si02
#       8
#     2   2   2   2   2   2   2   2
#     4  11  26  41  69 101 138 182 220 289 337 402
#     4  10  24  43  68  99 135 178 225 280 334 406
#     4  12  24  45  68 102 136 180 233 272 345 404
#     4  11  23  43  73  95 134 185 222 283 331 407
#     4  10  25  44  63 102 134 177 229 275 345 392
#     4  11  23  41  69 100 135 176 231 284 336 395
#     4  10  23  43  68  98 134 175 231 281 336 399
#     4  11  22  44  69 101 136 175 229 272 344 405
#
# _framework density 23.518885000000001
#
# number of rings (size 3 to 8) (size 9 to 14) (size 15 to 20)
#    0.000    1.250    2.500    2.250    7.000    3.000 
#    0.000    0.000    0.000    0.000    0.000    0.000 
#    0.000    0.000    0.000    0.000    0.000    0.000 
#
# Total GULP energy -198397.220033 kJ/mol
# GULP energy per Si atom -12399.826252 kJ/mol
# Density = 2.346536 g / cm^3
# Si number density = 23.518885 Si / 1000 Ang^3
#
#
#
# Elastic Constant Matrix: (Units=GPa)
#
#
# Indices 1 2 3 4 5 6 
#
# 1 109.5521 11.3504 17.4898 -11.4597 -8.5988 -11.8580
# 2 11.3504 62.9454 8.3547 -12.2744 -9.0101 -15.7456
# 3 17.4898 8.3547 69.1406 -5.6558 -10.2153 -10.9106
# 4 -11.4597 -12.2744 -5.6558 33.9247 -8.2821 4.0017
# 5 -8.5988 -9.0101 -10.2153 -8.2821 39.0949 -9.1690
# 6 -11.8580 -15.7456 -10.9106 4.0017 -9.1690 35.3524
#
#
#
# Elastic Compliance Matrix: (Units=1/GPa)
#
#
# Indices 1 2 3 4 5 6 
#
# 1 0.010409 0.000614 -0.001176 0.004029 0.003906 0.003959
# 2 0.000614 0.021938 0.001404 0.009497 0.010392 0.012031
# 3 -0.001176 0.001404 0.017007 0.003830 0.006925 0.006843
# 4 0.004029 0.009497 0.003830 0.037482 0.013424 0.006002
# 5 0.003906 0.010392 0.006925 0.013424 0.037292 0.016228
# 6 0.003959 0.012031 0.006843 0.006002 0.016228 0.040614
#
#
# Mechanical properties :
#
#
# Convention : Reuss Voigt Hill
#
# Bulk Modulus (GPa) = 19.59263 35.11421 27.35342
# Shear Modulus (GPa) = 27.76694 35.30394 31.53544
#
# Velocity S-wave (km/s) = 3.43975 3.87859 3.66574
# Velocity P-wave (km/s) = 4.91167 5.91782 5.43806
#
# Compressibility (1/GPa) = 0.05103960
#
# Stress axis : x y z
#
# Youngs Moduli (GPa) = 96.07389 45.58205 58.79851
#
# Poissons Ratio (x) = -0.02799 0.06914
# Poissons Ratio (y) = -0.05900 -0.08258
# Poissons Ratio (z) = 0.11297 -0.06402
#
# Static dielectric constant tensor:
#      x y z
#    x 4.541250 -0.092620 0.239490 
#    y -0.092620 4.287470 -0.520330 
#    z 0.239490 -0.520330 4.856590 
# 
# 
# High freq. dielectric constant tensor:
#      x y z
#    x 1.936520 0.000310 0.005860 
#    y 0.000310 1.927080 -0.008520 
#    z 0.005860 -0.008520 1.932780 
# 
# From -- ./inp_files/420141.got.cif
#   From: 2010.06.25/outbox.cif.g09.slc.cpg/sg2_211_cif.got.tgz:420141.got - 2010.06.27 13:26:56.
