data_PCOD8024990
_publ_section_title
;
Structure prediction by ZEFSAII (Michael W. Deem and Ramdas Pophale) SiO2 
 PCOD8024990
Probable space group: P -1
;
_chemical_formula_sum "Si O2"
_cell_formula_units_Z 16
_cell_length_a 11.512899
_cell_length_b 13.578168
_cell_length_c 12.567881
_cell_angle_alpha 113.977768
_cell_angle_beta 89.646249
_cell_angle_gamma 33.056158
_cell_volume 703.275277
_symmetry_space_group_name_H-M "P -1"
_symmetry_group_IT_number 2
_symmetry_cell_setting 'triclinic'
loop_
_space_group_symop_operation_xyz
x,y,z
-x,-y,-z
loop_
_atom_site_type_symbol
_atom_site_label
_atom_site_fract_x
_atom_site_fract_y
_atom_site_fract_z
Si Si1 0.056442 0.401887 0.660215
Si Si2 0.193802 0.880445 0.803308
Si Si3 0.641355 0.934327 0.865602
Si Si4 0.621378 0.195908 0.659941
Si Si5 0.456607 0.121853 0.719331
Si Si6 0.753747 0.294261 0.822558
Si Si7 0.968212 0.202156 0.145882
Si Si8 0.791858 0.408937 0.689577
O O1 0.160496 0.347665 0.754602
O O2 0.921241 0.620581 0.698167
O O3 0.806690 0.525191 0.739192
O O4 0.295214 0.155566 0.468064
O O5 0.079830 0.854129 0.795670
O O6 0.551626 0.578705 0.676055
O O7 0.079444 0.025931 0.755906
O O8 0.036859 0.089489 0.983209
O O9 0.755522 0.958532 0.893719
O O10 0.430912 0.110527 0.838935
O O11 0.500000 0.000000 0.000000
O O12 0.526527 0.189830 0.746839
O O13 0.758515 0.186297 0.701392
O O14 0.332071 0.470516 0.712185
O O15 0.882241 0.920350 0.467990
O O16 0.674743 0.467428 0.830007
O O17 0.500000 0.500000 0.000000
#
# Coordination Sequence:
#
# PCOD8024990 Si02
#       8
#     2   2   2   2   2   2   2   2
#     4  10  23  44  67  93 132 174 220 275 327 388
#     4  11  23  42  66  96 133 171 218 267 332 397
#     4  12  25  42  68 101 131 171 226 273 327 406
#     4  11  22  45  68  94 133 172 221 276 330 394
#     4  10  23  45  68  93 129 176 219 273 337 386
#     4  12  23  41  68  95 129 179 215 267 339 392
#     4  11  22  43  67  94 135 175 213 274 337 390
#     4  11  25  42  64  99 134 166 222 278 319 394
#
# _framework density 22.750692999999998
#
# number of rings (size 3 to 8) (size 9 to 14) (size 15 to 20)
#    0.000    1.000    3.750    3.000    0.000    4.000 
#    4.500    0.000    0.000    0.000    0.000    0.000 
#    0.000    0.000    0.000    0.000    0.000    0.000 
#
# Total GULP energy -198344.986602 kJ/mol
# GULP energy per Si atom -12396.561663 kJ/mol
# Density = 2.269891 g / cm^3
# Si number density = 22.750693 Si / 1000 Ang^3
#
#
#
# Elastic Constant Matrix: (Units=GPa)
#
#
# Indices 1 2 3 4 5 6 
#
# 1 118.5729 13.7299 8.1505 -11.8806 -1.8189 -3.0912
# 2 13.7299 115.2078 10.9804 -13.2867 -4.5222 -5.2752
# 3 8.1505 10.9804 41.5659 1.2733 -9.6156 1.1567
# 4 -11.8806 -13.2867 1.2733 40.5081 4.6339 -0.8330
# 5 -1.8189 -4.5222 -9.6156 4.6339 24.0739 4.9533
# 6 -3.0912 -5.2752 1.1567 -0.8330 4.9533 33.5819
#
#
#
# Elastic Compliance Matrix: (Units=1/GPa)
#
#
# Indices 1 2 3 4 5 6 
#
# 1 0.008904 -0.000568 -0.001913 0.002609 -0.000905 0.000995
# 2 -0.000568 0.009411 -0.002565 0.003060 -0.000223 0.001623
# 3 -0.001913 -0.002565 0.028100 -0.003731 0.012018 -0.003412
# 4 0.002609 0.003060 -0.003731 0.027367 -0.006498 0.002487
# 5 -0.000905 -0.000223 0.012018 -0.006498 0.049113 -0.007937
# 6 0.000995 0.001623 -0.003412 0.002487 -0.007937 0.031474
#
#
# Mechanical properties :
#
#
# Convention : Reuss Voigt Hill
#
# Bulk Modulus (GPa) = 27.53043 37.89645 32.71344
# Shear Modulus (GPa) = 28.31763 35.79848 32.05806
#
# Velocity S-wave (km/s) = 3.53185 3.97105 3.75787
# Velocity P-wave (km/s) = 5.36275 6.14159 5.76534
#
# Compressibility (1/GPa) = 0.03632344
#
# Stress axis : x y z
#
# Youngs Moduli (GPa) = 112.30426 106.26369 35.58701
#
# Poissons Ratio (x) = 0.06035 0.06808
# Poissons Ratio (y) = 0.06378 0.09128
# Poissons Ratio (z) = 0.21483 0.27256
#
# Static dielectric constant tensor:
#      x y z
#    x 4.417630 0.027540 0.203110 
#    y 0.027540 4.367740 0.131810 
#    z 0.203110 0.131810 3.919280 
# 
# 
# High freq. dielectric constant tensor:
#      x y z
#    x 1.907600 0.003660 0.010760 
#    y 0.003660 1.904970 0.016490 
#    z 0.010760 0.016490 1.880870 
# 
# From -- ./inp_files/313928.got.cif
#   From: 2010.06.25/outbox.cif.g09.slc.cpg/sg2_157_cif.got.tgz:313928.got - 2010.06.27 13:26:56.
