data_PCOD8024228
_publ_section_title
;
Structure prediction by ZEFSAII (Michael W. Deem and Ramdas Pophale) SiO2 
 PCOD8024228
Probable space group: P -1
;
_chemical_formula_sum "Si O2"
_cell_formula_units_Z 16
_cell_length_a 13.626743
_cell_length_b 13.519136
_cell_length_c 9.471072
_cell_angle_alpha 80.629365
_cell_angle_beta 105.654355
_cell_angle_gamma 34.056381
_cell_volume 656.302845
_symmetry_space_group_name_H-M "P -1"
_symmetry_group_IT_number 2
_symmetry_cell_setting 'triclinic'
loop_
_space_group_symop_operation_xyz
x,y,z
-x,-y,-z
loop_
_atom_site_type_symbol
_atom_site_label
_atom_site_fract_x
_atom_site_fract_y
_atom_site_fract_z
Si Si1 0.433344 0.141829 0.555420
Si Si2 0.385143 0.301651 0.236205
Si Si3 0.384069 0.055977 0.799595
Si Si4 0.879124 0.868631 0.895051
Si Si5 0.668903 0.380077 0.462750
Si Si6 0.856259 0.997874 0.585791
Si Si7 0.442223 0.453450 0.902203
Si Si8 0.854184 0.922389 0.195550
O O1 0.301652 0.345433 0.356611
O O2 0.500000 0.000000 0.500000
O O3 0.268088 0.244881 0.599897
O O4 0.694907 0.941448 0.777343
O O5 0.398737 0.198244 0.151747
O O6 0.663282 0.104550 0.393059
O O7 0.171427 0.573039 0.041394
O O8 0.166296 0.173153 0.733783
O O9 0.500000 0.000000 0.000000
O O10 0.806784 0.025051 0.726821
O O11 0.843287 0.939327 0.020483
O O12 0.500000 0.500000 0.500000
O O13 0.480606 0.594751 0.219908
O O14 0.818227 0.149744 0.508113
O O15 0.876488 0.276705 0.604901
O O16 0.138593 0.704298 0.722562
O O17 0.500000 0.500000 0.000000
O O18 0.607949 0.210989 0.084816
#
# Coordination Sequence:
#
# PCOD8024228 Si02
#       8
#     2   2   2   2   2   2   2   2
#     4   9  21  43  67  99 140 184 238 286 339 416
#     4  10  23  42  75  99 141 186 237 286 346 426
#     4  11  22  44  69  99 143 184 228 291 344 406
#     4  11  23  43  72 106 137 188 234 285 355 417
#     4  12  27  45  71 105 143 183 232 291 351 420
#     4  11  24  43  72 102 140 181 240 284 347 425
#     4  12  27  45  72 101 141 189 231 289 357 415
#     4  12  26  44  71 105 145 181 237 290 350 420
#
# _framework density 24.378989000000001
#
# number of rings (size 3 to 8) (size 9 to 14) (size 15 to 20)
#    0.000    1.000    2.500    3.375    5.250    4.000 
#    0.000    3.125    0.000    0.000    0.000    0.000 
#    0.000    0.000    0.000    0.000    0.000    0.000 
#
# Total GULP energy -198331.516509 kJ/mol
# GULP energy per Si atom -12395.719782 kJ/mol
# Density = 2.432350 g / cm^3
# Si number density = 24.378989 Si / 1000 Ang^3
#
#
#
# Elastic Constant Matrix: (Units=GPa)
#
#
# Indices 1 2 3 4 5 6 
#
# 1 133.9470 15.5477 54.5192 12.6236 11.4973 -10.3246
# 2 15.5477 68.4812 28.6054 16.6210 13.7485 -9.9387
# 3 54.5192 28.6054 120.2171 27.8502 7.4430 0.3324
# 4 12.6236 16.6210 27.8502 51.6821 -3.9523 0.3864
# 5 11.4973 13.7485 7.4430 -3.9523 39.8503 9.6392
# 6 -10.3246 -9.9387 0.3324 0.3864 9.6392 36.1157
#
#
#
# Elastic Compliance Matrix: (Units=1/GPa)
#
#
# Indices 1 2 3 4 5 6 
#
# 1 0.009771 0.001018 -0.004317 -0.000679 -0.003406 0.004030
# 2 0.001018 0.020259 -0.003414 -0.005695 -0.009249 0.008427
# 3 -0.004317 -0.003414 0.012076 -0.004315 0.000301 -0.002319
# 4 -0.000679 -0.005695 -0.004315 0.024176 0.006246 -0.003647
# 5 -0.003406 -0.009249 0.000301 0.006246 0.032818 -0.012347
# 6 0.004030 0.008427 -0.002319 -0.003647 -0.012347 0.034516
#
#
# Mechanical properties :
#
#
# Convention : Reuss Voigt Hill
#
# Bulk Modulus (GPa) = 34.86564 57.77667 46.32116
# Shear Modulus (GPa) = 31.92825 40.46113 36.19469
#
# Velocity S-wave (km/s) = 3.62285 4.07833 3.85732
# Velocity P-wave (km/s) = 5.64204 6.77701 6.23540
#
# Compressibility (1/GPa) = 0.02868153
#
# Stress axis : x y z
#
# Youngs Moduli (GPa) = 102.33983 49.35979 82.81179
#
# Poissons Ratio (x) = -0.05025 0.35747
# Poissons Ratio (y) = -0.10418 0.28270
# Poissons Ratio (z) = 0.44177 0.16850
#
# Static dielectric constant tensor:
#      x y z
#    x 4.920980 -0.137080 -0.514440 
#    y -0.137080 4.198830 0.294810 
#    z -0.514440 0.294810 4.760420 
# 
# 
# High freq. dielectric constant tensor:
#      x y z
#    x 1.986310 -0.007330 -0.013770 
#    y -0.007330 1.958220 0.030100 
#    z -0.013770 0.030100 1.976280 
# 
# From -- ./inp_files/299806.got.cif
#   From: 2010.06.25/outbox.cif.g09.slc.cpg/sg2_150_cif.got.tgz:299806.got - 2010.06.27 13:26:56.
