data_PCOD8024403
_publ_section_title
;
Structure prediction by ZEFSAII (Michael W. Deem and Ramdas Pophale) SiO2 
 PCOD8024403
Probable space group: P -1
;
_chemical_formula_sum "Si O2"
_cell_formula_units_Z 16
_cell_length_a 18.060779
_cell_length_b 13.515882
_cell_length_c 8.674880
_cell_angle_alpha 58.903474
_cell_angle_beta 29.776652
_cell_angle_gamma 46.824823
_cell_volume 749.204385
_symmetry_space_group_name_H-M "P -1"
_symmetry_group_IT_number 2
_symmetry_cell_setting 'triclinic'
loop_
_space_group_symop_operation_xyz
x,y,z
-x,-y,-z
loop_
_atom_site_type_symbol
_atom_site_label
_atom_site_fract_x
_atom_site_fract_y
_atom_site_fract_z
Si Si1 0.783174 0.726355 0.871063
Si Si2 0.882485 0.265199 0.321399
Si Si3 0.132743 0.723182 0.290226
Si Si4 0.510604 0.550639 0.107610
Si Si5 0.445997 0.993428 0.279006
Si Si6 0.664777 0.716388 0.754473
Si Si7 0.985038 0.459511 0.892055
Si Si8 0.894984 0.018186 0.021592
O O1 0.694946 0.724241 0.873415
O O2 0.816027 0.593839 0.010460
O O3 0.961150 0.728773 0.525632
O O4 0.628308 0.864940 0.130129
O O5 0.886696 0.267627 0.497231
O O6 0.684648 0.381614 0.518709
O O7 0.992447 0.318782 0.997285
O O8 0.971880 0.109128 0.228516
O O9 0.317295 0.581239 0.014094
O O10 0.148858 0.845163 0.098334
O O11 0.500000 0.500000 0.000000
O O12 0.516023 0.687790 0.997870
O O13 0.285588 0.971171 0.611373
O O14 0.389882 0.138573 0.343833
O O15 0.500000 0.000000 0.000000
O O16 0.842025 0.577722 0.484395
O O17 0.000000 0.500000 0.000000
O O18 0.000000 0.000000 0.000000
#
# Coordination Sequence:
#
# PCOD8024403 Si02
#       8
#     2   2   2   2   2   2   2   2
#     4  11  24  41  71 101 132 174 225 283 328 393
#     4  11  25  44  67  98 136 184 216 273 337 399
#     4  11  24  46  66  99 141 173 222 273 338 399
#     4  10  23  43  66  96 134 180 217 271 331 396
#     4  10  24  44  66 101 131 172 223 277 336 390
#     4  11  22  44  70  93 133 178 224 277 332 390
#     4  12  22  43  67  97 135 172 228 272 333 396
#     4  12  26  44  69  99 137 177 224 277 331 402
#
# _framework density 21.355986999999999
#
# number of rings (size 3 to 8) (size 9 to 14) (size 15 to 20)
#    0.000    1.000    3.750    3.000    7.000    0.000 
#    0.000    2.500    0.000    0.000    0.000    0.000 
#    0.000    0.000    0.000    0.000    0.000    0.000 
#
# Total GULP energy -198220.239662 kJ/mol
# GULP energy per Si atom -12388.764979 kJ/mol
# Density = 2.130738 g / cm^3
# Si number density = 21.355987 Si / 1000 Ang^3
#
#
#
# Elastic Constant Matrix: (Units=GPa)
#
#
# Indices 1 2 3 4 5 6 
#
# 1 68.2232 32.5696 20.6263 -1.4761 -8.4041 9.9610
# 2 32.5696 145.3197 34.6302 0.8849 -1.2227 -0.7893
# 3 20.6263 34.6302 91.2002 7.2804 -8.8826 0.2971
# 4 -1.4761 0.8849 7.2804 45.6044 -5.9438 -10.0438
# 5 -8.4041 -1.2227 -8.8826 -5.9438 28.0840 -8.4503
# 6 9.9610 -0.7893 0.2971 -10.0438 -8.4503 31.1508
#
#
#
# Elastic Compliance Matrix: (Units=1/GPa)
#
#
# Indices 1 2 3 4 5 6 
#
# 1 0.018185 -0.003482 -0.002503 0.000377 0.003099 -0.004917
# 2 -0.003482 0.008246 -0.002471 0.000230 -0.001076 0.001128
# 3 -0.002503 -0.002471 0.012895 -0.001446 0.003224 0.001023
# 4 0.000377 0.000230 -0.001446 0.025510 0.008176 0.010342
# 5 0.003099 -0.001076 0.003224 0.008176 0.043245 0.013319
# 6 -0.004917 0.001128 0.001023 0.010342 0.013319 0.040641
#
#
# Mechanical properties :
#
#
# Convention : Reuss Voigt Hill
#
# Bulk Modulus (GPa) = 44.61271 53.37725 48.99498
# Shear Modulus (GPa) = 28.88435 35.42897 32.15666
#
# Velocity S-wave (km/s) = 3.68165 4.07747 3.88460
# Velocity P-wave (km/s) = 6.24565 6.87139 6.56597
#
# Compressibility (1/GPa) = 0.02241514
#
# Stress axis : x y z
#
# Youngs Moduli (GPa) = 54.99161 121.26770 77.54862
#
# Poissons Ratio (x) = 0.42227 0.19408
# Poissons Ratio (y) = 0.19149 0.19159
# Poissons Ratio (z) = 0.13763 0.29960
#
# Static dielectric constant tensor:
#      x y z
#    x 3.734430 -0.166550 -0.262970 
#    y -0.166550 4.141670 0.335730 
#    z -0.262970 0.335730 4.036060 
# 
# 
# High freq. dielectric constant tensor:
#      x y z
#    x 1.818110 0.003850 -0.015720 
#    y 0.003850 1.868610 0.008960 
#    z -0.015720 0.008960 1.842470 
# 
# From -- ./inp_files/299203.got.cif
#   From: 2010.06.25/outbox.cif.g09.slc.cpg/sg2_150_cif.got.tgz:299203.got - 2010.06.27 13:26:56.
