data_PCOD8024362
_publ_section_title
;
Structure prediction by ZEFSAII (Michael W. Deem and Ramdas Pophale) SiO2 
 PCOD8024362
Probable space group: P -1
;
_chemical_formula_sum "Si O2"
_cell_formula_units_Z 12
_cell_length_a 12.921557
_cell_length_b 12.796531
_cell_length_c 11.000628
_cell_angle_alpha 44.305528
_cell_angle_beta 48.042791
_cell_angle_gamma 22.430851
_cell_volume 484.617922
_symmetry_space_group_name_H-M "P -1"
_symmetry_group_IT_number 2
_symmetry_cell_setting 'triclinic'
loop_
_space_group_symop_operation_xyz
x,y,z
-x,-y,-z
loop_
_atom_site_type_symbol
_atom_site_label
_atom_site_fract_x
_atom_site_fract_y
_atom_site_fract_z
Si Si1 0.994963 0.629392 0.092784
Si Si2 0.470713 0.856743 0.599922
Si Si3 0.732236 0.586744 0.373705
Si Si4 0.025814 0.796324 0.160312
Si Si5 0.513165 0.190967 0.885569
Si Si6 0.229136 0.764912 0.418267
O O1 0.988631 0.464770 0.286715
O O2 0.935821 0.805654 0.095875
O O3 0.267458 0.417601 0.984606
O O4 0.728726 0.861249 0.019891
O O5 0.506236 0.828364 0.450873
O O6 0.678599 0.545892 0.757521
O O7 0.500000 0.000000 0.500000
O O8 0.171565 0.075882 0.683993
O O9 0.586745 0.725276 0.242186
O O10 0.844356 0.315270 0.534205
O O11 0.000000 0.000000 0.000000
O O12 0.713772 0.149006 0.787737
O O13 0.500000 0.500000 0.500000
O O14 0.000000 0.000000 0.500000
#
# Coordination Sequence:
#
# PCOD8024362 Si02
#       6
#     2   2   2   2   2   2
#     4  12  26  45  73 103 150 187 243 299 366 442
#     4  12  27  51  78 108 147 198 253 312 363 442
#     4  11  26  45  76 105 148 188 249 301 371 436
#     4  12  29  50  77 108 149 199 253 305 375 437
#     4  11  25  45  70 107 142 191 233 301 371 433
#     4  10  23  43  65  99 139 181 236 289 355 430
#
# _framework density 24.761773999999999
#
# number of rings (size 3 to 8) (size 9 to 14) (size 15 to 20)
#    0.000    0.667    1.667    5.000    4.667    6.667 
#    0.000    0.000    0.000    0.000    0.000    0.000 
#    0.000    0.000    0.000    0.000    0.000    0.000 
#
# Total GULP energy -148717.172412 kJ/mol
# GULP energy per Si atom -12393.097701 kJ/mol
# Density = 2.470541 g / cm^3
# Si number density = 24.761774 Si / 1000 Ang^3
#
#
#
# Elastic Constant Matrix: (Units=GPa)
#
#
# Indices 1 2 3 4 5 6 
#
# 1 122.8105 35.3370 74.8461 15.8311 -40.8825 37.3015
# 2 35.3370 150.1672 49.3581 36.1154 -13.3552 16.6740
# 3 74.8461 49.3581 137.1836 42.7007 -33.2723 26.7896
# 4 15.8311 36.1154 42.7007 64.4526 2.5704 3.5226
# 5 -40.8825 -13.3552 -33.2723 2.5704 51.5940 -9.0284
# 6 37.3015 16.6740 26.7896 3.5226 -9.0284 42.8008
#
#
#
# Elastic Compliance Matrix: (Units=1/GPa)
#
#
# Indices 1 2 3 4 5 6 
#
# 1 0.017307 -0.000425 -0.005166 -0.000394 0.008569 -0.009844
# 2 -0.000425 0.008287 -0.000949 -0.003860 0.001088 -0.001717
# 3 -0.005166 -0.000949 0.014664 -0.007975 0.005063 -0.002582
# 4 -0.000394 -0.003860 -0.007975 0.023149 -0.007003 0.003456
# 5 0.008569 0.001088 0.005063 -0.007003 0.029315 -0.004301
# 6 -0.009844 -0.001717 -0.002582 0.003456 -0.004301 0.033036
#
#
# Mechanical properties :
#
#
# Convention : Reuss Voigt Hill
#
# Bulk Modulus (GPa) = 36.79486 81.02707 58.91097
# Shear Modulus (GPa) = 33.80716 48.47749 41.14233
#
# Velocity S-wave (km/s) = 3.69900 4.42945 4.08060
# Velocity P-wave (km/s) = 5.75632 7.67813 6.78561
#
# Compressibility (1/GPa) = 0.02717771
#
# Stress axis : x y z
#
# Youngs Moduli (GPa) = 57.78144 120.67243 68.19285
#
# Poissons Ratio (x) = 0.05123 0.35230
# Poissons Ratio (y) = 0.02453 0.06473
# Poissons Ratio (z) = 0.29851 0.11455
#
# Static dielectric constant tensor:
#      x y z
#    x 5.200600 0.367980 -0.743060 
#    y 0.367980 4.403290 -0.187600 
#    z -0.743060 -0.187600 5.072370 
# 
# 
# High freq. dielectric constant tensor:
#      x y z
#    x 1.991310 0.007700 -0.016550 
#    y 0.007700 1.989170 0.000930 
#    z -0.016550 0.000930 2.012840 
# 
# From -- ./inp_files/322844.got.cif
#   From: 2010.06.25/outbox.cif.g09.slc.cpg/sg2_162_cif.got.tgz:322844.got - 2010.06.27 13:26:56.
