data_PCOD8024448
_publ_section_title
;
Structure prediction by ZEFSAII (Michael W. Deem and Ramdas Pophale) SiO2 
 PCOD8024448
Probable space group: P -1
;
_chemical_formula_sum "Si O2"
_cell_formula_units_Z 16
_cell_length_a 14.161558
_cell_length_b 14.973158
_cell_length_c 8.429354
_cell_angle_alpha 102.170166
_cell_angle_beta 86.126399
_cell_angle_gamma 28.712408
_cell_volume 707.789014
_symmetry_space_group_name_H-M "P -1"
_symmetry_group_IT_number 2
_symmetry_cell_setting 'triclinic'
loop_
_space_group_symop_operation_xyz
x,y,z
-x,-y,-z
loop_
_atom_site_type_symbol
_atom_site_label
_atom_site_fract_x
_atom_site_fract_y
_atom_site_fract_z
Si Si1 0.505806 0.888532 0.436469
Si Si2 0.715142 0.385694 0.272476
Si Si3 0.708393 0.723848 0.018942
Si Si4 0.750404 0.884585 0.974061
Si Si5 0.024507 0.665456 0.301202
Si Si6 0.031768 0.145278 0.867521
Si Si7 0.178806 0.516405 0.573061
Si Si8 0.192885 0.831611 0.552935
O O1 0.633100 0.750018 0.206639
O O2 0.650626 0.719309 0.503129
O O3 0.500000 0.000000 0.500000
O O4 0.246187 0.078182 0.536700
O O5 0.714385 0.492901 0.350320
O O6 0.447686 0.590434 0.356952
O O7 0.848965 0.212259 0.331277
O O8 0.851701 0.251017 0.041523
O O9 0.509702 0.879041 0.971388
O O10 0.773202 0.774041 0.040453
O O11 0.934346 0.468592 0.838458
O O12 0.920698 0.722135 0.743771
O O13 0.803312 0.928881 0.084931
O O14 0.111839 0.670490 0.178993
O O15 0.172606 0.541344 0.397471
O O16 0.190868 0.929314 0.683191
O O17 0.000000 0.000000 0.500000
#
# Coordination Sequence:
#
# PCOD8024448 Si02
#       8
#     2   2   2   2   2   2   2   2
#     4  12  26  42  65  94 135 184 231 284 334 388
#     4  10  24  45  70 100 135 173 215 275 339 400
#     4  11  24  42  64  98 136 181 232 279 327 390
#     4  10  23  43  67  95 137 181 230 277 331 393
#     4  12  26  41  66 100 133 184 229 276 333 393
#     4  11  24  45  67 101 136 177 221 275 335 399
#     4  11  24  45  68  98 139 178 228 281 333 404
#     4  11  24  46  73 102 133 169 217 276 340 412
#
# _framework density 22.605606999999999
#
# number of rings (size 3 to 8) (size 9 to 14) (size 15 to 20)
#    0.000    1.000    1.250    4.875    7.000    3.000 
#    4.500    0.000    0.000    0.000    0.000    0.000 
#    0.000    0.000    0.000    0.000    0.000    0.000 
#
# Total GULP energy -198483.717263 kJ/mol
# GULP energy per Si atom -12405.232329 kJ/mol
# Density = 2.255416 g / cm^3
# Si number density = 22.605607 Si / 1000 Ang^3
#
#
#
# Elastic Constant Matrix: (Units=GPa)
#
#
# Indices 1 2 3 4 5 6 
#
# 1 77.4604 30.7639 26.9704 2.2960 -5.8639 9.6875
# 2 30.7639 137.5424 45.9633 -15.7409 -10.3771 9.5118
# 3 26.9704 45.9633 107.2276 -10.2958 -10.0074 -2.8280
# 4 2.2960 -15.7409 -10.2958 38.9986 9.7529 -1.7190
# 5 -5.8639 -10.3771 -10.0074 9.7529 38.5970 -1.3470
# 6 9.6875 9.5118 -2.8280 -1.7190 -1.3470 36.7389
#
#
#
# Elastic Compliance Matrix: (Units=1/GPa)
#
#
# Indices 1 2 3 4 5 6 
#
# 1 0.015683 -0.002442 -0.003168 -0.003317 0.001609 -0.003843
# 2 -0.002442 0.009359 -0.003119 0.002879 0.000544 -0.001865
# 3 -0.003168 -0.003119 0.011835 0.001825 0.001381 0.002690
# 4 -0.003317 0.002879 0.001825 0.029189 -0.006584 0.001394
# 5 0.001609 0.000544 0.001381 -0.006584 0.028331 0.000272
# 6 -0.003843 -0.001865 0.002690 0.001394 0.000272 0.028998
#
#
# Mechanical properties :
#
#
# Convention : Reuss Voigt Hill
#
# Bulk Modulus (GPa) = 51.49573 58.84730 55.17151
# Shear Modulus (GPa) = 33.93862 37.43576 35.68719
#
# Velocity S-wave (km/s) = 3.87891 4.07386 3.97758
# Velocity P-wave (km/s) = 6.54911 6.94386 6.74937
#
# Compressibility (1/GPa) = 0.01941909
#
# Stress axis : x y z
#
# Youngs Moduli (GPa) = 63.76203 106.85439 84.49542
#
# Poissons Ratio (x) = 0.26091 0.26767
# Poissons Ratio (y) = 0.15569 0.26357
# Poissons Ratio (z) = 0.20199 0.33332
#
# Static dielectric constant tensor:
#      x y z
#    x 3.880830 0.218230 -0.189790 
#    y 0.218230 4.138150 -0.092230 
#    z -0.189790 -0.092230 4.381140 
# 
# 
# High freq. dielectric constant tensor:
#      x y z
#    x 1.878780 0.011120 -0.005140 
#    y 0.011120 1.902580 -0.002920 
#    z -0.005140 -0.002920 1.903760 
# 
# From -- ./inp_files/315428.got.cif
#   From: 2010.06.25/outbox.cif.g09.slc.cpg/sg2_158_cif.got.tgz:315428.got - 2010.06.27 13:26:56.
