data_PCOD8024247
_publ_section_title
;
Structure prediction by ZEFSAII (Michael W. Deem and Ramdas Pophale) SiO2 
 PCOD8024247
Probable space group: P -1
;
_chemical_formula_sum "Si O2"
_cell_formula_units_Z 14
_cell_length_a 18.200989
_cell_length_b 14.482464
_cell_length_c 8.900269
_cell_angle_alpha 49.253603
_cell_angle_beta 128.745551
_cell_angle_gamma 158.499183
_cell_volume 649.982430
_symmetry_space_group_name_H-M "P -1"
_symmetry_group_IT_number 2
_symmetry_cell_setting 'triclinic'
loop_
_space_group_symop_operation_xyz
x,y,z
-x,-y,-z
loop_
_atom_site_type_symbol
_atom_site_label
_atom_site_fract_x
_atom_site_fract_y
_atom_site_fract_z
Si Si1 0.569791 0.210895 0.302523
Si Si2 0.185750 0.805567 0.083826
Si Si3 0.006663 0.024412 0.302719
Si Si4 0.783853 0.944597 0.627142
Si Si5 0.010987 0.261517 0.867577
Si Si6 0.048477 0.381813 0.284738
Si Si7 0.360744 0.547818 0.584513
O O1 0.792271 0.463272 0.254593
O O2 0.556369 0.294874 0.326952
O O3 0.500000 0.000000 0.500000
O O4 0.425035 0.088780 0.111501
O O5 0.084911 0.726286 0.197239
O O6 0.139414 0.617417 0.172167
O O7 0.103425 0.802643 0.854205
O O8 0.789479 0.734622 0.267083
O O9 0.000000 0.000000 0.500000
O O10 0.180922 0.139161 0.331695
O O11 0.054549 0.215604 0.106659
O O12 0.549667 0.711508 0.560602
O O13 0.920600 0.207485 0.453966
O O14 0.858088 0.019582 0.814629
O O15 0.233237 0.498997 0.373476
#
# Coordination Sequence:
#
# PCOD8024247 Si02
#       7
#     2   2   2   2   2   2   2
#     4  12  24  42  68 106 137 173 226 277 327 401
#     4  11  24  40  66  99 137 180 218 275 336 398
#     4  11  26  47  66  98 140 173 224 284 332 397
#     4  11  23  41  71  96 128 180 223 276 338 390
#     4  12  24  41  71 100 133 179 226 274 335 394
#     4  10  23  43  62  99 143 172 220 276 334 397
#     4  11  23  43  70  95 134 174 224 277 327 396
#
# _framework density 21.539042999999999
#
# number of rings (size 3 to 8) (size 9 to 14) (size 15 to 20)
#    0.000    0.857    5.714    2.143    2.000    5.714 
#    0.000    2.857    0.000    0.000    0.000    0.000 
#    0.000    0.000    0.000    0.000    0.000    0.000 
#
# Total GULP energy -173571.489172 kJ/mol
# GULP energy per Si atom -12397.963512 kJ/mol
# Density = 2.149002 g / cm^3
# Si number density = 21.539043 Si / 1000 Ang^3
#
#
#
# Elastic Constant Matrix: (Units=GPa)
#
#
# Indices 1 2 3 4 5 6 
#
# 1 104.8402 42.7788 17.4004 9.0481 -3.4327 19.7787
# 2 42.7788 112.7675 40.5664 14.2857 13.5323 15.1579
# 3 17.4004 40.5664 100.6828 12.2282 -1.1560 3.9213
# 4 9.0481 14.2857 12.2282 44.1381 -3.4430 0.9409
# 5 -3.4327 13.5323 -1.1560 -3.4430 25.4366 8.2607
# 6 19.7787 15.1579 3.9213 0.9409 8.2607 45.7894
#
#
#
# Elastic Compliance Matrix: (Units=1/GPa)
#
#
# Indices 1 2 3 4 5 6 
#
# 1 0.012641 -0.004788 0.000063 -0.000503 0.005784 -0.004914
# 2 -0.004788 0.013714 -0.004425 -0.002872 -0.008361 -0.000525
# 3 0.000063 -0.004425 0.011940 -0.001678 0.002690 -0.000036
# 4 -0.000503 -0.002872 -0.001678 0.024523 0.004717 -0.000043
# 5 0.005784 -0.008361 0.002690 0.004717 0.048142 -0.008743
# 6 -0.004914 -0.000525 -0.000036 -0.000043 -0.008743 0.025717
#
#
# Mechanical properties :
#
#
# Convention : Reuss Voigt Hill
#
# Bulk Modulus (GPa) = 50.00903 57.75354 53.88128
# Shear Modulus (GPa) = 30.93268 37.57581 34.25425
#
# Velocity S-wave (km/s) = 3.79373 4.18131 3.99222
# Velocity P-wave (km/s) = 6.51599 7.08398 6.80591
#
# Compressibility (1/GPa) = 0.01999639
#
# Stress axis : x y z
#
# Youngs Moduli (GPa) = 79.10505 72.91965 83.75155
#
# Poissons Ratio (x) = 0.34915 -0.00531
# Poissons Ratio (y) = 0.37877 0.37057
# Poissons Ratio (z) = -0.00502 0.32264
#
# Static dielectric constant tensor:
#      x y z
#    x 3.925330 -0.058600 -0.000850 
#    y -0.058600 3.981290 0.253760 
#    z -0.000850 0.253760 4.015980 
# 
# 
# High freq. dielectric constant tensor:
#      x y z
#    x 1.856560 -0.005060 0.003000 
#    y -0.005060 1.846330 0.014320 
#    z 0.003000 0.014320 1.840400 
# 
# From -- ./inp_files/77365.got.cif
#   From: 2010.06.25/outbox.cif.g09.slc.cpg/sg2_39_cif.got.tgz:77365.got - 2010.06.27 13:26:56.
