data_PCOD8024215
_publ_section_title
;
Structure prediction by ZEFSAII (Michael W. Deem and Ramdas Pophale) SiO2 
 PCOD8024215
Probable space group: P -1
;
_chemical_formula_sum "Si O2"
_cell_formula_units_Z 16
_cell_length_a 21.364967
_cell_length_b 17.915935
_cell_length_c 12.609541
_cell_angle_alpha 143.424870
_cell_angle_beta 151.568911
_cell_angle_gamma 17.895768
_cell_volume 687.062939
_symmetry_space_group_name_H-M "P -1"
_symmetry_group_IT_number 2
_symmetry_cell_setting 'triclinic'
loop_
_space_group_symop_operation_xyz
x,y,z
-x,-y,-z
loop_
_atom_site_type_symbol
_atom_site_label
_atom_site_fract_x
_atom_site_fract_y
_atom_site_fract_z
Si Si1 0.200063 0.518291 0.571654
Si Si2 0.648004 0.844859 0.750194
Si Si3 0.418484 0.477489 0.188582
Si Si4 0.256343 0.372133 0.717074
Si Si5 0.854519 0.416671 0.774327
Si Si6 0.122477 0.835557 0.344205
Si Si7 0.319765 0.608909 0.696638
Si Si8 0.408607 0.966309 0.749434
O O1 0.300576 0.308087 0.429429
O O2 0.241271 0.469628 0.701932
O O3 0.373699 0.493608 0.757897
O O4 0.897847 0.803069 0.424045
O O5 0.458411 0.959250 0.692991
O O6 0.506254 0.075861 0.742337
O O7 0.928610 0.655000 0.997175
O O8 0.265119 0.696022 0.286628
O O9 0.709429 0.225063 0.386527
O O10 0.429830 0.544972 0.170551
O O11 0.293476 0.442431 0.948389
O O12 0.000000 0.500000 0.500000
O O13 0.950216 0.239363 0.801851
O O14 0.824400 0.381220 0.573729
O O15 0.576801 0.703544 0.727521
O O16 0.861853 0.121445 0.251070
O O17 0.500000 0.000000 0.000000
#
# Coordination Sequence:
#
# PCOD8024215 Si02
#       8
#     2   2   2   2   2   2   2   2
#     4  12  27  44  69 100 142 195 231 291 348 414
#     4  12  24  46  68 103 145 188 234 286 355 424
#     4  10  24  45  68 102 135 183 232 284 349 416
#     4  12  27  49  72 100 143 189 242 286 345 428
#     4  11  22  41  73 106 141 180 228 297 358 415
#     4  10  23  42  74 102 137 180 228 296 356 412
#     4  11  23  44  67 103 138 177 242 283 352 415
#     4  12  24  40  67 107 149 178 231 296 356 414
#
# _framework density 23.287533
#
# number of rings (size 3 to 8) (size 9 to 14) (size 15 to 20)
#    0.000    0.750    3.750    4.500    8.750    0.500 
#    2.250    0.625    0.000    0.000    0.000    0.000 
#    0.000    0.000    0.000    0.000    0.000    0.000 
#
# Total GULP energy -198396.195312 kJ/mol
# GULP energy per Si atom -12399.762207 kJ/mol
# Density = 2.323453 g / cm^3
# Si number density = 23.287533 Si / 1000 Ang^3
#
#
#
# Elastic Constant Matrix: (Units=GPa)
#
#
# Indices 1 2 3 4 5 6 
#
# 1 131.4324 28.4538 23.0535 6.0302 7.2400 8.1866
# 2 28.4538 121.8707 22.5631 13.4107 -2.5230 12.6994
# 3 23.0535 22.5631 83.9256 14.5152 17.3539 1.0270
# 4 6.0302 13.4107 14.5152 26.1219 -0.0757 4.6125
# 5 7.2400 -2.5230 17.3539 -0.0757 24.8051 0.4442
# 6 8.1866 12.6994 1.0270 4.6125 0.4442 38.7355
#
#
#
# Elastic Compliance Matrix: (Units=1/GPa)
#
#
# Indices 1 2 3 4 5 6 
#
# 1 0.008379 -0.001571 -0.001542 -0.000065 -0.001505 -0.001190
# 2 -0.001571 0.009627 -0.002260 -0.002881 0.003054 -0.002456
# 3 -0.001542 -0.002260 0.016711 -0.008107 -0.011526 0.001721
# 4 -0.000065 -0.002881 -0.008107 0.045049 0.005611 -0.004255
# 5 -0.001505 0.003054 -0.011526 0.005611 0.049174 -0.001610
# 6 -0.001190 -0.002456 0.001721 -0.004255 -0.001610 0.027352
#
#
# Mechanical properties :
#
#
# Convention : Reuss Voigt Hill
#
# Bulk Modulus (GPa) = 41.71647 53.92993 47.82320
# Shear Modulus (GPa) = 28.56688 35.47640 32.02164
#
# Velocity S-wave (km/s) = 3.50623 3.90732 3.71220
# Velocity P-wave (km/s) = 5.86038 6.60036 6.24135
#
# Compressibility (1/GPa) = 0.02397134
#
# Stress axis : x y z
#
# Youngs Moduli (GPa) = 119.34492 103.87727 59.84111
#
# Poissons Ratio (x) = 0.16317 0.09229
# Poissons Ratio (y) = 0.18746 0.13522
# Poissons Ratio (z) = 0.18406 0.23473
#
# Static dielectric constant tensor:
#      x y z
#    x 4.478570 -0.052100 0.087110 
#    y -0.052100 4.320280 0.067760 
#    z 0.087110 0.067760 4.019420 
# 
# 
# High freq. dielectric constant tensor:
#      x y z
#    x 1.934150 -0.002390 0.005690 
#    y -0.002390 1.927430 0.017900 
#    z 0.005690 0.017900 1.904370 
# 
# From -- ./inp_files/472433.got.cif
#   From: 2010.06.25/outbox.cif.g09.slc.cpg/sg2_237_cif.got.tgz:472433.got - 2010.06.27 13:26:56.
