data_PCOD8024354
_publ_section_title
;
Structure prediction by ZEFSAII (Michael W. Deem and Ramdas Pophale) SiO2 
 PCOD8024354
Probable space group: P -1
;
_chemical_formula_sum "Si O2"
_cell_formula_units_Z 16
_cell_length_a 8.991179
_cell_length_b 11.072340
_cell_length_c 9.951781
_cell_angle_alpha 109.790387
_cell_angle_beta 89.455051
_cell_angle_gamma 58.404852
_cell_volume 772.145199
_symmetry_space_group_name_H-M "P -1"
_symmetry_group_IT_number 2
_symmetry_cell_setting 'triclinic'
loop_
_space_group_symop_operation_xyz
x,y,z
-x,-y,-z
loop_
_atom_site_type_symbol
_atom_site_label
_atom_site_fract_x
_atom_site_fract_y
_atom_site_fract_z
Si Si1 0.852708 0.110229 0.149964
Si Si2 0.905167 0.026253 0.651265
Si Si3 0.736832 0.380205 0.833789
Si Si4 0.356321 0.085058 0.418227
Si Si5 0.194012 0.447445 0.306166
Si Si6 0.505266 0.107004 0.150175
Si Si7 0.674249 0.442532 0.154785
Si Si8 0.192040 0.431648 0.596755
O O1 0.700874 0.075266 0.140295
O O2 0.771187 0.286394 0.180198
O O3 0.941374 0.082302 0.284313
O O4 0.000000 0.000000 0.000000
O O5 0.801059 0.203689 0.763550
O O6 0.759044 0.985914 0.628912
O O7 0.000000 0.000000 0.500000
O O8 0.847054 0.413473 0.739764
O O9 0.531325 0.494247 0.836788
O O10 0.766507 0.417249 0.998996
O O11 0.467599 0.060858 0.275123
O O12 0.223699 0.264423 0.525077
O O13 0.500000 0.000000 0.500000
O O14 0.354928 0.285424 0.182307
O O15 0.240700 0.472540 0.467152
O O16 0.016470 0.444681 0.317562
O O17 0.500000 0.000000 0.000000
O O18 0.686039 0.567348 0.287219
#
# Coordination Sequence:
#
# PCOD8024354 Si02
#       8
#     2   2   2   2   2   2   2   2
#     4  12  25  45  66 104 136 175 235 277 344 405
#     4  12  26  42  73 102 139 178 224 285 334 403
#     4  11  24  45  65 100 133 175 227 273 336 399
#     4  11  24  46  67 100 140 175 226 275 342 405
#     4  10  23  43  65  98 134 169 231 268 335 405
#     4  11  25  42  69  98 134 183 221 279 341 402
#     4  11  25  42  70  95 136 177 223 278 336 399
#     4  10  24  42  68  98 130 179 219 278 333 398
#
# _framework density 20.721489999999999
#
# number of rings (size 3 to 8) (size 9 to 14) (size 15 to 20)
#    0.000    1.000    2.500    3.000    8.750    3.000 
#    0.000    0.000    0.000    0.000    0.000    0.000 
#    0.000    0.000    0.000    0.000    0.000    0.000 
#
# Total GULP energy -198477.971187 kJ/mol
# GULP energy per Si atom -12404.873199 kJ/mol
# Density = 2.067433 g / cm^3
# Si number density = 20.721490 Si / 1000 Ang^3
#
#
#
# Elastic Constant Matrix: (Units=GPa)
#
#
# Indices 1 2 3 4 5 6 
#
# 1 129.1519 41.3251 61.0976 -5.9966 0.2610 5.9232
# 2 41.3251 122.3647 53.7753 -16.5457 3.2563 -0.0748
# 3 61.0976 53.7753 149.1292 -10.9814 8.6668 5.8281
# 4 -5.9966 -16.5457 -10.9814 38.9728 -2.6625 -1.2749
# 5 0.2610 3.2563 8.6668 -2.6625 39.6761 -1.2236
# 6 5.9232 -0.0748 5.8281 -1.2749 -1.2236 37.5887
#
#
#
# Elastic Compliance Matrix: (Units=1/GPa)
#
#
# Indices 1 2 3 4 5 6 
#
# 1 0.010018 -0.001927 -0.003432 -0.000223 0.000795 -0.001032
# 2 -0.001927 0.010507 -0.002783 0.003410 0.000014 0.000872
# 3 -0.003432 -0.002783 0.009310 0.000763 -0.001761 -0.000940
# 4 -0.000223 0.003410 0.000763 0.027414 0.001422 0.000900
# 5 0.000795 0.000014 -0.001761 0.001422 0.025710 0.001033
# 6 -0.001032 0.000872 -0.000940 0.000900 0.001033 0.026978
#
#
# Mechanical properties :
#
#
# Convention : Reuss Voigt Hill
#
# Bulk Modulus (GPa) = 73.79110 79.22686 76.50898
# Shear Modulus (GPa) = 38.24408 39.54403 38.89405
#
# Velocity S-wave (km/s) = 4.30073 4.37322 4.33713
# Velocity P-wave (km/s) = 7.76852 7.98856 7.87931
#
# Compressibility (1/GPa) = 0.01355177
#
# Stress axis : x y z
#
# Youngs Moduli (GPa) = 99.81705 95.17037 107.40639
#
# Poissons Ratio (x) = 0.18341 0.36860
# Poissons Ratio (y) = 0.19236 0.29894
# Poissons Ratio (z) = 0.34256 0.26488
#
# Static dielectric constant tensor:
#      x y z
#    x 3.667640 0.016220 -0.076630 
#    y 0.016220 3.922580 -0.077970 
#    z -0.076630 -0.077970 3.995940 
# 
# 
# High freq. dielectric constant tensor:
#      x y z
#    x 1.812810 -0.003280 -0.006450 
#    y -0.003280 1.823980 -0.004930 
#    z -0.006450 -0.004930 1.824820 
# 
# From -- ./inp_files/190187.got.cif
#   From: 2010.06.25/outbox.cif.g09.slc.cpg/sg2_96_cif.got.tgz:190187.got - 2010.06.27 13:26:56.
