data_PCOD8024921
_publ_section_title
;
Structure prediction by ZEFSAII (Michael W. Deem and Ramdas Pophale) SiO2 
 PCOD8024921
Probable space group: P -1
;
_chemical_formula_sum "Si O2"
_cell_formula_units_Z 12
_cell_length_a 11.335845
_cell_length_b 7.135484
_cell_length_c 12.147916
_cell_angle_alpha 120.408748
_cell_angle_beta 131.926365
_cell_angle_gamma 88.549383
_cell_volume 550.453294
_symmetry_space_group_name_H-M "P -1"
_symmetry_group_IT_number 2
_symmetry_cell_setting 'triclinic'
loop_
_space_group_symop_operation_xyz
x,y,z
-x,-y,-z
loop_
_atom_site_type_symbol
_atom_site_label
_atom_site_fract_x
_atom_site_fract_y
_atom_site_fract_z
Si Si1 0.698628 0.717542 0.710488
Si Si2 0.307337 0.868531 0.035980
Si Si3 0.936207 0.476943 0.786362
Si Si4 0.869767 0.982586 0.674641
Si Si5 0.289316 0.972064 0.622296
Si Si6 0.120457 0.790670 0.687309
O O1 0.500000 0.500000 0.500000
O O2 0.691381 0.880146 0.853899
O O3 0.847875 0.641930 0.823416
O O4 0.752363 0.868397 0.675212
O O5 0.494713 0.883158 0.192142
O O6 0.288736 0.829976 0.880845
O O7 0.141585 0.635256 0.921905
O O8 0.939858 0.280491 0.818597
O O9 0.798533 0.319243 0.553415
O O10 0.757729 0.884373 0.459931
O O11 0.020451 0.897510 0.735459
O O12 0.195677 0.965765 0.678791
O O13 0.000000 0.500000 0.500000
#
# Coordination Sequence:
#
# PCOD8024921 Si02
#       6
#     2   2   2   2   2   2
#     4  12  23  45  72 101 140 179 227 282 344 406
#     4  12  24  42  73 103 135 186 227 274 347 405
#     4  10  23  45  66 101 137 177 223 284 335 400
#     4  10  24  46  71  98 139 183 220 292 339 394
#     4  10  23  44  66 101 137 177 230 272 339 398
#     4  12  22  45  73  95 143 181 226 283 336 404
#
# _framework density 21.800215000000001
#
# number of rings (size 3 to 8) (size 9 to 14) (size 15 to 20)
#    1.000    0.000    5.000    1.500    0.000    3.333 
#    3.000    1.667    0.000    0.000    0.000    0.000 
#    0.000    0.000    0.000    0.000    0.000    0.000 
#
# Total GULP energy -148728.595555 kJ/mol
# GULP energy per Si atom -12394.049630 kJ/mol
# Density = 2.175060 g / cm^3
# Si number density = 21.800215 Si / 1000 Ang^3
#
#
#
# Elastic Constant Matrix: (Units=GPa)
#
#
# Indices 1 2 3 4 5 6 
#
# 1 63.7630 15.0214 18.4758 6.0292 10.6511 9.0119
# 2 15.0214 95.7727 23.7488 10.2809 3.0986 7.1206
# 3 18.4758 23.7488 101.1624 6.0623 21.9235 6.9621
# 4 6.0292 10.2809 6.0623 26.0677 -2.8405 3.1572
# 5 10.6511 3.0986 21.9235 -2.8405 40.6332 -1.1912
# 6 9.0119 7.1206 6.9621 3.1572 -1.1912 26.8862
#
#
#
# Elastic Compliance Matrix: (Units=1/GPa)
#
#
# Indices 1 2 3 4 5 6 
#
# 1 0.018217 -0.001642 -0.001495 -0.003057 -0.004207 -0.005112
# 2 -0.001642 0.011728 -0.002236 -0.003489 0.000453 -0.001547
# 3 -0.001495 -0.002236 0.012317 -0.002064 -0.006290 -0.002132
# 4 -0.003057 -0.003489 -0.002064 0.041739 0.005034 -0.002195
# 5 -0.004207 0.000453 -0.006290 0.005034 0.029531 0.003636
# 6 -0.005112 -0.001547 -0.002132 -0.002195 0.003636 0.040288
#
#
# Mechanical properties :
#
#
# Convention : Reuss Voigt Hill
#
# Bulk Modulus (GPa) = 31.73000 41.68779 36.70889
# Shear Modulus (GPa) = 28.55970 32.28089 30.42030
#
# Velocity S-wave (km/s) = 3.62341 3.85224 3.73957
# Velocity P-wave (km/s) = 5.66498 6.24103 5.95997
#
# Compressibility (1/GPa) = 0.03151592
#
# Stress axis : x y z
#
# Youngs Moduli (GPa) = 54.89253 85.26376 81.19131
#
# Poissons Ratio (x) = 0.14002 0.12137
# Poissons Ratio (y) = 0.09015 0.18155
# Poissons Ratio (z) = 0.08206 0.19066
#
# Static dielectric constant tensor:
#      x y z
#    x 3.789390 0.029060 -0.053150 
#    y 0.029060 3.761680 -0.026070 
#    z -0.053150 -0.026070 4.097020 
# 
# 
# High freq. dielectric constant tensor:
#      x y z
#    x 1.852430 0.006050 -0.001380 
#    y 0.006050 1.852420 -0.008550 
#    z -0.001380 -0.008550 1.866870 
# 
# From -- ./inp_files/408856.got.cif
#   From: 2010.06.25/outbox.cif.g09.slc.cpg/sg2_205_cif.got.tgz:408856.got - 2010.06.27 13:26:56.
