data_PCOD8024794
_publ_section_title
;
Structure prediction by ZEFSAII (Michael W. Deem and Ramdas Pophale) SiO2 
 PCOD8024794
Probable space group: P -1
;
_chemical_formula_sum "Si O2"
_cell_formula_units_Z 8
_cell_length_a 5.580281
_cell_length_b 12.581636
_cell_length_c 7.036218
_cell_angle_alpha 128.043945
_cell_angle_beta 58.633898
_cell_angle_gamma 129.827671
_cell_volume 292.245089
_symmetry_space_group_name_H-M "P -1"
_symmetry_group_IT_number 2
_symmetry_cell_setting 'triclinic'
loop_
_space_group_symop_operation_xyz
x,y,z
-x,-y,-z
loop_
_atom_site_type_symbol
_atom_site_label
_atom_site_fract_x
_atom_site_fract_y
_atom_site_fract_z
Si Si1 0.269465 0.545615 0.279379
Si Si2 0.363471 0.110464 0.499789
Si Si3 0.631448 0.911939 0.092009
Si Si4 0.651104 0.431971 0.209972
O O1 0.532938 0.716990 0.412665
O O2 0.470833 0.445898 0.101727
O O3 0.000000 0.500000 0.500000
O O4 0.047193 0.520819 0.152437
O O5 0.471023 0.119721 0.681731
O O6 0.516175 0.034323 0.209454
O O7 0.000000 0.000000 0.500000
O O8 0.465126 0.744947 0.879052
O O9 0.000000 0.000000 0.000000
O O10 0.500000 0.500000 0.500000
#
# Coordination Sequence:
#
# PCOD8024794 Si02
#       4
#     2   2   2   2
#     4  10  23  44  72 101 147 191 241 301 364 437
#     4  11  28  46  73 110 148 192 251 304 370 447
#     4  11  26  47  75 106 149 198 243 307 375 441
#     4  10  23  43  73 104 141 192 247 296 367 436
#
# _framework density 27.374283999999999
#
# number of rings (size 3 to 8) (size 9 to 14) (size 15 to 20)
#    0.000    1.500    0.000    3.000   17.500    3.000 
#    0.000    0.000    0.000    0.000    0.000    0.000 
#    0.000    0.000    0.000    0.000    0.000    0.000 
#
# Total GULP energy -99137.410871 kJ/mol
# GULP energy per Si atom -12392.176359 kJ/mol
# Density = 2.731198 g / cm^3
# Si number density = 27.374284 Si / 1000 Ang^3
#
#
#
# Elastic Constant Matrix: (Units=GPa)
#
#
# Indices 1 2 3 4 5 6 
#
# 1 154.0235 49.0997 60.7204 0.6764 -34.3309 42.9529
# 2 49.0997 184.3401 52.4871 54.9081 -37.5535 48.6521
# 3 60.7204 52.4871 147.6844 35.2301 -36.7794 15.6163
# 4 0.6764 54.9081 35.2301 60.5739 -5.2720 -4.4684
# 5 -34.3309 -37.5535 -36.7794 -5.2720 76.3801 -14.5100
# 6 42.9529 48.6521 15.6163 -4.4684 -14.5100 57.8432
#
#
#
# Elastic Compliance Matrix: (Units=1/GPa)
#
#
# Indices 1 2 3 4 5 6 
#
# 1 0.009855 -0.000517 -0.003376 0.002069 0.001668 -0.005394
# 2 -0.000517 0.012363 0.000608 -0.012019 0.003359 -0.010265
# 3 -0.003376 0.000608 0.010282 -0.006247 0.003215 -0.000456
# 4 0.002069 -0.012019 -0.006247 0.031574 -0.003566 0.011804
# 5 0.001668 0.003359 0.003215 -0.003566 0.016597 -0.001044
# 6 -0.005394 -0.010265 -0.000456 0.011804 -0.001044 0.030700
#
#
# Mechanical properties :
#
#
# Convention : Reuss Voigt Hill
#
# Bulk Modulus (GPa) = 38.56467 90.07359 64.31913
# Shear Modulus (GPa) = 39.49902 60.54218 50.02060
#
# Velocity S-wave (km/s) = 3.80271 4.70791 4.27931
# Velocity P-wave (km/s) = 5.77921 7.90750 6.92560
#
# Compressibility (1/GPa) = 0.02593047
#
# Stress axis : x y z
#
# Youngs Moduli (GPa) = 101.47068 80.88833 97.25294
#
# Poissons Ratio (x) = 0.04178 0.32834
# Poissons Ratio (y) = 0.05241 -0.05910
# Poissons Ratio (z) = 0.34258 -0.04916
#
# Static dielectric constant tensor:
#      x y z
#    x 10.112980 0.381190 2.386300 
#    y 0.381190 5.180310 0.238490 
#    z 2.386300 0.238490 6.683350 
# 
# 
# High freq. dielectric constant tensor:
#      x y z
#    x 2.126940 0.000400 0.000890 
#    y 0.000400 2.109190 -0.026040 
#    z 0.000890 -0.026040 2.154330 
# 
# From -- ./inp_files/16602.got.cif
#   From: 2010.06.25/outbox.cif.g09.slc.cpg/sg2_9_cif.got.tgz:16602.got - 2010.06.27 13:26:56.
