data_PCOD8024086
_publ_section_title
;
Structure prediction by ZEFSAII (Michael W. Deem and Ramdas Pophale) SiO2 
 PCOD8024086
Probable space group: P -1
;
_chemical_formula_sum "Si O2"
_cell_formula_units_Z 14
_cell_length_a 5.184238
_cell_length_b 15.962410
_cell_length_c 9.324687
_cell_angle_alpha 55.909117
_cell_angle_beta 74.496978
_cell_angle_gamma 93.319796
_cell_volume 594.559073
_symmetry_space_group_name_H-M "P -1"
_symmetry_group_IT_number 2
_symmetry_cell_setting 'triclinic'
loop_
_space_group_symop_operation_xyz
x,y,z
-x,-y,-z
loop_
_atom_site_type_symbol
_atom_site_label
_atom_site_fract_x
_atom_site_fract_y
_atom_site_fract_z
Si Si1 0.260656 0.655415 0.056506
Si Si2 0.772510 0.321820 0.281313
Si Si3 0.752878 0.600250 0.383141
Si Si4 0.044183 0.991570 0.835240
Si Si5 0.392886 0.203859 0.894198
Si Si6 0.629179 0.112524 0.686058
Si Si7 0.287567 0.434501 0.267778
O O1 0.431108 0.749655 0.037730
O O2 0.408796 0.560293 0.108108
O O3 0.969726 0.599598 0.226939
O O4 0.215970 0.703996 0.863872
O O5 0.702182 0.215202 0.481172
O O6 0.547679 0.385942 0.281516
O O7 0.076202 0.390625 0.213587
O O8 0.500000 0.500000 0.500000
O O9 0.654120 0.705884 0.288041
O O10 0.879390 0.594705 0.528209
O O11 0.375143 0.028422 0.725186
O O12 0.899767 0.870276 0.932098
O O13 0.103802 0.933248 0.304035
O O14 0.000000 0.000000 0.000000
O O15 0.552470 0.136223 0.838830
#
# Coordination Sequence:
#
# PCOD8024086 Si02
#       7
#     2   2   2   2   2   2   2
#     4  12  28  42  69 104 144 181 232 282 349 412
#     4  12  27  46  71  99 144 191 227 279 344 417
#     4  12  25  44  69 106 138 178 234 290 343 404
#     4  10  23  42  70 104 131 173 233 291 339 402
#     4  11  24  41  72  99 137 175 229 292 344 397
#     4  11  23  45  69 102 133 179 235 280 343 411
#     4  12  25  47  69  99 142 189 234 275 339 417
#
# _framework density 23.546861
#
# number of rings (size 3 to 8) (size 9 to 14) (size 15 to 20)
#    0.000    0.571    2.857    5.571   10.000    0.000 
#    0.000    1.429    0.000    0.000    0.000    0.000 
#    0.000    0.000    0.000    0.000    0.000    0.000 
#
# Total GULP energy -173630.348739 kJ/mol
# GULP energy per Si atom -12402.167767 kJ/mol
# Density = 2.349327 g / cm^3
# Si number density = 23.546861 Si / 1000 Ang^3
#
#
#
# Elastic Constant Matrix: (Units=GPa)
#
#
# Indices 1 2 3 4 5 6 
#
# 1 125.8544 40.2025 35.7507 -9.2195 11.7369 23.4376
# 2 40.2025 94.0656 48.3271 -19.1065 1.5936 41.0991
# 3 35.7507 48.3271 95.3410 6.6224 15.0795 19.6950
# 4 -9.2195 -19.1065 6.6224 33.9904 9.0862 6.6675
# 5 11.7369 1.5936 15.0795 9.0862 36.1032 -3.3825
# 6 23.4376 41.0991 19.6950 6.6675 -3.3825 37.7906
#
#
#
# Elastic Compliance Matrix: (Units=1/GPa)
#
#
# Indices 1 2 3 4 5 6 
#
# 1 0.011240 0.005538 -0.004028 0.011272 -0.006313 -0.013448
# 2 0.005538 0.064897 -0.020640 0.061888 -0.018726 -0.075851
# 3 -0.004028 -0.020640 0.020014 -0.020339 0.000682 0.018164
# 4 0.011272 0.061888 -0.020339 0.095497 -0.029731 -0.083207
# 5 -0.006313 -0.018726 0.000682 -0.029731 0.040850 0.032827
# 6 -0.013448 -0.075851 0.018164 -0.083207 0.032827 0.125447
#
#
# Mechanical properties :
#
#
# Convention : Reuss Voigt Hill
#
# Bulk Modulus (GPa) = 17.27403 62.64683 39.96043
# Shear Modulus (GPa) = 12.03366 34.30889 23.17127
#
# Velocity S-wave (km/s) = 2.26310 3.82127 3.14036
# Velocity P-wave (km/s) = 3.76573 6.79208 5.49150
#
# Compressibility (1/GPa) = 0.05789037
#
# Stress axis : x y z
#
# Youngs Moduli (GPa) = 88.96943 15.40914 49.96520
#
# Poissons Ratio (x) = -0.08534 0.20128
# Poissons Ratio (y) = -0.49274 1.03128
# Poissons Ratio (z) = 0.35840 0.31804
#
# Static dielectric constant tensor:
#      x y z
#    x 4.705000 0.400850 -0.080780 
#    y 0.400850 4.516420 -0.261110 
#    z -0.080780 -0.261110 4.626290 
# 
# 
# High freq. dielectric constant tensor:
#      x y z
#    x 1.941020 0.010190 0.012020 
#    y 0.010190 1.922400 -0.019980 
#    z 0.012020 -0.019980 1.935120 
# 
# From -- ./inp_files/132853.got.cif
#   From: 2010.06.25/outbox.cif.g09.slc.cpg/sg2_67_cif.got.tgz:132853.got - 2010.06.27 13:26:56.
