data_PCOD8024207
_publ_section_title
;
Structure prediction by ZEFSAII (Michael W. Deem and Ramdas Pophale) SiO2 
 PCOD8024207
Probable space group: P -1
;
_chemical_formula_sum "Si O2"
_cell_formula_units_Z 16
_cell_length_a 8.409203
_cell_length_b 12.583305
_cell_length_c 8.715390
_cell_angle_alpha 126.358012
_cell_angle_beta 116.471128
_cell_angle_gamma 69.905142
_cell_volume 660.791522
_symmetry_space_group_name_H-M "P -1"
_symmetry_group_IT_number 2
_symmetry_cell_setting 'triclinic'
loop_
_space_group_symop_operation_xyz
x,y,z
-x,-y,-z
loop_
_atom_site_type_symbol
_atom_site_label
_atom_site_fract_x
_atom_site_fract_y
_atom_site_fract_z
Si Si1 0.731076 0.791452 0.146140
Si Si2 0.006150 0.597909 0.945206
Si Si3 0.749309 0.541586 0.534134
Si Si4 0.892216 0.980343 0.783696
Si Si5 0.786616 0.083447 0.357311
Si Si6 0.447536 0.703895 0.742857
Si Si7 0.718434 0.222689 0.752044
Si Si8 0.297551 0.261347 0.570644
O O1 0.883649 0.735958 0.045202
O O2 0.778676 0.733031 0.285164
O O3 0.709961 0.950516 0.270547
O O4 0.545084 0.738151 0.970553
O O5 0.206175 0.639626 0.045790
O O6 0.931452 0.535340 0.705923
O O7 0.000000 0.500000 0.000000
O O8 0.585968 0.632882 0.619769
O O9 0.703462 0.391663 0.364405
O O10 0.780551 0.604148 0.434383
O O11 0.769080 0.862351 0.655213
O O12 0.022673 0.948028 0.668059
O O13 0.760117 0.112984 0.807921
O O14 0.000000 0.000000 0.000000
O O15 0.643197 0.157844 0.244424
O O16 0.816169 0.175812 0.594586
O O17 0.510170 0.247999 0.653678
#
# Coordination Sequence:
#
# PCOD8024207 Si02
#       8
#     2   2   2   2   2   2   2   2
#     4  11  25  43  70 105 141 177 232 283 346 406
#     4  11  24  46  73  99 132 191 233 276 343 417
#     4  10  23  47  67 102 138 178 234 278 341 410
#     4  12  27  43  66 103 145 176 226 290 345 407
#     4  12  23  45  71 101 137 182 233 275 350 414
#     4  10  23  42  73  98 134 186 226 284 338 414
#     4  12  24  44  71 100 139 184 227 277 348 411
#     4  12  26  43  69 104 143 176 228 291 340 403
#
# _framework density 24.213387000000001
#
# number of rings (size 3 to 8) (size 9 to 14) (size 15 to 20)
#    0.000    0.750    3.750    3.375    7.000    0.500 
#    0.000    1.250    0.000    0.000    0.000    0.000 
#    0.000    0.000    0.000    0.000    0.000    0.000 
#
# Total GULP energy -198511.812787 kJ/mol
# GULP energy per Si atom -12406.988299 kJ/mol
# Density = 2.415828 g / cm^3
# Si number density = 24.213387 Si / 1000 Ang^3
#
#
#
# Elastic Constant Matrix: (Units=GPa)
#
#
# Indices 1 2 3 4 5 6 
#
# 1 66.5214 12.0021 32.2785 5.8635 23.2878 11.4838
# 2 12.0021 131.2311 47.8248 -21.0638 10.0779 22.4490
# 3 32.2785 47.8248 149.0041 -10.4256 46.0289 17.5378
# 4 5.8635 -21.0638 -10.4256 46.1869 5.8025 5.7696
# 5 23.2878 10.0779 46.0289 5.8025 40.5921 3.1725
# 6 11.4838 22.4490 17.5378 5.7696 3.1725 35.8452
#
#
#
# Elastic Compliance Matrix: (Units=1/GPa)
#
#
# Indices 1 2 3 4 5 6 
#
# 1 0.019829 -0.000092 -0.000590 -0.000792 -0.010182 -0.004978
# 2 -0.000092 0.010283 -0.002085 0.005048 -0.000375 -0.006170
# 3 -0.000590 -0.002085 0.012464 0.004149 -0.013552 -0.004072
# 4 -0.000792 0.005048 0.004149 0.027152 -0.008718 -0.008537
# 5 -0.010182 -0.000375 -0.013552 -0.008718 0.046604 0.007406
# 6 -0.004978 -0.006170 -0.004072 -0.008537 0.007406 0.036067
#
#
# Mechanical properties :
#
#
# Convention : Reuss Voigt Hill
#
# Bulk Modulus (GPa) = 26.99683 58.99636 42.99660
# Shear Modulus (GPa) = 29.36295 41.50158 35.43226
#
# Velocity S-wave (km/s) = 3.48612 4.14453 3.82950
# Velocity P-wave (km/s) = 5.23238 6.87902 6.11141
#
# Compressibility (1/GPa) = 0.03704138
#
# Stress axis : x y z
#
# Youngs Moduli (GPa) = 50.43036 97.24743 80.22919
#
# Poissons Ratio (x) = 0.00895 0.04736
# Poissons Ratio (y) = 0.00464 0.16730
# Poissons Ratio (z) = 0.02977 0.20278
#
# Static dielectric constant tensor:
#      x y z
#    x 4.138450 0.022160 0.128680 
#    y 0.022160 4.442310 -0.037870 
#    z 0.128680 -0.037870 4.553700 
# 
# 
# High freq. dielectric constant tensor:
#      x y z
#    x 1.948330 0.001840 0.015920 
#    y 0.001840 1.970350 -0.004540 
#    z 0.015920 -0.004540 1.976030 
# 
# From -- ./inp_files/186500.got.cif
#   From: 2010.06.25/outbox.cif.g09.slc.cpg/sg2_94_cif.got.tgz:186500.got - 2010.06.27 13:26:56.
