data_PCOD8024225
_publ_section_title
;
Structure prediction by ZEFSAII (Michael W. Deem and Ramdas Pophale) SiO2 
 PCOD8024225
Probable space group: P -1
;
_chemical_formula_sum "Si O2"
_cell_formula_units_Z 16
_cell_length_a 8.676027
_cell_length_b 15.351693
_cell_length_c 17.531320
_cell_angle_alpha 149.266392
_cell_angle_beta 41.470353
_cell_angle_gamma 142.537259
_cell_volume 708.748288
_symmetry_space_group_name_H-M "P -1"
_symmetry_group_IT_number 2
_symmetry_cell_setting 'triclinic'
loop_
_space_group_symop_operation_xyz
x,y,z
-x,-y,-z
loop_
_atom_site_type_symbol
_atom_site_label
_atom_site_fract_x
_atom_site_fract_y
_atom_site_fract_z
Si Si1 0.360067 0.130857 0.662152
Si Si2 0.566755 0.141865 0.318848
Si Si3 0.725516 0.513021 0.872405
Si Si4 0.037654 0.885225 0.727127
Si Si5 0.084227 0.895856 0.953677
Si Si6 0.945170 0.206974 0.792879
Si Si7 0.569051 0.529750 0.585909
Si Si8 0.147913 0.552191 0.863387
O O1 0.595798 0.340175 0.731813
O O2 0.149360 0.121686 0.670688
O O3 0.500000 0.000000 0.500000
O O4 0.205546 0.064400 0.747656
O O5 0.766531 0.143350 0.309296
O O6 0.679796 0.144162 0.193357
O O7 0.530024 0.330380 0.485586
O O8 0.295151 0.954863 0.284589
O O9 0.840672 0.699430 0.918071
O O10 0.933152 0.489141 0.830446
O O11 0.500000 0.500000 0.000000
O O12 0.868852 0.688479 0.597854
O O13 0.839397 0.956386 0.893383
O O14 0.000000 0.000000 0.000000
O O15 0.090619 0.380661 0.812976
O O16 0.847619 0.272360 0.955621
O O17 0.500000 0.500000 0.500000
O O18 0.407903 0.604457 0.756966
#
# Coordination Sequence:
#
# PCOD8024225 Si02
#       8
#     2   2   2   2   2   2   2   2
#     4  12  28  42  71 103 144 188 235 292 352 427
#     4  11  25  43  70 102 140 184 234 297 357 424
#     4  12  23  46  71 102 143 188 241 286 355 428
#     4  11  24  47  67 101 138 189 238 286 356 427
#     4  10  23  42  75 103 138 187 240 298 347 428
#     4  11  25  47  71 107 140 186 243 298 360 421
#     4  12  27  44  67 101 145 185 234 294 362 422
#     4  11  26  45  75 104 144 188 237 301 356 432
#
# _framework density 22.575009999999999
#
# number of rings (size 3 to 8) (size 9 to 14) (size 15 to 20)
#    0.000    0.750    2.500    3.375    8.750    2.500 
#    0.000    3.750    0.000    0.000    0.000    0.000 
#    0.000    0.000    0.000    0.000    0.000    0.000 
#
# Total GULP energy -198317.338226 kJ/mol
# GULP energy per Si atom -12394.833639 kJ/mol
# Density = 2.252363 g / cm^3
# Si number density = 22.575010 Si / 1000 Ang^3
#
#
#
# Elastic Constant Matrix: (Units=GPa)
#
#
# Indices 1 2 3 4 5 6 
#
# 1 134.9706 51.1521 44.9595 6.9044 -0.9974 11.7349
# 2 51.1521 108.8077 32.9777 12.7218 1.7563 -3.3437
# 3 44.9595 32.9777 97.3735 7.3758 -8.9486 7.5579
# 4 6.9044 12.7218 7.3758 39.6888 5.5071 7.5729
# 5 -0.9974 1.7563 -8.9486 5.5071 38.9066 7.4021
# 6 11.7349 -3.3437 7.5579 7.5729 7.4021 43.5781
#
#
#
# Elastic Compliance Matrix: (Units=1/GPa)
#
#
# Indices 1 2 3 4 5 6 
#
# 1 0.010171 -0.003966 -0.003182 0.000575 0.000124 -0.002612
# 2 -0.003966 0.012302 -0.002469 -0.003219 -0.001385 0.003235
# 3 -0.003182 -0.002469 0.013156 -0.001216 0.003612 -0.002016
# 4 0.000575 -0.003219 -0.001216 0.027646 -0.003185 -0.004454
# 5 0.000124 -0.001385 0.003612 -0.003185 0.027995 -0.004968
# 6 -0.002612 0.003235 -0.002016 -0.004454 -0.004968 0.025866
#
#
# Mechanical properties :
#
#
# Convention : Reuss Voigt Hill
#
# Bulk Modulus (GPa) = 61.00367 66.59227 63.79797
# Shear Modulus (GPa) = 35.25197 38.57221 36.91209
#
# Velocity S-wave (km/s) = 3.95593 4.13803 4.04801
# Velocity P-wave (km/s) = 6.92439 7.23833 7.08310
#
# Compressibility (1/GPa) = 0.01639246
#
# Stress axis : x y z
#
# Youngs Moduli (GPa) = 98.31962 81.28884 76.01162
#
# Poissons Ratio (x) = 0.32243 0.24189
# Poissons Ratio (y) = 0.38998 0.18770
# Poissons Ratio (z) = 0.31288 0.20073
#
# Static dielectric constant tensor:
#      x y z
#    x 3.944290 -0.115460 -0.084080 
#    y -0.115460 4.035890 -0.221230 
#    z -0.084080 -0.221230 3.968520 
# 
# 
# High freq. dielectric constant tensor:
#      x y z
#    x 1.888700 -0.004060 -0.002900 
#    y -0.004060 1.902760 0.003020 
#    z -0.002900 0.003020 1.902040 
# 
# From -- ./inp_files/187671.got.cif
#   From: 2010.06.25/outbox.cif.g09.slc.cpg/sg2_94_cif.got.tgz:187671.got - 2010.06.27 13:26:56.
