data_PCOD8024502
_publ_section_title
;
Structure prediction by ZEFSAII (Michael W. Deem and Ramdas Pophale) SiO2 
 PCOD8024502
Probable space group: P -1
;
_chemical_formula_sum "Si O2"
_cell_formula_units_Z 14
_cell_length_a 9.671356
_cell_length_b 23.638076
_cell_length_c 5.196686
_cell_angle_alpha 111.804615
_cell_angle_beta 85.151594
_cell_angle_gamma 144.642825
_cell_volume 583.169033
_symmetry_space_group_name_H-M "P -1"
_symmetry_group_IT_number 2
_symmetry_cell_setting 'triclinic'
loop_
_space_group_symop_operation_xyz
x,y,z
-x,-y,-z
loop_
_atom_site_type_symbol
_atom_site_label
_atom_site_fract_x
_atom_site_fract_y
_atom_site_fract_z
Si Si1 0.097086 0.779186 0.672950
Si Si2 0.390452 0.852822 0.238117
Si Si3 0.317280 0.581011 0.712525
Si Si4 0.876918 0.368618 0.093555
Si Si5 0.989191 0.066926 0.560076
Si Si6 0.291166 0.461277 0.815258
Si Si7 0.810098 0.795992 0.726271
O O1 0.284242 0.828643 0.495512
O O2 0.865534 0.643355 0.523484
O O3 0.979682 0.799831 0.644725
O O4 0.256889 0.844420 0.024151
O O5 0.696381 0.979771 0.399266
O O6 0.337867 0.762275 0.023754
O O7 0.032576 0.448520 0.457276
O O8 0.449950 0.574104 0.835284
O O9 0.503726 0.664718 0.581213
O O10 0.276099 0.627071 0.969275
O O11 0.081919 0.418061 0.947848
O O12 0.837844 0.853523 0.584451
O O13 0.000000 0.000000 0.500000
O O14 0.099773 0.142849 0.915192
O O15 0.500000 0.500000 0.000000
#
# Coordination Sequence:
#
# PCOD8024502 Si02
#       7
#     2   2   2   2   2   2   2
#     4  11  25  44  71 110 141 185 240 289 375 415
#     4  11  24  47  73 100 145 189 238 301 348 434
#     4  11  24  43  70 103 147 185 240 296 357 431
#     4  10  23  43  68 105 137 193 239 291 360 424
#     4  12  28  51  74 103 141 192 243 296 362 423
#     4  11  24  41  71 104 151 191 232 295 362 432
#     4  12  28  45  75 108 143 186 240 301 356 431
#
# _framework density 24.006761000000001
#
# number of rings (size 3 to 8) (size 9 to 14) (size 15 to 20)
#    0.000    0.857    1.429    4.286    8.000    5.714 
#    2.571    0.000    0.000    0.000    0.000    0.000 
#    0.000    0.000    0.000    0.000    0.000    0.000 
#
# Total GULP energy -173616.411588 kJ/mol
# GULP energy per Si atom -12401.172256 kJ/mol
# Density = 2.395212 g / cm^3
# Si number density = 24.006761 Si / 1000 Ang^3
#
#
#
# Elastic Constant Matrix: (Units=GPa)
#
#
# Indices 1 2 3 4 5 6 
#
# 1 123.5481 51.5191 13.6881 -6.3961 2.1310 -18.1783
# 2 51.5191 140.4997 22.8145 -17.3775 3.3300 -10.6960
# 3 13.6881 22.8145 78.7371 -12.2208 3.3377 1.2117
# 4 -6.3961 -17.3775 -12.2208 31.0536 -2.5277 6.0350
# 5 2.1310 3.3300 3.3377 -2.5277 28.7885 -1.4620
# 6 -18.1783 -10.6960 1.2117 6.0350 -1.4620 38.7701
#
#
#
# Elastic Compliance Matrix: (Units=1/GPa)
#
#
# Indices 1 2 3 4 5 6 
#
# 1 0.010153 -0.003374 -0.000995 -0.000978 -0.000128 0.004008
# 2 -0.003374 0.009088 -0.001464 0.003717 -0.000286 0.000382
# 3 -0.000995 -0.001464 0.014130 0.004859 -0.001076 -0.002109
# 4 -0.000978 0.003717 0.004859 0.037191 0.002076 -0.005296
# 5 -0.000128 -0.000286 -0.001076 0.002076 0.035131 0.000896
# 6 0.004008 0.000382 -0.002109 -0.005296 0.000896 0.028702
#
#
# Mechanical properties :
#
#
# Convention : Reuss Voigt Hill
#
# Bulk Modulus (GPa) = 46.07342 57.64761 51.86052
# Shear Modulus (GPa) = 32.61685 36.70663 34.66174
#
# Velocity S-wave (km/s) = 3.68999 3.91450 3.80390
# Velocity P-wave (km/s) = 6.11459 6.67055 6.39861
#
# Compressibility (1/GPa) = 0.02170449
#
# Stress axis : x y z
#
# Youngs Moduli (GPa) = 98.49786 110.03693 70.77231
#
# Poissons Ratio (x) = 0.37126 0.07045
# Poissons Ratio (y) = 0.33233 0.10358
# Poissons Ratio (z) = 0.09804 0.16104
#
# Static dielectric constant tensor:
#      x y z
#    x 4.629270 -0.302120 -0.125230 
#    y -0.302120 4.648000 0.381660 
#    z -0.125230 0.381660 4.542570 
# 
# 
# High freq. dielectric constant tensor:
#      x y z
#    x 1.967450 -0.007990 -0.006770 
#    y -0.007990 1.955420 0.010780 
#    z -0.006770 0.010780 1.950450 
# 
# From -- ./inp_files/55622.got.cif
#   From: 2010.06.25/outbox.cif.g09.slc.cpg/sg2_28_cif.got.tgz:55622.got - 2010.06.27 13:26:56.
