data_PCOD8024891
_publ_section_title
;
Structure prediction by ZEFSAII (Michael W. Deem and Ramdas Pophale) SiO2 
 PCOD8024891
Probable space group: P -1
;
_chemical_formula_sum "Si O2"
_cell_formula_units_Z 14
_cell_length_a 14.086263
_cell_length_b 11.147931
_cell_length_c 6.509128
_cell_angle_alpha 120.423580
_cell_angle_beta 90.579765
_cell_angle_gamma 51.529471
_cell_volume 615.684977
_symmetry_space_group_name_H-M "P -1"
_symmetry_group_IT_number 2
_symmetry_cell_setting 'triclinic'
loop_
_space_group_symop_operation_xyz
x,y,z
-x,-y,-z
loop_
_atom_site_type_symbol
_atom_site_label
_atom_site_fract_x
_atom_site_fract_y
_atom_site_fract_z
Si Si1 0.888073 0.220650 0.272803
Si Si2 0.674152 0.596731 0.349554
Si Si3 0.472247 0.739171 0.793428
Si Si4 0.028959 0.570338 0.371259
Si Si5 0.332806 0.700097 0.445193
Si Si6 0.414536 0.840690 0.308148
Si Si7 0.791600 0.725474 0.230999
O O1 0.780864 0.363523 0.210064
O O2 0.951524 0.295224 0.426973
O O3 0.812073 0.220687 0.457052
O O4 0.000000 0.000000 0.000000
O O5 0.581001 0.720969 0.658217
O O6 0.573142 0.657274 0.217145
O O7 0.761234 0.636629 0.317406
O O8 0.356158 0.802093 0.696611
O O9 0.544763 0.535482 0.735382
O O10 0.404105 0.894780 0.114626
O O11 0.000000 0.500000 0.500000
O O12 0.906525 0.700904 0.317530
O O13 0.162432 0.380669 0.082520
O O14 0.338207 0.773225 0.289191
O O15 0.343350 0.041231 0.605630
#
# Coordination Sequence:
#
# PCOD8024891 Si02
#       7
#     2   2   2   2   2   2   2
#     4  11  25  45  75  97 131 184 229 280 340 395
#     4  10  23  44  65 102 138 167 231 279 325 412
#     4   9  20  40  64  95 136 181 208 283 340 381
#     4  11  26  49  70  93 142 182 225 285 327 399
#     4   9  21  40  60  99 136 167 230 273 329 403
#     4  11  23  39  71  99 137 176 222 274 340 409
#     4  11  26  44  69 102 134 184 229 267 345 404
#
# _framework density 22.738903000000001
#
# number of rings (size 3 to 8) (size 9 to 14) (size 15 to 20)
#    0.000    1.714    1.429    1.714    8.000    1.714 
#    0.000    1.429    0.000    0.000    0.000    0.000 
#    0.000    0.000    0.000    0.000    0.000    0.000 
#
# Total GULP energy -173550.942283 kJ/mol
# GULP energy per Si atom -12396.495877 kJ/mol
# Density = 2.268715 g / cm^3
# Si number density = 22.738903 Si / 1000 Ang^3
#
#
#
# Elastic Constant Matrix: (Units=GPa)
#
#
# Indices 1 2 3 4 5 6 
#
# 1 139.4610 30.0894 62.1601 0.5777 -13.5114 11.7523
# 2 30.0894 64.3066 33.1671 0.0647 -6.5186 1.9377
# 3 62.1601 33.1671 129.3328 -8.1022 -4.6197 14.9281
# 4 0.5777 0.0647 -8.1022 34.8752 6.9551 -6.2019
# 5 -13.5114 -6.5186 -4.6197 6.9551 35.5606 -14.2031
# 6 11.7523 1.9377 14.9281 -6.2019 -14.2031 34.5239
#
#
#
# Elastic Compliance Matrix: (Units=1/GPa)
#
#
# Indices 1 2 3 4 5 6 
#
# 1 0.009801 -0.002156 -0.004101 -0.001794 0.002922 -0.000562
# 2 -0.002156 0.018925 -0.004071 -0.001156 0.003394 0.002620
# 3 -0.004101 -0.004071 0.011264 0.002568 -0.002938 -0.003993
# 4 -0.001794 -0.001156 0.002568 0.030901 -0.005457 0.002871
# 5 0.002922 0.003394 -0.002938 -0.005457 0.036116 0.013963
# 6 -0.000562 0.002620 -0.003993 0.002871 0.013963 0.036997
#
#
# Mechanical properties :
#
#
# Convention : Reuss Voigt Hill
#
# Bulk Modulus (GPa) = 51.71997 64.88152 58.30074
# Shear Modulus (GPa) = 29.22194 34.83753 32.02974
#
# Velocity S-wave (km/s) = 3.58873 3.91841 3.75719
# Velocity P-wave (km/s) = 6.32191 7.00479 6.67209
#
# Compressibility (1/GPa) = 0.01933489
#
# Stress axis : x y z
#
# Youngs Moduli (GPa) = 102.02570 52.83995 88.78006
#
# Poissons Ratio (x) = 0.11392 0.36408
# Poissons Ratio (y) = 0.21997 0.36140
# Poissons Ratio (z) = 0.41840 0.21510
#
# Static dielectric constant tensor:
#      x y z
#    x 4.179620 0.070010 -0.240200 
#    y 0.070010 3.955840 -0.117340 
#    z -0.240200 -0.117340 4.100120 
# 
# 
# High freq. dielectric constant tensor:
#      x y z
#    x 1.900220 0.009820 -0.016860 
#    y 0.009820 1.887460 -0.009400 
#    z -0.016860 -0.009400 1.891530 
# 
# From -- ./inp_files/81073.got.cif
#   From: 2010.06.25/outbox.cif.g09.slc.cpg/sg2_41_cif.got.tgz:81073.got - 2010.06.27 13:26:56.
