data_PCOD8024028
_publ_section_title
;
Structure prediction by ZEFSAII (Michael W. Deem and Ramdas Pophale) SiO2 
 PCOD8024028
Probable space group: P -1
;
_chemical_formula_sum "Si O2"
_cell_formula_units_Z 16
_cell_length_a 15.672731
_cell_length_b 17.128774
_cell_length_c 4.886961
_cell_angle_alpha 55.313207
_cell_angle_beta 56.785484
_cell_angle_gamma 42.704075
_cell_volume 711.610434
_symmetry_space_group_name_H-M "P -1"
_symmetry_group_IT_number 2
_symmetry_cell_setting 'triclinic'
loop_
_space_group_symop_operation_xyz
x,y,z
-x,-y,-z
loop_
_atom_site_type_symbol
_atom_site_label
_atom_site_fract_x
_atom_site_fract_y
_atom_site_fract_z
Si Si1 0.182116 0.017464 0.840699
Si Si2 0.746231 0.234240 0.693393
Si Si3 0.575208 0.363034 0.230678
Si Si4 0.166058 0.379253 0.156461
Si Si5 0.545378 0.075881 0.379530
Si Si6 0.450252 0.236167 0.742670
Si Si7 0.024568 0.159853 0.338657
Si Si8 0.956602 0.638139 0.104763
O O1 0.105222 0.047685 0.629969
O O2 0.308650 0.011220 0.583794
O O3 0.084528 0.122661 0.008386
O O4 0.225470 0.892671 0.138329
O O5 0.631372 0.336268 0.492350
O O6 0.876462 0.217033 0.450905
O O7 0.700638 0.278612 0.992132
O O8 0.479692 0.327890 0.428607
O O9 0.500000 0.500000 0.000000
O O10 0.123690 0.318375 0.556170
O O11 0.101955 0.512146 0.128965
O O12 0.318766 0.303631 0.012409
O O13 0.118231 0.386664 0.921926
O O14 0.452359 0.169056 0.599834
O O15 0.500000 0.000000 0.500000
O O16 0.554214 0.140022 0.973136
O O17 0.033380 0.262054 0.227772
#
# Coordination Sequence:
#
# PCOD8024028 Si02
#       8
#     2   2   2   2   2   2   2   2
#     4  12  24  46  68  98 139 179 226 288 343 403
#     4  12  25  49  68 101 138 177 232 287 341 410
#     4  12  26  47  74 103 140 181 229 285 350 411
#     4  10  23  42  69  90 140 172 219 274 352 396
#     4  12  27  44  71 102 140 184 229 282 347 415
#     4  12  24  47  70 103 136 183 226 285 347 414
#     4  12  26  41  74  97 132 181 236 281 339 400
#     4  10  23  44  62 102 129 175 221 286 326 409
#
# _framework density 22.484211999999999
#
# number of rings (size 3 to 8) (size 9 to 14) (size 15 to 20)
#    0.000    0.500    2.500    5.250    7.000    0.000 
#    4.500    0.000    0.000    0.000    0.000    0.000 
#    0.000    0.000    0.000    0.000    0.000    0.000 
#
# Total GULP energy -198439.708466 kJ/mol
# GULP energy per Si atom -12402.481779 kJ/mol
# Density = 2.243304 g / cm^3
# Si number density = 22.484212 Si / 1000 Ang^3
#
#
#
# Elastic Constant Matrix: (Units=GPa)
#
#
# Indices 1 2 3 4 5 6 
#
# 1 93.5710 35.5057 41.0007 -0.6687 -1.3607 -6.0377
# 2 35.5057 100.2923 59.6345 10.9380 -20.4371 1.9327
# 3 41.0007 59.6345 113.1109 0.9267 -6.0934 -1.8266
# 4 -0.6687 10.9380 0.9267 51.1609 -3.4295 3.5528
# 5 -1.3607 -20.4371 -6.0934 -3.4295 45.6821 6.4387
# 6 -6.0377 1.9327 -1.8266 3.5528 6.4387 28.9658
#
#
#
# Elastic Compliance Matrix: (Units=1/GPa)
#
#
# Indices 1 2 3 4 5 6 
#
# 1 0.013565 -0.003459 -0.003153 0.000618 -0.001972 0.003222
# 2 -0.003459 0.017575 -0.007668 -0.002945 0.007020 -0.003576
# 3 -0.003153 -0.007668 0.013940 0.001163 -0.001715 0.000972
# 4 0.000618 -0.002945 0.001163 0.020367 0.000703 -0.002256
# 5 -0.001972 0.007020 -0.001715 0.000703 0.025755 -0.006799
# 6 0.003222 -0.003576 0.000972 -0.002256 -0.006799 0.037283
#
#
# Mechanical properties :
#
#
# Convention : Reuss Voigt Hill
#
# Bulk Modulus (GPa) = 60.52716 64.36177 62.44446
# Shear Modulus (GPa) = 30.75990 36.55065 33.65527
#
# Velocity S-wave (km/s) = 3.70275 4.03626 3.87310
# Velocity P-wave (km/s) = 6.72746 7.09996 6.91622
#
# Compressibility (1/GPa) = 0.01652151
#
# Stress axis : x y z
#
# Youngs Moduli (GPa) = 73.72143 56.89823 71.73593
#
# Poissons Ratio (x) = 0.19680 0.22615
# Poissons Ratio (y) = 0.25499 0.55005
# Poissons Ratio (z) = 0.23241 0.43628
#
# Static dielectric constant tensor:
#      x y z
#    x 4.033210 -0.147370 0.159350 
#    y -0.147370 4.264610 -0.008190 
#    z 0.159350 -0.008190 4.067300 
# 
# 
# High freq. dielectric constant tensor:
#      x y z
#    x 1.887200 -0.001090 0.008840 
#    y -0.001090 1.891770 0.008920 
#    z 0.008840 0.008920 1.894130 
# 
# From -- ./inp_files/97470.got.cif
#   From: 2010.06.25/outbox.cif.g09.slc.cpg/sg2_49_cif.got.tgz:97470.got - 2010.06.27 13:26:56.
