data_PCOD8024681
_publ_section_title
;
Structure prediction by ZEFSAII (Michael W. Deem and Ramdas Pophale) SiO2 
 PCOD8024681
Probable space group: P -1
;
_chemical_formula_sum "Si O2"
_cell_formula_units_Z 16
_cell_length_a 14.755858
_cell_length_b 9.106944
_cell_length_c 14.630931
_cell_angle_alpha 54.894952
_cell_angle_beta 29.182538
_cell_angle_gamma 66.180554
_cell_volume 760.133228
_symmetry_space_group_name_H-M "P -1"
_symmetry_group_IT_number 2
_symmetry_cell_setting 'triclinic'
loop_
_space_group_symop_operation_xyz
x,y,z
-x,-y,-z
loop_
_atom_site_type_symbol
_atom_site_label
_atom_site_fract_x
_atom_site_fract_y
_atom_site_fract_z
Si Si1 0.167068 0.757147 0.922393
Si Si2 0.629025 0.550158 0.095316
Si Si3 0.375307 0.885215 0.855926
Si Si4 0.734436 0.633210 0.329801
Si Si5 0.813115 0.504154 0.771569
Si Si6 0.203617 0.409395 0.445469
Si Si7 0.718677 0.888835 0.415425
Si Si8 0.416313 0.269936 0.756613
O O1 0.311495 0.622611 0.845473
O O2 0.196870 0.881915 0.944823
O O3 0.201428 0.894517 0.755613
O O4 0.952802 0.632458 0.156755
O O5 0.402097 0.503381 0.288646
O O6 0.677288 0.717607 0.065882
O O7 0.755825 0.612124 0.870572
O O8 0.540021 0.865164 0.648326
O O9 0.443608 0.063780 0.795226
O O10 0.316568 0.706931 0.037481
O O11 0.661690 0.772368 0.412751
O O12 0.617384 0.422171 0.521533
O O13 0.720749 0.695255 0.215684
O O14 0.762931 0.599250 0.689534
O O15 0.040656 0.518032 0.570724
O O16 0.133420 0.200665 0.624179
#
# Coordination Sequence:
#
# PCOD8024681 Si02
#       8
#     2   2   2   2   2   2   2   2
#     4  11  23  38  63  95 123 172 218 249 303 383
#     4  11  23  42  64  91 134 166 202 266 318 374
#     4  11  23  39  65  94 124 163 220 263 303 376
#     4  11  23  39  59  88 137 173 206 251 312 386
#     4  10  23  43  70  96 115 165 229 256 310 378
#     4  11  22  40  73  94 120 162 220 269 306 366
#     4  12  21  38  65  92 129 164 211 263 304 366
#     4  11  25  39  57  94 135 173 199 255 330 369
#
# _framework density 21.048943999999999
#
# number of rings (size 3 to 8) (size 9 to 14) (size 15 to 20)
#    0.000    1.000    5.000    2.625    5.250    0.500 
#    0.000    0.625    0.000    1.500    0.000    0.000 
#    0.000    0.000    0.000    0.000    0.000    0.000 
#
# Total GULP energy -198246.587444 kJ/mol
# GULP energy per Si atom -12390.411715 kJ/mol
# Density = 2.100104 g / cm^3
# Si number density = 21.048944 Si / 1000 Ang^3
#
#
#
# Elastic Constant Matrix: (Units=GPa)
#
#
# Indices 1 2 3 4 5 6 
#
# 1 134.8480 55.2089 42.4884 9.6911 15.6989 3.4296
# 2 55.2089 99.4432 32.0861 9.4385 -3.2363 28.8344
# 3 42.4884 32.0861 84.1639 12.2853 -3.5192 8.4080
# 4 9.6911 9.4385 12.2853 29.0098 -0.9221 7.0663
# 5 15.6989 -3.2363 -3.5192 -0.9221 39.4741 1.8818
# 6 3.4296 28.8344 8.4080 7.0663 1.8818 32.8310
#
#
#
# Elastic Compliance Matrix: (Units=1/GPa)
#
#
# Indices 1 2 3 4 5 6 
#
# 1 0.012628 -0.007865 -0.004105 -0.001934 -0.006432 0.007425
# 2 -0.007865 0.019974 -0.001915 0.001204 0.005424 -0.016801
# 3 -0.004105 -0.001915 0.015529 -0.004220 0.002815 -0.001120
# 4 -0.001934 0.001204 -0.004220 0.038561 0.001782 -0.008177
# 5 -0.006432 0.005424 0.002815 0.001782 0.028955 -0.006856
# 6 0.007425 -0.016801 -0.001120 -0.008177 -0.006856 0.046878
#
#
# Mechanical properties :
#
#
# Convention : Reuss Voigt Hill
#
# Bulk Modulus (GPa) = 49.11150 64.22465 56.66808
# Shear Modulus (GPa) = 25.36993 32.84109 29.10551
#
# Velocity S-wave (km/s) = 3.47548 3.95425 3.72257
# Velocity P-wave (km/s) = 6.28395 7.17122 6.74220
#
# Compressibility (1/GPa) = 0.02036183
#
# Stress axis : x y z
#
# Youngs Moduli (GPa) = 79.18739 50.06496 64.39358
#
# Poissons Ratio (x) = 0.39376 0.26434
# Poissons Ratio (y) = 0.62281 0.12331
# Poissons Ratio (z) = 0.32507 0.09587
#
# Static dielectric constant tensor:
#      x y z
#    x 4.170300 0.041830 0.141140 
#    y 0.041830 3.718440 0.078690 
#    z 0.141140 0.078690 3.899840 
# 
# 
# High freq. dielectric constant tensor:
#      x y z
#    x 1.825760 -0.003660 0.009080 
#    y -0.003660 1.794970 0.017420 
#    z 0.009080 0.017420 1.830610 
# 
# From -- ./inp_files/528215.got.cif
#   From: 2010.06.25/outbox.cif.g09.slc.cpg/sg2_265_cif.got.tgz:528215.got - 2010.06.27 13:26:56.
