data_PCOD8024381
_publ_section_title
;
Structure prediction by ZEFSAII (Michael W. Deem and Ramdas Pophale) SiO2 
 PCOD8024381
Probable space group: P -1
;
_chemical_formula_sum "Si O2"
_cell_formula_units_Z 14
_cell_length_a 25.198062
_cell_length_b 25.187595
_cell_length_c 8.246018
_cell_angle_alpha 35.250993
_cell_angle_beta 144.882573
_cell_angle_gamma 168.265231
_cell_volume 606.731384
_symmetry_space_group_name_H-M "P -1"
_symmetry_group_IT_number 2
_symmetry_cell_setting 'triclinic'
loop_
_space_group_symop_operation_xyz
x,y,z
-x,-y,-z
loop_
_atom_site_type_symbol
_atom_site_label
_atom_site_fract_x
_atom_site_fract_y
_atom_site_fract_z
Si Si1 0.494382 0.384701 0.774206
Si Si2 0.921467 0.642522 0.183699
Si Si3 0.053128 0.450665 0.831653
Si Si4 0.721498 0.785653 0.662557
Si Si5 0.541082 0.965726 0.957612
Si Si6 0.716610 0.779845 0.018741
Si Si7 0.467403 0.097170 0.538537
O O1 0.500000 0.500000 0.500000
O O2 0.340706 0.207378 0.667348
O O3 0.352775 0.219318 0.001918
O O4 0.791085 0.621814 0.917548
O O5 0.918028 0.603002 0.091518
O O6 0.219676 0.927075 0.285570
O O7 0.742305 0.406991 0.431835
O O8 0.319903 0.699814 0.979863
O O9 0.000000 0.500000 0.500000
O O10 0.819160 0.203057 0.981874
O O11 0.500737 0.501905 0.828368
O O12 0.720297 0.836005 0.711393
O O13 0.001091 0.000835 0.791059
O O14 0.470758 0.008167 0.659573
O O15 0.567114 0.960890 0.218584
#
# Coordination Sequence:
#
# PCOD8024381 Si02
#       7
#     2   2   2   2   2   2   2
#     4  10  23  43  66  88 128 176 216 267 327 373
#     4  12  25  40  65  98 131 163 228 264 319 389
#     4  12  21  39  67  98 129 172 210 267 324 394
#     4   9  18  35  60  88 106 154 207 256 308 382
#     4  11  22  41  68  92 134 174 208 256 343 387
#     4   9  18  35  61  83 114 149 207 259 315 360
#     4  11  23  42  64  98 128 172 215 266 317 409
#
# _framework density 23.074460999999999
#
# number of rings (size 3 to 8) (size 9 to 14) (size 15 to 20)
#    0.000    1.429    2.857    2.571    0.000    6.857 
#    5.143    0.000    3.143    0.000    0.000    0.000 
#    0.000    0.000    0.000    0.000    0.000    0.000 
#
# Total GULP energy -173542.078902 kJ/mol
# GULP energy per Si atom -12395.862779 kJ/mol
# Density = 2.302194 g / cm^3
# Si number density = 23.074461 Si / 1000 Ang^3
#
#
#
# Elastic Constant Matrix: (Units=GPa)
#
#
# Indices 1 2 3 4 5 6 
#
# 1 142.3661 24.5862 50.6079 10.6775 -18.3583 27.2968
# 2 24.5862 125.4670 3.1886 12.5743 -3.7958 19.2695
# 3 50.6079 3.1886 61.4806 19.6043 -9.5259 6.2485
# 4 10.6775 12.5743 19.6043 37.7127 3.2402 -3.6820
# 5 -18.3583 -3.7958 -9.5259 3.2402 41.9814 3.0429
# 6 27.2968 19.2695 6.2485 -3.6820 3.0429 40.9995
#
#
#
# Elastic Compliance Matrix: (Units=1/GPa)
#
#
# Indices 1 2 3 4 5 6 
#
# 1 0.011963 -0.001109 -0.008804 0.000639 0.003541 -0.006308
# 2 -0.001109 0.009362 0.002688 -0.004801 0.001677 -0.004627
# 3 -0.008804 0.002688 0.028484 -0.013678 0.004004 -0.001268
# 4 0.000639 -0.004801 -0.013678 0.036364 -0.006621 0.007673
# 5 0.003541 0.001677 0.004004 -0.006621 0.027403 -0.006385
# 6 -0.006308 -0.004627 -0.001268 0.007673 -0.006385 0.032121
#
#
# Mechanical properties :
#
#
# Convention : Reuss Voigt Hill
#
# Bulk Modulus (GPa) = 28.28106 54.00878 41.14492
# Shear Modulus (GPa) = 29.08099 40.86744 34.97422
#
# Velocity S-wave (km/s) = 3.55394 4.21302 3.89744
# Velocity P-wave (km/s) = 5.39663 6.86463 6.17442
#
# Compressibility (1/GPa) = 0.03535935
#
# Stress axis : x y z
#
# Youngs Moduli (GPa) = 83.58761 106.81836 35.10739
#
# Poissons Ratio (x) = 0.11844 0.30910
# Poissons Ratio (y) = 0.09268 -0.09437
# Poissons Ratio (z) = 0.73593 -0.28714
#
# Static dielectric constant tensor:
#      x y z
#    x 5.119510 0.085840 -0.861200 
#    y 0.085840 4.154590 0.156520 
#    z -0.861200 0.156520 4.295900 
# 
# 
# High freq. dielectric constant tensor:
#      x y z
#    x 1.925820 0.011620 -0.031030 
#    y 0.011620 1.923840 0.010050 
#    z -0.031030 0.010050 1.889700 
# 
# From -- ./inp_files/357975.got.cif
#   From: 2010.06.25/outbox.cif.g09.slc.cpg/sg2_179_cif.got.tgz:357975.got - 2010.06.27 13:26:56.
