data_PCOD8024943
_publ_section_title
;
Structure prediction by ZEFSAII (Michael W. Deem and Ramdas Pophale) SiO2 
 PCOD8024943
Probable space group: P -1
;
_chemical_formula_sum "Si O2"
_cell_formula_units_Z 16
_cell_length_a 11.249180
_cell_length_b 6.718234
_cell_length_c 10.764196
_cell_angle_alpha 102.952033
_cell_angle_beta 103.294098
_cell_angle_gamma 70.012827
_cell_volume 734.535289
_symmetry_space_group_name_H-M "P -1"
_symmetry_group_IT_number 2
_symmetry_cell_setting 'triclinic'
loop_
_space_group_symop_operation_xyz
x,y,z
-x,-y,-z
loop_
_atom_site_type_symbol
_atom_site_label
_atom_site_fract_x
_atom_site_fract_y
_atom_site_fract_z
Si Si1 0.182473 0.987944 0.041112
Si Si2 0.427039 0.474036 0.603992
Si Si3 0.296945 0.146369 0.456448
Si Si4 0.031382 0.052155 0.376454
Si Si5 0.045677 0.717613 0.834297
Si Si6 0.568562 0.108306 0.768425
Si Si7 0.898787 0.778989 0.195189
Si Si8 0.347720 0.952538 0.691595
O O1 0.099582 0.127189 0.152658
O O2 0.330542 0.882384 0.099504
O O3 0.164058 0.148419 0.942978
O O4 0.138568 0.783586 0.962583
O O5 0.500000 0.500000 0.500000
O O6 0.309555 0.379295 0.530005
O O7 0.523147 0.327982 0.708926
O O8 0.366319 0.703842 0.688938
O O9 0.154628 0.131090 0.415828
O O10 0.362872 0.089110 0.332169
O O11 0.372878 0.974564 0.553388
O O12 0.926116 0.241536 0.299169
O O13 0.029396 0.842102 0.264573
O O14 0.000000 0.000000 0.500000
O O15 0.060240 0.473378 0.823939
O O16 0.451462 0.046285 0.798239
O O17 0.794732 0.897418 0.290137
#
# Coordination Sequence:
#
# PCOD8024943 Si02
#       8
#     2   2   2   2   2   2   2   2
#     4  10  23  44  66  94 129 167 233 275 315 393
#     4  11  21  39  67  97 133 175 212 268 335 385
#     4  11  21  40  64  97 135 163 221 269 326 397
#     4  11  23  42  65 101 132 170 215 270 332 394
#     4  10  23  45  69  92 130 175 221 276 324 389
#     4  11  22  40  67  97 128 171 224 272 321 392
#     4  11  25  44  64  95 137 176 215 269 336 383
#     4  11  23  42  62  97 138 169 214 273 327 400
#
# _framework density 21.782478000000001
#
# number of rings (size 3 to 8) (size 9 to 14) (size 15 to 20)
#    0.000    1.250    5.000    1.125    0.000    7.000 
#    2.250    1.250    0.000    0.000    0.000    0.000 
#    0.000    0.000    0.000    0.000    0.000    0.000 
#
# Total GULP energy -198233.482994 kJ/mol
# GULP energy per Si atom -12389.592687 kJ/mol
# Density = 2.173290 g / cm^3
# Si number density = 21.782478 Si / 1000 Ang^3
#
#
#
# Elastic Constant Matrix: (Units=GPa)
#
#
# Indices 1 2 3 4 5 6 
#
# 1 103.4014 50.7153 41.5096 8.4148 28.9673 15.9257
# 2 50.7153 166.9320 53.2365 8.3345 25.1725 31.9090
# 3 41.5096 53.2365 108.2210 -13.1955 22.3339 11.7251
# 4 8.4148 8.3345 -13.1955 23.9433 5.2475 -2.8170
# 5 28.9673 25.1725 22.3339 5.2475 40.3393 1.0369
# 6 15.9257 31.9090 11.7251 -2.8170 1.0369 28.2977
#
#
#
# Elastic Compliance Matrix: (Units=1/GPa)
#
#
# Indices 1 2 3 4 5 6 
#
# 1 0.015198 -0.000643 -0.004122 -0.006576 -0.007208 -0.006511
# 2 -0.000643 0.009947 -0.003756 -0.005877 -0.002650 -0.009787
# 3 -0.004122 -0.003756 0.014910 0.012184 -0.004581 0.001758
# 4 -0.006576 -0.005877 0.012184 0.055414 -0.005848 0.011011
# 5 -0.007208 -0.002650 -0.004581 -0.005848 0.034734 0.007088
# 6 -0.006511 -0.009787 0.001758 0.011011 0.007088 0.050146
#
#
# Mechanical properties :
#
#
# Convention : Reuss Voigt Hill
#
# Bulk Modulus (GPa) = 43.45418 74.38638 58.92028
# Shear Modulus (GPa) = 24.38272 34.05558 29.21915
#
# Velocity S-wave (km/s) = 3.34933 3.95832 3.66649
# Velocity P-wave (km/s) = 5.91184 7.42394 6.71062
#
# Compressibility (1/GPa) = 0.02301275
#
# Stress axis : x y z
#
# Youngs Moduli (GPa) = 65.79682 100.52789 67.07065
#
# Poissons Ratio (x) = 0.06465 0.27647
# Poissons Ratio (y) = 0.04231 0.25193
# Poissons Ratio (z) = 0.27122 0.37760
#
# Static dielectric constant tensor:
#      x y z
#    x 4.232270 0.314800 0.171700 
#    y 0.314800 3.821270 -0.039750 
#    z 0.171700 -0.039750 4.123000 
# 
# 
# High freq. dielectric constant tensor:
#      x y z
#    x 1.853460 0.025990 0.010900 
#    y 0.025990 1.846870 -0.006170 
#    z 0.010900 -0.006170 1.860470 
# 
# From -- ./inp_files/410867.got.cif
#   From: 2010.06.25/outbox.cif.g09.slc.cpg/sg2_206_cif.got.tgz:410867.got - 2010.06.27 13:26:56.
