data_PCOD8024108
_publ_section_title
;
Structure prediction by ZEFSAII (Michael W. Deem and Ramdas Pophale) SiO2 
 PCOD8024108
Probable space group: P -1
;
_chemical_formula_sum "Si O2"
_cell_formula_units_Z 16
_cell_length_a 6.752039
_cell_length_b 17.288198
_cell_length_c 8.541218
_cell_angle_alpha 131.240552
_cell_angle_beta 93.336159
_cell_angle_gamma 102.158964
_cell_volume 706.069235
_symmetry_space_group_name_H-M "P -1"
_symmetry_group_IT_number 2
_symmetry_cell_setting 'triclinic'
loop_
_space_group_symop_operation_xyz
x,y,z
-x,-y,-z
loop_
_atom_site_type_symbol
_atom_site_label
_atom_site_fract_x
_atom_site_fract_y
_atom_site_fract_z
Si Si1 0.058149 0.784195 0.385143
Si Si2 0.584167 0.845798 0.984998
Si Si3 0.619286 0.628535 0.168715
Si Si4 0.010447 0.017809 0.209815
Si Si5 0.301543 0.918136 0.289640
Si Si6 0.218066 0.528329 0.466272
Si Si7 0.604678 0.269325 0.468765
Si Si8 0.412360 0.365437 0.161635
O O1 0.954495 0.857506 0.580562
O O2 0.126903 0.838602 0.290376
O O3 0.262369 0.772128 0.457648
O O4 0.874458 0.665835 0.214327
O O5 0.518257 0.835044 0.784044
O O6 0.662546 0.743409 0.884558
O O7 0.386108 0.843139 0.079004
O O8 0.778062 0.952382 0.176422
O O9 0.561067 0.687875 0.392551
O O10 0.500000 0.500000 0.000000
O O11 0.541595 0.666880 0.054598
O O12 0.190085 0.983557 0.260689
O O13 0.000000 0.000000 0.000000
O O14 0.500000 0.000000 0.500000
O O15 0.248019 0.633394 0.500329
O O16 0.235537 0.425203 0.231005
O O17 0.378242 0.549280 0.645491
O O18 0.000000 0.500000 0.500000
#
# Coordination Sequence:
#
# PCOD8024108 Si02
#       8
#     2   2   2   2   2   2   2   2
#     4  12  28  44  76 105 146 189 242 293 367 426
#     4  11  25  46  75 102 150 185 240 295 364 428
#     4  12  26  45  70  99 146 186 238 298 351 422
#     4  12  27  46  75 109 145 194 239 293 367 435
#     4  12  27  47  75 109 147 189 242 298 359 436
#     4  10  23  42  70  97 141 181 245 290 356 425
#     4  11  26  45  69 109 140 192 237 301 357 433
#     4  10  23  43  67  99 135 192 228 298 355 418
#
# _framework density 22.660667
#
# number of rings (size 3 to 8) (size 9 to 14) (size 15 to 20)
#    0.000    0.750    2.500    3.375    7.000    7.500 
#    0.000    0.000    0.000    0.000    0.000    0.000 
#    0.000    0.000    0.000    0.000    0.000    0.000 
#
# Total GULP energy -198396.934290 kJ/mol
# GULP energy per Si atom -12399.808393 kJ/mol
# Density = 2.260909 g / cm^3
# Si number density = 22.660667 Si / 1000 Ang^3
#
#
#
# Elastic Constant Matrix: (Units=GPa)
#
#
# Indices 1 2 3 4 5 6 
#
# 1 108.0732 49.6133 40.5005 0.6607 2.5790 5.6641
# 2 49.6133 80.5487 25.7314 -7.3094 12.7371 0.9246
# 3 40.5005 25.7314 117.8116 -12.0594 -1.9031 6.3571
# 4 0.6607 -7.3094 -12.0594 46.3381 1.6639 2.7781
# 5 2.5790 12.7371 -1.9031 1.6639 39.0776 -1.1675
# 6 5.6641 0.9246 6.3571 2.7781 -1.1675 46.2960
#
#
#
# Elastic Compliance Matrix: (Units=1/GPa)
#
#
# Indices 1 2 3 4 5 6 
#
# 1 0.014274 -0.008208 -0.003277 -0.002353 0.001645 -0.000950
# 2 -0.008208 0.019025 -0.001145 0.003002 -0.005829 0.000454
# 3 -0.003277 -0.001145 0.010201 0.002553 0.000945 -0.001106
# 4 -0.002353 0.003002 0.002553 0.022906 -0.001720 -0.001541
# 5 0.001645 -0.005829 0.000945 -0.001720 0.027518 0.000583
# 6 -0.000950 0.000454 -0.001106 -0.001541 0.000583 0.021966
#
#
# Mechanical properties :
#
#
# Convention : Reuss Voigt Hill
#
# Bulk Modulus (GPa) = 54.82500 59.79155 57.30827
# Shear Modulus (GPa) = 33.95997 39.04823 36.50410
#
# Velocity S-wave (km/s) = 3.87541 4.15561 4.01796
# Velocity P-wave (km/s) = 6.65369 7.03338 6.84616
#
# Compressibility (1/GPa) = 0.01823985
#
# Stress axis : x y z
#
# Youngs Moduli (GPa) = 70.05686 52.56162 98.02736
#
# Poissons Ratio (x) = 0.43142 0.32128
# Poissons Ratio (y) = 0.57502 0.11225
# Poissons Ratio (z) = 0.22961 0.06019
#
# Static dielectric constant tensor:
#      x y z
#    x 4.402480 -0.173420 -0.005120 
#    y -0.173420 4.268670 -0.068570 
#    z -0.005120 -0.068570 4.382270 
# 
# 
# High freq. dielectric constant tensor:
#      x y z
#    x 1.890590 0.004780 0.001010 
#    y 0.004780 1.899360 -0.007020 
#    z 0.001010 -0.007020 1.910630 
# 
# From -- ./inp_files/139577.got.cif
#   From: 2010.06.25/outbox.cif.g09.slc.cpg/sg2_70_cif.got.tgz:139577.got - 2010.06.27 13:26:56.
