data_PCOD8024267
_publ_section_title
;
Structure prediction by ZEFSAII (Michael W. Deem and Ramdas Pophale) SiO2 
 PCOD8024267
Probable space group: P -1
;
_chemical_formula_sum "Si O2"
_cell_formula_units_Z 16
_cell_length_a 12.195528
_cell_length_b 9.769912
_cell_length_c 14.833919
_cell_angle_alpha 135.918192
_cell_angle_beta 138.555391
_cell_angle_gamma 35.847759
_cell_volume 656.558936
_symmetry_space_group_name_H-M "P -1"
_symmetry_group_IT_number 2
_symmetry_cell_setting 'triclinic'
loop_
_space_group_symop_operation_xyz
x,y,z
-x,-y,-z
loop_
_atom_site_type_symbol
_atom_site_label
_atom_site_fract_x
_atom_site_fract_y
_atom_site_fract_z
Si Si1 0.405866 0.585127 0.704198
Si Si2 0.626550 0.059040 0.545545
Si Si3 0.639219 0.378798 0.940205
Si Si4 0.408600 0.005050 0.852034
Si Si5 0.272729 0.031187 0.091732
Si Si6 0.048430 0.489318 0.807433
Si Si7 0.085963 0.836854 0.762126
Si Si8 0.868032 0.603869 0.376442
O O1 0.474983 0.351188 0.574661
O O2 0.526725 0.495564 0.831493
O O3 0.447245 0.745261 0.742580
O O4 0.165216 0.766149 0.672594
O O5 0.500000 0.000000 0.500000
O O6 0.684077 0.893024 0.412129
O O7 0.839192 0.988596 0.687186
O O8 0.713758 0.099015 0.866984
O O9 0.500000 0.500000 0.000000
O O10 0.831871 0.388202 0.063815
O O11 0.506613 0.065639 0.860044
O O12 0.169030 0.232911 0.813374
O O13 0.500000 0.000000 0.000000
O O14 0.162706 0.316550 0.179364
O O15 0.147534 0.997357 0.922613
O O16 0.005133 0.435568 0.654311
O O17 0.205121 0.572668 0.762397
O O18 0.000000 0.500000 0.500000
#
# Coordination Sequence:
#
# PCOD8024267 Si02
#       8
#     2   2   2   2   2   2   2   2
#     4  12  24  43  68 103 144 185 227 284 352 431
#     4  11  25  41  68  99 128 182 240 294 344 399
#     4  12  20  39  66 102 142 175 222 299 351 409
#     4  12  25  45  66 105 152 189 222 277 353 444
#     4  12  25  39  71 109 143 185 224 284 367 419
#     4  12  24  42  67  98 147 183 233 288 353 418
#     4  11  21  39  66 103 139 171 227 289 353 412
#     4  10  23  43  64 100 134 173 236 296 340 394
#
# _framework density 24.369478999999998
#
# number of rings (size 3 to 8) (size 9 to 14) (size 15 to 20)
#    0.000    0.500    7.500    1.125    3.500    1.500 
#    0.000    0.625    0.000    3.750    0.000    0.000 
#    0.000    0.000    0.000    0.000    0.000    0.000 
#
# Total GULP energy -198210.795235 kJ/mol
# GULP energy per Si atom -12388.174702 kJ/mol
# Density = 2.431401 g / cm^3
# Si number density = 24.369479 Si / 1000 Ang^3
#
#
#
# Elastic Constant Matrix: (Units=GPa)
#
#
# Indices 1 2 3 4 5 6 
#
# 1 69.7065 34.5762 14.5703 12.0652 4.6188 -3.9454
# 2 34.5762 147.1385 35.7716 35.0794 -7.8962 2.7931
# 3 14.5703 35.7716 54.8736 21.1347 -13.4691 -7.6004
# 4 12.0652 35.0794 21.1347 48.8636 -4.1562 -4.4815
# 5 4.6188 -7.8962 -13.4691 -4.1562 40.7771 9.5782
# 6 -3.9454 2.7931 -7.6004 -4.4815 9.5782 49.5181
#
#
#
# Elastic Compliance Matrix: (Units=1/GPa)
#
#
# Indices 1 2 3 4 5 6 
#
# 1 0.017122 -0.003426 -0.002757 -0.000749 -0.004023 0.001845
# 2 -0.003426 0.009684 -0.003638 -0.004626 0.001060 -0.002001
# 3 -0.002757 -0.003638 0.026108 -0.007220 0.007031 0.001980
# 4 -0.000749 -0.004626 -0.007220 0.027181 -0.000828 0.001713
# 5 -0.004023 0.001060 0.007031 -0.000828 0.028574 -0.004903
# 6 0.001845 -0.002001 0.001980 0.001713 -0.004903 0.021862
#
#
# Mechanical properties :
#
#
# Convention : Reuss Voigt Hill
#
# Bulk Modulus (GPa) = 30.05497 49.06165 39.55831
# Shear Modulus (GPa) = 31.00540 40.28513 35.64527
#
# Velocity S-wave (km/s) = 3.57081 4.07024 3.82868
# Velocity P-wave (km/s) = 5.41855 6.50117 5.98440
#
# Compressibility (1/GPa) = 0.03327237
#
# Stress axis : x y z
#
# Youngs Moduli (GPa) = 58.40483 103.26776 38.30206
#
# Poissons Ratio (x) = 0.35376 0.10558
# Poissons Ratio (y) = 0.20007 0.13936
# Poissons Ratio (z) = 0.16100 0.37573
#
# Static dielectric constant tensor:
#      x y z
#    x 8.006260 9.488780 7.393200 
#    y 9.488780 31.468290 20.530370 
#    z 7.393200 20.530370 20.331470 
# 
# 
# High freq. dielectric constant tensor:
#      x y z
#    x 1.951140 -0.019250 -0.000780 
#    y -0.019250 1.966750 0.018520 
#    z -0.000780 0.018520 1.962730 
# 
# From -- ./inp_files/516279.got.cif
#   From: 2010.06.25/outbox.cif.g09.slc.cpg/sg2_259_cif.got.tgz:516279.got - 2010.06.27 13:26:56.
