data_PCOD8024367
_publ_section_title
;
Structure prediction by ZEFSAII (Michael W. Deem and Ramdas Pophale) SiO2 
 PCOD8024367
Probable space group: P -1
;
_chemical_formula_sum "Si O2"
_cell_formula_units_Z 12
_cell_length_a 14.866098
_cell_length_b 12.517975
_cell_length_c 9.596291
_cell_angle_alpha 143.123252
_cell_angle_beta 132.226784
_cell_angle_gamma 29.065002
_cell_volume 518.353062
_symmetry_space_group_name_H-M "P -1"
_symmetry_group_IT_number 2
_symmetry_cell_setting 'triclinic'
loop_
_space_group_symop_operation_xyz
x,y,z
-x,-y,-z
loop_
_atom_site_type_symbol
_atom_site_label
_atom_site_fract_x
_atom_site_fract_y
_atom_site_fract_z
Si Si1 0.771160 0.899984 0.736582
Si Si2 0.209042 0.835839 0.198764
Si Si3 0.441816 0.656498 0.814139
Si Si4 0.898160 0.201587 0.475894
Si Si5 0.643122 0.705171 0.905028
Si Si6 0.825379 0.540459 0.214048
O O1 0.719150 0.788613 0.470242
O O2 0.956460 0.651221 0.758700
O O3 0.807293 0.038411 0.828844
O O4 0.599183 0.131265 0.902049
O O5 0.410654 0.645859 0.281461
O O6 0.197291 0.638576 0.950173
O O7 0.045701 0.086453 0.390880
O O8 0.248149 0.776643 0.712972
O O9 0.534214 0.640830 0.756356
O O10 0.796551 0.493606 0.725770
O O11 0.000000 0.000000 0.500000
O O12 0.745255 0.665892 0.107551
O O13 0.500000 0.000000 0.000000
#
# Coordination Sequence:
#
# PCOD8024367 Si02
#       6
#     2   2   2   2   2   2
#     4  11  23  43  70 102 138 177 231 283 349 406
#     4  11  24  43  71 101 135 185 223 284 349 406
#     4  11  24  43  69 100 135 179 230 286 337 410
#     4  12  23  45  69  95 142 182 228 282 336 410
#     4  11  26  44  68 102 137 182 231 282 347 407
#     4  10  23  43  66 100 139 177 229 285 334 410
#
# _framework density 23.150244000000001
#
# number of rings (size 3 to 8) (size 9 to 14) (size 15 to 20)
#    0.000    1.000    5.000    1.500    2.333    5.333 
#    0.000    2.500    0.000    0.000    0.000    0.000 
#    0.000    0.000    0.000    0.000    0.000    0.000 
#
# Total GULP energy -148835.931678 kJ/mol
# GULP energy per Si atom -12402.994307 kJ/mol
# Density = 2.309755 g / cm^3
# Si number density = 23.150244 Si / 1000 Ang^3
#
#
#
# Elastic Constant Matrix: (Units=GPa)
#
#
# Indices 1 2 3 4 5 6 
#
# 1 52.2737 25.5586 20.4624 5.0029 -13.0072 -1.3131
# 2 25.5586 153.6296 54.3597 5.4319 -4.7073 1.5556
# 3 20.4624 54.3597 136.8406 13.3882 -6.8292 -4.2580
# 4 5.0029 5.4319 13.3882 44.0671 -8.7774 -1.3221
# 5 -13.0072 -4.7073 -6.8292 -8.7774 26.0257 9.7271
# 6 -1.3131 1.5556 -4.2580 -1.3221 9.7271 39.1733
#
#
#
# Elastic Compliance Matrix: (Units=1/GPa)
#
#
# Indices 1 2 3 4 5 6 
#
# 1 0.024252 -0.002963 -0.001970 0.000553 0.012103 -0.002270
# 2 -0.002963 0.007971 -0.002775 0.000075 -0.000523 -0.000585
# 3 -0.001970 -0.002775 0.008936 -0.002168 -0.000248 0.001004
# 4 0.000553 0.000075 -0.002168 0.024970 0.008719 -0.001542
# 5 0.012103 -0.000523 -0.000248 0.008719 0.051801 -0.012169
# 6 -0.002270 -0.000585 0.001004 -0.001542 -0.012169 0.028553
#
#
# Mechanical properties :
#
#
# Convention : Reuss Voigt Hill
#
# Bulk Modulus (GPa) = 38.84743 60.38946 49.61844
# Shear Modulus (GPa) = 29.32891 38.01078 33.66984
#
# Velocity S-wave (km/s) = 3.56321 4.05645 3.81780
# Velocity P-wave (km/s) = 5.80910 6.93414 6.39640
#
# Compressibility (1/GPa) = 0.02574173
#
# Stress axis : x y z
#
# Youngs Moduli (GPa) = 41.23443 125.44957 111.90948
#
# Poissons Ratio (x) = 0.37174 0.22047
# Poissons Ratio (y) = 0.12219 0.31057
# Poissons Ratio (z) = 0.08123 0.34814
#
# Static dielectric constant tensor:
#      x y z
#    x 3.142260 -0.113820 0.322110 
#    y -0.113820 4.558610 0.029490 
#    z 0.322110 0.029490 3.877870 
# 
# 
# High freq. dielectric constant tensor:
#      x y z
#    x 1.889590 -0.012600 -0.015880 
#    y -0.012600 1.938030 0.002520 
#    z -0.015880 0.002520 1.923890 
# 
# From -- ./inp_files/183767.got.cif
#   From: 2010.06.25/outbox.cif.g09.slc.cpg/sg2_92_cif.got.tgz:183767.got - 2010.06.27 13:26:56.
