data_PCOD8024965
_publ_section_title
;
Structure prediction by ZEFSAII (Michael W. Deem and Ramdas Pophale) SiO2 
 PCOD8024965
Probable space group: P -1
;
_chemical_formula_sum "Si O2"
_cell_formula_units_Z 16
_cell_length_a 8.753531
_cell_length_b 13.473409
_cell_length_c 8.549963
_cell_angle_alpha 81.371275
_cell_angle_beta 72.136264
_cell_angle_gamma 123.999590
_cell_volume 726.617218
_symmetry_space_group_name_H-M "P -1"
_symmetry_group_IT_number 2
_symmetry_cell_setting 'triclinic'
loop_
_space_group_symop_operation_xyz
x,y,z
-x,-y,-z
loop_
_atom_site_type_symbol
_atom_site_label
_atom_site_fract_x
_atom_site_fract_y
_atom_site_fract_z
Si Si1 0.435241 0.414719 0.816270
Si Si2 0.244357 0.085463 0.406057
Si Si3 0.584916 0.195478 0.516325
Si Si4 0.047187 0.303264 0.799930
Si Si5 0.511763 0.657537 0.868203
Si Si6 0.788534 0.463851 0.513904
Si Si7 0.666795 0.065829 0.789804
Si Si8 0.839516 0.344376 0.098638
O O1 0.250025 0.315832 0.773642
O O2 0.407353 0.518834 0.854067
O O3 0.672721 0.493825 0.661965
O O4 0.394760 0.327069 0.995772
O O5 0.355256 0.094464 0.531574
O O6 0.305479 0.226015 0.324864
O O7 0.317955 0.040173 0.255816
O O8 0.000000 0.000000 0.500000
O O9 0.609002 0.309307 0.575078
O O10 0.605670 0.112942 0.651965
O O11 0.772808 0.278285 0.308245
O O12 0.142030 0.447162 0.679814
O O13 0.897497 0.190414 0.748026
O O14 0.918213 0.275633 0.004315
O O15 0.356721 0.689838 0.924996
O O16 0.000000 0.500000 0.500000
O O17 0.500000 0.000000 0.000000
O O18 0.000000 0.500000 0.000000
#
# Coordination Sequence:
#
# PCOD8024965 Si02
#       8
#     2   2   2   2   2   2   2   2
#     4  11  25  39  69 104 138 170 224 291 361 402
#     4  11  27  47  69  96 137 189 236 281 334 409
#     4  11  25  45  74  98 136 181 233 283 341 418
#     4  12  24  42  68 105 137 176 226 293 342 411
#     4  10  23  44  66  99 136 179 223 285 339 422
#     4  12  24  40  70 105 135 173 219 293 359 406
#     4  12  28  47  69  98 140 189 240 281 331 413
#     4  11  20  41  69 102 135 171 221 276 359 415
#
# _framework density 22.019848
#
# number of rings (size 3 to 8) (size 9 to 14) (size 15 to 20)
#    0.000    0.750    3.750    3.750    5.250    2.000 
#    0.000    1.250    0.000    0.000    0.000    0.000 
#    0.000    0.000    0.000    0.000    0.000    0.000 
#
# Total GULP energy -198275.649605 kJ/mol
# GULP energy per Si atom -12392.228100 kJ/mol
# Density = 2.196973 g / cm^3
# Si number density = 22.019848 Si / 1000 Ang^3
#
#
#
# Elastic Constant Matrix: (Units=GPa)
#
#
# Indices 1 2 3 4 5 6 
#
# 1 141.8715 46.4727 74.1559 0.8031 6.7854 31.2544
# 2 46.4727 87.7154 24.4945 -0.4717 9.7425 22.9928
# 3 74.1559 24.4945 106.2345 -3.3920 25.0999 8.2170
# 4 0.8031 -0.4717 -3.3920 34.5886 -4.0065 -0.4894
# 5 6.7854 9.7425 25.0999 -4.0065 41.4877 1.1124
# 6 31.2544 22.9928 8.2170 -0.4894 1.1124 45.4874
#
#
#
# Elastic Compliance Matrix: (Units=1/GPa)
#
#
# Indices 1 2 3 4 5 6 
#
# 1 0.014783 -0.003834 -0.010060 -0.000935 0.004653 -0.006526
# 2 -0.003834 0.014962 0.000299 -0.000088 -0.002944 -0.004912
# 3 -0.010060 0.000299 0.018367 0.000986 -0.009540 0.003687
# 4 -0.000935 -0.000088 0.000986 0.029316 0.002388 0.000766
# 5 0.004653 -0.002944 -0.009540 0.002388 0.030055 -0.000695
# 6 -0.006526 -0.004912 0.003687 0.000766 -0.000695 0.028310
#
#
# Mechanical properties :
#
#
# Convention : Reuss Voigt Hill
#
# Bulk Modulus (GPa) = 47.79450 69.56305 58.67877
# Shear Modulus (GPa) = 29.41920 37.02599 33.22259
#
# Velocity S-wave (km/s) = 3.65914 4.10504 3.88849
# Velocity P-wave (km/s) = 6.29323 7.35718 6.84590
#
# Compressibility (1/GPa) = 0.02092291
#
# Stress axis : x y z
#
# Youngs Moduli (GPa) = 67.64385 66.83412 54.44655
#
# Poissons Ratio (x) = 0.25627 0.54772
# Poissons Ratio (y) = 0.25937 -0.01630
# Poissons Ratio (z) = 0.68048 -0.02001
#
# Static dielectric constant tensor:
#      x y z
#    x 4.317340 -0.129250 0.058950 
#    y -0.129250 3.609420 0.364580 
#    z 0.058950 0.364580 3.773390 
# 
# 
# High freq. dielectric constant tensor:
#      x y z
#    x 1.871940 0.007800 0.003230 
#    y 0.007800 1.867540 0.000100 
#    z 0.003230 0.000100 1.866110 
# 
# From -- ./inp_files/206903.got.cif
#   From: 2010.06.25/outbox.cif.g09.slc.cpg/sg2_104_cif.got.tgz:206903.got - 2010.06.27 13:26:56.
