data_PCOD8024973
_publ_section_title
;
Structure prediction by ZEFSAII (Michael W. Deem and Ramdas Pophale) SiO2 
 PCOD8024973
Probable space group: P -1
;
_chemical_formula_sum "Si O2"
_cell_formula_units_Z 16
_cell_length_a 11.500653
_cell_length_b 11.998712
_cell_length_c 11.181742
_cell_angle_alpha 119.296585
_cell_angle_beta 130.770796
_cell_angle_gamma 99.706108
_cell_volume 686.469033
_symmetry_space_group_name_H-M "P -1"
_symmetry_group_IT_number 2
_symmetry_cell_setting 'triclinic'
loop_
_space_group_symop_operation_xyz
x,y,z
-x,-y,-z
loop_
_atom_site_type_symbol
_atom_site_label
_atom_site_fract_x
_atom_site_fract_y
_atom_site_fract_z
Si Si1 0.547158 0.739576 0.163683
Si Si2 0.473265 0.311960 0.257363
Si Si3 0.145217 0.310410 0.631456
Si Si4 0.647580 0.970940 0.128920
Si Si5 0.935193 0.579489 0.582081
Si Si6 0.844531 0.189287 0.920713
Si Si7 0.537192 0.203358 0.619200
Si Si8 0.316839 0.480277 0.259341
O O1 0.757524 0.770135 0.317666
O O2 0.528448 0.815363 0.072240
O O3 0.578556 0.846886 0.355991
O O4 0.309725 0.518763 0.905892
O O5 0.711850 0.407255 0.415970
O O6 0.394048 0.400292 0.197737
O O7 0.489598 0.347439 0.428686
O O8 0.304383 0.094763 0.987157
O O9 0.113573 0.322174 0.475295
O O10 0.893679 0.168481 0.446758
O O11 0.500000 0.000000 0.000000
O O12 0.000000 0.500000 0.500000
O O13 0.133644 0.733242 0.892574
O O14 0.720239 0.203535 0.749478
O O15 0.676616 0.962651 0.699084
O O16 0.088557 0.307439 0.088778
O O17 0.691808 0.417081 0.792833
#
# Coordination Sequence:
#
# PCOD8024973 Si02
#       8
#     2   2   2   2   2   2   2   2
#     4  11  26  47  66 107 143 185 239 290 368 424
#     4  10  23  44  67 101 140 175 239 288 352 429
#     4  11  25  42  72  98 145 189 227 301 356 426
#     4  12  27  43  72 108 143 186 241 305 356 430
#     4  11  21  43  71 102 142 184 235 294 354 414
#     4  10  25  41  67 105 138 183 240 288 344 433
#     4  11  24  42  71  98 140 186 233 291 352 428
#     4  10  23  45  67  96 141 187 224 291 353 420
#
# _framework density 23.307680000000001
#
# number of rings (size 3 to 8) (size 9 to 14) (size 15 to 20)
#    0.000    1.250    1.250    3.000    7.000    3.000 
#    0.000    2.500    0.000    0.000    0.000    0.000 
#    0.000    0.000    0.000    0.000    0.000    0.000 
#
# Total GULP energy -198316.250014 kJ/mol
# GULP energy per Si atom -12394.765626 kJ/mol
# Density = 2.325463 g / cm^3
# Si number density = 23.307680 Si / 1000 Ang^3
#
#
#
# Elastic Constant Matrix: (Units=GPa)
#
#
# Indices 1 2 3 4 5 6 
#
# 1 116.2805 31.8910 50.2206 3.3554 -11.0310 -20.6327
# 2 31.8910 116.0929 26.1385 -2.2089 0.4997 -22.5473
# 3 50.2206 26.1385 125.9471 -4.0492 -3.5121 -12.7147
# 4 3.3554 -2.2089 -4.0492 27.7629 3.4236 -1.1883
# 5 -11.0310 0.4997 -3.5121 3.4236 38.5812 -2.9172
# 6 -20.6327 -22.5473 -12.7147 -1.1883 -2.9172 29.4207
#
#
#
# Elastic Compliance Matrix: (Units=1/GPa)
#
#
# Indices 1 2 3 4 5 6 
#
# 1 0.012176 -0.001337 -0.003932 -0.002360 0.003811 0.006098
# 2 -0.001337 0.010527 -0.000938 0.001176 -0.000198 0.006753
# 3 -0.003932 -0.000938 0.009837 0.001910 -0.000324 0.000820
# 4 -0.002360 0.001176 0.001910 0.037188 -0.003725 0.001204
# 5 0.003811 -0.000198 -0.000324 -0.003725 0.027689 0.004977
# 6 0.006098 0.006753 0.000820 0.001204 0.004977 0.044338
#
#
# Mechanical properties :
#
#
# Convention : Reuss Voigt Hill
#
# Bulk Modulus (GPa) = 49.68102 63.86897 56.77499
# Shear Modulus (GPa) = 31.07961 35.82432 33.45196
#
# Velocity S-wave (km/s) = 3.65560 3.92473 3.79256
# Velocity P-wave (km/s) = 6.25935 6.92821 6.60226
#
# Compressibility (1/GPa) = 0.02012841
#
# Stress axis : x y z
#
# Youngs Moduli (GPa) = 82.12654 94.99551 101.65228
#
# Poissons Ratio (x) = 0.12696 0.39968
# Poissons Ratio (y) = 0.10976 0.09533
# Poissons Ratio (z) = 0.32291 0.08908
#
# Static dielectric constant tensor:
#      x y z
#    x 3.970070 -0.159950 -0.125000 
#    y -0.159950 4.203440 -0.047770 
#    z -0.125000 -0.047770 4.568470 
# 
# 
# High freq. dielectric constant tensor:
#      x y z
#    x 1.910370 -0.011100 -0.003500 
#    y -0.011100 1.919430 -0.002730 
#    z -0.003500 -0.002730 1.933610 
# 
# From -- ./inp_files/428802.got.cif
#   From: 2010.06.25/outbox.cif.g09.slc.cpg/sg2_215_cif.got.tgz:428802.got - 2010.06.27 13:26:56.
