data_PCOD8024436
_publ_section_title
;
Structure prediction by ZEFSAII (Michael W. Deem and Ramdas Pophale) SiO2 
 PCOD8024436
Probable space group: P -1
;
_chemical_formula_sum "Si O2"
_cell_formula_units_Z 16
_cell_length_a 14.908841
_cell_length_b 9.470464
_cell_length_c 11.761408
_cell_angle_alpha 126.513253
_cell_angle_beta 76.549195
_cell_angle_gamma 61.332223
_cell_volume 794.544089
_symmetry_space_group_name_H-M "P -1"
_symmetry_group_IT_number 2
_symmetry_cell_setting 'triclinic'
loop_
_space_group_symop_operation_xyz
x,y,z
-x,-y,-z
loop_
_atom_site_type_symbol
_atom_site_label
_atom_site_fract_x
_atom_site_fract_y
_atom_site_fract_z
Si Si1 0.541567 0.888150 0.560898
Si Si2 0.607182 0.239906 0.430037
Si Si3 0.909201 0.125659 0.471864
Si Si4 0.611050 0.094581 0.789178
Si Si5 0.622807 0.352068 0.726895
Si Si6 0.107096 0.673829 0.809007
Si Si7 0.896946 0.491323 0.500763
Si Si8 0.046244 0.237932 0.893706
O O1 0.425425 0.916595 0.652391
O O2 0.714025 0.556464 0.359555
O O3 0.500000 0.000000 0.500000
O O4 0.513262 0.098659 0.750960
O O5 0.500000 0.500000 0.500000
O O6 0.567945 0.347319 0.623424
O O7 0.779200 0.028913 0.247376
O O8 0.740875 0.325799 0.651051
O O9 0.909878 0.314917 0.503266
O O10 0.980461 0.867658 0.246646
O O11 0.000000 0.000000 0.500000
O O12 0.688982 0.103037 0.674058
O O13 0.727539 0.816844 0.701047
O O14 0.517351 0.350284 0.026812
O O15 0.052369 0.651832 0.705080
O O16 0.071840 0.615062 0.901521
O O17 0.000000 0.000000 0.000000
O O18 0.000000 0.500000 0.500000
O O19 0.000000 0.500000 0.000000
#
# Coordination Sequence:
#
# PCOD8024436 Si02
#       8
#     2   2   2   2   2   2   2   2
#     4  11  22  40  66  96 125 165 215 264 317 384
#     4  11  24  42  64  95 133 167 211 268 324 384
#     4  11  25  44  65  94 133 171 214 271 324 386
#     4  10  23  43  67  92 127 170 217 266 321 384
#     4  10  23  44  65  92 130 170 213 268 323 382
#     4  11  23  43  67  95 130 168 217 269 322 387
#     4  11  25  43  67  94 129 173 218 268 323 385
#     4  11  25  43  67  97 131 173 215 270 328 386
#
# _framework density 20.137333999999999
#
# number of rings (size 3 to 8) (size 9 to 14) (size 15 to 20)
#    0.000    1.250    2.500    2.250   12.250    4.500 
#    0.000    0.000    0.000    0.000    0.000    0.000 
#    0.000    0.000    0.000    0.000    0.000    0.000 
#
# Total GULP energy -198365.255472 kJ/mol
# GULP energy per Si atom -12397.828467 kJ/mol
# Density = 2.009150 g / cm^3
# Si number density = 20.137334 Si / 1000 Ang^3
#
#
#
# Elastic Constant Matrix: (Units=GPa)
#
#
# Indices 1 2 3 4 5 6 
#
# 1 135.6198 48.8197 23.0296 -5.5805 8.2510 3.4961
# 2 48.8197 137.9746 26.1525 1.0927 11.9984 5.4737
# 3 23.0296 26.1525 77.0352 -5.1306 10.7841 -5.0187
# 4 -5.5805 1.0927 -5.1306 36.9893 7.2891 -1.0995
# 5 8.2510 11.9984 10.7841 7.2891 24.7092 1.4562
# 6 3.4961 5.4737 -5.0187 -1.0995 1.4562 42.6377
#
#
#
# Elastic Compliance Matrix: (Units=1/GPa)
#
#
# Indices 1 2 3 4 5 6 
#
# 1 0.008744 -0.002694 -0.001437 0.001459 -0.001388 -0.000455
# 2 -0.002694 0.008822 -0.001971 -0.000518 -0.002308 -0.001078
# 3 -0.001437 -0.001971 0.015356 0.003303 -0.006385 0.002482
# 4 0.001459 -0.000518 0.003303 0.029855 -0.010571 0.001467
# 5 -0.001388 -0.002308 -0.006385 -0.010571 0.048093 -0.002257
# 6 -0.000455 -0.001078 0.002482 0.001467 -0.002257 0.024036
#
#
# Mechanical properties :
#
#
# Convention : Reuss Voigt Hill
#
# Bulk Modulus (GPa) = 48.27281 60.73703 54.50492
# Shear Modulus (GPa) = 32.46402 37.70911 35.08657
#
# Velocity S-wave (km/s) = 4.01949 4.33205 4.17869
# Velocity P-wave (km/s) = 6.75023 7.43297 7.09981
#
# Compressibility (1/GPa) = 0.02071560
#
# Stress axis : x y z
#
# Youngs Moduli (GPa) = 114.36829 113.35067 65.12283
#
# Poissons Ratio (x) = 0.30538 0.09361
# Poissons Ratio (y) = 0.30812 0.12838
# Poissons Ratio (z) = 0.16440 0.22345
#
# Static dielectric constant tensor:
#      x y z
#    x 4.246340 0.481420 0.488130 
#    y 0.481420 4.389720 0.023200 
#    z 0.488130 0.023200 3.227670 
# 
# 
# High freq. dielectric constant tensor:
#      x y z
#    x 1.800190 0.005030 0.009390 
#    y 0.005030 1.802720 -0.001590 
#    z 0.009390 -0.001590 1.782450 
# 
# From -- ./inp_files/227575.got.cif
#   From: 2010.06.25/outbox.cif.g09.slc.cpg/sg2_114_cif.got.tgz:227575.got - 2010.06.27 13:26:56.
