data_PCOD8024954
_publ_section_title
;
Structure prediction by ZEFSAII (Michael W. Deem and Ramdas Pophale) SiO2 
 PCOD8024954
Probable space group: P -1
;
_chemical_formula_sum "Si O2"
_cell_formula_units_Z 10
_cell_length_a 18.775787
_cell_length_b 10.881347
_cell_length_c 16.887450
_cell_angle_alpha 30.948877
_cell_angle_beta 157.053063
_cell_angle_gamma 159.378535
_cell_volume 473.529526
_symmetry_space_group_name_H-M "P -1"
_symmetry_group_IT_number 2
_symmetry_cell_setting 'triclinic'
loop_
_space_group_symop_operation_xyz
x,y,z
-x,-y,-z
loop_
_atom_site_type_symbol
_atom_site_label
_atom_site_fract_x
_atom_site_fract_y
_atom_site_fract_z
Si Si1 0.069683 0.886262 0.204294
Si Si2 0.395926 0.813041 0.819072
Si Si3 0.921919 0.112174 0.252301
Si Si4 0.052734 0.718052 0.639822
Si Si5 0.503388 0.697961 0.462796
O O1 0.139374 0.695656 0.340877
O O2 0.816519 0.608495 0.158589
O O3 0.319282 0.220484 0.326065
O O4 0.000000 0.000000 0.000000
O O5 0.329335 0.938133 0.752910
O O6 0.371421 0.933753 0.644750
O O7 0.693634 0.994411 0.026838
O O8 0.868120 0.173910 0.248411
O O9 0.206313 0.467009 0.315416
O O10 0.900225 0.804779 0.402926
O O11 0.500000 0.500000 0.500000
#
# Coordination Sequence:
#
# PCOD8024954 Si02
#       5
#     2   2   2   2   2
#     4  10  25  44  69  95 138 177 219 273 332 387
#     4  10  23  44  66  97 135 174 217 276 333 383
#     4  11  22  41  73  99 130 178 222 268 336 395
#     4   9  23  41  68  95 140 165 228 267 327 390
#     4  12  24  43  68 100 138 170 221 280 329 391
#
# _framework density 21.118008
#
# number of rings (size 3 to 8) (size 9 to 14) (size 15 to 20)
#    1.200    0.400    2.000    1.800    8.400    0.800 
#    0.000    2.000    0.000    0.000    0.000    0.000 
#    0.000    0.000    0.000    0.000    0.000    0.000 
#
# Total GULP energy -123945.248294 kJ/mol
# GULP energy per Si atom -12394.524829 kJ/mol
# Density = 2.106994 g / cm^3
# Si number density = 21.118008 Si / 1000 Ang^3
#
#
#
# Elastic Constant Matrix: (Units=GPa)
#
#
# Indices 1 2 3 4 5 6 
#
# 1 64.9039 34.3889 46.5726 -4.9270 6.7600 5.5430
# 2 34.3889 88.4949 38.7454 -2.7031 -5.8336 -2.6169
# 3 46.5726 38.7454 130.5664 11.0912 -9.7605 -5.3806
# 4 -4.9270 -2.7031 11.0912 39.8695 11.1511 3.0926
# 5 6.7600 -5.8336 -9.7605 11.1511 30.4195 -1.0478
# 6 5.5430 -2.6169 -5.3806 3.0926 -1.0478 38.6608
#
#
#
# Elastic Compliance Matrix: (Units=1/GPa)
#
#
# Indices 1 2 3 4 5 6 
#
# 1 0.031075 -0.008131 -0.011234 0.011681 -0.016626 -0.007954
# 2 -0.008131 0.015282 -0.001068 -0.001225 0.004923 0.002283
# 3 -0.011234 -0.001068 0.013610 -0.008346 0.009868 0.004368
# 4 0.011681 -0.001225 -0.008346 0.034366 -0.018319 -0.006165
# 5 -0.016626 0.004923 0.009868 -0.018319 0.047630 0.006847
# 6 -0.007954 0.002283 0.004368 -0.006165 0.006847 0.028448
#
#
# Mechanical properties :
#
#
# Convention : Reuss Voigt Hill
#
# Bulk Modulus (GPa) = 52.35890 58.15321 55.25606
# Shear Modulus (GPa) = 22.97330 32.74051 27.85691
#
# Velocity S-wave (km/s) = 3.30184 3.94173 3.63589
# Velocity P-wave (km/s) = 6.27563 6.95078 6.62182
#
# Compressibility (1/GPa) = 0.01909895
#
# Stress axis : x y z
#
# Youngs Moduli (GPa) = 32.18056 65.43534 73.47638
#
# Poissons Ratio (x) = 0.53208 0.82545
# Poissons Ratio (y) = 0.26167 0.07850
# Poissons Ratio (z) = 0.36152 0.06991
#
# Static dielectric constant tensor:
#      x y z
#    x 3.753970 0.180030 0.020170 
#    y 0.180030 3.786790 -0.236030 
#    z 0.020170 -0.236030 3.631260 
# 
# 
# High freq. dielectric constant tensor:
#      x y z
#    x 1.821140 0.012960 -0.002350 
#    y 0.012960 1.820910 -0.013060 
#    z -0.002350 -0.013060 1.826950 
# 
# From -- ./inp_files/22825.got.cif
#   From: 2010.06.25/outbox.cif.g09.slc.cpg/sg2_12_cif.got.tgz:22825.got - 2010.06.27 13:26:56.
