data_PCOD8024015
_publ_section_title
;
Structure prediction by ZEFSAII (Michael W. Deem and Ramdas Pophale) SiO2 
 PCOD8024015
Probable space group: P -1
;
_chemical_formula_sum "Si O2"
_cell_formula_units_Z 14
_cell_length_a 15.974563
_cell_length_b 14.287396
_cell_length_c 9.789245
_cell_angle_alpha 36.061457
_cell_angle_beta 29.753237
_cell_angle_gamma 38.670089
_cell_volume 628.405057
_symmetry_space_group_name_H-M "P -1"
_symmetry_group_IT_number 2
_symmetry_cell_setting 'triclinic'
loop_
_space_group_symop_operation_xyz
x,y,z
-x,-y,-z
loop_
_atom_site_type_symbol
_atom_site_label
_atom_site_fract_x
_atom_site_fract_y
_atom_site_fract_z
Si Si1 0.009118 0.211556 0.546631
Si Si2 0.168587 0.845747 0.656626
Si Si3 0.041519 0.306045 0.676548
Si Si4 0.811166 0.586125 0.103159
Si Si5 0.563687 0.896054 0.666411
Si Si6 0.500909 0.130629 0.727444
Si Si7 0.266791 0.734381 0.363322
O O1 0.952899 0.235762 0.756282
O O2 0.841524 0.260011 0.628755
O O3 0.110008 0.026425 0.589712
O O4 0.142625 0.327985 0.201476
O O5 0.363986 0.767432 0.532080
O O6 0.166574 0.856896 0.480632
O O7 0.039997 0.739595 0.013714
O O8 0.247372 0.224570 0.485416
O O9 0.000000 0.500000 0.500000
O O10 0.687880 0.737331 0.187495
O O11 0.703886 0.449304 0.395677
O O12 0.000000 0.500000 0.000000
O O13 0.500000 0.000000 0.500000
O O14 0.567687 0.033114 0.610453
O O15 0.443855 0.778786 0.021108
O O16 0.500000 0.000000 0.000000
#
# Coordination Sequence:
#
# PCOD8024015 Si02
#       7
#     2   2   2   2   2   2   2
#     4  11  22  45  71 101 139 181 231 281 343 411
#     4  12  24  42  74 100 139 185 232 276 347 414
#     4  12  28  47  69 103 144 182 229 288 349 404
#     4  10  23  42  69 102 141 176 226 285 343 403
#     4  12  27  47  69 102 141 181 234 285 340 411
#     4  12  23  45  71 102 136 184 233 282 337 415
#     4  11  25  42  72 104 135 180 232 288 343 402
#
# _framework density 22.278624000000001
#
# number of rings (size 3 to 8) (size 9 to 14) (size 15 to 20)
#    0.000    0.571    4.286    2.571    4.000    6.286 
#    0.000    1.429    0.000    0.000    0.000    0.000 
#    0.000    0.000    0.000    0.000    0.000    0.000 
#
# Total GULP energy -173529.383415 kJ/mol
# GULP energy per Si atom -12394.955958 kJ/mol
# Density = 2.222792 g / cm^3
# Si number density = 22.278624 Si / 1000 Ang^3
#
#
#
# Elastic Constant Matrix: (Units=GPa)
#
#
# Indices 1 2 3 4 5 6 
#
# 1 107.5798 34.5192 39.2336 8.6786 1.8816 2.5084
# 2 34.5192 145.4488 42.1092 8.4427 -6.5072 -12.2020
# 3 39.2336 42.1092 162.2401 0.0189 -8.5053 -5.9942
# 4 8.6786 8.4427 0.0189 39.6531 0.4768 -5.1148
# 5 1.8816 -6.5072 -8.5053 0.4768 34.7839 2.7912
# 6 2.5084 -12.2020 -5.9942 -5.1148 2.7912 29.5155
#
#
#
# Elastic Compliance Matrix: (Units=1/GPa)
#
#
# Indices 1 2 3 4 5 6 
#
# 1 0.011074 -0.002104 -0.002295 -0.002288 -0.001318 -0.002549
# 2 -0.002104 0.008142 -0.001438 -0.000898 0.001057 0.002997
# 3 -0.002295 -0.001438 0.007211 0.000926 0.001519 0.001082
# 4 -0.002288 -0.000898 0.000926 0.026518 -0.000555 0.004659
# 5 -0.001318 0.001057 0.001519 -0.000555 0.029560 -0.002034
# 6 -0.002549 0.002997 0.001082 0.004659 -0.002034 0.036556
#
#
# Mechanical properties :
#
#
# Convention : Reuss Voigt Hill
#
# Bulk Modulus (GPa) = 67.77986 71.88810 69.83398
# Shear Modulus (GPa) = 36.85863 40.75095 38.80479
#
# Velocity S-wave (km/s) = 4.07189 4.28150 4.17801
# Velocity P-wave (km/s) = 7.25237 7.53521 7.39514
#
# Compressibility (1/GPa) = 0.01475364
#
# Stress axis : x y z
#
# Youngs Moduli (GPa) = 90.29754 122.82268 138.66799
#
# Poissons Ratio (x) = 0.25840 0.31825
# Poissons Ratio (y) = 0.18997 0.19943
# Poissons Ratio (z) = 0.20723 0.17664
#
# Static dielectric constant tensor:
#      x y z
#    x 4.024240 -0.106380 -0.077520 
#    y -0.106380 4.184910 -0.059900 
#    z -0.077520 -0.059900 4.586830 
# 
# 
# High freq. dielectric constant tensor:
#      x y z
#    x 1.872240 0.001280 -0.000610 
#    y 0.001280 1.881160 -0.004130 
#    z -0.000610 -0.004130 1.891800 
# 
# From -- ./inp_files/158116.got.cif
#   From: 2010.06.25/outbox.cif.g09.slc.cpg/sg2_80_cif.got.tgz:158116.got - 2010.06.27 13:26:56.
