data_PCOD8024465
_publ_section_title
;
Structure prediction by ZEFSAII (Michael W. Deem and Ramdas Pophale) SiO2 
 PCOD8024465
Probable space group: P -1
;
_chemical_formula_sum "Si O2"
_cell_formula_units_Z 14
_cell_length_a 10.063979
_cell_length_b 7.549994
_cell_length_c 20.596553
_cell_angle_alpha 60.328516
_cell_angle_beta 146.716604
_cell_angle_gamma 98.495286
_cell_volume 619.214638
_symmetry_space_group_name_H-M "P -1"
_symmetry_group_IT_number 2
_symmetry_cell_setting 'triclinic'
loop_
_space_group_symop_operation_xyz
x,y,z
-x,-y,-z
loop_
_atom_site_type_symbol
_atom_site_label
_atom_site_fract_x
_atom_site_fract_y
_atom_site_fract_z
Si Si1 0.684660 0.086539 0.594035
Si Si2 0.194507 0.536865 0.258108
Si Si3 0.708661 0.415493 0.856541
Si Si4 0.817873 0.340492 0.187217
Si Si5 0.768060 0.043728 0.782759
Si Si6 0.739350 0.158800 0.314675
Si Si7 0.677909 0.742452 0.330047
O O1 0.511792 0.374610 0.453770
O O2 0.694728 0.017821 0.685000
O O3 0.500000 0.000000 0.500000
O O4 0.011079 0.930739 0.726440
O O5 0.240839 0.493453 0.207561
O O6 0.063590 0.818712 0.171033
O O7 0.972823 0.478177 0.207274
O O8 0.545021 0.649692 0.794528
O O9 0.528334 0.287438 0.798184
O O10 0.024239 0.221117 0.051311
O O11 0.812431 0.310018 0.268228
O O12 0.500000 0.500000 0.000000
O O13 0.459203 0.216859 0.661664
O O14 0.682970 0.985410 0.277708
O O15 0.000000 0.000000 0.500000
O O16 0.000000 0.500000 0.500000
#
# Coordination Sequence:
#
# PCOD8024465 Si02
#       7
#     2   2   2   2   2   2   2
#     4  10  23  43  67  97 137 180 234 279 343 426
#     4  10  23  45  70  97 142 181 236 288 347 425
#     4  11  25  48  74 107 138 186 244 290 349 417
#     4  11  26  43  65 104 142 178 229 292 358 405
#     4  11  25  45  73 104 137 188 237 294 348 416
#     4  12  26  45  74 101 144 187 234 291 351 418
#     4  11  25  43  74 106 141 179 241 292 348 413
#
# _framework density 22.609285
#
# number of rings (size 3 to 8) (size 9 to 14) (size 15 to 20)
#    0.000    1.143    1.429    3.857   14.000    0.571 
#    2.571    1.429    0.000    0.000    0.000    0.000 
#    0.000    0.000    0.000    0.000    0.000    0.000 
#
# Total GULP energy -173543.433812 kJ/mol
# GULP energy per Si atom -12395.959558 kJ/mol
# Density = 2.255782 g / cm^3
# Si number density = 22.609285 Si / 1000 Ang^3
#
#
#
# Elastic Constant Matrix: (Units=GPa)
#
#
# Indices 1 2 3 4 5 6 
#
# 1 158.2907 46.2575 81.9695 6.9946 -9.7992 -2.0229
# 2 46.2575 87.2355 28.9133 -10.1906 8.7817 0.4580
# 3 81.9695 28.9133 174.4349 -1.4405 -3.8843 -9.3015
# 4 6.9946 -10.1906 -1.4405 26.3848 -2.4283 -2.3429
# 5 -9.7992 8.7817 -3.8843 -2.4283 40.6183 -1.8795
# 6 -2.0229 0.4580 -9.3015 -2.3429 -1.8795 44.3820
#
#
#
# Elastic Compliance Matrix: (Units=1/GPa)
#
#
# Indices 1 2 3 4 5 6 
#
# 1 0.010177 -0.004901 -0.003968 -0.004585 0.002841 -0.000439
# 2 -0.004901 0.015374 -0.000295 0.006817 -0.004139 -0.000259
# 3 -0.003968 -0.000295 0.007740 0.001496 0.000007 0.001524
# 4 -0.004585 0.006817 0.001496 0.042048 0.000182 0.002262
# 5 0.002841 -0.004139 0.000007 0.000182 0.026271 0.001296
# 6 -0.000439 -0.000259 0.001524 0.002262 0.001296 0.023008
#
#
# Mechanical properties :
#
#
# Convention : Reuss Voigt Hill
#
# Bulk Modulus (GPa) = 66.82887 81.58239 74.20563
# Shear Modulus (GPa) = 33.79868 39.79841 36.79855
#
# Velocity S-wave (km/s) = 3.87059 4.20011 4.03871
# Velocity P-wave (km/s) = 7.04256 7.72548 7.39191
#
# Compressibility (1/GPa) = 0.01496359
#
# Stress axis : x y z
#
# Youngs Moduli (GPa) = 98.25690 65.04470 129.19609
#
# Poissons Ratio (x) = 0.31877 0.51268
# Poissons Ratio (y) = 0.48153 0.03812
# Poissons Ratio (z) = 0.38990 0.01919
#
# Static dielectric constant tensor:
#      x y z
#    x 4.037840 0.149820 -0.285410 
#    y 0.149820 4.431630 -0.451250 
#    z -0.285410 -0.451250 4.537580 
# 
# 
# High freq. dielectric constant tensor:
#      x y z
#    x 1.893950 -0.000010 0.002590 
#    y -0.000010 1.891730 -0.011780 
#    z 0.002590 -0.011780 1.901320 
# 
# From -- ./inp_files/402806.got.cif
#   From: 2010.06.25/outbox.cif.g09.slc.cpg/sg2_202_cif.got.tgz:402806.got - 2010.06.27 13:26:56.
