data_PCOD8024275
_publ_section_title
;
Structure prediction by ZEFSAII (Michael W. Deem and Ramdas Pophale) SiO2 
 PCOD8024275
Probable space group: P -1
;
_chemical_formula_sum "Si O2"
_cell_formula_units_Z 16
_cell_length_a 6.871706
_cell_length_b 12.136046
_cell_length_c 19.305949
_cell_angle_alpha 132.375781
_cell_angle_beta 135.557073
_cell_angle_gamma 63.946413
_cell_volume 830.062338
_symmetry_space_group_name_H-M "P -1"
_symmetry_group_IT_number 2
_symmetry_cell_setting 'triclinic'
loop_
_space_group_symop_operation_xyz
x,y,z
-x,-y,-z
loop_
_atom_site_type_symbol
_atom_site_label
_atom_site_fract_x
_atom_site_fract_y
_atom_site_fract_z
Si Si1 0.130613 0.126082 0.174848
Si Si2 0.632476 0.327603 0.146823
Si Si3 0.426637 0.837959 0.443410
Si Si4 0.791041 0.831958 0.291261
Si Si5 0.885435 0.808444 0.958059
Si Si6 0.420991 0.657166 0.018241
Si Si7 0.642038 0.159433 0.416733
Si Si8 0.783856 0.667572 0.359419
O O1 0.204715 0.141927 0.119793
O O2 0.408560 0.180093 0.309517
O O3 0.889356 0.228150 0.177605
O O4 0.032918 0.954038 0.095928
O O5 0.389883 0.253433 0.100463
O O6 0.735733 0.490466 0.268634
O O7 0.508214 0.330631 0.039371
O O8 0.503603 0.835758 0.543221
O O9 0.598813 0.718793 0.397413
O O10 0.098910 0.791616 0.331734
O O11 0.500000 0.000000 0.500000
O O12 0.593961 0.791017 0.158805
O O13 0.685369 0.739211 0.292944
O O14 0.791327 0.006545 0.381510
O O15 0.093496 0.676058 0.953410
O O16 0.500000 0.500000 0.000000
O O17 0.888215 0.290653 0.525979
#
# Coordination Sequence:
#
# PCOD8024275 Si02
#       8
#     2   2   2   2   2   2   2   2
#     4  10  23  44  64  86 121 164 214 254 302 356
#     4  11  25  41  63  91 128 161 206 255 305 366
#     4  11  21  36  60  92 123 158 199 247 304 362
#     4  11  21  39  62  91 129 157 200 252 311 367
#     4  10  23  43  64  89 123 163 205 258 303 363
#     4  11  23  39  63  97 126 158 196 253 322 365
#     4  11  22  40  66  90 122 166 204 251 304 361
#     4  11  23  40  59  93 129 160 199 253 307 367
#
# _framework density 19.275660999999999
#
# number of rings (size 3 to 8) (size 9 to 14) (size 15 to 20)
#    0.000    1.250    5.000    1.125    1.750    5.000 
#    0.000    1.250    0.000    0.000    0.000    0.000 
#    0.000    0.000    0.000    0.000    0.000    0.000 
#
# Total GULP energy -198477.272727 kJ/mol
# GULP energy per Si atom -12404.829545 kJ/mol
# Density = 1.923179 g / cm^3
# Si number density = 19.275661 Si / 1000 Ang^3
#
#
#
# Elastic Constant Matrix: (Units=GPa)
#
#
# Indices 1 2 3 4 5 6 
#
# 1 138.7011 50.3269 63.0167 5.2441 -2.3108 2.1781
# 2 50.3269 102.9181 47.3837 4.2883 1.4748 -3.1004
# 3 63.0167 47.3837 135.5290 -3.5513 -1.5837 6.6037
# 4 5.2441 4.2883 -3.5513 37.3294 -5.8723 -0.2207
# 5 -2.3108 1.4748 -1.5837 -5.8723 23.8826 5.1729
# 6 2.1781 -3.1004 6.6037 -0.2207 5.1729 18.1939
#
#
#
# Elastic Compliance Matrix: (Units=1/GPa)
#
#
# Indices 1 2 3 4 5 6 
#
# 1 0.010075 -0.003285 -0.003524 -0.001253 0.000794 -0.000728
# 2 -0.003285 0.013126 -0.003366 -0.001778 -0.002790 0.004624
# 3 -0.003524 -0.003366 0.010496 0.002181 0.002079 -0.004526
# 4 -0.001253 -0.001778 0.002181 0.028582 0.007769 -0.002807
# 5 0.000794 -0.002790 0.002079 0.007769 0.047351 -0.014694
# 6 -0.000728 0.004624 -0.004526 -0.002807 -0.014694 0.061625
#
#
# Mechanical properties :
#
#
# Convention : Reuss Voigt Hill
#
# Bulk Modulus (GPa) = 74.92812 77.62254 76.27533
# Shear Modulus (GPa) = 25.50312 30.30923 27.90618
#
# Velocity S-wave (km/s) = 3.64135 3.96966 3.80905
# Velocity P-wave (km/s) = 7.52566 7.83378 7.68126
#
# Compressibility (1/GPa) = 0.01334613
#
# Stress axis : x y z
#
# Youngs Moduli (GPa) = 99.25694 76.18426 95.27565
#
# Poissons Ratio (x) = 0.25028 0.33575
# Poissons Ratio (y) = 0.32608 0.32071
# Poissons Ratio (z) = 0.34978 0.25644
#
# Static dielectric constant tensor:
#      x y z
#    x 3.685980 -0.024890 -0.137280 
#    y -0.024890 3.504100 0.002020 
#    z -0.137280 0.002020 3.648160 
# 
# 
# High freq. dielectric constant tensor:
#      x y z
#    x 1.756430 -0.005240 -0.005030 
#    y -0.005240 1.747670 0.002750 
#    z -0.005030 0.002750 1.759110 
# 
# From -- ./inp_files/69166.got.cif
#   From: 2010.06.25/outbox.cif.g09.slc.cpg/sg2_35_cif.got.tgz:69166.got - 2010.06.27 13:26:56.
