data_PCOD8024076
_publ_section_title
;
Structure prediction by ZEFSAII (Michael W. Deem and Ramdas Pophale) SiO2 
 PCOD8024076
Probable space group: P -1
;
_chemical_formula_sum "Si O2"
_cell_formula_units_Z 14
_cell_length_a 4.889236
_cell_length_b 13.157880
_cell_length_c 12.858441
_cell_angle_alpha 39.456460
_cell_angle_beta 102.867027
_cell_angle_gamma 119.235402
_cell_volume 440.582026
_symmetry_space_group_name_H-M "P -1"
_symmetry_group_IT_number 2
_symmetry_cell_setting 'triclinic'
loop_
_space_group_symop_operation_xyz
x,y,z
-x,-y,-z
loop_
_atom_site_type_symbol
_atom_site_label
_atom_site_fract_x
_atom_site_fract_y
_atom_site_fract_z
Si Si1 0.347442 0.162027 0.367320
Si Si2 0.479024 0.090712 0.221197
Si Si3 0.915535 0.193113 0.001110
Si Si4 0.359960 0.169794 0.839060
Si Si5 0.899479 0.427730 0.320546
Si Si6 0.712647 0.492883 0.909713
Si Si7 0.097239 0.734021 0.353049
O O1 0.505481 0.090132 0.349883
O O2 0.570202 0.225382 0.440409
O O3 0.378613 0.357001 0.171860
O O4 0.000000 0.000000 0.500000
O O5 0.162141 0.905750 0.299201
O O6 0.817771 0.128815 0.164804
O O7 0.421307 0.268446 0.053595
O O8 0.580684 0.198306 0.934931
O O9 0.191031 0.411013 0.837844
O O10 0.931636 0.051282 0.030972
O O11 0.574642 0.215230 0.717111
O O12 0.197280 0.299486 0.722239
O O13 0.019964 0.444709 0.438087
O O14 0.155180 0.436996 0.250980
O O15 0.000000 0.500000 0.000000
#
# Coordination Sequence:
#
# PCOD8024076 Si02
#       7
#     2   2   2   2   2   2   2
#     4  12  27  42  68 101 147 186 232 291 356 433
#     4  10  23  42  70 100 134 186 234 290 346 429
#     4   9  23  47  76 103 137 182 244 300 359 423
#     4  10  24  49  74 109 139 191 238 308 360 428
#     4  11  26  45  67 105 143 189 234 294 359 431
#     4  11  24  43  65  97 135 186 240 289 348 413
#     4  11  26  44  73 106 148 189 240 290 370 431
#
# _framework density 31.776147000000002
#
# number of rings (size 3 to 8) (size 9 to 14) (size 15 to 20)
#    0.000    1.429    1.429    1.286    8.000    8.571 
#    2.571    0.000    0.000    0.000    0.000    0.000 
#    0.000    0.000    0.000    0.000    0.000    0.000 
#
# Total GULP energy -173559.163606 kJ/mol
# GULP energy per Si atom -12397.083115 kJ/mol
# Density = 3.170382 g / cm^3
# Si number density = 31.776147 Si / 1000 Ang^3
#
#
#
# Elastic Constant Matrix: (Units=GPa)
#
#
# Indices 1 2 3 4 5 6 
#
# 1 65.1930 -12.8503 -0.4910 -6.4554 0.1820 -11.3567
# 2 -12.8503 80.6719 13.4138 -27.5316 -22.1174 -20.4251
# 3 -0.4910 13.4138 89.4341 9.0845 -10.1237 -2.2468
# 4 -6.4554 -27.5316 9.0845 65.1187 -3.1307 -3.6801
# 5 0.1820 -22.1174 -10.1237 -3.1307 51.3753 5.0455
# 6 -11.3567 -20.4251 -2.2468 -3.6801 5.0455 38.8291
#
#
#
# Elastic Compliance Matrix: (Units=1/GPa)
#
#
# Indices 1 2 3 4 5 6 
#
# 1 0.019696 0.009240 -0.001358 0.006803 0.002994 0.010798
# 2 0.009240 0.025934 -0.003740 0.013781 0.009646 0.016181
# 3 -0.001358 -0.003740 0.012125 -0.003489 0.000777 -0.002095
# 4 0.006803 0.013781 -0.003489 0.023207 0.005603 0.010508
# 5 0.002994 0.009646 0.000777 0.005603 0.023763 0.003438
# 6 0.010798 0.016181 -0.002095 0.010508 0.003438 0.037852
#
#
# Mechanical properties :
#
#
# Convention : Reuss Voigt Hill
#
# Bulk Modulus (GPa) = 15.14298 26.16044 20.65171
# Shear Modulus (GPa) = 31.98823 46.74639 39.36731
#
# Velocity S-wave (km/s) = 3.17626 3.83967 3.52361
# Velocity P-wave (km/s) = 4.26935 5.28281 4.80288
#
# Compressibility (1/GPa) = 0.06603722
#
# Stress axis : x y z
#
# Youngs Moduli (GPa) = 50.77050 38.55954 82.47666
#
# Poissons Ratio (x) = -0.35629 0.11204
# Poissons Ratio (y) = -0.46912 0.30850
# Poissons Ratio (z) = 0.06897 0.14423
#
# Static dielectric constant tensor:
#      x y z
#    x 7.281880 1.051160 0.408990 
#    y 1.051160 7.019890 -0.250160 
#    z 0.408990 -0.250160 6.570430 
# 
# 
# High freq. dielectric constant tensor:
#      x y z
#    x 2.307790 -0.008320 0.004770 
#    y -0.008320 2.339750 -0.002470 
#    z 0.004770 -0.002470 2.333240 
# 
# From -- ./inp_files/483838.got.cif
#   From: 2010.06.25/outbox.cif.g09.slc.cpg/sg2_242_cif.got.tgz:483838.got - 2010.06.27 13:26:56.
