data_PCOD8024714
_publ_section_title
;
Structure prediction by ZEFSAII (Michael W. Deem and Ramdas Pophale) SiO2 
 PCOD8024714
Probable space group: P -1
;
_chemical_formula_sum "Si O2"
_cell_formula_units_Z 16
_cell_length_a 9.494224
_cell_length_b 27.614289
_cell_length_c 9.187446
_cell_angle_alpha 40.995442
_cell_angle_beta 106.534903
_cell_angle_gamma 139.290755
_cell_volume 763.176835
_symmetry_space_group_name_H-M "P -1"
_symmetry_group_IT_number 2
_symmetry_cell_setting 'triclinic'
loop_
_space_group_symop_operation_xyz
x,y,z
-x,-y,-z
loop_
_atom_site_type_symbol
_atom_site_label
_atom_site_fract_x
_atom_site_fract_y
_atom_site_fract_z
Si Si1 0.793574 0.621265 0.718742
Si Si2 0.859763 0.377063 0.140774
Si Si3 0.217193 0.576481 0.265456
Si Si4 0.328644 0.116820 0.226889
Si Si5 0.785530 0.593651 0.442048
Si Si6 0.260213 0.942127 0.145240
Si Si7 0.775874 0.941504 0.346769
Si Si8 0.406730 0.897054 0.822730
O O1 0.736406 0.593256 0.594993
O O2 0.988298 0.635228 0.777288
O O3 0.971509 0.770367 0.478788
O O4 0.500000 0.500000 0.000000
O O5 0.515454 0.223997 0.424179
O O6 0.906637 0.419996 0.893659
O O7 0.000000 0.500000 0.000000
O O8 0.203807 0.488954 0.395612
O O9 0.000000 0.500000 0.500000
O O10 0.544454 0.744958 0.023663
O O11 0.261802 0.048067 0.519187
O O12 0.565322 0.169624 0.095948
O O13 0.044944 0.000561 0.302417
O O14 0.500000 0.500000 0.500000
O O15 0.070603 0.758797 0.087356
O O16 0.387865 0.018069 0.167840
O O17 0.500000 0.000000 0.000000
O O18 0.159004 0.965846 0.959488
O O19 0.500000 0.000000 0.500000
#
# Coordination Sequence:
#
# PCOD8024714 Si02
#       8
#     2   2   2   2   2   2   2   2
#     4  12  29  48  70 107 142 189 238 294 358 418
#     4  11  23  44  71  96 142 183 235 288 350 415
#     4  11  24  42  72 100 137 184 228 286 355 414
#     4  10  24  43  70 103 139 179 234 291 353 417
#     4  12  28  46  72 106 145 185 240 293 351 427
#     4  12  24  45  74  96 138 185 234 292 351 413
#     4  10  23  43  71 100 136 179 232 288 351 413
#     4  12  27  45  72 103 141 186 237 292 355 422
#
# _framework density 20.964997
#
# number of rings (size 3 to 8) (size 9 to 14) (size 15 to 20)
#    0.000    0.750    5.000    0.750    7.000    3.500 
#    0.000    0.000    0.000    0.000    0.000    0.000 
#    0.000    0.000    0.000    0.000    0.000    0.000 
#
# Total GULP energy -198301.704462 kJ/mol
# GULP energy per Si atom -12393.856529 kJ/mol
# Density = 2.091728 g / cm^3
# Si number density = 20.964997 Si / 1000 Ang^3
#
#
#
# Elastic Constant Matrix: (Units=GPa)
#
#
# Indices 1 2 3 4 5 6 
#
# 1 64.6563 50.8534 48.5031 -3.2955 -10.0880 0.5772
# 2 50.8534 140.7443 75.3155 -6.9167 2.0215 19.3071
# 3 48.5031 75.3155 163.5911 -6.5494 -6.2426 6.8129
# 4 -3.2955 -6.9167 -6.5494 43.4816 1.8425 3.8234
# 5 -10.0880 2.0215 -6.2426 1.8425 41.0503 0.5855
# 6 0.5772 19.3071 6.8129 3.8234 0.5855 38.1110
#
#
#
# Elastic Compliance Matrix: (Units=1/GPa)
#
#
# Indices 1 2 3 4 5 6 
#
# 1 0.025382 -0.007763 -0.003919 -0.000525 0.005987 0.004210
# 2 -0.007763 0.012593 -0.003308 0.001553 -0.003018 -0.005780
# 3 -0.003919 -0.003308 0.008833 0.000476 0.000520 0.000101
# 4 -0.000525 0.001553 0.000476 0.023608 -0.001147 -0.003215
# 5 0.005987 -0.003018 0.000520 -0.001147 0.026096 0.001060
# 6 0.004210 -0.005780 0.000101 -0.003215 0.001060 0.029392
#
#
# Mechanical properties :
#
#
# Convention : Reuss Voigt Hill
#
# Bulk Modulus (GPa) = 59.43051 79.81506 69.62279
# Shear Modulus (GPa) = 30.96096 37.48322 34.22209
#
# Velocity S-wave (km/s) = 3.84708 4.23294 4.04461
# Velocity P-wave (km/s) = 6.93847 7.87678 7.42247
#
# Compressibility (1/GPa) = 0.01682638
#
# Stress axis : x y z
#
# Youngs Moduli (GPa) = 39.39784 79.41024 113.21564
#
# Poissons Ratio (x) = 0.61645 0.44374
# Poissons Ratio (y) = 0.30584 0.37455
# Poissons Ratio (z) = 0.15442 0.26271
#
# Static dielectric constant tensor:
#      x y z
#    x 3.683400 -0.208980 0.067770 
#    y -0.208980 4.022530 -0.121900 
#    z 0.067770 -0.121900 3.912550 
# 
# 
# High freq. dielectric constant tensor:
#      x y z
#    x 1.811960 0.000550 -0.000410 
#    y 0.000550 1.842380 0.001000 
#    z -0.000410 0.001000 1.837370 
# 
# From -- ./inp_files/227720.got.cif
#   From: 2010.06.25/outbox.cif.g09.slc.cpg/sg2_114_cif.got.tgz:227720.got - 2010.06.27 13:26:56.
