data_PCOD8024919
_publ_section_title
;
Structure prediction by ZEFSAII (Michael W. Deem and Ramdas Pophale) SiO2 
 PCOD8024919
Probable space group: P -1
;
_chemical_formula_sum "Si O2"
_cell_formula_units_Z 12
_cell_length_a 7.104850
_cell_length_b 11.066110
_cell_length_c 7.230951
_cell_angle_alpha 99.909363
_cell_angle_beta 60.575462
_cell_angle_gamma 108.724439
_cell_volume 468.902828
_symmetry_space_group_name_H-M "P -1"
_symmetry_group_IT_number 2
_symmetry_cell_setting 'triclinic'
loop_
_space_group_symop_operation_xyz
x,y,z
-x,-y,-z
loop_
_atom_site_type_symbol
_atom_site_label
_atom_site_fract_x
_atom_site_fract_y
_atom_site_fract_z
Si Si1 0.677175 0.674589 0.308922
Si Si2 0.779309 0.973954 0.980397
Si Si3 0.311508 0.825411 0.191078
Si Si4 0.591062 0.648081 0.950452
Si Si5 0.893435 0.851919 0.549548
Si Si6 0.214249 0.473955 0.480397
O O1 0.747567 0.710930 0.070476
O O2 0.410453 0.605181 0.413294
O O3 0.810753 0.578266 0.309617
O O4 0.723289 0.800645 0.446890
O O5 0.770517 0.852491 0.810219
O O6 0.781435 0.105180 0.913294
O O7 0.542104 0.921732 0.190382
O O8 0.000000 0.000000 0.000000
O O9 0.369533 0.699355 0.053108
O O10 0.107114 0.789069 0.429523
O O11 0.500000 0.500000 0.000000
O O12 0.728243 0.647508 0.689780
O O13 0.000000 0.000000 0.500000
O O14 0.000000 0.500000 0.500000
#
# Coordination Sequence:
#
# PCOD8024919 Si02
#       6
#     2   2   2   2   2   2
#     4  10  23  44  66 100 139 176 231 283 348 408
#     4  10  23  46  69 100 135 183 235 286 343 412
#     4  10  23  44  66 100 139 176 231 283 348 408
#     4  10  23  44  66  99 138 174 233 280 342 417
#     4  10  23  44  66  99 138 174 233 280 342 417
#     4  10  23  46  69 100 135 183 235 286 343 412
#
# _framework density 25.591657000000001
#
# number of rings (size 3 to 8) (size 9 to 14) (size 15 to 20)
#    0.000    2.000    0.000    1.000    9.333    1.333 
#   18.000    0.000    0.000    0.000    0.000    0.000 
#    0.000    0.000    0.000    0.000    0.000    0.000 
#
# Total GULP energy -148696.927144 kJ/mol
# GULP energy per Si atom -12391.410595 kJ/mol
# Density = 2.553341 g / cm^3
# Si number density = 25.591657 Si / 1000 Ang^3
#
#
#
# Elastic Constant Matrix: (Units=GPa)
#
#
# Indices 1 2 3 4 5 6 
#
# 1 216.8174 55.6282 63.4817 14.6008 7.8465 -7.9097
# 2 55.6282 95.5987 33.7064 38.4345 2.1981 -6.6078
# 3 63.4817 33.7064 146.8873 11.9585 2.0408 1.0185
# 4 14.6008 38.4345 11.9585 47.0244 1.9678 0.5637
# 5 7.8465 2.1981 2.0408 1.9678 49.9574 18.0790
# 6 -7.9097 -6.6078 1.0185 0.5637 18.0790 50.4273
#
#
#
# Elastic Compliance Matrix: (Units=1/GPa)
#
#
# Indices 1 2 3 4 5 6 
#
# 1 0.006001 -0.003245 -0.001947 0.001320 -0.001112 0.000939
# 2 -0.003245 0.018711 -0.001773 -0.013840 -0.000538 0.002326
# 3 -0.001947 -0.001773 0.008057 0.000000 0.000354 -0.000827
# 4 0.001320 -0.013840 0.000000 0.032198 -0.000178 -0.001903
# 5 -0.001112 -0.000538 0.000354 -0.000178 0.023325 -0.008612
# 6 0.000939 0.002326 -0.000827 -0.001903 -0.008612 0.023408
#
#
# Mechanical properties :
#
#
# Convention : Reuss Voigt Hill
#
# Bulk Modulus (GPa) = 53.08359 84.99288 69.03823
# Shear Modulus (GPa) = 37.90449 49.91429 43.90939
#
# Velocity S-wave (km/s) = 3.85272 4.42114 4.14668
# Velocity P-wave (km/s) = 6.37015 7.70359 7.06838
#
# Compressibility (1/GPa) = 0.01883821
#
# Stress axis : x y z
#
# Youngs Moduli (GPa) = 166.65193 53.44319 124.11343
#
# Poissons Ratio (x) = 0.17344 0.24166
# Poissons Ratio (y) = 0.54083 0.22006
# Poissons Ratio (z) = 0.32449 0.09476
#
# Static dielectric constant tensor:
#      x y z
#    x 4.513730 0.059120 -0.151840 
#    y 0.059120 5.348770 -0.194120 
#    z -0.151840 -0.194120 5.980120 
# 
# 
# High freq. dielectric constant tensor:
#      x y z
#    x 2.010720 0.005250 -0.000470 
#    y 0.005250 2.080380 -0.020080 
#    z -0.000470 -0.020080 2.005390 
# 
# From -- ./inp_files/131765.got.cif
#   From: 2010.06.25/outbox.cif.g09.slc.cpg/sg2_66_cif.got.tgz:131765.got - 2010.06.27 13:26:56.
