data_PCOD8024471
_publ_section_title
;
Structure prediction by ZEFSAII (Michael W. Deem and Ramdas Pophale) SiO2 
 PCOD8024471
Probable space group: P -1
;
_chemical_formula_sum "Si O2"
_cell_formula_units_Z 16
_cell_length_a 9.445961
_cell_length_b 14.537666
_cell_length_c 15.571057
_cell_angle_alpha 38.313146
_cell_angle_beta 41.787338
_cell_angle_gamma 36.078397
_cell_volume 743.373002
_symmetry_space_group_name_H-M "P -1"
_symmetry_group_IT_number 2
_symmetry_cell_setting 'triclinic'
loop_
_space_group_symop_operation_xyz
x,y,z
-x,-y,-z
loop_
_atom_site_type_symbol
_atom_site_label
_atom_site_fract_x
_atom_site_fract_y
_atom_site_fract_z
Si Si1 0.530026 0.487551 0.848542
Si Si2 0.420371 0.331496 0.614401
Si Si3 0.292512 0.162932 0.925315
Si Si4 0.094342 0.680059 0.601894
Si Si5 0.287466 0.344439 0.479479
Si Si6 0.229221 0.750507 0.934929
Si Si7 0.212345 0.467311 0.863759
Si Si8 0.509011 0.954587 0.626863
O O1 0.608365 0.620206 0.680697
O O2 0.320026 0.594457 0.938179
O O3 0.449030 0.419644 0.852815
O O4 0.746950 0.318890 0.926863
O O5 0.388527 0.175878 0.777476
O O6 0.173444 0.507057 0.637229
O O7 0.700400 0.277520 0.556360
O O8 0.419604 0.358352 0.493872
O O9 0.255211 0.321483 0.884051
O O10 0.066095 0.131139 0.038767
O O11 0.500000 0.000000 0.000000
O O12 0.126435 0.640777 0.718516
O O13 0.804907 0.839068 0.603275
O O14 0.000000 0.500000 0.500000
O O15 0.346492 0.146797 0.603517
O O16 0.371971 0.852513 0.786317
O O17 0.000000 0.500000 0.000000
O O18 0.500000 0.000000 0.500000
#
# Coordination Sequence:
#
# PCOD8024471 Si02
#       8
#     2   2   2   2   2   2   2   2
#     4  11  23  43  72  99 134 179 227 286 346 408
#     4  10  23  43  67  98 136 180 220 285 341 411
#     4  11  26  42  68  98 143 180 223 283 348 410
#     4  10  23  43  68  99 135 177 229 277 347 406
#     4  12  25  44  68 102 138 179 228 283 350 410
#     4  11  25  45  67 103 137 180 231 284 345 415
#     4  11  21  42  70 101 128 176 227 281 340 407
#     4  12  26  42  70 101 137 185 231 287 339 414
#
# _framework density 21.523515
#
# number of rings (size 3 to 8) (size 9 to 14) (size 15 to 20)
#    0.000    1.000    3.750    2.250    7.000    3.500 
#    0.000    1.875    0.000    0.000    0.000    0.000 
#    0.000    0.000    0.000    0.000    0.000    0.000 
#
# Total GULP energy -198209.209107 kJ/mol
# GULP energy per Si atom -12388.075569 kJ/mol
# Density = 2.147453 g / cm^3
# Si number density = 21.523515 Si / 1000 Ang^3
#
#
#
# Elastic Constant Matrix: (Units=GPa)
#
#
# Indices 1 2 3 4 5 6 
#
# 1 135.4904 51.8107 50.7310 -5.3239 11.0031 -23.7332
# 2 51.8107 109.3273 41.3725 -7.4964 -4.3242 -29.6496
# 3 50.7310 41.3725 126.6098 -4.1942 12.6575 -12.7794
# 4 -5.3239 -7.4964 -4.1942 25.4646 -0.5756 1.4076
# 5 11.0031 -4.3242 12.6575 -0.5756 45.5650 3.6523
# 6 -23.7332 -29.6496 -12.7794 1.4076 3.6523 40.7333
#
#
#
# Elastic Compliance Matrix: (Units=1/GPa)
#
#
# Indices 1 2 3 4 5 6 
#
# 1 0.010278 -0.003120 -0.002534 0.000589 -0.002316 0.003110
# 2 -0.003120 0.013848 -0.002697 0.002638 0.002279 0.007121
# 3 -0.002534 -0.002697 0.010038 0.000279 -0.002422 -0.000083
# 4 0.000589 0.002638 0.000279 0.040176 0.000464 0.000921
# 5 -0.002316 0.002279 -0.002422 0.000464 0.023608 -0.002583
# 6 0.003110 0.007121 -0.000083 0.000921 -0.002583 0.031719
#
#
# Mechanical properties :
#
#
# Convention : Reuss Voigt Hill
#
# Bulk Modulus (GPa) = 57.26361 73.25067 65.25714
# Shear Modulus (GPa) = 32.85382 37.52013 35.18698
#
# Velocity S-wave (km/s) = 3.91118 4.17971 4.04767
# Velocity P-wave (km/s) = 6.85998 7.57628 7.22701
#
# Compressibility (1/GPa) = 0.01746310
#
# Stress axis : x y z
#
# Youngs Moduli (GPa) = 97.29149 72.21232 99.62193
#
# Poissons Ratio (x) = 0.22529 0.25244
# Poissons Ratio (y) = 0.30353 0.26866
# Poissons Ratio (z) = 0.24654 0.19475
#
# Static dielectric constant tensor:
#      x y z
#    x 3.973940 0.085380 0.097910 
#    y 0.085380 4.095700 -0.329330 
#    z 0.097910 -0.329330 5.509140 
# 
# 
# High freq. dielectric constant tensor:
#      x y z
#    x 1.856900 -0.007230 0.010170 
#    y -0.007230 1.821260 0.005360 
#    z 0.010170 0.005360 1.863790 
# 
# From -- ./inp_files/261501.got.cif
#   From: 2010.06.25/outbox.cif.g09.slc.cpg/sg2_131_cif.got.tgz:261501.got - 2010.06.27 13:26:56.
