data_PCOD8024570
_publ_section_title
;
Structure prediction by ZEFSAII (Michael W. Deem and Ramdas Pophale) SiO2 
 PCOD8024570
Probable space group: P -1
;
_chemical_formula_sum "Si O2"
_cell_formula_units_Z 16
_cell_length_a 9.137104
_cell_length_b 20.544113
_cell_length_c 11.612809
_cell_angle_alpha 138.570265
_cell_angle_beta 50.410724
_cell_angle_gamma 150.028717
_cell_volume 720.096345
_symmetry_space_group_name_H-M "P -1"
_symmetry_group_IT_number 2
_symmetry_cell_setting 'triclinic'
loop_
_space_group_symop_operation_xyz
x,y,z
-x,-y,-z
loop_
_atom_site_type_symbol
_atom_site_label
_atom_site_fract_x
_atom_site_fract_y
_atom_site_fract_z
Si Si1 0.538596 0.030837 0.718020
Si Si2 0.501670 0.401977 0.443700
Si Si3 0.722673 0.805739 0.086052
Si Si4 0.758339 0.131740 0.127981
Si Si5 0.289240 0.685988 0.944858
Si Si6 0.143219 0.460853 0.335644
Si Si7 0.637306 0.450297 0.895088
Si Si8 0.115069 0.911290 0.572168
O O1 0.836746 0.105731 0.608294
O O2 0.390664 0.902516 0.718704
O O3 0.332672 0.946981 0.599702
O O4 0.574863 0.151070 0.922119
O O5 0.500000 0.500000 0.500000
O O6 0.653435 0.368139 0.259774
O O7 0.656322 0.501587 0.613617
O O8 0.193650 0.243505 0.431234
O O9 0.612829 0.709000 0.127327
O O10 0.852209 0.959313 0.266429
O O11 0.445214 0.703604 0.003580
O O12 0.991938 0.852640 0.956540
O O13 0.901672 0.282493 0.193845
O O14 0.500000 0.000000 0.000000
O O15 0.938617 0.564557 0.971223
O O16 0.306598 0.567273 0.283323
O O17 0.000000 0.500000 0.500000
O O18 0.500000 0.500000 0.000000
#
# Coordination Sequence:
#
# PCOD8024570 Si02
#       8
#     2   2   2   2   2   2   2   2
#     4  10  23  43  69 100 142 177 238 292 348 417
#     4  12  26  44  74 102 141 184 237 289 358 422
#     4  11  25  45  72 102 139 188 244 288 351 427
#     4  12  26  45  71 100 143 192 235 287 359 424
#     4  11  24  46  72 102 138 190 236 294 354 426
#     4  12  27  46  67 105 142 185 237 293 357 425
#     4  12  26  46  70 102 144 184 236 295 358 420
#     4  10  24  43  69 104 133 180 237 294 347 417
#
# _framework density 22.219251
#
# number of rings (size 3 to 8) (size 9 to 14) (size 15 to 20)
#    0.000    0.750    2.500    4.125    5.250    5.000 
#    0.000    1.250    0.000    0.000    0.000    0.000 
#    0.000    0.000    0.000    0.000    0.000    0.000 
#
# Total GULP energy -198241.081227 kJ/mol
# GULP energy per Si atom -12390.067577 kJ/mol
# Density = 2.216868 g / cm^3
# Si number density = 22.219251 Si / 1000 Ang^3
#
#
#
# Elastic Constant Matrix: (Units=GPa)
#
#
# Indices 1 2 3 4 5 6 
#
# 1 106.2464 56.2453 33.1751 5.4411 1.3191 4.4031
# 2 56.2453 156.5836 49.5459 -8.3178 4.7176 -11.9432
# 3 33.1751 49.5459 106.7330 -7.1208 5.1401 0.8544
# 4 5.4411 -8.3178 -7.1208 39.3488 4.3257 4.9004
# 5 1.3191 4.7176 5.1401 4.3257 33.5219 -7.8682
# 6 4.4031 -11.9432 0.8544 4.9004 -7.8682 43.8304
#
#
#
# Elastic Compliance Matrix: (Units=1/GPa)
#
#
# Indices 1 2 3 4 5 6 
#
# 1 0.012479 -0.004107 -0.002157 -0.002774 0.000315 -0.001964
# 2 -0.004107 0.009058 -0.002827 0.001663 -0.000260 0.002703
# 3 -0.002157 -0.002827 0.011599 0.002178 -0.001897 -0.001364
# 4 -0.002774 0.001663 0.002178 0.027470 -0.004763 -0.003237
# 5 0.000315 -0.000260 -0.001897 -0.004763 0.032229 0.006253
# 6 -0.001964 0.002703 -0.001364 -0.003237 0.006253 0.025260
#
#
# Mechanical properties :
#
#
# Convention : Reuss Voigt Hill
#
# Bulk Modulus (GPa) = 66.86180 71.94396 69.40288
# Shear Modulus (GPa) = 35.39544 38.71333 37.05439
#
# Velocity S-wave (km/s) = 3.99558 4.17865 4.08814
# Velocity P-wave (km/s) = 7.17240 7.46532 7.32033
#
# Compressibility (1/GPa) = 0.01495622
#
# Stress axis : x y z
#
# Youngs Moduli (GPa) = 80.13360 110.39664 86.21187
#
# Poissons Ratio (x) = 0.45336 0.18596
# Poissons Ratio (y) = 0.32908 0.24369
# Poissons Ratio (z) = 0.17285 0.31205
#
# Static dielectric constant tensor:
#      x y z
#    x 4.103380 0.029310 0.021740 
#    y 0.029310 4.815250 -0.469080 
#    z 0.021740 -0.469080 3.912520 
# 
# 
# High freq. dielectric constant tensor:
#      x y z
#    x 1.882790 -0.001110 0.001520 
#    y -0.001110 1.887100 -0.007580 
#    z 0.001520 -0.007580 1.879260 
# 
# From -- ./inp_files/405559.got.cif
#   From: 2010.06.25/outbox.cif.g09.slc.cpg/sg2_203_cif.got.tgz:405559.got - 2010.06.27 13:26:56.
