data_PCOD8024489
_publ_section_title
;
Structure prediction by ZEFSAII (Michael W. Deem and Ramdas Pophale) SiO2 
 PCOD8024489
Probable space group: P -1
;
_chemical_formula_sum "Si O2"
_cell_formula_units_Z 14
_cell_length_a 7.923483
_cell_length_b 9.874243
_cell_length_c 10.013292
_cell_angle_alpha 85.208752
_cell_angle_beta 130.840921
_cell_angle_gamma 101.739228
_cell_volume 578.986883
_symmetry_space_group_name_H-M "P -1"
_symmetry_group_IT_number 2
_symmetry_cell_setting 'triclinic'
loop_
_space_group_symop_operation_xyz
x,y,z
-x,-y,-z
loop_
_atom_site_type_symbol
_atom_site_label
_atom_site_fract_x
_atom_site_fract_y
_atom_site_fract_z
Si Si1 0.366466 0.180446 0.141701
Si Si2 0.054680 0.113048 0.732852
Si Si3 0.515705 0.930520 0.155330
Si Si4 0.637208 0.472885 0.271940
Si Si5 0.363811 0.677371 0.241922
Si Si6 0.933284 0.389636 0.662566
Si Si7 0.653893 0.884858 0.576396
O O1 0.515286 0.326327 0.159369
O O2 0.293623 0.194317 0.255283
O O3 0.514703 0.058545 0.243180
O O4 0.157898 0.135194 0.935357
O O5 0.249030 0.126168 0.718756
O O6 0.902043 0.228246 0.619197
O O7 0.902052 0.961685 0.649714
O O8 0.316842 0.797872 0.104041
O O9 0.500000 0.000000 0.000000
O O10 0.451906 0.562638 0.209219
O O11 0.775780 0.460075 0.479993
O O12 0.801957 0.540531 0.230255
O O13 0.143719 0.603810 0.221719
O O14 0.553674 0.762578 0.432578
O O15 0.500000 0.000000 0.500000
#
# Coordination Sequence:
#
# PCOD8024489 Si02
#       7
#     2   2   2   2   2   2   2
#     4  11  23  44  67 100 142 179 227 285 344 411
#     4  11  23  42  68  99 136 183 230 282 348 402
#     4  10  23  43  68 101 139 177 228 288 342 406
#     4  11  25  44  70 100 144 181 227 285 341 415
#     4  12  23  44  73 100 140 176 234 285 340 410
#     4  11  23  42  69  99 136 184 227 277 343 405
#     4  12  22  39  71 100 133 175 234 293 334 399
#
# _framework density 24.180168999999999
#
# number of rings (size 3 to 8) (size 9 to 14) (size 15 to 20)
#    0.000    0.857    5.714    0.857    0.000    4.571 
#    0.000    0.714    0.000    0.000    0.000    0.000 
#    0.000    0.000    0.000    0.000    0.000    0.000 
#
# Total GULP energy -173469.324805 kJ/mol
# GULP energy per Si atom -12390.666058 kJ/mol
# Density = 2.412513 g / cm^3
# Si number density = 24.180169 Si / 1000 Ang^3
#
#
#
# Elastic Constant Matrix: (Units=GPa)
#
#
# Indices 1 2 3 4 5 6 
#
# 1 137.0337 59.4047 6.6776 -17.7710 -0.2779 21.8165
# 2 59.4047 119.4622 1.3513 -16.3169 1.1491 5.8832
# 3 6.6776 1.3513 39.0060 -8.7341 -15.8388 5.5290
# 4 -17.7710 -16.3169 -8.7341 29.1053 11.2054 -3.8990
# 5 -0.2779 1.1491 -15.8388 11.2054 25.4579 -8.9779
# 6 21.8165 5.8832 5.5290 -3.8990 -8.9779 53.1403
#
#
#
# Elastic Compliance Matrix: (Units=1/GPa)
#
#
# Indices 1 2 3 4 5 6 
#
# 1 0.010480 -0.004337 -0.001766 0.004513 -0.004191 -0.004015
# 2 -0.004337 0.011151 0.000458 0.004626 -0.002134 0.000477
# 3 -0.001766 0.000458 0.034761 0.001563 0.021162 0.000748
# 4 0.004513 0.004626 0.001563 0.048002 -0.021230 -0.002592
# 5 -0.004191 -0.002134 0.021162 -0.021230 0.065084 0.009193
# 6 -0.004015 0.000477 0.000748 -0.002592 0.009193 0.021699
#
#
# Mechanical properties :
#
#
# Convention : Reuss Voigt Hill
#
# Bulk Modulus (GPa) = 22.17190 47.81877 34.99534
# Shear Modulus (GPa) = 22.98857 36.74526 29.86691
#
# Velocity S-wave (km/s) = 3.08672 3.90249 3.51833
# Velocity P-wave (km/s) = 4.67901 6.33442 5.56857
#
# Compressibility (1/GPa) = 0.04510213
#
# Stress axis : x y z
#
# Youngs Moduli (GPa) = 95.42420 89.67726 28.76813
#
# Poissons Ratio (x) = 0.38890 0.05080
# Poissons Ratio (y) = 0.41382 -0.01317
# Poissons Ratio (z) = 0.16851 -0.04107
#
# Static dielectric constant tensor:
#      x y z
#    x 5.312240 -0.105660 -0.226520 
#    y -0.105660 5.059600 -0.054510 
#    z -0.226520 -0.054510 4.094010 
# 
# 
# High freq. dielectric constant tensor:
#      x y z
#    x 1.968530 0.014030 -0.015060 
#    y 0.014030 1.971730 -0.016530 
#    z -0.015060 -0.016530 1.932620 
# 
# From -- ./inp_files/159843.got.cif
#   From: 2010.06.25/outbox.cif.g09.slc.cpg/sg2_80_cif.got.tgz:159843.got - 2010.06.27 13:26:56.
