data_PCOD8024544
_publ_section_title
;
Structure prediction by ZEFSAII (Michael W. Deem and Ramdas Pophale) SiO2 
 PCOD8024544
Probable space group: P -1
;
_chemical_formula_sum "Si O2"
_cell_formula_units_Z 12
_cell_length_a 4.981835
_cell_length_b 20.398159
_cell_length_c 22.425998
_cell_angle_alpha 12.430112
_cell_angle_beta 89.397849
_cell_angle_gamma 88.501513
_cell_volume 489.172515
_symmetry_space_group_name_H-M "P -1"
_symmetry_group_IT_number 2
_symmetry_cell_setting 'triclinic'
loop_
_space_group_symop_operation_xyz
x,y,z
-x,-y,-z
loop_
_atom_site_type_symbol
_atom_site_label
_atom_site_fract_x
_atom_site_fract_y
_atom_site_fract_z
Si Si1 0.222212 0.348821 0.715887
Si Si2 0.441265 0.528788 0.291174
Si Si3 0.870316 0.904816 0.179794
Si Si4 0.936845 0.540253 0.099275
Si Si5 0.030698 0.755844 0.514317
Si Si6 0.549927 0.643201 0.809621
O O1 0.482457 0.483451 0.627197
O O2 0.302910 0.214204 0.770127
O O3 0.990211 0.622577 0.468985
O O4 0.112360 0.090297 0.988202
O O5 0.221045 0.296038 0.481545
O O6 0.708581 0.459759 0.313275
O O7 0.318784 0.876986 0.970329
O O8 0.033071 0.327404 0.343608
O O9 0.144807 0.458660 0.118194
O O10 0.641333 0.472694 0.138305
O O11 0.919725 0.892004 0.805432
O O12 0.500000 0.000000 0.500000
O O13 0.500000 0.500000 0.000000
#
# Coordination Sequence:
#
# PCOD8024544 Si02
#       6
#     2   2   2   2   2   2
#     4  10  23  43  68  98 133 174 235 313 366 411
#     4  12  25  47  68 102 133 194 246 280 360 426
#     4  10  23  43  68  98 133 174 235 313 366 411
#     4  12  26  49  66 110 147 180 231 278 339 400
#     4  12  28  43  71  96 148 194 227 284 337 422
#     4  12  24  45  80 108 139 182 227 280 337 400
#
# _framework density 24.531220000000001
#
# number of rings (size 3 to 8) (size 9 to 14) (size 15 to 20)
#    0.000    0.667    1.667    5.500    2.333    4.000 
#    0.000    5.000    0.000    0.000    0.000    0.000 
#    0.000    0.000    0.000    0.000    0.000    0.000 
#
# Total GULP energy -148872.658285 kJ/mol
# GULP energy per Si atom -12406.054857 kJ/mol
# Density = 2.447539 g / cm^3
# Si number density = 24.531220 Si / 1000 Ang^3
#
#
#
# Elastic Constant Matrix: (Units=GPa)
#
#
# Indices 1 2 3 4 5 6 
#
# 1 109.4285 29.3598 21.2773 -17.5623 -15.4009 10.4559
# 2 29.3598 76.4530 31.0725 -10.8376 -9.5952 22.1146
# 3 21.2773 31.0725 106.1929 -9.6354 -12.1648 19.8448
# 4 -17.5623 -10.8376 -9.6354 39.6901 -0.0558 -0.1418
# 5 -15.4009 -9.5952 -12.1648 -0.0558 30.3524 -21.5310
# 6 10.4559 22.1146 19.8448 -0.1418 -21.5310 54.4736
#
#
#
# Elastic Compliance Matrix: (Units=1/GPa)
#
#
# Indices 1 2 3 4 5 6 
#
# 1 0.011438 -0.003337 -0.000606 0.004017 0.005671 0.001632
# 2 -0.003337 0.017575 -0.003331 0.002490 -0.001680 -0.005939
# 3 -0.000606 -0.003331 0.011213 0.001540 0.001783 -0.001908
# 4 0.004017 0.002490 0.001540 0.028026 0.002618 -0.001235
# 5 0.005671 -0.001680 0.001783 0.002618 0.049009 0.018322
# 6 0.001632 -0.005939 -0.001908 -0.001235 0.018322 0.028389
#
#
# Mechanical properties :
#
#
# Convention : Reuss Voigt Hill
#
# Bulk Modulus (GPa) = 38.94275 50.61041 44.77658
# Shear Modulus (GPa) = 29.62814 38.92754 34.27784
#
# Velocity S-wave (km/s) = 3.47907 3.98786 3.74212
# Velocity P-wave (km/s) = 5.66108 6.47146 6.07979
#
# Compressibility (1/GPa) = 0.02567872
#
# Stress axis : x y z
#
# Youngs Moduli (GPa) = 87.42411 56.89877 89.17912
#
# Poissons Ratio (x) = 0.18988 0.05407
# Poissons Ratio (y) = 0.29175 0.29702
# Poissons Ratio (z) = 0.05300 0.18951
#
# Static dielectric constant tensor:
#      x y z
#    x 4.656580 0.077300 0.036710 
#    y 0.077300 4.510270 -0.280860 
#    z 0.036710 -0.280860 4.479850 
# 
# 
# High freq. dielectric constant tensor:
#      x y z
#    x 1.985610 0.007450 0.004340 
#    y 0.007450 1.977110 -0.012830 
#    z 0.004340 -0.012830 1.987080 
# 
# From -- ./inp_files/605120.got.cif
#   From: 2010.06.25/outbox.cif.g09.slc.cpg/sg2_303_cif.got.tgz:605120.got - 2010.06.27 13:26:56.
