data_PCOD8024764
_publ_section_title
;
Structure prediction by ZEFSAII (Michael W. Deem and Ramdas Pophale) SiO2 
 PCOD8024764
Probable space group: P -1
;
_chemical_formula_sum "Si O2"
_cell_formula_units_Z 12
_cell_length_a 8.981915
_cell_length_b 11.804169
_cell_length_c 9.088162
_cell_angle_alpha 79.445019
_cell_angle_beta 120.549976
_cell_angle_gamma 143.414686
_cell_volume 444.548284
_symmetry_space_group_name_H-M "P -1"
_symmetry_group_IT_number 2
_symmetry_cell_setting 'triclinic'
loop_
_space_group_symop_operation_xyz
x,y,z
-x,-y,-z
loop_
_atom_site_type_symbol
_atom_site_label
_atom_site_fract_x
_atom_site_fract_y
_atom_site_fract_z
Si Si1 0.262976 0.394697 0.534028
Si Si2 0.867708 0.704417 0.104861
Si Si3 0.725039 0.218737 0.877759
Si Si4 0.334597 0.215917 0.193152
Si Si5 0.300945 0.765476 0.817290
Si Si6 0.207351 0.002347 0.451558
O O1 0.500000 0.500000 0.500000
O O2 0.453727 0.549342 0.733069
O O3 0.020314 0.359792 0.374961
O O4 0.083969 0.172053 0.536336
O O5 0.937598 0.632136 0.056464
O O6 0.117119 0.843314 0.334331
O O7 0.500000 0.500000 0.000000
O O8 0.946589 0.877927 0.025484
O O9 0.569696 0.011518 0.894264
O O10 0.534591 0.177195 0.663326
O O11 0.763760 0.313976 0.025827
O O12 0.577761 0.269303 0.216527
O O13 0.225521 0.123407 0.327237
#
# Coordination Sequence:
#
# PCOD8024764 Si02
#       6
#     2   2   2   2   2   2
#     4  11  25  47  73 109 145 185 240 299 354 422
#     4  12  24  44  75 107 145 187 240 299 355 419
#     4  10  23  46  71 102 145 194 235 290 361 421
#     4  12  25  45  76 106 142 186 243 292 359 422
#     4  10  23  43  72 103 147 187 238 295 356 424
#     4  11  25  47  76 103 143 192 237 292 359 425
#
# _framework density 26.993691999999999
#
# number of rings (size 3 to 8) (size 9 to 14) (size 15 to 20)
#    0.000    1.000    3.333    2.500    2.333    2.000 
#    3.000    1.667    0.000    0.000    0.000    0.000 
#    0.000    0.000    0.000    0.000    0.000    0.000 
#
# Total GULP energy -148685.587931 kJ/mol
# GULP energy per Si atom -12390.465661 kJ/mol
# Density = 2.693225 g / cm^3
# Si number density = 26.993692 Si / 1000 Ang^3
#
#
#
# Elastic Constant Matrix: (Units=GPa)
#
#
# Indices 1 2 3 4 5 6 
#
# 1 119.0881 33.1685 48.5588 7.8338 5.4428 44.1629
# 2 33.1685 70.5577 40.7341 -21.9594 7.0879 24.3729
# 3 48.5588 40.7341 176.7796 -31.1254 0.0365 22.4603
# 4 7.8338 -21.9594 -31.1254 28.0385 0.4017 -5.8414
# 5 5.4428 7.0879 0.0365 0.4017 35.5294 2.3893
# 6 44.1629 24.3729 22.4603 -5.8414 2.3893 39.6390
#
#
#
# Elastic Compliance Matrix: (Units=1/GPa)
#
#
# Indices 1 2 3 4 5 6 
#
# 1 0.021134 -0.006592 -0.005563 -0.021291 -0.000368 -0.019456
# 2 -0.006592 0.026096 0.000278 0.021512 -0.004074 -0.005443
# 3 -0.005563 0.000278 0.008929 0.012249 0.000465 0.002745
# 4 -0.021291 0.021512 0.012249 0.075185 -0.002888 0.014807
# 5 -0.000368 -0.004074 0.000465 -0.002888 0.029015 0.000477
# 6 -0.019456 -0.005443 0.002745 0.014807 0.000477 0.050849
#
#
# Mechanical properties :
#
#
# Convention : Reuss Voigt Hill
#
# Bulk Modulus (GPa) = 30.86038 67.92758 49.39398
# Shear Modulus (GPa) = 20.34479 36.90564 28.62521
#
# Velocity S-wave (km/s) = 2.74831 3.70157 3.25997
# Velocity P-wave (km/s) = 4.63985 6.59452 5.70158
#
# Compressibility (1/GPa) = 0.03240400
#
# Stress axis : x y z
#
# Youngs Moduli (GPa) = 47.31731 38.32016 112.00001
#
# Poissons Ratio (x) = 0.25260 0.62305
# Poissons Ratio (y) = 0.31191 -0.03110
# Poissons Ratio (z) = 0.26322 -0.01064
#
# Static dielectric constant tensor:
#      x y z
#    x 4.707650 0.049380 -0.285900 
#    y 0.049380 6.133890 -0.319350 
#    z -0.285900 -0.319350 5.427870 
# 
# 
# High freq. dielectric constant tensor:
#      x y z
#    x 2.063090 0.012060 -0.017600 
#    y 0.012060 2.119310 -0.003550 
#    z -0.017600 -0.003550 2.109720 
# 
# From -- ./inp_files/187005.got.cif
#   From: 2010.06.25/outbox.cif.g09.slc.cpg/sg2_94_cif.got.tgz:187005.got - 2010.06.27 13:26:56.
