data_PCOD8024095
_publ_section_title
;
Structure prediction by ZEFSAII (Michael W. Deem and Ramdas Pophale) SiO2 
 PCOD8024095
Probable space group: P -1
;
_chemical_formula_sum "Si O2"
_cell_formula_units_Z 16
_cell_length_a 15.646861
_cell_length_b 13.484404
_cell_length_c 8.892162
_cell_angle_alpha 110.740308
_cell_angle_beta 59.263249
_cell_angle_gamma 150.166404
_cell_volume 784.576112
_symmetry_space_group_name_H-M "P -1"
_symmetry_group_IT_number 2
_symmetry_cell_setting 'triclinic'
loop_
_space_group_symop_operation_xyz
x,y,z
-x,-y,-z
loop_
_atom_site_type_symbol
_atom_site_label
_atom_site_fract_x
_atom_site_fract_y
_atom_site_fract_z
Si Si1 0.198082 0.742697 0.384865
Si Si2 0.719755 0.965915 0.997304
Si Si3 0.903051 0.609936 0.734701
Si Si4 0.966603 0.850515 0.996935
Si Si5 0.615641 0.403633 0.104250
Si Si6 0.542259 0.187137 0.303623
Si Si7 0.606612 0.270451 0.631117
Si Si8 0.824694 0.289753 0.956477
O O1 0.335606 0.782542 0.358786
O O2 0.131032 0.655492 0.230028
O O3 0.020237 0.609508 0.586040
O O4 0.316572 0.960392 0.389207
O O5 0.606939 0.893619 0.213447
O O6 0.582525 0.772197 0.905879
O O7 0.900237 0.057799 0.931696
O O8 0.799951 0.142947 0.937983
O O9 0.022032 0.822862 0.790187
O O10 0.759674 0.502063 0.664619
O O11 0.760626 0.450892 0.918014
O O12 0.738440 0.625884 0.118278
O O13 0.000000 0.000000 0.000000
O O14 0.576079 0.330534 0.269803
O O15 0.629123 0.271980 0.436261
O O16 0.632616 0.174677 0.117544
O O17 0.000000 0.500000 0.000000
#
# Coordination Sequence:
#
# PCOD8024095 Si02
#       8
#     2   2   2   2   2   2   2   2
#     4  12  22  38  59  89 138 170 204 246 302 370
#     4  11  21  41  62  91 127 168 211 254 316 370
#     4   9  22  40  59  89 125 161 209 255 306 373
#     4  10  23  42  70  93 116 156 216 274 320 370
#     4   9  22  42  62  91 125 158 214 256 307 377
#     4  12  22  36  57  88 132 169 208 244 298 370
#     4  11  23  36  60  91 132 173 204 245 304 375
#     4  12  24  34  58  91 129 174 211 247 300 372
#
# _framework density 20.393179
#
# number of rings (size 3 to 8) (size 9 to 14) (size 15 to 20)
#    0.750    0.500    2.500    4.875    3.500    0.500 
#    0.000    0.000    0.000    6.000    0.000    0.000 
#    0.000    0.000    0.000    0.000    0.000    0.000 
#
# Total GULP energy -198230.223476 kJ/mol
# GULP energy per Si atom -12389.388967 kJ/mol
# Density = 2.034676 g / cm^3
# Si number density = 20.393179 Si / 1000 Ang^3
#
#
#
# Elastic Constant Matrix: (Units=GPa)
#
#
# Indices 1 2 3 4 5 6 
#
# 1 93.5285 56.3340 29.7143 16.0196 22.3585 -6.2895
# 2 56.3340 141.9902 22.5012 11.2875 18.8711 4.3302
# 3 29.7143 22.5012 76.2987 13.5423 29.2550 8.4340
# 4 16.0196 11.2875 13.5423 26.9556 3.6222 1.0778
# 5 22.3585 18.8711 29.2550 3.6222 32.0679 2.5029
# 6 -6.2895 4.3302 8.4340 1.0778 2.5029 30.7818
#
#
#
# Elastic Compliance Matrix: (Units=1/GPa)
#
#
# Indices 1 2 3 4 5 6 
#
# 1 0.017845 -0.005470 -0.002139 -0.006533 -0.006986 0.005799
# 2 -0.005470 0.009521 0.000434 -0.000599 -0.001930 -0.002398
# 3 -0.002139 0.000434 0.022712 -0.007672 -0.018229 -0.004970
# 4 -0.006533 -0.000599 -0.007672 0.044194 0.007014 -0.001266
# 5 -0.006986 -0.001930 -0.018229 0.007014 0.053085 -0.000723
# 6 0.005799 -0.002398 -0.004970 -0.001266 -0.000723 0.035474
#
#
# Mechanical properties :
#
#
# Convention : Reuss Voigt Hill
#
# Bulk Modulus (GPa) = 27.98929 58.76848 43.37889
# Shear Modulus (GPa) = 23.91282 31.51225 27.71254
#
# Velocity S-wave (km/s) = 3.42802 3.93521 3.69034
# Velocity P-wave (km/s) = 5.42431 7.03762 6.28296
#
# Compressibility (1/GPa) = 0.03572795
#
# Stress axis : x y z
#
# Youngs Moduli (GPa) = 56.03707 105.02568 44.02880
#
# Poissons Ratio (x) = 0.57449 0.09420
# Poissons Ratio (y) = 0.30652 -0.01910
# Poissons Ratio (z) = 0.11989 -0.04556
#
# Static dielectric constant tensor:
#      x y z
#    x 3.229980 0.139590 0.213240 
#    y 0.139590 4.116170 -0.068890 
#    z 0.213240 -0.068890 3.642610 
# 
# 
# High freq. dielectric constant tensor:
#      x y z
#    x 1.752740 0.014360 0.027430 
#    y 0.014360 1.825260 -0.005140 
#    z 0.027430 -0.005140 1.778880 
# 
# From -- ./inp_files/315568.got.cif
#   From: 2010.06.25/outbox.cif.g09.slc.cpg/sg2_158_cif.got.tgz:315568.got - 2010.06.27 13:26:56.
