data_PCOD8024188
_publ_section_title
;
Structure prediction by ZEFSAII (Michael W. Deem and Ramdas Pophale) SiO2 
 PCOD8024188
Probable space group: P -1
;
_chemical_formula_sum "Si O2"
_cell_formula_units_Z 16
_cell_length_a 30.193402
_cell_length_b 9.579170
_cell_length_c 10.083548
_cell_angle_alpha 61.942215
_cell_angle_beta 147.242235
_cell_angle_gamma 142.928698
_cell_volume 750.013608
_symmetry_space_group_name_H-M "P -1"
_symmetry_group_IT_number 2
_symmetry_cell_setting 'triclinic'
loop_
_space_group_symop_operation_xyz
x,y,z
-x,-y,-z
loop_
_atom_site_type_symbol
_atom_site_label
_atom_site_fract_x
_atom_site_fract_y
_atom_site_fract_z
Si Si1 0.399199 0.685359 0.419355
Si Si2 0.430024 0.130882 0.716255
Si Si3 0.567871 0.656548 0.740766
Si Si4 0.082248 0.243289 0.203132
Si Si5 0.091283 0.617810 0.045678
Si Si6 0.081985 0.753085 0.686818
Si Si7 0.947695 0.870892 0.280515
Si Si8 0.411252 0.779576 0.708097
O O1 0.478650 0.654905 0.584916
O O2 0.382539 0.656563 0.548490
O O3 0.500000 0.000000 0.500000
O O4 0.234833 0.433797 0.049794
O O5 0.553025 0.471814 0.870878
O O6 0.265066 0.939505 0.374818
O O7 0.447654 0.028369 0.687547
O O8 0.447730 0.075018 0.928474
O O9 0.500000 0.500000 0.500000
O O10 0.741221 0.984791 0.012435
O O11 0.061828 0.388432 0.034051
O O12 0.262047 0.502169 0.545477
O O13 0.010908 0.102618 0.231934
O O14 0.000000 0.000000 0.000000
O O15 0.041847 0.651316 0.785142
O O16 0.000000 0.500000 0.000000
O O17 0.000000 0.500000 0.500000
O O18 0.022876 0.825954 0.458363
O O19 0.000000 0.000000 0.500000
#
# Coordination Sequence:
#
# PCOD8024188 Si02
#       8
#     2   2   2   2   2   2   2   2
#     4  12  27  43  72 101 145 180 237 292 350 421
#     4  10  23  42  72  97 138 180 234 286 355 416
#     4  12  24  44  73 100 138 185 232 290 354 419
#     4  11  22  42  72  95 136 181 229 285 351 408
#     4  11  25  42  68  98 140 178 227 285 345 411
#     4  12  26  45  71 103 141 181 231 289 357 413
#     4  12  26  45  72 107 138 185 240 286 345 426
#     4  10  23  45  68 102 135 185 232 291 354 416
#
# _framework density 21.332946
#
# number of rings (size 3 to 8) (size 9 to 14) (size 15 to 20)
#    0.000    0.750    2.500    4.500    5.250    5.500 
#    0.000    0.000    0.000    0.000    0.000    0.000 
#    0.000    0.000    0.000    0.000    0.000    0.000 
#
# Total GULP energy -198418.718602 kJ/mol
# GULP energy per Si atom -12401.169913 kJ/mol
# Density = 2.128439 g / cm^3
# Si number density = 21.332946 Si / 1000 Ang^3
#
#
#
# Elastic Constant Matrix: (Units=GPa)
#
#
# Indices 1 2 3 4 5 6 
#
# 1 122.4405 35.3671 51.2436 8.8633 -5.7320 -3.4687
# 2 35.3671 116.3934 38.1509 9.9974 2.1333 2.2379
# 3 51.2436 38.1509 119.8724 13.0376 -4.8873 -3.3289
# 4 8.8633 9.9974 13.0376 37.5457 -5.2466 -0.8919
# 5 -5.7320 2.1333 -4.8873 -5.2466 37.7750 -0.6188
# 6 -3.4687 2.2379 -3.3289 -0.8919 -0.6188 39.6649
#
#
#
# Elastic Compliance Matrix: (Units=1/GPa)
#
#
# Indices 1 2 3 4 5 6 
#
# 1 0.010385 -0.001935 -0.003706 -0.000472 0.001152 0.000714
# 2 -0.001935 0.010120 -0.002298 -0.001660 -0.001409 -0.000992
# 3 -0.003706 -0.002298 0.010944 -0.002201 0.000689 0.000685
# 4 -0.000472 -0.001660 -0.002201 0.028483 0.003703 0.000566
# 5 0.001152 -0.001409 0.000689 0.003703 0.027343 0.000748
# 6 0.000714 -0.000992 0.000685 0.000566 0.000748 0.025412
#
#
# Mechanical properties :
#
#
# Convention : Reuss Voigt Hill
#
# Bulk Modulus (GPa) = 64.21781 67.58107 65.89944
# Shear Modulus (GPa) = 37.38161 38.59343 37.98752
#
# Velocity S-wave (km/s) = 4.19058 4.25797 4.22441
# Velocity P-wave (km/s) = 7.32002 7.47808 7.39947
#
# Compressibility (1/GPa) = 0.01557200
#
# Stress axis : x y z
#
# Youngs Moduli (GPa) = 96.28896 98.81016 91.37302
#
# Poissons Ratio (x) = 0.19124 0.33859
# Poissons Ratio (y) = 0.18636 0.20998
# Poissons Ratio (z) = 0.35680 0.22707
#
# Static dielectric constant tensor:
#      x y z
#    x 4.009760 -0.087790 -0.035470 
#    y -0.087790 5.414680 -0.478300 
#    z -0.035470 -0.478300 4.190520 
# 
# 
# High freq. dielectric constant tensor:
#      x y z
#    x 1.836250 -0.005680 -0.003210 
#    y -0.005680 1.853400 0.003970 
#    z -0.003210 0.003970 1.847320 
# 
# From -- ./inp_files/356602.got.cif
#   From: 2010.06.25/outbox.cif.g09.slc.cpg/sg2_179_cif.got.tgz:356602.got - 2010.06.27 13:26:56.
