data_PCOD8024740
_publ_section_title
;
Structure prediction by ZEFSAII (Michael W. Deem and Ramdas Pophale) SiO2 
 PCOD8024740
Probable space group: P -1
;
_chemical_formula_sum "Si O2"
_cell_formula_units_Z 14
_cell_length_a 8.790019
_cell_length_b 15.540846
_cell_length_c 6.715319
_cell_angle_alpha 45.326227
_cell_angle_beta 88.742238
_cell_angle_gamma 90.306479
_cell_volume 651.905408
_symmetry_space_group_name_H-M "P -1"
_symmetry_group_IT_number 2
_symmetry_cell_setting 'triclinic'
loop_
_space_group_symop_operation_xyz
x,y,z
-x,-y,-z
loop_
_atom_site_type_symbol
_atom_site_label
_atom_site_fract_x
_atom_site_fract_y
_atom_site_fract_z
Si Si1 0.399867 0.996567 0.213305
Si Si2 0.091040 0.889736 0.257720
Si Si3 0.111132 0.327333 0.291813
Si Si4 0.550181 0.641267 0.755720
Si Si5 0.308014 0.717841 0.322212
Si Si6 0.087155 0.513332 0.677431
Si Si7 0.495085 0.190731 0.170327
O O1 0.389226 0.130467 0.096161
O O2 0.227493 0.946363 0.291916
O O3 0.485432 0.911033 0.499931
O O4 0.500000 0.000000 0.000000
O O5 0.171055 0.807311 0.225537
O O6 0.963925 0.807182 0.511551
O O7 0.000000 0.000000 0.000000
O O8 0.279464 0.335268 0.373687
O O9 0.005626 0.407485 0.297378
O O10 0.117792 0.381921 0.980469
O O11 0.435669 0.717410 0.495539
O O12 0.562409 0.693382 0.896456
O O13 0.500000 0.500000 0.000000
O O14 0.249422 0.579771 0.527132
O O15 0.357786 0.761266 0.032015
O O16 0.000000 0.500000 0.500000
#
# Coordination Sequence:
#
# PCOD8024740 Si02
#       7
#     2   2   2   2   2   2   2
#     4  11  23  47  71  97 135 185 236 285 346 414
#     4  11  25  44  72  96 141 183 222 293 355 406
#     4  10  25  44  65 102 139 183 226 286 347 408
#     4  12  25  45  71 101 143 185 240 287 342 414
#     4  11  24  45  70 102 136 184 233 291 350 416
#     4  10  23  43  71  96 142 181 226 284 355 416
#     4  11  25  40  76  99 137 181 239 286 348 405
#
# _framework density 21.475505999999999
#
# number of rings (size 3 to 8) (size 9 to 14) (size 15 to 20)
#    0.000    1.143    4.286    0.000    8.000    1.714 
#    2.571    1.429    0.000    0.000    0.000    0.000 
#    0.000    0.000    0.000    0.000    0.000    0.000 
#
# Total GULP energy -173436.235122 kJ/mol
# GULP energy per Si atom -12388.302509 kJ/mol
# Density = 2.142663 g / cm^3
# Si number density = 21.475506 Si / 1000 Ang^3
#
#
#
# Elastic Constant Matrix: (Units=GPa)
#
#
# Indices 1 2 3 4 5 6 
#
# 1 108.6468 19.8536 44.7061 -20.4343 -16.2868 32.2929
# 2 19.8536 113.4929 49.5059 -14.5910 -11.3769 29.3912
# 3 44.7061 49.5059 142.8459 -11.1215 -18.7561 8.1524
# 4 -20.4343 -14.5910 -11.1215 35.4163 5.7562 0.3929
# 5 -16.2868 -11.3769 -18.7561 5.7562 41.3433 -9.6409
# 6 32.2929 29.3912 8.1524 0.3929 -9.6409 38.3007
#
#
#
# Elastic Compliance Matrix: (Units=1/GPa)
#
#
# Indices 1 2 3 4 5 6 
#
# 1 0.018074 0.005475 -0.005612 0.011080 0.000273 -0.018291
# 2 0.005475 0.015229 -0.005608 0.007990 -0.000905 -0.015418
# 3 -0.005612 -0.005608 0.010458 -0.002864 0.003170 0.007636
# 4 0.011080 0.007990 -0.002864 0.037815 -0.003779 -0.016203
# 5 0.000273 -0.000905 0.003170 -0.003779 0.027590 0.006773
# 6 -0.018291 -0.015418 0.007636 -0.016203 0.006773 0.053608
#
#
# Mechanical properties :
#
#
# Convention : Reuss Voigt Hill
#
# Bulk Modulus (GPa) = 30.98758 65.90188 48.44473
# Shear Modulus (GPa) = 27.02392 39.74003 33.38198
#
# Velocity S-wave (km/s) = 3.55119 4.30639 3.94689
# Velocity P-wave (km/s) = 5.59242 7.44851 6.58618
#
# Compressibility (1/GPa) = 0.03227100
#
# Stress axis : x y z
#
# Youngs Moduli (GPa) = 55.32757 65.66380 95.62237
#
# Poissons Ratio (x) = -0.35948 0.53659
# Poissons Ratio (y) = -0.30290 0.53626
# Poissons Ratio (z) = 0.31048 0.36825
#
# Static dielectric constant tensor:
#      x y z
#    x 3.845590 0.191120 -0.280120 
#    y 0.191120 4.198070 -0.210550 
#    z -0.280120 -0.210550 4.123250 
# 
# 
# High freq. dielectric constant tensor:
#      x y z
#    x 1.841180 0.014070 -0.014720 
#    y 0.014070 1.845760 -0.016110 
#    z -0.014720 -0.016110 1.851360 
# 
# From -- ./inp_files/36748.got.cif
#   From: 2010.06.25/outbox.cif.g09.slc.cpg/sg2_19_cif.got.tgz:36748.got - 2010.06.27 13:26:56.
