data_PCOD8024656
_publ_section_title
;
Structure prediction by ZEFSAII (Michael W. Deem and Ramdas Pophale) SiO2 
 PCOD8024656
Probable space group: P -1
;
_chemical_formula_sum "Si O2"
_cell_formula_units_Z 14
_cell_length_a 10.814221
_cell_length_b 5.518775
_cell_length_c 20.714689
_cell_angle_alpha 111.716565
_cell_angle_beta 32.397442
_cell_angle_gamma 116.229579
_cell_volume 594.166202
_symmetry_space_group_name_H-M "P -1"
_symmetry_group_IT_number 2
_symmetry_cell_setting 'triclinic'
loop_
_space_group_symop_operation_xyz
x,y,z
-x,-y,-z
loop_
_atom_site_type_symbol
_atom_site_label
_atom_site_fract_x
_atom_site_fract_y
_atom_site_fract_z
Si Si1 0.730921 0.830203 0.709947
Si Si2 0.609823 0.178010 0.030856
Si Si3 0.999478 0.057549 0.930877
Si Si4 0.907305 0.669320 0.372218
Si Si5 0.950049 0.456984 0.195918
Si Si6 0.591253 0.565867 0.273438
Si Si7 0.215942 0.791949 0.518684
O O1 0.603146 0.747778 0.828019
O O2 0.560234 0.727199 0.714063
O O3 0.948515 0.684628 0.597238
O O4 0.846554 0.154950 0.685097
O O5 0.810155 0.432665 0.941309
O O6 0.500000 0.000000 0.000000
O O7 0.736977 0.034391 0.015101
O O8 0.109530 0.862580 0.818286
O O9 0.195745 0.342754 0.863787
O O10 0.000000 0.000000 0.000000
O O11 0.763915 0.413446 0.451914
O O12 0.996255 0.549239 0.257528
O O13 0.747836 0.886457 0.447779
O O14 0.718666 0.548864 0.283536
O O15 0.419307 0.767307 0.375828
#
# Coordination Sequence:
#
# PCOD8024656 Si02
#       7
#     2   2   2   2   2   2   2
#     4  10  23  43  70 103 141 185 238 291 354 425
#     4  11  22  44  68 103 139 186 237 296 360 430
#     4  11  26  44  70 106 142 188 238 299 364 432
#     4  10  25  44  71 105 140 184 239 296 350 425
#     4  11  25  42  71 101 141 185 240 292 365 422
#     4  11  25  45  70 100 142 188 233 295 359 433
#     4  10  25  46  72 105 142 186 244 290 361 420
#
# _framework density 23.562429999999999
#
# number of rings (size 3 to 8) (size 9 to 14) (size 15 to 20)
#    0.857    0.571    1.429    2.143    8.000    8.000 
#    0.000    0.000    0.000    0.000    0.000    0.000 
#    0.000    0.000    0.000    0.000    0.000    0.000 
#
# Total GULP energy -173433.136847 kJ/mol
# GULP energy per Si atom -12388.081203 kJ/mol
# Density = 2.350880 g / cm^3
# Si number density = 23.562430 Si / 1000 Ang^3
#
#
#
# Elastic Constant Matrix: (Units=GPa)
#
#
# Indices 1 2 3 4 5 6 
#
# 1 111.0219 31.8715 29.9140 -7.0161 -6.1860 7.5126
# 2 31.8715 80.2535 -2.0705 4.9984 3.4170 -5.6984
# 3 29.9140 -2.0705 90.4195 -0.8790 -14.5617 4.0633
# 4 -7.0161 4.9984 -0.8790 24.1034 0.3533 10.0833
# 5 -6.1860 3.4170 -14.5617 0.3533 33.5441 0.6024
# 6 7.5126 -5.6984 4.0633 10.0833 0.6024 33.2766
#
#
#
# Elastic Compliance Matrix: (Units=1/GPa)
#
#
# Indices 1 2 3 4 5 6 
#
# 1 0.012663 -0.006025 -0.003792 0.007125 0.001329 -0.005610
# 2 -0.006025 0.015894 0.001678 -0.007554 -0.002034 0.006203
# 3 -0.003792 0.001678 0.013136 -0.000932 0.004847 -0.000266
# 4 0.007125 -0.007554 -0.000932 0.052964 0.001460 -0.018864
# 5 0.001329 -0.002034 0.004847 0.001460 0.032393 -0.002269
# 6 -0.005610 0.006203 -0.000266 -0.018864 -0.002269 0.038169
#
#
# Mechanical properties :
#
#
# Convention : Reuss Voigt Hill
#
# Bulk Modulus (GPa) = 39.34900 44.56944 41.95922
# Shear Modulus (GPa) = 26.32004 32.98348 29.65176
#
# Velocity S-wave (km/s) = 3.34583 3.74549 3.55129
# Velocity P-wave (km/s) = 5.62692 6.13690 5.88743
#
# Compressibility (1/GPa) = 0.02541361
#
# Stress axis : x y z
#
# Youngs Moduli (GPa) = 78.97328 62.91630 76.12726
#
# Poissons Ratio (x) = 0.37909 0.28866
# Poissons Ratio (y) = 0.47583 -0.12771
# Poissons Ratio (z) = 0.29945 -0.10555
#
# Static dielectric constant tensor:
#      x y z
#    x 4.031090 0.124160 -0.146940 
#    y 0.124160 4.143070 -0.021470 
#    z -0.146940 -0.021470 4.186930 
# 
# 
# High freq. dielectric constant tensor:
#      x y z
#    x 1.922040 0.014850 -0.006740 
#    y 0.014850 1.919610 -0.002120 
#    z -0.006740 -0.002120 1.944370 
# 
# From -- ./inp_files/553582.got.cif
#   From: 2010.06.25/outbox.cif.g09.slc.cpg/sg2_277_cif.got.tgz:553582.got - 2010.06.27 13:26:56.
