data_PCOD8024300
_publ_section_title
;
Structure prediction by ZEFSAII (Michael W. Deem and Ramdas Pophale) SiO2 
 PCOD8024300
Probable space group: P -1
;
_chemical_formula_sum "Si O2"
_cell_formula_units_Z 16
_cell_length_a 6.704504
_cell_length_b 15.373572
_cell_length_c 11.280732
_cell_angle_alpha 125.378219
_cell_angle_beta 62.429877
_cell_angle_gamma 84.338806
_cell_volume 724.239962
_symmetry_space_group_name_H-M "P -1"
_symmetry_group_IT_number 2
_symmetry_cell_setting 'triclinic'
loop_
_space_group_symop_operation_xyz
x,y,z
-x,-y,-z
loop_
_atom_site_type_symbol
_atom_site_label
_atom_site_fract_x
_atom_site_fract_y
_atom_site_fract_z
Si Si1 0.047055 0.208134 0.425832
Si Si2 0.208006 0.130190 0.786142
Si Si3 0.379155 0.530675 0.188147
Si Si4 0.429285 0.238524 0.192097
Si Si5 0.049782 0.002057 0.125053
Si Si6 0.953615 0.565161 0.692579
Si Si7 0.220476 0.035251 0.460252
Si Si8 0.273631 0.620760 0.809205
O O1 0.239584 0.256101 0.367762
O O2 0.195815 0.108616 0.406873
O O3 0.771744 0.321565 0.634921
O O4 0.989509 0.139245 0.280702
O O5 0.196260 0.125367 0.643945
O O6 0.140088 0.029733 0.776099
O O7 0.499366 0.091196 0.716036
O O8 0.011194 0.269339 0.988319
O O9 0.170100 0.485773 0.218916
O O10 0.594058 0.466215 0.181854
O O11 0.500000 0.500000 0.000000
O O12 0.253895 0.288878 0.160565
O O13 0.556162 0.324313 0.248559
O O14 0.649648 0.096274 0.001596
O O15 0.000000 0.000000 0.000000
O O16 0.000000 0.500000 0.500000
O O17 0.220957 0.548029 0.660881
O O18 0.000000 0.000000 0.500000
#
# Coordination Sequence:
#
# PCOD8024300 Si02
#       8
#     2   2   2   2   2   2   2   2
#     4  12  24  43  70 100 145 183 230 299 352 424
#     4  10  23  43  65 100 131 179 232 279 347 427
#     4  11  26  48  70 106 144 187 243 292 360 425
#     4  10  24  42  68 102 137 181 233 295 358 421
#     4  11  24  40  66 106 138 181 229 292 363 419
#     4  11  24  47  71 102 134 189 244 292 355 418
#     4  11  23  43  67  95 138 182 228 277 354 417
#     4  10  25  44  74  98 141 184 235 297 353 414
#
# _framework density 22.092126
#
# number of rings (size 3 to 8) (size 9 to 14) (size 15 to 20)
#    0.000    1.250    2.500    1.875    5.250    5.500 
#    2.250    0.000    0.000    0.000    0.000    0.000 
#    0.000    0.000    0.000    0.000    0.000    0.000 
#
# Total GULP energy -198422.190427 kJ/mol
# GULP energy per Si atom -12401.386902 kJ/mol
# Density = 2.204184 g / cm^3
# Si number density = 22.092126 Si / 1000 Ang^3
#
#
#
# Elastic Constant Matrix: (Units=GPa)
#
#
# Indices 1 2 3 4 5 6 
#
# 1 154.1795 54.1288 56.9390 -0.8644 1.3856 -6.1149
# 2 54.1288 105.1236 43.8271 -13.4823 9.7881 -2.8960
# 3 56.9390 43.8271 131.0705 1.0692 0.2266 -2.2438
# 4 -0.8644 -13.4823 1.0692 38.2425 -5.0009 -8.9594
# 5 1.3856 9.7881 0.2266 -5.0009 38.2479 -6.7508
# 6 -6.1149 -2.8960 -2.2438 -8.9594 -6.7508 31.8504
#
#
#
# Elastic Compliance Matrix: (Units=1/GPa)
#
#
# Indices 1 2 3 4 5 6 
#
# 1 0.008713 -0.003523 -0.002584 -0.000608 0.000725 0.001153
# 2 -0.003523 0.013428 -0.002974 0.004677 -0.002481 0.001125
# 3 -0.002584 -0.002974 0.009751 -0.001390 0.000553 -0.000353
# 4 -0.000608 0.004677 -0.001390 0.030724 0.004585 0.009825
# 5 0.000725 -0.002481 0.000553 0.004585 0.028641 0.007313
# 6 0.001153 0.001125 -0.000353 0.009825 0.007313 0.036009
#
#
# Mechanical properties :
#
#
# Convention : Reuss Voigt Hill
#
# Bulk Modulus (GPa) = 72.83165 77.79593 75.31379
# Shear Modulus (GPa) = 33.33243 37.36674 35.34959
#
# Velocity S-wave (km/s) = 3.88853 4.11713 4.00446
# Velocity P-wave (km/s) = 7.29381 7.60867 7.45290
#
# Compressibility (1/GPa) = 0.01373029
#
# Stress axis : x y z
#
# Youngs Moduli (GPa) = 114.77593 74.46904 102.55669
#
# Poissons Ratio (x) = 0.26234 0.26496
# Poissons Ratio (y) = 0.40433 0.30505
# Poissons Ratio (z) = 0.29652 0.22150
#
# Static dielectric constant tensor:
#      x y z
#    x 4.170520 -0.118190 -0.230590 
#    y -0.118190 3.834960 -0.224870 
#    z -0.230590 -0.224870 3.806370 
# 
# 
# High freq. dielectric constant tensor:
#      x y z
#    x 1.874560 -0.007280 -0.012010 
#    y -0.007280 1.873710 -0.000820 
#    z -0.012010 -0.000820 1.874160 
# 
# From -- ./inp_files/368034.got.cif
#   From: 2010.06.25/outbox.cif.g09.slc.cpg/sg2_185_cif.got.tgz:368034.got - 2010.06.27 13:26:56.
