data_PCOD8024583
_publ_section_title
;
Structure prediction by ZEFSAII (Michael W. Deem and Ramdas Pophale) SiO2 
 PCOD8024583
Probable space group: P -1
;
_chemical_formula_sum "Si O2"
_cell_formula_units_Z 16
_cell_length_a 12.213769
_cell_length_b 13.751671
_cell_length_c 9.216539
_cell_angle_alpha 107.948403
_cell_angle_beta 56.568190
_cell_angle_gamma 61.018755
_cell_volume 696.105986
_symmetry_space_group_name_H-M "P -1"
_symmetry_group_IT_number 2
_symmetry_cell_setting 'triclinic'
loop_
_space_group_symop_operation_xyz
x,y,z
-x,-y,-z
loop_
_atom_site_type_symbol
_atom_site_label
_atom_site_fract_x
_atom_site_fract_y
_atom_site_fract_z
Si Si1 0.881090 0.637239 0.333608
Si Si2 0.932074 0.906512 0.138498
Si Si3 0.439863 0.447029 0.126176
Si Si4 0.374153 0.929289 0.824024
Si Si5 0.907982 0.785492 0.610538
Si Si6 0.117277 0.575896 0.868286
Si Si7 0.802034 0.050507 0.616503
Si Si8 0.417044 0.684476 0.731837
O O1 0.622828 0.809319 0.530298
O O2 0.866119 0.701998 0.529589
O O3 0.937124 0.479955 0.233522
O O4 0.079328 0.560044 0.053168
O O5 0.764180 0.038690 0.189026
O O6 0.824531 0.017373 0.414625
O O7 0.933893 0.782628 0.075494
O O8 0.186346 0.789883 0.873132
O O9 0.525065 0.419193 0.214361
O O10 0.165465 0.618135 0.405147
O O11 0.500000 0.500000 0.000000
O O12 0.553716 0.265471 0.913484
O O13 0.396220 0.816195 0.863044
O O14 0.249553 0.101271 0.079047
O O15 0.841124 0.917693 0.607370
O O16 0.376999 0.453661 0.601452
O O17 0.000000 0.000000 0.500000
#
# Coordination Sequence:
#
# PCOD8024583 Si02
#       8
#     2   2   2   2   2   2   2   2
#     4  10  24  47  70 100 146 195 242 299 349 424
#     4  12  23  44  71 104 144 193 231 302 369 420
#     4  12  25  42  75 108 145 189 232 293 371 434
#     4  11  25  45  72 104 147 191 243 294 360 424
#     4  12  23  47  73 103 145 194 238 296 362 419
#     4  10  23  43  69 101 141 183 247 288 357 419
#     4  12  23  45  70 106 151 182 239 292 356 444
#     4  11  23  44  69 107 149 179 235 307 354 433
#
# _framework density 22.985004
#
# number of rings (size 3 to 8) (size 9 to 14) (size 15 to 20)
#    0.000    0.750    5.000    1.875    0.000    3.500 
#    4.500    3.125    0.000    0.000    0.000    0.000 
#    0.000    0.000    0.000    0.000    0.000    0.000 
#
# Total GULP energy -198320.368819 kJ/mol
# GULP energy per Si atom -12395.023051 kJ/mol
# Density = 2.293269 g / cm^3
# Si number density = 22.985004 Si / 1000 Ang^3
#
#
#
# Elastic Constant Matrix: (Units=GPa)
#
#
# Indices 1 2 3 4 5 6 
#
# 1 105.0432 10.3936 46.9076 -4.9715 20.4268 -15.9816
# 2 10.3936 40.7131 35.6745 3.7731 4.4840 -11.8038
# 3 46.9076 35.6745 138.0658 1.0676 9.2345 -7.4630
# 4 -4.9715 3.7731 1.0676 34.8608 6.1639 7.7158
# 5 20.4268 4.4840 9.2345 6.1639 49.1746 9.4256
# 6 -15.9816 -11.8038 -7.4630 7.7158 9.4256 37.4455
#
#
#
# Elastic Compliance Matrix: (Units=1/GPa)
#
#
# Indices 1 2 3 4 5 6 
#
# 1 0.013799 0.003399 -0.004722 0.001288 -0.006745 0.007452
# 2 0.003399 0.037117 -0.009642 -0.005373 -0.004914 0.013574
# 3 -0.004722 -0.009642 0.011068 0.000525 0.001327 -0.003291
# 4 0.001288 -0.005373 0.000525 0.031435 -0.002777 -0.006818
# 5 -0.006745 -0.004914 0.001327 -0.002777 0.025608 -0.010037
# 6 0.007452 0.013574 -0.003291 -0.006818 -0.010037 0.037440
#
#
# Mechanical properties :
#
#
# Convention : Reuss Voigt Hill
#
# Bulk Modulus (GPa) = 24.96598 52.19707 38.58152
# Shear Modulus (GPa) = 26.07591 37.01925 31.54758
#
# Velocity S-wave (km/s) = 3.37185 4.01756 3.70878
# Velocity P-wave (km/s) = 5.10339 6.65429 5.92976
#
# Compressibility (1/GPa) = 0.04005451
#
# Stress axis : x y z
#
# Youngs Moduli (GPa) = 72.47040 26.94162 90.35119
#
# Poissons Ratio (x) = -0.09159 0.42668
# Poissons Ratio (y) = -0.24636 0.87114
# Poissons Ratio (z) = 0.34224 0.25976
#
# Static dielectric constant tensor:
#      x y z
#    x 4.610550 0.130350 -0.135150 
#    y 0.130350 4.268610 0.253470 
#    z -0.135150 0.253470 4.558310 
# 
# 
# High freq. dielectric constant tensor:
#      x y z
#    x 1.902510 0.013350 0.011600 
#    y 0.013350 1.898380 0.009930 
#    z 0.011600 0.009930 1.924680 
# 
# From -- ./inp_files/273619.got.cif
#   From: 2010.06.25/outbox.cif.g09.slc.cpg/sg2_137_cif.got.tgz:273619.got - 2010.06.27 13:26:56.
