data_PCOD8024124
_publ_section_title
;
Structure prediction by ZEFSAII (Michael W. Deem and Ramdas Pophale) SiO2 
 PCOD8024124
Probable space group: P -1
;
_chemical_formula_sum "Si O2"
_cell_formula_units_Z 14
_cell_length_a 11.093841
_cell_length_b 9.490582
_cell_length_c 16.570086
_cell_angle_alpha 48.667619
_cell_angle_beta 148.522495
_cell_angle_gamma 111.366599
_cell_volume 589.486032
_symmetry_space_group_name_H-M "P -1"
_symmetry_group_IT_number 2
_symmetry_cell_setting 'triclinic'
loop_
_space_group_symop_operation_xyz
x,y,z
-x,-y,-z
loop_
_atom_site_type_symbol
_atom_site_label
_atom_site_fract_x
_atom_site_fract_y
_atom_site_fract_z
Si Si1 0.015595 0.543318 0.399422
Si Si2 0.769987 0.287383 0.756914
Si Si3 0.611259 0.392416 0.797775
Si Si4 0.853090 0.978880 0.195455
Si Si5 0.341146 0.078691 0.159020
Si Si6 0.153027 0.103775 0.593600
Si Si7 0.465608 0.838988 0.599623
O O1 0.308275 0.488899 0.559257
O O2 0.962114 0.371838 0.382855
O O3 0.000000 0.500000 0.500000
O O4 0.817325 0.807503 0.181586
O O5 0.500000 0.500000 0.500000
O O6 0.809568 0.272008 0.882327
O O7 0.732894 0.091100 0.778877
O O8 0.044755 0.270084 0.884037
O O9 0.654039 0.589665 0.774245
O O10 0.672647 0.223450 0.968933
O O11 0.765154 0.979576 0.236998
O O12 0.160330 0.907138 0.398680
O O13 0.455896 0.160066 0.263638
O O14 0.561036 0.971271 0.255693
O O15 0.000000 0.000000 0.500000
O O16 0.500000 0.000000 0.500000
#
# Coordination Sequence:
#
# PCOD8024124 Si02
#       7
#     2   2   2   2   2   2   2
#     4   9  21  41  67  97 134 181 228 275 337 417
#     4  11  25  46  68  96 135 183 231 286 343 404
#     4  11  23  44  68 100 131 183 235 279 343 408
#     4  10  23  42  71 100 139 181 228 282 341 412
#     4  11  24  44  68 102 137 175 234 281 345 414
#     4  11  21  45  72 102 143 181 224 287 351 410
#     4  11  23  42  70 102 138 180 229 285 342 413
#
# _framework density 23.749500999999999
#
# number of rings (size 3 to 8) (size 9 to 14) (size 15 to 20)
#    0.000    1.429    2.857    1.714    0.000    9.143 
#    2.571    0.714    0.000    0.000    0.000    0.000 
#    0.000    0.000    0.000    0.000    0.000    0.000 
#
# Total GULP energy -173473.650829 kJ/mol
# GULP energy per Si atom -12390.975059 kJ/mol
# Density = 2.369545 g / cm^3
# Si number density = 23.749501 Si / 1000 Ang^3
#
#
#
# Elastic Constant Matrix: (Units=GPa)
#
#
# Indices 1 2 3 4 5 6 
#
# 1 95.6015 33.6049 17.9221 -7.6803 18.5536 -1.2049
# 2 33.6049 179.2129 41.7271 -33.4781 -4.3050 -8.0014
# 3 17.9221 41.7271 101.5193 -19.0601 -3.6138 3.7125
# 4 -7.6803 -33.4781 -19.0601 35.7258 9.5180 0.2421
# 5 18.5536 -4.3050 -3.6138 9.5180 36.1622 -0.4101
# 6 -1.2049 -8.0014 3.7125 0.2421 -0.4101 36.4329
#
#
#
# Elastic Compliance Matrix: (Units=1/GPa)
#
#
# Indices 1 2 3 4 5 6 
#
# 1 0.013055 -0.001868 -0.001367 0.002372 -0.007681 0.000058
# 2 -0.001868 0.007463 -0.001743 0.005591 0.000221 0.001720
# 3 -0.001367 -0.001743 0.011669 0.004164 0.000545 -0.001639
# 4 0.002372 0.005591 0.004164 0.038708 -0.010318 0.000509
# 5 -0.007681 0.000221 0.000545 -0.010318 0.034393 0.000195
# 6 0.000058 0.001720 -0.001639 0.000509 0.000195 0.027993
#
#
# Mechanical properties :
#
#
# Convention : Reuss Voigt Hill
#
# Bulk Modulus (GPa) = 44.98299 62.53799 53.76049
# Shear Modulus (GPa) = 33.19022 40.53615 36.86318
#
# Velocity S-wave (km/s) = 3.74239 4.13585 3.94403
# Velocity P-wave (km/s) = 6.13642 7.01402 6.58985
#
# Compressibility (1/GPa) = 0.02223062
#
# Stress axis : x y z
#
# Youngs Moduli (GPa) = 76.59846 134.00015 85.69568
#
# Poissons Ratio (x) = 0.25038 0.11714
# Poissons Ratio (y) = 0.14312 0.14935
# Poissons Ratio (z) = 0.10470 0.23354
#
# Static dielectric constant tensor:
#      x y z
#    x 5.528440 0.851860 -0.145900 
#    y 0.851860 6.004290 -1.352110 
#    z -0.145900 -1.352110 5.224940 
# 
# 
# High freq. dielectric constant tensor:
#      x y z
#    x 1.955730 -0.002760 0.019680 
#    y -0.002760 1.950540 -0.016350 
#    z 0.019680 -0.016350 1.929540 
# 
# From -- ./inp_files/365142.got.cif
#   From: 2010.06.25/outbox.cif.g09.slc.cpg/sg2_183_cif.got.tgz:365142.got - 2010.06.27 13:26:56.
