data_PCOD8024431
_publ_section_title
;
Structure prediction by ZEFSAII (Michael W. Deem and Ramdas Pophale) SiO2 
 PCOD8024431
Probable space group: P -1
;
_chemical_formula_sum "Si O2"
_cell_formula_units_Z 16
_cell_length_a 12.908609
_cell_length_b 5.273488
_cell_length_c 11.752708
_cell_angle_alpha 54.747786
_cell_angle_beta 92.996302
_cell_angle_gamma 104.596675
_cell_volume 627.835602
_symmetry_space_group_name_H-M "P -1"
_symmetry_group_IT_number 2
_symmetry_cell_setting 'triclinic'
loop_
_space_group_symop_operation_xyz
x,y,z
-x,-y,-z
loop_
_atom_site_type_symbol
_atom_site_label
_atom_site_fract_x
_atom_site_fract_y
_atom_site_fract_z
Si Si1 0.176430 0.060479 0.000952
Si Si2 0.496214 0.835255 0.266711
Si Si3 0.398838 0.666134 0.532116
Si Si4 0.035332 0.768438 0.649258
Si Si5 0.713313 0.445701 0.799471
Si Si6 0.379327 0.527797 0.975226
Si Si7 0.267494 0.094228 0.520063
Si Si8 0.005463 0.032722 0.818479
O O1 0.190474 0.716190 0.130443
O O2 0.296459 0.309511 0.936304
O O3 0.120422 0.037642 0.880376
O O4 0.094534 0.162354 0.058108
O O5 0.470019 0.901740 0.379352
O O6 0.521131 0.486699 0.349775
O O7 0.390583 0.820344 0.188743
O O8 0.601957 0.101069 0.158447
O O9 0.313106 0.377508 0.538883
O O10 0.347645 0.876133 0.557319
O O11 0.994575 0.395439 0.705815
O O12 0.164152 0.860100 0.632439
O O13 0.993035 0.831522 0.754347
O O14 0.000000 0.000000 0.500000
O O15 0.759335 0.748333 0.640200
O O16 0.678494 0.571796 0.882519
O O17 0.500000 0.500000 0.000000
#
# Coordination Sequence:
#
# PCOD8024431 Si02
#       8
#     2   2   2   2   2   2   2   2
#     4  11  28  48  76 107 156 196 250 315 375 456
#     4  10  23  43  67 107 148 199 251 305 372 450
#     4  10  24  45  69 102 152 193 243 309 372 446
#     4  12  27  50  79 111 146 189 258 315 374 460
#     4  11  25  44  70 106 152 198 247 306 380 444
#     4  12  25  43  72 109 146 200 252 306 367 451
#     4  11  25  44  73 106 142 198 245 308 382 436
#     4  11  29  51  78 115 147 199 248 315 388 435
#
# _framework density 25.484380000000002
#
# number of rings (size 3 to 8) (size 9 to 14) (size 15 to 20)
#    0.000    1.000    1.250    3.000    8.750    7.500 
#    0.000    0.000    0.000    0.000    0.000    0.000 
#    0.000    0.000    0.000    0.000    0.000    0.000 
#
# Total GULP energy -198410.680716 kJ/mol
# GULP energy per Si atom -12400.667545 kJ/mol
# Density = 2.542638 g / cm^3
# Si number density = 25.484380 Si / 1000 Ang^3
#
#
#
# Elastic Constant Matrix: (Units=GPa)
#
#
# Indices 1 2 3 4 5 6 
#
# 1 99.2451 28.5543 11.1044 4.8324 22.2996 1.5122
# 2 28.5543 87.8573 5.6499 -4.3533 -3.1408 0.1187
# 3 11.1044 5.6499 60.2505 2.5474 14.0743 -0.0096
# 4 4.8324 -4.3533 2.5474 29.9110 -0.2605 -5.2535
# 5 22.2996 -3.1408 14.0743 -0.2605 52.2405 -5.0317
# 6 1.5122 0.1187 -0.0096 -5.2535 -5.0317 40.5108
#
#
#
# Elastic Compliance Matrix: (Units=1/GPa)
#
#
# Indices 1 2 3 4 5 6 
#
# 1 0.012910 -0.004522 -0.000467 -0.003033 -0.005825 -0.001586
# 2 -0.004522 0.013191 -0.001268 0.002945 0.003167 0.000905
# 3 -0.000467 -0.001268 0.018004 -0.001827 -0.004815 -0.000809
# 4 -0.003033 0.002945 -0.001827 0.035412 0.002624 0.005022
# 5 -0.005825 0.003167 -0.004815 0.002624 0.023463 0.003462
# 6 -0.001586 0.000905 -0.000809 0.005022 0.003462 0.025822
#
#
# Mechanical properties :
#
#
# Convention : Reuss Voigt Hill
#
# Bulk Modulus (GPa) = 31.65333 37.55224 34.60279
# Shear Modulus (GPa) = 32.92808 38.00208 35.46508
#
# Velocity S-wave (km/s) = 3.59846 3.86578 3.73452
# Velocity P-wave (km/s) = 5.45095 5.89008 5.67477
#
# Compressibility (1/GPa) = 0.03159225
#
# Stress axis : x y z
#
# Youngs Moduli (GPa) = 77.45895 75.80754 55.54315
#
# Poissons Ratio (x) = 0.34282 0.02592
# Poissons Ratio (y) = 0.35029 0.07041
# Poissons Ratio (z) = 0.03615 0.09610
#
# Static dielectric constant tensor:
#      x y z
#    x 5.059220 0.324070 -0.128210 
#    y 0.324070 4.557520 -0.255140 
#    z -0.128210 -0.255140 4.958600 
# 
# 
# High freq. dielectric constant tensor:
#      x y z
#    x 2.031980 0.005850 0.004100 
#    y 0.005850 2.012400 -0.008170 
#    z 0.004100 -0.008170 2.021830 
# 
# From -- ./inp_files/409870.got.cif
#   From: 2010.06.25/outbox.cif.g09.slc.cpg/sg2_205_cif.got.tgz:409870.got - 2010.06.27 13:26:56.
