data_PCOD8024411
_publ_section_title
;
Structure prediction by ZEFSAII (Michael W. Deem and Ramdas Pophale) SiO2 
 PCOD8024411
Probable space group: P -1
;
_chemical_formula_sum "Si O2"
_cell_formula_units_Z 14
_cell_length_a 8.069367
_cell_length_b 17.528668
_cell_length_c 6.185586
_cell_angle_alpha 70.158620
_cell_angle_beta 59.164701
_cell_angle_gamma 52.141855
_cell_volume 592.735143
_symmetry_space_group_name_H-M "P -1"
_symmetry_group_IT_number 2
_symmetry_cell_setting 'triclinic'
loop_
_space_group_symop_operation_xyz
x,y,z
-x,-y,-z
loop_
_atom_site_type_symbol
_atom_site_label
_atom_site_fract_x
_atom_site_fract_y
_atom_site_fract_z
Si Si1 0.982423 0.570055 0.624311
Si Si2 0.649582 0.126041 0.085560
Si Si3 0.974759 0.944948 0.763581
Si Si4 0.156519 0.189949 0.233427
Si Si5 0.746497 0.277053 0.757490
Si Si6 0.311378 0.473362 0.869928
Si Si7 0.945144 0.334455 0.886001
O O1 0.215801 0.518767 0.655400
O O2 0.939049 0.661195 0.423820
O O3 0.000000 0.500000 0.500000
O O4 0.783884 0.590966 0.907822
O O5 0.768830 0.121825 0.239138
O O6 0.391392 0.149120 0.251154
O O7 0.643490 0.210518 0.868545
O O8 0.800082 0.020895 0.981713
O O9 0.852460 0.890986 0.816503
O O10 0.000000 0.000000 0.500000
O O11 0.943270 0.240667 0.485575
O O12 0.131465 0.272823 0.006560
O O13 0.575741 0.392636 0.723509
O O14 0.836598 0.272451 0.947696
O O15 0.252651 0.558750 0.997129
#
# Coordination Sequence:
#
# PCOD8024411 Si02
#       7
#     2   2   2   2   2   2   2
#     4   9  21  41  67  98 134 196 251 288 356 412
#     4  11  27  48  77 106 145 181 237 299 363 437
#     4  11  24  54  76 108 141 182 235 296 371 441
#     4  12  27  47  75 111 145 188 237 298 365 426
#     4  12  26  44  70 107 143 189 249 293 351 433
#     4  10  23  43  66  99 147 197 241 298 348 413
#     4  11  24  44  66 103 146 191 246 290 352 420
#
# _framework density 23.619319999999998
#
# number of rings (size 3 to 8) (size 9 to 14) (size 15 to 20)
#    0.000    1.143    2.857    1.714    8.000    6.286 
#    0.000    0.000    0.000    0.000    0.000    0.000 
#    0.000    0.000    0.000    0.000    0.000    0.000 
#
# Total GULP energy -173443.979636 kJ/mol
# GULP energy per Si atom -12388.855688 kJ/mol
# Density = 2.356556 g / cm^3
# Si number density = 23.619320 Si / 1000 Ang^3
#
#
#
# Elastic Constant Matrix: (Units=GPa)
#
#
# Indices 1 2 3 4 5 6 
#
# 1 135.7554 45.6949 41.1475 -3.7554 -0.3543 5.0466
# 2 45.6949 102.2208 41.2435 -1.8043 -4.8142 10.6851
# 3 41.1475 41.2435 106.2078 -14.0752 -0.5986 -8.0219
# 4 -3.7554 -1.8043 -14.0752 34.5892 1.9869 4.6714
# 5 -0.3543 -4.8142 -0.5986 1.9869 30.7505 3.7758
# 6 5.0466 10.6851 -8.0219 4.6714 3.7758 43.1325
#
#
#
# Elastic Compliance Matrix: (Units=1/GPa)
#
#
# Indices 1 2 3 4 5 6 
#
# 1 0.009154 -0.003054 -0.002422 -0.000033 -0.000328 -0.000733
# 2 -0.003054 0.013460 -0.004466 -0.001064 0.002534 -0.003914
# 3 -0.002422 -0.004466 0.012919 0.004366 -0.001178 0.003423
# 4 -0.000033 -0.001064 0.004366 0.031020 -0.001826 -0.002120
# 5 -0.000328 0.002534 -0.001178 -0.001826 0.033442 -0.003538
# 6 -0.000733 -0.003914 0.003423 -0.002120 -0.003538 0.025416
#
#
# Mechanical properties :
#
#
# Convention : Reuss Voigt Hill
#
# Bulk Modulus (GPa) = 63.90574 66.70619 65.30597
# Shear Modulus (GPa) = 33.22050 36.10099 34.66074
#
# Velocity S-wave (km/s) = 3.75440 3.91378 3.83492
# Velocity P-wave (km/s) = 6.77564 6.98048 6.87882
#
# Compressibility (1/GPa) = 0.01564805
#
# Stress axis : x y z
#
# Youngs Moduli (GPa) = 109.24460 74.29641 77.40804
#
# Poissons Ratio (x) = 0.22691 0.18748
# Poissons Ratio (y) = 0.33365 0.34569
# Poissons Ratio (z) = 0.26459 0.33179
#
# Static dielectric constant tensor:
#      x y z
#    x 4.587020 0.044580 0.197030 
#    y 0.044580 4.302490 0.254220 
#    z 0.197030 0.254220 4.079420 
# 
# 
# High freq. dielectric constant tensor:
#      x y z
#    x 1.943700 0.020360 0.012640 
#    y 0.020360 1.939550 -0.006160 
#    z 0.012640 -0.006160 1.929820 
# 
# From -- ./inp_files/46938.got.cif
#   From: 2010.06.25/outbox.cif.g09.slc.cpg/sg2_24_cif.got.tgz:46938.got - 2010.06.27 13:26:56.
