data_PCOD8024209
_publ_section_title
;
Structure prediction by ZEFSAII (Michael W. Deem and Ramdas Pophale) SiO2 
 PCOD8024209
Probable space group: P -1
;
_chemical_formula_sum "Si O2"
_cell_formula_units_Z 14
_cell_length_a 5.120920
_cell_length_b 16.548444
_cell_length_c 9.059487
_cell_angle_alpha 57.479683
_cell_angle_beta 84.759136
_cell_angle_gamma 65.481364
_cell_volume 580.225912
_symmetry_space_group_name_H-M "P -1"
_symmetry_group_IT_number 2
_symmetry_cell_setting 'triclinic'
loop_
_space_group_symop_operation_xyz
x,y,z
-x,-y,-z
loop_
_atom_site_type_symbol
_atom_site_label
_atom_site_fract_x
_atom_site_fract_y
_atom_site_fract_z
Si Si1 0.440566 0.859448 0.608054
Si Si2 0.170862 0.716327 0.366224
Si Si3 0.838143 0.930277 0.043042
Si Si4 0.635175 0.344042 0.270126
Si Si5 0.169438 0.387407 0.677276
Si Si6 0.834580 0.921919 0.723128
Si Si7 0.108265 0.555994 0.060810
O O1 0.499754 0.741811 0.660731
O O2 0.712230 0.852488 0.700138
O O3 0.150731 0.903917 0.674385
O O4 0.384429 0.950277 0.396307
O O5 0.157666 0.688129 0.565820
O O6 0.495284 0.670713 0.329254
O O7 0.985480 0.842322 0.247229
O O8 0.989744 0.679472 0.305155
O O9 0.887744 0.878629 0.928853
O O10 0.500000 0.000000 0.000000
O O11 0.000000 0.000000 0.000000
O O12 0.390037 0.460831 0.211422
O O13 0.809531 0.354403 0.106381
O O14 0.000000 0.500000 0.500000
O O15 0.139749 0.392930 0.851840
O O16 0.000000 0.500000 0.000000
#
# Coordination Sequence:
#
# PCOD8024209 Si02
#       7
#     2   2   2   2   2   2   2
#     4  10  23  42  73  98 143 182 240 298 363 429
#     4  12  28  47  78 108 144 202 246 295 384 438
#     4  12  26  47  73 104 149 188 246 302 359 436
#     4  11  26  45  71 110 145 196 247 306 371 442
#     4  12  26  49  75 106 150 194 246 308 364 447
#     4  10  23  44  67 107 136 188 239 300 356 429
#     4  11  27  45  72 107 150 193 247 312 368 437
#
# _framework density 24.128532
#
# number of rings (size 3 to 8) (size 9 to 14) (size 15 to 20)
#    0.000    0.857    1.429    3.857    8.000    2.286 
#    0.000    0.000    0.000    0.000    0.000    0.000 
#    0.000    0.000    0.000    0.000    0.000    0.000 
#
# Total GULP energy -173541.766501 kJ/mol
# GULP energy per Si atom -12395.840464 kJ/mol
# Density = 2.407361 g / cm^3
# Si number density = 24.128532 Si / 1000 Ang^3
#
#
#
# Elastic Constant Matrix: (Units=GPa)
#
#
# Indices 1 2 3 4 5 6 
#
# 1 120.7260 24.0467 39.4600 -11.9219 2.3905 -2.3694
# 2 24.0467 90.6588 50.5636 -6.3793 -4.1447 6.4988
# 3 39.4600 50.5636 149.8735 -2.0908 12.4401 -6.4262
# 4 -11.9219 -6.3793 -2.0908 49.2756 -0.6211 3.5871
# 5 2.3905 -4.1447 12.4401 -0.6211 36.5607 -2.6824
# 6 -2.3694 6.4988 -6.4262 3.5871 -2.6824 54.5024
#
#
#
# Elastic Compliance Matrix: (Units=1/GPa)
#
#
# Indices 1 2 3 4 5 6 
#
# 1 0.009392 -0.001239 -0.002017 0.002013 -0.000020 0.000185
# 2 -0.001239 0.014531 -0.004924 0.001582 0.003261 -0.002311
# 3 -0.002017 -0.004924 0.009203 -0.000886 -0.003465 0.001472
# 4 0.002013 0.001582 -0.000886 0.021069 0.000592 -0.001563
# 5 -0.000020 0.003261 -0.003465 0.000592 0.028955 0.000588
# 6 0.000185 -0.002311 0.001472 -0.001563 0.000588 0.018937
#
#
# Mechanical properties :
#
#
# Convention : Reuss Voigt Hill
#
# Bulk Modulus (GPa) = 59.64288 65.48877 62.56583
# Shear Modulus (GPa) = 40.31081 44.54696 42.42889
#
# Velocity S-wave (km/s) = 4.09182 4.30145 4.19794
# Velocity P-wave (km/s) = 6.86268 7.20212 7.03445
#
# Compressibility (1/GPa) = 0.01676646
#
# Stress axis : x y z
#
# Youngs Moduli (GPa) = 106.47276 68.81708 108.65986
#
# Poissons Ratio (x) = 0.08524 0.21919
# Poissons Ratio (y) = 0.13188 0.53505
# Poissons Ratio (z) = 0.21478 0.33886
#
# Static dielectric constant tensor:
#      x y z
#    x 4.690820 -0.073760 0.141470 
#    y -0.073760 4.682610 -0.580880 
#    z 0.141470 -0.580880 5.353540 
# 
# 
# High freq. dielectric constant tensor:
#      x y z
#    x 1.969010 0.005050 0.004310 
#    y 0.005050 1.957290 -0.009700 
#    z 0.004310 -0.009700 1.973020 
# 
# From -- ./inp_files/132889.got.cif
#   From: 2010.06.25/outbox.cif.g09.slc.cpg/sg2_67_cif.got.tgz:132889.got - 2010.06.27 13:26:56.
