data_PCOD8024991
_publ_section_title
;
Structure prediction by ZEFSAII (Michael W. Deem and Ramdas Pophale) SiO2 
 PCOD8024991
Probable space group: P -1
;
_chemical_formula_sum "Si O2"
_cell_formula_units_Z 16
_cell_length_a 14.982896
_cell_length_b 9.200712
_cell_length_c 9.275273
_cell_angle_alpha 33.352376
_cell_angle_beta 101.436919
_cell_angle_gamma 90.313225
_cell_volume 657.875559
_symmetry_space_group_name_H-M "P -1"
_symmetry_group_IT_number 2
_symmetry_cell_setting 'triclinic'
loop_
_space_group_symop_operation_xyz
x,y,z
-x,-y,-z
loop_
_atom_site_type_symbol
_atom_site_label
_atom_site_fract_x
_atom_site_fract_y
_atom_site_fract_z
Si Si1 0.372951 0.450209 0.420159
Si Si2 0.357592 0.078099 0.979191
Si Si3 0.170774 0.516120 0.900845
Si Si4 0.463475 0.875495 0.454374
Si Si5 0.013112 0.464512 0.702758
Si Si6 0.161965 0.595748 0.154794
Si Si7 0.268144 0.853087 0.473899
Si Si8 0.173440 0.001916 0.050491
O O1 0.373259 0.756896 0.207199
O O2 0.448851 0.357923 0.393537
O O3 0.272301 0.423550 0.351523
O O4 0.398504 0.242608 0.736675
O O5 0.414233 0.096508 0.129585
O O6 0.242243 0.198251 0.872547
O O7 0.078826 0.619035 0.680262
O O8 0.243283 0.680333 0.738668
O O9 0.133795 0.636213 0.946126
O O10 0.222311 0.186459 0.201130
O O11 0.382465 0.751624 0.593100
O O12 0.500000 0.000000 0.500000
O O13 0.000000 0.500000 0.500000
O O14 0.910211 0.548003 0.674848
O O15 0.078551 0.144811 0.994232
O O16 0.144308 0.890005 0.984673
O O17 0.234981 0.766877 0.377006
#
# Coordination Sequence:
#
# PCOD8024991 Si02
#       8
#     2   2   2   2   2   2   2   2
#     4  11  24  44  66  95 132 176 217 265 325 392
#     4  10  23  44  67  93 132 176 218 264 324 392
#     4  11  25  45  67  97 134 171 215 273 328 382
#     4  11  24  42  69 101 132 171 220 273 326 383
#     4  11  22  40  67  99 132 175 219 265 324 393
#     4  11  23  41  66  99 132 171 219 273 324 382
#     4  10  24  46  67  93 132 174 216 266 327 391
#     4   9  21  40  66  93 128 174 220 265 320 389
#
# _framework density 24.320708
#
# number of rings (size 3 to 8) (size 9 to 14) (size 15 to 20)
#    0.000    1.500    0.000    3.750    0.000   15.000 
#    0.000    8.750    0.000    0.000    0.000    0.000 
#    0.000    0.000    0.000    0.000    0.000    0.000 
#
# Total GULP energy -198209.818374 kJ/mol
# GULP energy per Si atom -12388.113648 kJ/mol
# Density = 2.426535 g / cm^3
# Si number density = 24.320708 Si / 1000 Ang^3
#
#
#
# Elastic Constant Matrix: (Units=GPa)
#
#
# Indices 1 2 3 4 5 6 
#
# 1 181.2922 57.0225 51.6139 19.8298 -3.3249 -6.1312
# 2 57.0225 139.9335 52.9640 39.9412 -5.4404 3.4636
# 3 51.6139 52.9640 94.5587 11.9532 -22.7865 7.3547
# 4 19.8298 39.9412 11.9532 45.8827 -0.1624 3.2870
# 5 -3.3249 -5.4404 -22.7865 -0.1624 39.2055 10.7591
# 6 -6.1312 3.4636 7.3547 3.2870 10.7591 33.8341
#
#
#
# Elastic Compliance Matrix: (Units=1/GPa)
#
#
# Indices 1 2 3 4 5 6 
#
# 1 0.007261 -0.001273 -0.004037 -0.001228 -0.002830 0.003343
# 2 -0.001273 0.012149 -0.005607 -0.008661 -0.002057 0.001240
# 3 -0.004037 -0.005607 0.019297 0.002254 0.012445 -0.008529
# 4 -0.001228 -0.008661 0.002254 0.029495 0.000947 -0.002992
# 5 -0.002830 -0.002057 0.012445 0.000947 0.036230 -0.014620
# 6 0.003343 0.001240 -0.008529 -0.002992 -0.014620 0.036829
#
#
# Mechanical properties :
#
#
# Convention : Reuss Voigt Hill
#
# Bulk Modulus (GPa) = 59.26897 82.10947 70.68922
# Shear Modulus (GPa) = 29.63498 40.73006 35.18252
#
# Velocity S-wave (km/s) = 3.49450 4.09676 3.80756
# Velocity P-wave (km/s) = 6.38002 7.49749 6.96122
#
# Compressibility (1/GPa) = 0.01687224
#
# Stress axis : x y z
#
# Youngs Moduli (GPa) = 137.71818 82.31347 51.82164
#
# Poissons Ratio (x) = 0.10481 0.20920
# Poissons Ratio (y) = 0.17536 0.29057
# Poissons Ratio (z) = 0.55596 0.46153
#
# Static dielectric constant tensor:
#      x y z
#    x 5.957430 -0.127880 0.711720 
#    y -0.127880 4.530720 0.230230 
#    z 0.711720 0.230230 4.278380 
# 
# 
# High freq. dielectric constant tensor:
#      x y z
#    x 1.989750 -0.005710 0.008260 
#    y -0.005710 1.972000 0.019150 
#    z 0.008260 0.019150 1.938270 
# 
# From -- ./inp_files/297295.got.cif
#   From: 2010.06.25/outbox.cif.g09.slc.cpg/sg2_149_cif.got.tgz:297295.got - 2010.06.27 13:26:56.
