data_PCOD8024025
_publ_section_title
;
Structure prediction by ZEFSAII (Michael W. Deem and Ramdas Pophale) SiO2 
 PCOD8024025
Probable space group: P -1
;
_chemical_formula_sum "Si O2"
_cell_formula_units_Z 16
_cell_length_a 12.413809
_cell_length_b 5.407619
_cell_length_c 11.904462
_cell_angle_alpha 116.119349
_cell_angle_beta 101.908655
_cell_angle_gamma 92.275763
_cell_volume 694.289931
_symmetry_space_group_name_H-M "P -1"
_symmetry_group_IT_number 2
_symmetry_cell_setting 'triclinic'
loop_
_space_group_symop_operation_xyz
x,y,z
-x,-y,-z
loop_
_atom_site_type_symbol
_atom_site_label
_atom_site_fract_x
_atom_site_fract_y
_atom_site_fract_z
Si Si1 0.930908 0.239712 0.049699
Si Si2 0.736365 0.423465 0.418084
Si Si3 0.543983 0.681240 0.364093
Si Si4 0.682302 0.212757 0.600702
Si Si5 0.095410 0.763416 0.211906
Si Si6 0.733338 0.116030 0.145391
Si Si7 0.603291 0.590832 0.117300
Si Si8 0.050542 0.206718 0.453860
O O1 0.831599 0.109151 0.080057
O O2 0.003882 0.504000 0.179175
O O3 0.886970 0.291222 0.926446
O O4 0.000000 0.000000 0.000000
O O5 0.606094 0.421575 0.359494
O O6 0.748454 0.320268 0.525271
O O7 0.782776 0.221229 0.298240
O O8 0.816185 0.720612 0.480373
O O9 0.411735 0.599314 0.342365
O O10 0.567733 0.755600 0.252775
O O11 0.606556 0.916091 0.507730
O O12 0.778987 0.226444 0.715083
O O13 0.043502 0.037514 0.299096
O O14 0.653804 0.319543 0.114715
O O15 0.681132 0.797976 0.093468
O O16 0.500000 0.500000 0.000000
O O17 0.000000 0.500000 0.500000
O O18 0.000000 0.000000 0.500000
#
# Coordination Sequence:
#
# PCOD8024025 Si02
#       8
#     2   2   2   2   2   2   2   2
#     4  11  29  49  74 105 152 205 252 312 373 460
#     4  11  23  43  70 108 146 190 247 307 379 443
#     4  10  23  42  69 106 145 190 242 304 380 441
#     4  11  22  44  73 103 149 188 240 313 373 449
#     4  11  27  49  71 112 146 196 258 305 383 454
#     4  11  26  46  76 101 150 193 250 310 370 439
#     4  11  25  47  71 108 144 197 251 306 369 450
#     4  12  27  44  75 109 146 192 247 314 377 444
#
# _framework density 23.045128999999999
#
# number of rings (size 3 to 8) (size 9 to 14) (size 15 to 20)
#    0.000    1.000    2.500    2.250   10.500    0.000 
#    0.000    0.000    0.000    0.000    0.000    0.000 
#    0.000    0.000    0.000    0.000    0.000    0.000 
#
# Total GULP energy -198245.847392 kJ/mol
# GULP energy per Si atom -12390.365462 kJ/mol
# Density = 2.299268 g / cm^3
# Si number density = 23.045129 Si / 1000 Ang^3
#
#
#
# Elastic Constant Matrix: (Units=GPa)
#
#
# Indices 1 2 3 4 5 6 
#
# 1 107.2384 28.8269 65.1019 -10.8749 0.5914 2.0912
# 2 28.8269 97.9206 23.4208 -4.6425 4.2919 4.1349
# 3 65.1019 23.4208 111.3054 7.2755 9.3900 -2.7641
# 4 -10.8749 -4.6425 7.2755 32.1426 1.4446 -4.9553
# 5 0.5914 4.2919 9.3900 1.4446 43.0421 0.2437
# 6 2.0912 4.1349 -2.7641 -4.9553 0.2437 40.5391
#
#
#
# Elastic Compliance Matrix: (Units=1/GPa)
#
#
# Indices 1 2 3 4 5 6 
#
# 1 0.016740 -0.002256 -0.009976 0.007445 0.001924 -0.000415
# 2 -0.002256 0.011258 -0.001064 0.000993 -0.000887 -0.000978
# 3 -0.009976 -0.001064 0.015762 -0.006827 -0.002971 0.000881
# 4 0.007445 0.000993 -0.006827 0.035845 0.000066 0.003430
# 5 0.001924 -0.000887 -0.002971 0.000066 0.023943 -0.000347
# 6 -0.000415 -0.000978 0.000881 0.003430 -0.000347 0.025270
#
#
# Mechanical properties :
#
#
# Convention : Reuss Voigt Hill
#
# Bulk Modulus (GPa) = 58.24443 61.24040 59.74241
# Shear Modulus (GPa) = 31.03049 36.41906 33.72478
#
# Velocity S-wave (km/s) = 3.67346 3.97966 3.82962
# Velocity P-wave (km/s) = 6.58190 6.91004 6.74797
#
# Compressibility (1/GPa) = 0.01716902
#
# Stress axis : x y z
#
# Youngs Moduli (GPa) = 59.73732 88.82450 63.44511
#
# Poissons Ratio (x) = 0.20038 0.63291
# Poissons Ratio (y) = 0.13476 0.06749
# Poissons Ratio (z) = 0.59592 0.09449
#
# Static dielectric constant tensor:
#      x y z
#    x 4.272460 -0.308080 -0.151350 
#    y -0.308080 3.678640 -0.012280 
#    z -0.151350 -0.012280 4.175110 
# 
# 
# High freq. dielectric constant tensor:
#      x y z
#    x 1.923960 0.001210 -0.004750 
#    y 0.001210 1.903060 -0.002100 
#    z -0.004750 -0.002100 1.920270 
# 
# From -- ./inp_files/78592.got.cif
#   From: 2010.06.25/outbox.cif.g09.slc.cpg/sg2_40_cif.got.tgz:78592.got - 2010.06.27 13:26:56.
