data_PCOD8024385
_publ_section_title
;
Structure prediction by ZEFSAII (Michael W. Deem and Ramdas Pophale) SiO2 
 PCOD8024385
Probable space group: P -1
;
_chemical_formula_sum "Si O2"
_cell_formula_units_Z 14
_cell_length_a 8.660834
_cell_length_b 8.565941
_cell_length_c 16.559055
_cell_angle_alpha 113.508357
_cell_angle_beta 56.949111
_cell_angle_gamma 145.694338
_cell_volume 576.871175
_symmetry_space_group_name_H-M "P -1"
_symmetry_group_IT_number 2
_symmetry_cell_setting 'triclinic'
loop_
_space_group_symop_operation_xyz
x,y,z
-x,-y,-z
loop_
_atom_site_type_symbol
_atom_site_label
_atom_site_fract_x
_atom_site_fract_y
_atom_site_fract_z
Si Si1 0.777869 0.154086 0.788821
Si Si2 0.689032 0.024993 0.392434
Si Si3 0.432994 0.563755 0.741911
Si Si4 0.154727 0.640988 0.358836
Si Si5 0.067889 0.191331 0.453646
Si Si6 0.689109 0.625989 0.090025
Si Si7 0.629900 0.867333 0.031822
O O1 0.736112 0.189012 0.717592
O O2 0.586148 0.128323 0.899859
O O3 0.126006 0.421822 0.768657
O O4 0.660343 0.877070 0.769977
O O5 0.933976 0.322581 0.337927
O O6 0.858939 0.007166 0.395047
O O7 0.500000 0.000000 0.500000
O O8 0.453840 0.779059 0.343821
O O9 0.586114 0.570790 0.625962
O O10 0.371333 0.398622 0.802548
O O11 0.984722 0.656793 0.466868
O O12 0.000000 0.000000 0.500000
O O13 0.616854 0.754255 0.096466
O O14 0.471980 0.323796 0.052886
O O15 0.032943 0.821426 0.016556
#
# Coordination Sequence:
#
# PCOD8024385 Si02
#       7
#     2   2   2   2   2   2   2
#     4  12  26  43  68 103 134 179 218 276 330 403
#     4  10  23  43  66  92 122 183 226 275 320 389
#     4  12  27  43  66 104 136 179 224 265 339 397
#     4  11  24  46  66  96 134 175 234 264 333 389
#     4  11  24  46  66  98 141 180 217 282 324 389
#     4  10  23  46  70 101 129 171 224 273 337 399
#     4  10  23  46  72  96 134 172 216 283 333 390
#
# _framework density 24.26885
#
# number of rings (size 3 to 8) (size 9 to 14) (size 15 to 20)
#    0.000    1.143    1.429    4.286    4.000    7.429 
#    5.143    0.000    0.000    0.000    0.000    0.000 
#    0.000    0.000    0.000    0.000    0.000    0.000 
#
# Total GULP energy -173640.962175 kJ/mol
# GULP energy per Si atom -12402.925870 kJ/mol
# Density = 2.421361 g / cm^3
# Si number density = 24.268850 Si / 1000 Ang^3
#
#
#
# Elastic Constant Matrix: (Units=GPa)
#
#
# Indices 1 2 3 4 5 6 
#
# 1 112.7893 22.4252 43.7220 -11.5317 6.0893 10.0116
# 2 22.4252 85.4013 11.6122 -13.4477 -5.1019 8.4650
# 3 43.7220 11.6122 95.4649 -10.3076 5.2059 -0.8614
# 4 -11.5317 -13.4477 -10.3076 24.5142 -3.9501 -1.2974
# 5 6.0893 -5.1019 5.2059 -3.9501 49.2543 -6.2694
# 6 10.0116 8.4650 -0.8614 -1.2974 -6.2694 40.0321
#
#
#
# Elastic Compliance Matrix: (Units=1/GPa)
#
#
# Indices 1 2 3 4 5 6 
#
# 1 0.011639 -0.001881 -0.004833 0.002054 -0.001309 -0.002756
# 2 -0.001881 0.013589 -0.000191 0.006705 0.001958 -0.001883
# 3 -0.004833 -0.000191 0.013086 0.003150 -0.000352 0.001578
# 4 0.002054 0.006705 0.003150 0.047413 0.003947 0.000291
# 5 -0.001309 0.001958 -0.000352 0.003947 0.021453 0.003393
# 6 -0.002756 -0.001883 0.001578 0.000291 0.003393 0.026642
#
#
# Mechanical properties :
#
#
# Convention : Reuss Voigt Hill
#
# Bulk Modulus (GPa) = 40.81246 49.90826 45.36036
# Shear Modulus (GPa) = 32.09238 37.15319 34.62278
#
# Velocity S-wave (km/s) = 3.64038 3.91692 3.78118
# Velocity P-wave (km/s) = 5.87564 6.40825 6.14772
#
# Compressibility (1/GPa) = 0.02450232
#
# Stress axis : x y z
#
# Youngs Moduli (GPa) = 85.91844 73.59039 76.41997
#
# Poissons Ratio (x) = 0.13839 0.36937
# Poissons Ratio (y) = 0.16158 0.01463
# Poissons Ratio (z) = 0.41528 0.01409
#
# Static dielectric constant tensor:
#      x y z
#    x 5.310360 0.503650 0.188300 
#    y 0.503650 4.556130 -0.124330 
#    z 0.188300 -0.124330 4.334920 
# 
# 
# High freq. dielectric constant tensor:
#      x y z
#    x 1.975990 0.006300 0.002900 
#    y 0.006300 1.964160 -0.014710 
#    z 0.002900 -0.014710 1.962330 
# 
# From -- ./inp_files/217233.got.cif
#   From: 2010.06.25/outbox.cif.g09.slc.cpg/sg2_109_cif.got.tgz:217233.got - 2010.06.27 13:26:56.
