data_PCOD8024475
_publ_section_title
;
Structure prediction by ZEFSAII (Michael W. Deem and Ramdas Pophale) SiO2 
 PCOD8024475
Probable space group: P -1
;
_chemical_formula_sum "Si O2"
_cell_formula_units_Z 14
_cell_length_a 11.444263
_cell_length_b 9.582384
_cell_length_c 10.294496
_cell_angle_alpha 124.796532
_cell_angle_beta 41.191564
_cell_angle_gamma 127.943342
_cell_volume 573.522382
_symmetry_space_group_name_H-M "P -1"
_symmetry_group_IT_number 2
_symmetry_cell_setting 'triclinic'
loop_
_space_group_symop_operation_xyz
x,y,z
-x,-y,-z
loop_
_atom_site_type_symbol
_atom_site_label
_atom_site_fract_x
_atom_site_fract_y
_atom_site_fract_z
Si Si1 0.442358 0.049591 0.765013
Si Si2 0.207645 0.277681 0.140718
Si Si3 0.202044 0.854396 0.635638
Si Si4 0.643193 0.169194 0.045252
Si Si5 0.747103 0.492378 0.520072
Si Si6 0.669314 0.566361 0.153852
Si Si7 0.056278 0.336963 0.809116
O O1 0.665359 0.138358 0.596840
O O2 0.316846 0.015724 0.721129
O O3 0.408791 0.865947 0.777204
O O4 0.367735 0.187083 0.982740
O O5 0.199211 0.393501 0.333540
O O6 0.997652 0.126076 0.223713
O O7 0.256014 0.403719 0.039519
O O8 0.155049 0.659603 0.640523
O O9 0.622850 0.356029 0.117448
O O10 0.861165 0.175079 0.852149
O O11 0.500000 0.000000 0.000000
O O12 0.522272 0.389652 0.648457
O O13 0.820192 0.616963 0.399906
O O14 0.817006 0.704358 0.203866
O O15 0.000000 0.500000 0.000000
#
# Coordination Sequence:
#
# PCOD8024475 Si02
#       7
#     2   2   2   2   2   2   2
#     4  11  25  46  66 104 144 188 231 288 360 431
#     4  12  25  45  76 104 142 181 245 297 350 413
#     4  11  24  42  73 101 142 185 237 286 361 421
#     4  11  24  42  68  96 146 180 226 294 359 406
#     4  12  24  43  74 109 134 184 247 294 349 421
#     4  11  23  45  72 100 141 188 235 294 346 429
#     4  10  23  43  67  98 138 187 235 278 353 426
#
# _framework density 24.410553
#
# number of rings (size 3 to 8) (size 9 to 14) (size 15 to 20)
#    0.000    0.857    1.429    6.857    4.000    0.000 
#    2.571    1.429    0.000    0.000    0.000    0.000 
#    0.000    0.000    0.000    0.000    0.000    0.000 
#
# Total GULP energy -173609.527254 kJ/mol
# GULP energy per Si atom -12400.680518 kJ/mol
# Density = 2.435499 g / cm^3
# Si number density = 24.410553 Si / 1000 Ang^3
#
#
#
# Elastic Constant Matrix: (Units=GPa)
#
#
# Indices 1 2 3 4 5 6 
#
# 1 89.6238 19.2132 50.1836 -20.4664 8.1459 21.6939
# 2 19.2132 73.5228 17.0805 -14.3208 1.6662 15.8751
# 3 50.1836 17.0805 118.9091 -27.4563 9.7375 11.9104
# 4 -20.4664 -14.3208 -27.4563 37.7808 2.9365 -5.1932
# 5 8.1459 1.6662 9.7375 2.9365 46.9432 -9.1509
# 6 21.6939 15.8751 11.9104 -5.1932 -9.1509 49.2387
#
#
#
# Elastic Compliance Matrix: (Units=1/GPa)
#
#
# Indices 1 2 3 4 5 6 
#
# 1 0.017058 -0.000986 -0.005118 0.004568 -0.003338 -0.006098
# 2 -0.000986 0.015828 -0.000172 0.004854 -0.001516 -0.004397
# 3 -0.005118 -0.000172 0.012228 0.006158 -0.002103 -0.000389
# 4 0.004568 0.004854 0.006158 0.035329 -0.004891 -0.002250
# 5 -0.003338 -0.001516 -0.002103 -0.004891 0.023925 0.006398
# 6 -0.006098 -0.004397 -0.000389 -0.002250 0.006398 0.025459
#
#
# Mechanical properties :
#
#
# Convention : Reuss Voigt Hill
#
# Bulk Modulus (GPa) = 30.71274 50.55671 40.63472
# Shear Modulus (GPa) = 32.62990 39.83108 36.23049
#
# Velocity S-wave (km/s) = 3.66007 4.04383 3.85673
# Velocity P-wave (km/s) = 5.52002 6.52376 6.04276
#
# Compressibility (1/GPa) = 0.03255978
#
# Stress axis : x y z
#
# Youngs Moduli (GPa) = 58.62461 63.17892 81.78123
#
# Poissons Ratio (x) = 0.06232 0.41858
# Poissons Ratio (y) = 0.05783 0.01407
# Poissons Ratio (z) = 0.30006 0.01087
#
# Static dielectric constant tensor:
#      x y z
#    x 4.876410 0.252030 -0.119770 
#    y 0.252030 4.232030 -0.365600 
#    z -0.119770 -0.365600 4.489160 
# 
# 
# High freq. dielectric constant tensor:
#      x y z
#    x 1.980600 0.008140 -0.000940 
#    y 0.008140 1.958560 -0.020230 
#    z -0.000940 -0.020230 1.974080 
# 
# From -- ./inp_files/262872.got.cif
#   From: 2010.06.25/outbox.cif.g09.slc.cpg/sg2_132_cif.got.tgz:262872.got - 2010.06.27 13:26:56.
