data_PCOD8024958
_publ_section_title
;
Structure prediction by ZEFSAII (Michael W. Deem and Ramdas Pophale) SiO2 
 PCOD8024958
Probable space group: P -1
;
_chemical_formula_sum "Si O2"
_cell_formula_units_Z 16
_cell_length_a 15.829069
_cell_length_b 12.628133
_cell_length_c 15.201660
_cell_angle_alpha 152.358251
_cell_angle_beta 36.830768
_cell_angle_gamma 124.686010
_cell_volume 730.248983
_symmetry_space_group_name_H-M "P -1"
_symmetry_group_IT_number 2
_symmetry_cell_setting 'triclinic'
loop_
_space_group_symop_operation_xyz
x,y,z
-x,-y,-z
loop_
_atom_site_type_symbol
_atom_site_label
_atom_site_fract_x
_atom_site_fract_y
_atom_site_fract_z
Si Si1 0.564400 0.074344 0.848050
Si Si2 0.628857 0.191485 0.155036
Si Si3 0.106497 0.071287 0.129723
Si Si4 0.815469 0.173165 0.818530
Si Si5 0.168976 0.344972 0.798468
Si Si6 0.863590 0.908196 0.192431
Si Si7 0.623704 0.507349 0.835775
Si Si8 0.128882 0.399514 0.204520
O O1 0.453979 0.986070 0.932086
O O2 0.683279 0.809258 0.503401
O O3 0.677061 0.151327 0.865962
O O4 0.454234 0.322755 0.061131
O O5 0.500000 0.500000 0.500000
O O6 0.779583 0.128782 0.917095
O O7 0.707713 0.094734 0.114994
O O8 0.077951 0.221596 0.172255
O O9 0.005409 0.290790 0.451044
O O10 0.045612 0.862765 0.010464
O O11 0.786714 0.463701 0.045090
O O12 0.000000 0.000000 0.500000
O O13 0.172369 0.136058 0.710614
O O14 0.000000 0.500000 0.000000
O O15 0.745924 0.209998 0.482705
O O16 0.850431 0.700856 0.986844
O O17 0.704788 0.642409 0.923939
O O18 0.500000 0.500000 0.000000
#
# Coordination Sequence:
#
# PCOD8024958 Si02
#       8
#     2   2   2   2   2   2   2   2
#     4  12  26  48  70 104 149 183 240 299 359 420
#     4  12  26  48  73 105 149 188 232 303 362 415
#     4  10  23  44  67  95 140 183 232 291 354 420
#     4  12  28  46  75 105 140 196 243 284 359 437
#     4  12  25  45  70 105 140 185 239 297 349 429
#     4  11  25  40  72 101 135 185 241 287 352 432
#     4  11  24  43  67  99 142 181 226 298 357 411
#     4  10  23  44  66  98 135 184 236 289 352 424
#
# _framework density 21.910333999999999
#
# number of rings (size 3 to 8) (size 9 to 14) (size 15 to 20)
#    0.000    0.750    5.000    1.500    3.500    2.500 
#    2.250    0.000    0.000    0.000    0.000    0.000 
#    0.000    0.000    0.000    0.000    0.000    0.000 
#
# Total GULP energy -198319.201040 kJ/mol
# GULP energy per Si atom -12394.950065 kJ/mol
# Density = 2.186047 g / cm^3
# Si number density = 21.910334 Si / 1000 Ang^3
#
#
#
# Elastic Constant Matrix: (Units=GPa)
#
#
# Indices 1 2 3 4 5 6 
#
# 1 116.1655 25.0026 36.7936 11.3115 -5.1741 17.9731
# 2 25.0026 120.8007 22.8599 0.3844 -6.5624 13.3300
# 3 36.7936 22.8599 92.6476 7.5736 -7.7622 -4.5798
# 4 11.3115 0.3844 7.5736 37.9932 -1.6950 0.2869
# 5 -5.1741 -6.5624 -7.7622 -1.6950 39.1583 1.2494
# 6 17.9731 13.3300 -4.5798 0.2869 1.2494 40.6017
#
#
#
# Elastic Compliance Matrix: (Units=1/GPa)
#
#
# Indices 1 2 3 4 5 6 
#
# 1 0.011200 -0.000913 -0.004233 -0.002418 0.000547 -0.005135
# 2 -0.000913 0.009228 -0.002015 0.000653 0.001147 -0.002893
# 3 -0.004233 -0.002015 0.013412 -0.001353 0.001575 0.004009
# 4 -0.002418 0.000653 -0.001353 0.027331 0.000689 0.000489
# 5 0.000547 0.001147 0.001575 0.000689 0.026184 -0.001252
# 6 -0.005135 -0.002893 0.004009 0.000489 -0.001252 0.028340
#
#
# Mechanical properties :
#
#
# Convention : Reuss Voigt Hill
#
# Bulk Modulus (GPa) = 51.23166 55.43623 53.33394
# Shear Modulus (GPa) = 36.62416 39.88116 38.25266
#
# Velocity S-wave (km/s) = 4.09289 4.27101 4.18290
# Velocity P-wave (km/s) = 6.76527 7.04829 6.90823
#
# Compressibility (1/GPa) = 0.01951918
#
# Stress axis : x y z
#
# Youngs Moduli (GPa) = 89.28553 108.36935 74.55736
#
# Poissons Ratio (x) = 0.09894 0.31560
# Poissons Ratio (y) = 0.08152 0.15020
# Poissons Ratio (z) = 0.37794 0.21831
#
# Static dielectric constant tensor:
#      x y z
#    x 3.952820 0.106430 -0.137960 
#    y 0.106430 4.249720 0.040910 
#    z -0.137960 0.040910 4.082730 
# 
# 
# High freq. dielectric constant tensor:
#      x y z
#    x 1.862160 0.013710 -0.005710 
#    y 0.013710 1.881360 0.005110 
#    z -0.005710 0.005110 1.857690 
# 
# From -- ./inp_files/428360.got.cif
#   From: 2010.06.25/outbox.cif.g09.slc.cpg/sg2_215_cif.got.tgz:428360.got - 2010.06.27 13:26:56.
