data_PCOD8024343
_publ_section_title
;
Structure prediction by ZEFSAII (Michael W. Deem and Ramdas Pophale) SiO2 
 PCOD8024343
Probable space group: P -1
;
_chemical_formula_sum "Si O2"
_cell_formula_units_Z 16
_cell_length_a 8.909590
_cell_length_b 17.266836
_cell_length_c 6.599481
_cell_angle_alpha 108.966782
_cell_angle_beta 136.186276
_cell_angle_gamma 69.506269
_cell_volume 654.285898
_symmetry_space_group_name_H-M "P -1"
_symmetry_group_IT_number 2
_symmetry_cell_setting 'triclinic'
loop_
_space_group_symop_operation_xyz
x,y,z
-x,-y,-z
loop_
_atom_site_type_symbol
_atom_site_label
_atom_site_fract_x
_atom_site_fract_y
_atom_site_fract_z
Si Si1 0.888770 0.344392 0.777584
Si Si2 0.196810 0.824184 0.294702
Si Si3 0.684321 0.876313 0.860261
Si Si4 0.254106 0.966294 0.762881
Si Si5 0.550805 0.407936 0.209653
Si Si6 0.667892 0.739725 0.025356
Si Si7 0.170609 0.542494 0.828949
Si Si8 0.542845 0.136315 0.765155
O O1 0.773671 0.264572 0.641132
O O2 0.719174 0.418114 0.564361
O O3 0.092139 0.317512 0.800590
O O4 0.960153 0.386487 0.089659
O O5 0.326670 0.891575 0.601992
O O6 0.299833 0.810765 0.159770
O O7 0.944688 0.865260 0.074345
O O8 0.584653 0.906022 0.568677
O O9 0.625676 0.787440 0.807085
O O10 0.625847 0.950276 0.039636
O O11 0.290626 0.927710 0.990316
O O12 0.000000 0.000000 0.500000
O O13 0.671174 0.413231 0.118173
O O14 0.509108 0.315261 0.129092
O O15 0.325264 0.473471 0.056208
O O16 0.649391 0.807818 0.243524
O O17 0.000000 0.500000 0.500000
#
# Coordination Sequence:
#
# PCOD8024343 Si02
#       8
#     2   2   2   2   2   2   2   2
#     4  11  24  46  70  97 138 179 219 273 336 399
#     4  10  24  43  67  98 134 177 225 279 336 397
#     4  10  24  42  65  97 133 176 227 281 335 394
#     4  10  23  43  65  96 136 176 227 284 337 391
#     4  11  24  44  71 101 136 178 218 270 331 399
#     4  11  26  42  67 101 137 176 225 277 330 395
#     4  11  26  45  71 106 137 170 220 274 331 402
#     4  12  23  40  67  97 130 178 230 275 334 394
#
# _framework density 24.454139000000001
#
# number of rings (size 3 to 8) (size 9 to 14) (size 15 to 20)
#    0.000    1.250    0.000    4.500    0.000   17.000 
#    0.000    0.000    0.000    0.000    0.000    0.000 
#    0.000    0.000    0.000    0.000    0.000    0.000 
#
# Total GULP energy -198301.626789 kJ/mol
# GULP energy per Si atom -12393.851674 kJ/mol
# Density = 2.439848 g / cm^3
# Si number density = 24.454139 Si / 1000 Ang^3
#
#
#
# Elastic Constant Matrix: (Units=GPa)
#
#
# Indices 1 2 3 4 5 6 
#
# 1 126.2518 58.0862 51.5291 3.5040 -3.7411 -10.3008
# 2 58.0862 116.5455 83.2784 -3.7193 0.8652 -2.5371
# 3 51.5291 83.2784 156.6880 -12.1943 -4.2020 -10.8421
# 4 3.5040 -3.7193 -12.1943 50.5828 -2.7764 0.2757
# 5 -3.7411 0.8652 -4.2020 -2.7764 35.3416 -0.5161
# 6 -10.3008 -2.5371 -10.8421 0.2757 -0.5161 48.4690
#
#
#
# Elastic Compliance Matrix: (Units=1/GPa)
#
#
# Indices 1 2 3 4 5 6 
#
# 1 0.010665 -0.004607 -0.001004 -0.001272 0.001049 0.001819
# 2 -0.004607 0.015958 -0.007161 -0.000322 -0.001781 -0.001763
# 3 -0.001004 -0.007161 0.010862 0.002237 0.001563 0.001846
# 4 -0.001272 -0.000322 0.002237 0.020469 0.001749 0.000116
# 5 0.001049 -0.001781 0.001563 0.001749 0.028785 0.000776
# 6 0.001819 -0.001763 0.001846 0.000116 0.000776 0.021347
#
#
# Mechanical properties :
#
#
# Convention : Reuss Voigt Hill
#
# Bulk Modulus (GPa) = 83.74425 87.25250 85.49838
# Shear Modulus (GPa) = 36.33479 40.65143 38.49311
#
# Velocity S-wave (km/s) = 3.85883 4.08162 3.97179
# Velocity P-wave (km/s) = 7.36029 7.61383 7.48813
#
# Compressibility (1/GPa) = 0.01194112
#
# Stress axis : x y z
#
# Youngs Moduli (GPa) = 93.76756 62.66368 92.06258
#
# Poissons Ratio (x) = 0.28868 0.09240
# Poissons Ratio (y) = 0.43197 0.65930
# Poissons Ratio (z) = 0.09411 0.44876
#
# Static dielectric constant tensor:
#      x y z
#    x 4.527820 -0.001540 0.205940 
#    y -0.001540 4.552540 -0.031440 
#    z 0.205940 -0.031440 4.479210 
# 
# 
# High freq. dielectric constant tensor:
#      x y z
#    x 1.991720 -0.004550 0.017410 
#    y -0.004550 1.980430 -0.010030 
#    z 0.017410 -0.010030 1.976950 
# 
# From -- ./inp_files/48457.got.cif
#   From: 2010.06.25/outbox.cif.g09.slc.cpg/sg2_25_cif.got.tgz:48457.got - 2010.06.27 13:26:56.
