data_PCOD8024122
_publ_section_title
;
Structure prediction by ZEFSAII (Michael W. Deem and Ramdas Pophale) SiO2 
 PCOD8024122
Probable space group: P -1
;
_chemical_formula_sum "Si O2"
_cell_formula_units_Z 12
_cell_length_a 25.293863
_cell_length_b 22.530890
_cell_length_c 9.037119
_cell_angle_alpha 34.341251
_cell_angle_beta 147.651076
_cell_angle_gamma 169.905612
_cell_volume 481.997006
_symmetry_space_group_name_H-M "P -1"
_symmetry_group_IT_number 2
_symmetry_cell_setting 'triclinic'
loop_
_space_group_symop_operation_xyz
x,y,z
-x,-y,-z
loop_
_atom_site_type_symbol
_atom_site_label
_atom_site_fract_x
_atom_site_fract_y
_atom_site_fract_z
Si Si1 0.738324 0.842991 0.052263
Si Si2 0.135121 0.407426 0.003208
Si Si3 0.174359 0.152649 0.247691
Si Si4 0.434511 0.042566 0.337472
Si Si5 0.762165 0.548263 0.538111
Si Si6 0.282949 0.712412 0.185625
O O1 0.547222 0.557802 0.276335
O O2 0.517237 0.673379 0.752820
O O3 0.041477 0.095157 0.177810
O O4 0.860441 0.051004 0.030193
O O5 0.360691 0.664126 0.871469
O O6 0.348191 0.577950 0.291618
O O7 0.940552 0.308487 0.821483
O O8 0.094996 0.950446 0.509061
O O9 0.000000 0.000000 0.000000
O O10 0.533630 0.140321 0.540359
O O11 0.500000 0.000000 0.500000
O O12 0.846794 0.522921 0.716489
O O13 0.000000 0.500000 0.000000
O O14 0.500000 0.000000 0.000000
#
# Coordination Sequence:
#
# PCOD8024122 Si02
#       6
#     2   2   2   2   2   2
#     4  11  24  45  69 101 141 179 234 281 344 400
#     4  12  26  43  71 102 138 185 223 288 344 404
#     4  10  23  42  71 100 136 186 227 285 340 405
#     4  12  25  47  68 100 143 177 232 288 338 407
#     4  11  25  45  71 101 141 181 234 280 346 409
#     4  12  26  44  71 102 133 180 229 279 341 411
#
# _framework density 24.896419999999999
#
# number of rings (size 3 to 8) (size 9 to 14) (size 15 to 20)
#    0.000    0.667    1.667    6.500    2.333    6.667 
#    0.000    0.000    0.000    0.000    0.000    0.000 
#    0.000    0.000    0.000    0.000    0.000    0.000 
#
# Total GULP energy -148795.785568 kJ/mol
# GULP energy per Si atom -12399.648797 kJ/mol
# Density = 2.483975 g / cm^3
# Si number density = 24.896420 Si / 1000 Ang^3
#
#
#
# Elastic Constant Matrix: (Units=GPa)
#
#
# Indices 1 2 3 4 5 6 
#
# 1 127.5465 31.0871 57.5202 -12.3849 -11.5294 0.8000
# 2 31.0871 62.0197 36.1578 -14.3034 -13.5353 9.9641
# 3 57.5202 36.1578 118.0114 -21.0834 -20.9523 -9.5672
# 4 -12.3849 -14.3034 -21.0834 38.8369 -1.6093 -1.6591
# 5 -11.5294 -13.5353 -20.9523 -1.6093 51.8563 -3.6290
# 6 0.8000 9.9641 -9.5672 -1.6591 -3.6290 53.5047
#
#
#
# Elastic Compliance Matrix: (Units=1/GPa)
#
#
# Indices 1 2 3 4 5 6 
#
# 1 0.010432 -0.002673 -0.004338 -0.000038 -0.000163 -0.000446
# 2 -0.002673 0.022742 -0.004558 0.004989 0.003331 -0.004630
# 3 -0.004338 -0.004558 0.013826 0.004765 0.003846 0.003795
# 4 -0.000038 0.004989 0.004765 0.030386 0.004243 0.001154
# 5 -0.000163 0.003331 0.003846 0.004243 0.021921 0.001688
# 6 -0.000446 -0.004630 0.003795 0.001154 0.001688 0.020388
#
#
# Mechanical properties :
#
#
# Convention : Reuss Voigt Hill
#
# Bulk Modulus (GPa) = 41.90433 61.90086 51.90259
# Shear Modulus (GPa) = 33.15918 41.02707 37.09312
#
# Velocity S-wave (km/s) = 3.65346 4.06385 3.86411
# Velocity P-wave (km/s) = 5.88770 6.85107 6.38757
#
# Compressibility (1/GPa) = 0.02386388
#
# Stress axis : x y z
#
# Youngs Moduli (GPa) = 95.85558 43.97065 72.32553
#
# Poissons Ratio (x) = 0.11753 0.31374
# Poissons Ratio (y) = 0.25622 0.32964
# Poissons Ratio (z) = 0.41581 0.20041
#
# Static dielectric constant tensor:
#      x y z
#    x 4.565800 -0.130920 -0.178170 
#    y -0.130920 3.027530 -0.303480 
#    z -0.178170 -0.303480 5.050100 
# 
# 
# High freq. dielectric constant tensor:
#      x y z
#    x 2.014420 -0.002430 -0.005450 
#    y -0.002430 1.983880 -0.010190 
#    z -0.005450 -0.010190 2.003660 
# 
# From -- ./inp_files/129831.got.cif
#   From: 2010.06.25/outbox.cif.g09.slc.cpg/sg2_65_cif.got.tgz:129831.got - 2010.06.27 13:26:56.
