data_PCOD8024089
_publ_section_title
;
Structure prediction by ZEFSAII (Michael W. Deem and Ramdas Pophale) SiO2 
 PCOD8024089
Probable space group: P -1
;
_chemical_formula_sum "Si O2"
_cell_formula_units_Z 16
_cell_length_a 16.066254
_cell_length_b 14.775231
_cell_length_c 5.106758
_cell_angle_alpha 117.590270
_cell_angle_beta 62.589319
_cell_angle_gamma 138.877465
_cell_volume 693.559981
_symmetry_space_group_name_H-M "P -1"
_symmetry_group_IT_number 2
_symmetry_cell_setting 'triclinic'
loop_
_space_group_symop_operation_xyz
x,y,z
-x,-y,-z
loop_
_atom_site_type_symbol
_atom_site_label
_atom_site_fract_x
_atom_site_fract_y
_atom_site_fract_z
Si Si1 0.537522 0.638899 0.223292
Si Si2 0.191637 0.102889 0.708223
Si Si3 0.983401 0.606435 0.171006
Si Si4 0.011126 0.911090 0.157429
Si Si5 0.472189 0.047442 0.852349
Si Si6 0.199238 0.909956 0.206861
Si Si7 0.573635 0.344887 0.078155
Si Si8 0.861341 0.606011 0.840074
O O1 0.684107 0.733964 0.229966
O O2 0.453950 0.617788 0.559795
O O3 0.500000 0.500000 0.000000
O O4 0.527838 0.704986 0.072149
O O5 0.094992 0.078471 0.583206
O O6 0.249863 0.031131 0.503155
O O7 0.109292 0.044514 0.010473
O O8 0.879274 0.563337 0.478057
O O9 0.125050 0.759170 0.240490
O O10 0.943351 0.608422 0.942005
O O11 0.000000 0.500000 0.000000
O O12 0.087690 0.895854 0.220658
O O13 0.912828 0.760541 0.942292
O O14 0.500000 0.000000 0.500000
O O15 0.564131 0.215483 0.959107
O O16 0.500000 0.000000 0.000000
O O17 0.321068 0.964854 0.936300
O O18 0.711817 0.486413 0.968875
#
# Coordination Sequence:
#
# PCOD8024089 Si02
#       8
#     2   2   2   2   2   2   2   2
#     4  12  26  46  73 107 144 193 236 290 359 437
#     4  11  22  43  71 101 142 180 235 285 360 421
#     4  11  25  42  69  99 132 185 229 300 351 409
#     4  10  23  42  70 105 133 185 223 295 351 423
#     4  12  29  46  75 105 140 193 245 299 358 417
#     4  11  24  45  71  99 146 174 245 286 358 417
#     4  12  26  48  71 101 150 189 238 299 355 425
#     4  11  24  44  67  99 140 174 239 282 353 422
#
# _framework density 23.069383999999999
#
# number of rings (size 3 to 8) (size 9 to 14) (size 15 to 20)
#    0.000    0.750    2.500    4.125    5.250    0.000 
#    2.250    0.000    0.000    0.000    0.000    0.000 
#    0.000    0.000    0.000    0.000    0.000    0.000 
#
# Total GULP energy -198298.918430 kJ/mol
# GULP energy per Si atom -12393.682402 kJ/mol
# Density = 2.301688 g / cm^3
# Si number density = 23.069384 Si / 1000 Ang^3
#
#
#
# Elastic Constant Matrix: (Units=GPa)
#
#
# Indices 1 2 3 4 5 6 
#
# 1 91.2430 37.8097 30.3561 0.4845 -11.8385 -2.0173
# 2 37.8097 159.4829 51.8646 -0.1646 -25.7913 7.8680
# 3 30.3561 51.8646 158.9363 -6.8941 -26.0876 -2.7217
# 4 0.4845 -0.1646 -6.8941 29.2410 -5.8613 0.8836
# 5 -11.8385 -25.7913 -26.0876 -5.8613 43.8361 -2.9381
# 6 -2.0173 7.8680 -2.7217 0.8836 -2.9381 32.6291
#
#
#
# Elastic Compliance Matrix: (Units=1/GPa)
#
#
# Indices 1 2 3 4 5 6 
#
# 1 0.012615 -0.002403 -0.001422 -0.000361 0.001189 0.001358
# 2 -0.002403 0.007958 -0.001672 0.000341 0.002953 -0.001950
# 3 -0.001422 -0.001672 0.007855 0.002577 0.003734 0.001237
# 4 -0.000361 0.000341 0.002577 0.036115 0.006447 -0.000287
# 5 0.001189 0.002953 0.003734 0.006447 0.028091 0.002028
# 6 0.001358 -0.001950 0.001237 -0.000287 0.002028 0.031495
#
#
# Mechanical properties :
#
#
# Convention : Reuss Voigt Hill
#
# Bulk Modulus (GPa) = 57.36171 72.19142 64.77657
# Shear Modulus (GPa) = 35.47738 40.45004 37.96371
#
# Velocity S-wave (km/s) = 3.92580 4.19191 4.06104
# Velocity P-wave (km/s) = 6.74300 7.40207 7.08021
#
# Compressibility (1/GPa) = 0.01743323
#
# Stress axis : x y z
#
# Youngs Moduli (GPa) = 79.27045 125.66313 127.30832
#
# Poissons Ratio (x) = 0.30199 0.18108
# Poissons Ratio (y) = 0.19050 0.21282
# Poissons Ratio (z) = 0.11275 0.21007
#
# Static dielectric constant tensor:
#      x y z
#    x 1.444420 -1.841330 -0.401980 
#    y -1.841330 3.631300 0.240850 
#    z -0.401980 0.240850 4.389920 
# 
# 
# High freq. dielectric constant tensor:
#      x y z
#    x 1.919130 -0.001070 -0.009610 
#    y -0.001070 1.930070 0.011410 
#    z -0.009610 0.011410 1.921020 
# 
# From -- ./inp_files/98563.got.cif
#   From: 2010.06.25/outbox.cif.g09.slc.cpg/sg2_50_cif.got.tgz:98563.got - 2010.06.27 13:26:56.
