data_PCOD8024155
_publ_section_title
;
Structure prediction by ZEFSAII (Michael W. Deem and Ramdas Pophale) SiO2 
 PCOD8024155
Probable space group: P -1
;
_chemical_formula_sum "Si O2"
_cell_formula_units_Z 14
_cell_length_a 9.156616
_cell_length_b 5.138909
_cell_length_c 13.495222
_cell_angle_alpha 102.146755
_cell_angle_beta 99.622958
_cell_angle_gamma 87.910953
_cell_volume 612.065274
_symmetry_space_group_name_H-M "P -1"
_symmetry_group_IT_number 2
_symmetry_cell_setting 'triclinic'
loop_
_space_group_symop_operation_xyz
x,y,z
-x,-y,-z
loop_
_atom_site_type_symbol
_atom_site_label
_atom_site_fract_x
_atom_site_fract_y
_atom_site_fract_z
Si Si1 0.925520 0.361711 0.255767
Si Si2 0.507356 0.168413 0.370740
Si Si3 0.983774 0.098606 0.617793
Si Si4 0.341775 0.691278 0.410370
Si Si5 0.615004 0.707787 0.985191
Si Si6 0.632050 0.102142 0.169002
Si Si7 0.070045 0.286639 0.060622
O O1 0.760426 0.319603 0.191043
O O2 0.911010 0.650464 0.328845
O O3 0.039367 0.350859 0.177069
O O4 0.976857 0.141942 0.323973
O O5 0.378081 0.388560 0.354624
O O6 0.630994 0.296977 0.467229
O O7 0.590754 0.073266 0.275416
O O8 0.450737 0.893680 0.385864
O O9 0.822180 0.221681 0.628936
O O10 0.000000 0.000000 0.500000
O O11 0.694067 0.837286 0.101811
O O12 0.500000 0.500000 0.000000
O O13 0.515812 0.871109 0.910247
O O14 0.755415 0.647820 0.926860
O O15 0.000000 0.500000 0.000000
O O16 0.000000 0.000000 0.000000
#
# Coordination Sequence:
#
# PCOD8024155 Si02
#       7
#     2   2   2   2   2   2   2
#     4  12  27  46  76 106 145 200 241 296 382 439
#     4  10  23  42  71  96 142 181 229 295 355 423
#     4  12  27  46  73 106 148 188 249 303 364 440
#     4  10  23  44  65 105 136 182 234 291 355 423
#     4  11  27  46  74 105 146 189 249 305 361 438
#     4  11  26  45  69 106 139 188 242 293 367 426
#     4  12  26  50  75 107 152 194 246 313 369 442
#
# _framework density 22.873380000000001
#
# number of rings (size 3 to 8) (size 9 to 14) (size 15 to 20)
#    0.000    0.857    1.429    3.857   10.000    3.429 
#    0.000    0.000    0.000    0.000    0.000    0.000 
#    0.000    0.000    0.000    0.000    0.000    0.000 
#
# Total GULP energy -173437.213742 kJ/mol
# GULP energy per Si atom -12388.372410 kJ/mol
# Density = 2.282132 g / cm^3
# Si number density = 22.873380 Si / 1000 Ang^3
#
#
#
# Elastic Constant Matrix: (Units=GPa)
#
#
# Indices 1 2 3 4 5 6 
#
# 1 110.7008 14.6180 53.8512 0.7868 -5.9850 17.2821
# 2 14.6180 131.4561 70.0345 -3.3025 -1.4395 4.8442
# 3 53.8512 70.0345 156.8565 8.4089 -25.8251 6.1628
# 4 0.7868 -3.3025 8.4089 41.9581 2.5689 6.9570
# 5 -5.9850 -1.4395 -25.8251 2.5689 31.6551 -0.4059
# 6 17.2821 4.8442 6.1628 6.9570 -0.4059 39.3763
#
#
#
# Elastic Compliance Matrix: (Units=1/GPa)
#
#
# Indices 1 2 3 4 5 6 
#
# 1 0.011928 0.001557 -0.005020 0.001854 -0.001984 -0.004989
# 2 0.001557 0.010793 -0.006169 0.002588 -0.004477 -0.001549
# 3 -0.005020 -0.006169 0.012518 -0.003763 0.009311 0.001764
# 4 0.001854 0.002588 -0.003763 0.025905 -0.004770 -0.005169
# 5 -0.001984 -0.004477 0.009311 -0.004770 0.039011 0.001209
# 6 -0.004989 -0.001549 0.001764 -0.005169 0.001209 0.028426
#
#
# Mechanical properties :
#
#
# Convention : Reuss Voigt Hill
#
# Bulk Modulus (GPa) = 62.59348 75.11344 68.85346
# Shear Modulus (GPa) = 32.64306 39.96520 36.30413
#
# Velocity S-wave (km/s) = 3.78182 4.18453 3.98826
# Velocity P-wave (km/s) = 6.81867 7.50048 7.16768
#
# Compressibility (1/GPa) = 0.01597610
#
# Stress axis : x y z
#
# Youngs Moduli (GPa) = 83.83368 92.64894 79.88208
#
# Poissons Ratio (x) = -0.14424 0.40104
# Poissons Ratio (y) = -0.13052 0.49276
# Poissons Ratio (z) = 0.42087 0.57152
#
# Static dielectric constant tensor:
#      x y z
#    x 4.255940 0.046690 0.507960 
#    y 0.046690 4.338160 0.475660 
#    z 0.507960 0.475660 5.397390 
# 
# 
# High freq. dielectric constant tensor:
#      x y z
#    x 1.912910 0.001430 0.002530 
#    y 0.001430 1.905460 0.001560 
#    z 0.002530 0.001560 1.921890 
# 
# From -- ./inp_files/141041.got.cif
#   From: 2010.06.25/outbox.cif.g09.slc.cpg/sg2_71_cif.got.tgz:141041.got - 2010.06.27 13:26:56.
