data_PCOD8024185
_publ_section_title
;
Structure prediction by ZEFSAII (Michael W. Deem and Ramdas Pophale) SiO2 
 PCOD8024185
Probable space group: P -1
;
_chemical_formula_sum "Si O2"
_cell_formula_units_Z 14
_cell_length_a 8.846852
_cell_length_b 9.344360
_cell_length_c 8.503075
_cell_angle_alpha 88.289063
_cell_angle_beta 64.887922
_cell_angle_gamma 99.119864
_cell_volume 624.726649
_symmetry_space_group_name_H-M "P -1"
_symmetry_group_IT_number 2
_symmetry_cell_setting 'triclinic'
loop_
_space_group_symop_operation_xyz
x,y,z
-x,-y,-z
loop_
_atom_site_type_symbol
_atom_site_label
_atom_site_fract_x
_atom_site_fract_y
_atom_site_fract_z
Si Si1 0.176765 0.633555 0.814601
Si Si2 0.762718 0.897799 0.216698
Si Si3 0.817764 0.644264 0.000556
Si Si4 0.929187 0.986698 0.705716
Si Si5 0.484810 0.335094 0.458004
Si Si6 0.297683 0.864779 0.995834
Si Si7 0.379644 0.262948 0.155795
O O1 0.211368 0.472366 0.842216
O O2 0.324967 0.703283 0.624959
O O3 0.190635 0.718999 0.971311
O O4 0.989061 0.628433 0.828251
O O5 0.849923 0.804759 0.058720
O O6 0.627266 0.787518 0.383002
O O7 0.908552 0.996218 0.252125
O O8 0.671287 0.005917 0.151912
O O9 0.647747 0.614052 0.964939
O O10 0.812290 0.828474 0.769898
O O11 0.808329 0.101625 0.804992
O O12 0.000000 0.000000 0.500000
O O13 0.500000 0.500000 0.500000
O O14 0.416090 0.326492 0.310197
O O15 0.484091 0.833116 0.961562
#
# Coordination Sequence:
#
# PCOD8024185 Si02
#       7
#     2   2   2   2   2   2   2
#     4  10  23  42  72  96 136 177 231 266 341 403
#     4  12  23  43  72  95 139 182 220 274 342 394
#     4  11  22  44  72  97 128 187 225 273 335 405
#     4  12  23  42  67 102 137 167 225 283 332 390
#     4  11  24  45  66  99 141 176 221 281 336 396
#     4  11  24  43  68 101 132 183 225 271 338 403
#     4  11  25  44  68 100 137 172 230 278 331 401
#
# _framework density 22.409800000000001
#
# number of rings (size 3 to 8) (size 9 to 14) (size 15 to 20)
#    0.000    0.857    5.714    1.714    0.000    4.571 
#    2.571    0.714    0.000    0.000    0.000    0.000 
#    0.000    0.000    0.000    0.000    0.000    0.000 
#
# Total GULP energy -173497.416636 kJ/mol
# GULP energy per Si atom -12392.672617 kJ/mol
# Density = 2.235879 g / cm^3
# Si number density = 22.409800 Si / 1000 Ang^3
#
#
#
# Elastic Constant Matrix: (Units=GPa)
#
#
# Indices 1 2 3 4 5 6 
#
# 1 153.4694 48.1965 69.5623 -1.1255 -10.5488 -25.9294
# 2 48.1965 84.7632 19.9776 12.1799 0.9855 -7.6723
# 3 69.5623 19.9776 119.5473 21.7054 -13.5317 -9.0053
# 4 -1.1255 12.1799 21.7054 28.6670 7.3627 2.6681
# 5 -10.5488 0.9855 -13.5317 7.3627 39.1549 -2.1246
# 6 -25.9294 -7.6723 -9.0053 2.6681 -2.1246 44.9422
#
#
#
# Elastic Compliance Matrix: (Units=1/GPa)
#
#
# Indices 1 2 3 4 5 6 
#
# 1 0.012696 -0.006280 -0.007656 0.008697 -0.000476 0.004180
# 2 -0.006280 0.016079 0.002755 -0.009350 0.000628 0.000258
# 3 -0.007656 0.002755 0.015832 -0.015089 0.006199 0.000415
# 4 0.008697 -0.009350 -0.015089 0.054289 -0.013032 -0.003441
# 5 -0.000476 0.000628 0.006199 -0.013032 0.030166 0.003275
# 6 0.004180 0.000258 0.000415 -0.003441 0.003275 0.025149
#
#
# Mechanical properties :
#
#
# Convention : Reuss Voigt Hill
#
# Bulk Modulus (GPa) = 44.95400 70.36139 57.65770
# Shear Modulus (GPa) = 27.17594 37.22238 32.19916
#
# Velocity S-wave (km/s) = 3.48613 4.07994 3.79467
# Velocity P-wave (km/s) = 6.02559 7.32532 6.70701
#
# Compressibility (1/GPa) = 0.02224496
#
# Stress axis : x y z
#
# Youngs Moduli (GPa) = 78.76743 62.19437 63.16399
#
# Poissons Ratio (x) = 0.39059 0.48357
# Poissons Ratio (y) = 0.49467 -0.17405
# Poissons Ratio (z) = 0.60303 -0.17137
#
# Static dielectric constant tensor:
#      x y z
#    x 4.321930 -0.054270 -0.102910 
#    y -0.054270 4.309490 -0.054830 
#    z -0.102910 -0.054830 4.189440 
# 
# 
# High freq. dielectric constant tensor:
#      x y z
#    x 1.892890 0.005900 -0.017090 
#    y 0.005900 1.891500 0.002820 
#    z -0.017090 0.002820 1.872400 
# 
# From -- ./inp_files/157886.got.cif
#   From: 2010.06.25/outbox.cif.g09.slc.cpg/sg2_79_cif.got.tgz:157886.got - 2010.06.27 13:26:56.
