data_PCOD8024394
_publ_section_title
;
Structure prediction by ZEFSAII (Michael W. Deem and Ramdas Pophale) SiO2 
 PCOD8024394
Probable space group: P -1
;
_chemical_formula_sum "Si O2"
_cell_formula_units_Z 14
_cell_length_a 19.767421
_cell_length_b 7.817934
_cell_length_c 17.277165
_cell_angle_alpha 136.671858
_cell_angle_beta 19.865176
_cell_angle_gamma 126.640352
_cell_volume 577.216253
_symmetry_space_group_name_H-M "P -1"
_symmetry_group_IT_number 2
_symmetry_cell_setting 'triclinic'
loop_
_space_group_symop_operation_xyz
x,y,z
-x,-y,-z
loop_
_atom_site_type_symbol
_atom_site_label
_atom_site_fract_x
_atom_site_fract_y
_atom_site_fract_z
Si Si1 0.913680 0.567237 0.418515
Si Si2 0.129908 0.199818 0.735421
Si Si3 0.300592 0.841841 0.218501
Si Si4 0.793165 0.154439 0.323151
Si Si5 0.021515 0.191531 0.318842
Si Si6 0.445533 0.988629 0.877621
Si Si7 0.634500 0.465834 0.102954
O O1 0.917048 0.464053 0.469645
O O2 0.799987 0.888321 0.636946
O O3 0.799044 0.431367 0.440377
O O4 0.154688 0.468087 0.093757
O O5 0.325213 0.181343 0.463467
O O6 0.233999 0.038703 0.646411
O O7 0.972276 0.069182 0.822771
O O8 0.000000 0.500000 0.000000
O O9 0.501783 0.839925 0.053626
O O10 0.122050 0.785491 0.443066
O O11 0.397460 0.598298 0.974121
O O12 0.563179 0.270775 0.565775
O O13 0.000000 0.000000 0.000000
O O14 0.262130 0.172221 0.076257
O O15 0.339125 0.787167 0.955883
#
# Coordination Sequence:
#
# PCOD8024394 Si02
#       7
#     2   2   2   2   2   2   2
#     4  11  24  44  68 101 139 171 228 274 331 405
#     4  10  23  43  66  94 132 173 227 280 333 393
#     4  11  24  44  68  99 139 181 219 275 334 401
#     4  11  25  44  68  97 132 176 224 280 337 393
#     4  10  24  43  64 102 135 177 219 278 336 393
#     4  11  22  41  68  94 135 178 218 271 338 391
#     4  12  24  41  71  99 132 180 225 271 339 397
#
# _framework density 24.254342000000001
#
# number of rings (size 3 to 8) (size 9 to 14) (size 15 to 20)
#    0.000    1.143    2.857    2.571    2.000    1.714 
#    2.571    4.286    0.000    0.000    0.000    0.000 
#    0.000    0.000    0.000    0.000    0.000    0.000 
#
# Total GULP energy -173570.822040 kJ/mol
# GULP energy per Si atom -12397.915860 kJ/mol
# Density = 2.419914 g / cm^3
# Si number density = 24.254342 Si / 1000 Ang^3
#
#
#
# Elastic Constant Matrix: (Units=GPa)
#
#
# Indices 1 2 3 4 5 6 
#
# 1 81.1458 11.5829 20.5941 -2.9529 -21.6647 -9.5836
# 2 11.5829 70.0206 13.0616 -15.0275 -8.0975 -8.4467
# 3 20.5941 13.0616 105.0575 -7.6149 -22.2133 -6.9053
# 4 -2.9529 -15.0275 -7.6149 34.3796 1.6738 4.7541
# 5 -21.6647 -8.0975 -22.2133 1.6738 40.3213 -12.1203
# 6 -9.5836 -8.4467 -6.9053 4.7541 -12.1203 25.4284
#
#
#
# Elastic Compliance Matrix: (Units=1/GPa)
#
#
# Indices 1 2 3 4 5 6 
#
# 1 0.017393 0.000039 0.000246 -0.000924 0.013508 0.013246
# 2 0.000039 0.017079 -0.000115 0.006223 0.005229 0.006986
# 3 0.000246 -0.000115 0.011909 0.001175 0.008805 0.007265
# 4 -0.000924 0.006223 0.001175 0.032710 -0.001381 -0.004736
# 5 0.013508 0.005229 0.008805 -0.001381 0.047700 0.032213
# 6 0.013246 0.006986 0.007265 -0.004736 0.032213 0.064851
#
#
# Mechanical properties :
#
#
# Convention : Reuss Voigt Hill
#
# Bulk Modulus (GPa) = 21.40419 38.52234 29.96327
# Shear Modulus (GPa) = 24.16881 34.09155 29.13018
#
# Velocity S-wave (km/s) = 3.16012 3.75318 3.46935
# Velocity P-wave (km/s) = 4.70736 5.89058 5.33189
#
# Compressibility (1/GPa) = 0.04671982
#
# Stress axis : x y z
#
# Youngs Moduli (GPa) = 57.49445 58.54982 83.96886
#
# Poissons Ratio (x) = -0.00227 -0.02062
# Poissons Ratio (y) = -0.00223 0.00968
# Poissons Ratio (z) = -0.01412 0.00675
#
# Static dielectric constant tensor:
#      x y z
#    x 4.426520 -0.095620 -0.036650 
#    y -0.095620 4.504390 -0.239370 
#    z -0.036650 -0.239370 4.269810 
# 
# 
# High freq. dielectric constant tensor:
#      x y z
#    x 1.957370 -0.013050 -0.010740 
#    y -0.013050 1.971190 -0.015850 
#    z -0.010740 -0.015850 1.972760 
# 
# From -- ./inp_files/577462.got.cif
#   From: 2010.06.25/outbox.cif.g09.slc.cpg/sg2_289_cif.got.tgz:577462.got - 2010.06.27 13:26:56.
