data_PCOD8024191
_publ_section_title
;
Structure prediction by ZEFSAII (Michael W. Deem and Ramdas Pophale) SiO2 
 PCOD8024191
Probable space group: P -1
;
_chemical_formula_sum "Si O2"
_cell_formula_units_Z 14
_cell_length_a 8.411464
_cell_length_b 9.092179
_cell_length_c 18.727740
_cell_angle_alpha 50.671713
_cell_angle_beta 35.085753
_cell_angle_gamma 67.145894
_cell_volume 608.899693
_symmetry_space_group_name_H-M "P -1"
_symmetry_group_IT_number 2
_symmetry_cell_setting 'triclinic'
loop_
_space_group_symop_operation_xyz
x,y,z
-x,-y,-z
loop_
_atom_site_type_symbol
_atom_site_label
_atom_site_fract_x
_atom_site_fract_y
_atom_site_fract_z
Si Si1 0.720482 0.652113 0.732495
Si Si2 0.848876 0.051930 0.970387
Si Si3 0.745705 0.848417 0.425627
Si Si4 0.841920 0.589589 0.353237
Si Si5 0.294402 0.158308 0.173093
Si Si6 0.200536 0.301535 0.011972
Si Si7 0.572788 0.185096 0.314045
O O1 0.660362 0.688075 0.825492
O O2 0.697805 0.839959 0.634424
O O3 0.013005 0.589110 0.638553
O O4 0.455317 0.494019 0.835695
O O5 0.023281 0.266250 0.806936
O O6 0.806091 0.885004 0.977414
O O7 0.541921 0.051219 0.114364
O O8 0.000000 0.000000 0.000000
O O9 0.896903 0.706643 0.372057
O O10 0.495348 0.732820 0.608503
O O11 0.614005 0.966531 0.378579
O O12 0.982400 0.996752 0.343428
O O13 0.500000 0.500000 0.500000
O O14 0.315458 0.275637 0.056166
O O15 0.879503 0.328466 0.126712
#
# Coordination Sequence:
#
# PCOD8024191 Si02
#       7
#     2   2   2   2   2   2   2
#     4  12  26  41  69 109 134 174 233 287 334 400
#     4  12  25  45  71 101 137 187 230 277 344 413
#     4  10  24  47  70  92 140 188 221 273 353 408
#     4  12  28  45  69 100 141 178 231 287 342 399
#     4  11  23  41  72  96 136 179 226 274 340 404
#     4  11  22  44  71  98 140 175 226 279 344 404
#     4  10  23  42  72  98 136 178 228 275 341 408
#
# _framework density 22.992293
#
# number of rings (size 3 to 8) (size 9 to 14) (size 15 to 20)
#    0.000    0.857    4.286    3.000    6.000    3.429 
#    0.000    0.000    0.000    0.000    0.000    0.000 
#    0.000    0.000    0.000    0.000    0.000    0.000 
#
# Total GULP energy -173521.806474 kJ/mol
# GULP energy per Si atom -12394.414748 kJ/mol
# Density = 2.293996 g / cm^3
# Si number density = 22.992293 Si / 1000 Ang^3
#
#
#
# Elastic Constant Matrix: (Units=GPa)
#
#
# Indices 1 2 3 4 5 6 
#
# 1 143.1988 75.0656 23.3676 18.2146 -7.8135 -17.0804
# 2 75.0656 116.8900 51.6236 38.6454 -8.1247 -2.2129
# 3 23.3676 51.6236 85.9936 22.5536 -14.8679 -4.2852
# 4 18.2146 38.6454 22.5536 38.5946 3.9896 -11.4768
# 5 -7.8135 -8.1247 -14.8679 3.9896 33.3252 12.0427
# 6 -17.0804 -2.2129 -4.2852 -11.4768 12.0427 40.8630
#
#
#
# Elastic Compliance Matrix: (Units=1/GPa)
#
#
# Indices 1 2 3 4 5 6 
#
# 1 0.012240 -0.010621 0.001246 0.006559 -0.002577 0.007274
# 2 -0.010621 0.025386 -0.006002 -0.021287 0.007907 -0.012003
# 3 0.001246 -0.006002 0.017987 -0.006644 0.008473 -0.002281
# 4 0.006559 -0.021287 -0.006644 0.057249 -0.021939 0.023437
# 5 -0.002577 0.007907 0.008473 -0.021939 0.044631 -0.019075
# 6 0.007274 -0.012003 -0.002281 0.023437 -0.019075 0.038827
#
#
# Mechanical properties :
#
#
# Convention : Reuss Voigt Hill
#
# Bulk Modulus (GPa) = 40.22447 71.79956 56.01201
# Shear Modulus (GPa) = 21.24401 35.62493 28.43447
#
# Velocity S-wave (km/s) = 3.04297 3.94055 3.52048
# Velocity P-wave (km/s) = 5.46617 7.21106 6.39837
#
# Compressibility (1/GPa) = 0.02486049
#
# Stress axis : x y z
#
# Youngs Moduli (GPa) = 81.69880 39.39108 55.59588
#
# Poissons Ratio (x) = 0.41837 -0.06930
# Poissons Ratio (y) = 0.86772 0.33369
# Poissons Ratio (z) = -0.10184 0.23643
#
# Static dielectric constant tensor:
#      x y z
#    x 4.225800 -0.129800 0.009740 
#    y -0.129800 4.020000 0.056790 
#    z 0.009740 0.056790 4.226110 
# 
# 
# High freq. dielectric constant tensor:
#      x y z
#    x 1.915410 -0.011350 -0.000130 
#    y -0.011350 1.909250 0.017830 
#    z -0.000130 0.017830 1.911960 
# 
# From -- ./inp_files/492687.got.cif
#   From: 2010.06.25/outbox.cif.g09.slc.cpg/sg2_247_cif.got.tgz:492687.got - 2010.06.27 13:26:56.
