data_PCOD8024874
_publ_section_title
;
Structure prediction by ZEFSAII (Michael W. Deem and Ramdas Pophale) SiO2 
 PCOD8024874
Probable space group: P -1
;
_chemical_formula_sum "Si O2"
_cell_formula_units_Z 16
_cell_length_a 16.690715
_cell_length_b 16.442936
_cell_length_c 6.655869
_cell_angle_alpha 50.906264
_cell_angle_beta 50.649950
_cell_angle_gamma 31.581514
_cell_volume 721.077961
_symmetry_space_group_name_H-M "P -1"
_symmetry_group_IT_number 2
_symmetry_cell_setting 'triclinic'
loop_
_space_group_symop_operation_xyz
x,y,z
-x,-y,-z
loop_
_atom_site_type_symbol
_atom_site_label
_atom_site_fract_x
_atom_site_fract_y
_atom_site_fract_z
Si Si1 0.140488 0.971373 0.561786
Si Si2 0.444370 0.983219 0.310356
Si Si3 0.031578 0.850599 0.055474
Si Si4 0.974347 0.750503 0.960970
Si Si5 0.707192 0.573333 0.959836
Si Si6 0.482940 0.747756 0.392245
Si Si7 0.362070 0.521961 0.146383
Si Si8 0.736580 0.771568 0.459780
O O1 0.325065 0.805887 0.489369
O O2 0.086409 0.113575 0.302401
O O3 0.051494 0.928036 0.733029
O O4 0.108203 0.015490 0.780027
O O5 0.414787 0.888250 0.429888
O O6 0.575303 0.886198 0.420976
O O7 0.288928 0.150043 0.405915
O O8 0.500000 0.000000 0.000000
O O9 0.194177 0.707711 0.142829
O O10 0.977942 0.787785 0.125617
O O11 0.859615 0.737330 0.171502
O O12 0.153313 0.582954 0.882246
O O13 0.632630 0.543566 0.973919
O O14 0.788003 0.611600 0.661615
O O15 0.567434 0.723153 0.092254
O O16 0.615400 0.578751 0.555421
O O17 0.500000 0.500000 0.000000
#
# Coordination Sequence:
#
# PCOD8024874 Si02
#       8
#     2   2   2   2   2   2   2   2
#     4  11  23  41  66  94 125 171 216 267 323 378
#     4  11  22  39  65  97 132 163 214 268 313 378
#     4  10  23  44  64  91 129 170 217 266 320 379
#     4  11  24  42  63  94 132 168 217 263 319 381
#     4  11  25  43  66  96 132 171 213 264 320 389
#     4  12  23  41  69  99 127 170 216 263 327 381
#     4  11  23  45  65  95 128 170 213 267 321 381
#     4  11  23  41  66  96 129 175 213 262 320 380
#
# _framework density 22.189001999999999
#
# number of rings (size 3 to 8) (size 9 to 14) (size 15 to 20)
#    0.000    1.000    3.750    3.000    1.750    1.500 
#    2.250    0.625    0.000    0.000    0.000    0.000 
#    0.000    0.000    0.000    0.000    0.000    0.000 
#
# Total GULP energy -198290.828754 kJ/mol
# GULP energy per Si atom -12393.176797 kJ/mol
# Density = 2.213850 g / cm^3
# Si number density = 22.189002 Si / 1000 Ang^3
#
#
#
# Elastic Constant Matrix: (Units=GPa)
#
#
# Indices 1 2 3 4 5 6 
#
# 1 75.0895 17.5223 15.5862 3.7525 -15.4740 8.1414
# 2 17.5223 85.8858 36.0218 -4.7609 -2.7435 -0.1260
# 3 15.5862 36.0218 107.3484 -13.1302 -12.0018 -9.5646
# 4 3.7525 -4.7609 -13.1302 41.2388 -0.1726 2.6801
# 5 -15.4740 -2.7435 -12.0018 -0.1726 29.8038 -1.3898
# 6 8.1414 -0.1260 -9.5646 2.6801 -1.3898 34.1743
#
#
#
# Elastic Compliance Matrix: (Units=1/GPa)
#
#
# Indices 1 2 3 4 5 6 
#
# 1 0.016242 -0.002688 -0.001181 -0.001889 0.007524 -0.003756
# 2 -0.002688 0.014064 -0.004555 0.000455 -0.001965 -0.000698
# 3 -0.001181 -0.004555 0.012186 0.003245 0.004061 0.003586
# 4 -0.001889 0.000455 0.003245 0.025549 0.000487 -0.000624
# 5 0.007524 -0.001965 0.004061 0.000487 0.038957 0.000883
# 6 -0.003756 -0.000698 0.003586 -0.000624 0.000883 0.031242
#
#
# Mechanical properties :
#
#
# Convention : Reuss Voigt Hill
#
# Bulk Modulus (GPa) = 38.99656 45.17603 42.08630
# Shear Modulus (GPa) = 30.55555 34.32296 32.43925
#
# Velocity S-wave (km/s) = 3.71490 3.93726 3.82770
# Velocity P-wave (km/s) = 6.00113 6.40884 6.20833
#
# Compressibility (1/GPa) = 0.02564329
#
# Stress axis : x y z
#
# Youngs Moduli (GPa) = 61.56937 71.10459 82.06235
#
# Poissons Ratio (x) = 0.19116 0.09688
# Poissons Ratio (y) = 0.16552 0.37381
# Poissons Ratio (z) = 0.07268 0.32390
#
# Static dielectric constant tensor:
#      x y z
#    x 4.050740 0.192820 -0.126800 
#    y 0.192820 4.118560 -0.219990 
#    z -0.126800 -0.219990 3.904910 
# 
# 
# High freq. dielectric constant tensor:
#      x y z
#    x 1.871480 0.003600 -0.010600 
#    y 0.003600 1.874210 -0.009730 
#    z -0.010600 -0.009730 1.874080 
# 
# From -- ./inp_files/84259.got.cif
#   From: 2010.06.25/outbox.cif.g09.slc.cpg/sg2_43_cif.got.tgz:84259.got - 2010.06.27 13:26:56.
