data_PCOD8024969
_publ_section_title
;
Structure prediction by ZEFSAII (Michael W. Deem and Ramdas Pophale) SiO2 
 PCOD8024969
Probable space group: P -1
;
_chemical_formula_sum "Si O2"
_cell_formula_units_Z 16
_cell_length_a 15.677869
_cell_length_b 7.199733
_cell_length_c 21.202684
_cell_angle_alpha 61.658115
_cell_angle_beta 158.630698
_cell_angle_gamma 108.952435
_cell_volume 714.332575
_symmetry_space_group_name_H-M "P -1"
_symmetry_group_IT_number 2
_symmetry_cell_setting 'triclinic'
loop_
_space_group_symop_operation_xyz
x,y,z
-x,-y,-z
loop_
_atom_site_type_symbol
_atom_site_label
_atom_site_fract_x
_atom_site_fract_y
_atom_site_fract_z
Si Si1 0.656762 0.944653 0.826109
Si Si2 0.716194 0.193160 0.479808
Si Si3 0.168812 0.739192 0.894578
Si Si4 0.465872 0.025391 0.898626
Si Si5 0.447220 0.307438 0.087975
Si Si6 0.121381 0.530646 0.216898
Si Si7 0.084241 0.707076 0.526820
Si Si8 0.454785 0.466535 0.577568
O O1 0.521234 0.882504 0.682256
O O2 0.559325 0.876202 0.834912
O O3 0.594583 0.212686 0.740747
O O4 0.956548 0.798650 0.051297
O O5 0.765722 0.304699 0.432605
O O6 0.667249 0.365247 0.476377
O O7 0.962573 0.974705 0.695789
O O8 0.059227 0.617360 0.893030
O O9 0.241398 0.558527 0.915983
O O10 0.418698 0.789813 0.078043
O O11 0.608552 0.781709 0.003384
O O12 0.173272 0.080989 0.673130
O O13 0.500000 0.000000 0.000000
O O14 0.727233 0.313428 0.282213
O O15 0.237519 0.481962 0.375231
O O16 0.339513 0.452126 0.327841
O O17 0.000000 0.500000 0.500000
#
# Coordination Sequence:
#
# PCOD8024969 Si02
#       8
#     2   2   2   2   2   2   2   2
#     4  10  23  44  67 100 137 177 226 278 344 408
#     4  11  25  43  68  99 136 179 226 279 340 411
#     4  11  23  44  64  99 137 168 234 275 336 408
#     4  12  25  43  67  98 132 182 230 273 345 407
#     4  10  25  43  70  97 137 181 220 288 342 396
#     4  10  24  46  69 101 138 178 227 284 345 410
#     4  11  23  45  63 101 136 173 232 280 334 413
#     4  11  24  46  71 100 136 180 226 284 348 400
#
# _framework density 22.398530000000001
#
# number of rings (size 3 to 8) (size 9 to 14) (size 15 to 20)
#    0.000    1.250    3.750    0.750    5.250    1.500 
#    2.250    0.000    0.000    0.000    0.000    0.000 
#    0.000    0.000    0.000    0.000    0.000    0.000 
#
# Total GULP energy -198322.098966 kJ/mol
# GULP energy per Si atom -12395.131185 kJ/mol
# Density = 2.234755 g / cm^3
# Si number density = 22.398530 Si / 1000 Ang^3
#
#
#
# Elastic Constant Matrix: (Units=GPa)
#
#
# Indices 1 2 3 4 5 6 
#
# 1 75.8470 66.3521 33.4252 1.2603 14.2187 -8.8441
# 2 66.3521 139.8163 37.3872 -16.1259 12.3821 -9.1194
# 3 33.4252 37.3872 105.7463 -11.5572 12.4174 -1.1069
# 4 1.2603 -16.1259 -11.5572 38.5006 8.9737 6.9258
# 5 14.2187 12.3821 12.4174 8.9737 33.8309 1.9888
# 6 -8.8441 -9.1194 -1.1069 6.9258 1.9888 32.3422
#
#
#
# Elastic Compliance Matrix: (Units=1/GPa)
#
#
# Indices 1 2 3 4 5 6 
#
# 1 0.026963 -0.011685 -0.004698 -0.007349 -0.003718 0.005720
# 2 -0.011685 0.013615 -0.000215 0.006532 -0.001687 -0.000659
# 3 -0.004698 -0.000215 0.011931 0.004772 -0.003489 -0.001744
# 4 -0.007349 0.006532 0.004772 0.033826 -0.009634 -0.006656
# 5 -0.003718 -0.001687 -0.003489 -0.009634 0.035677 -0.001743
# 6 0.005720 -0.000659 -0.001744 -0.006656 -0.001743 0.033771
#
#
# Mechanical properties :
#
#
# Convention : Reuss Voigt Hill
#
# Bulk Modulus (GPa) = 51.78026 66.19319 58.98672
# Shear Modulus (GPa) = 25.58651 33.21774 29.40213
#
# Velocity S-wave (km/s) = 3.38350 3.85519 3.62702
# Velocity P-wave (km/s) = 6.19936 7.03088 6.62817
#
# Compressibility (1/GPa) = 0.01931238
#
# Stress axis : x y z
#
# Youngs Moduli (GPa) = 37.08785 73.44974 83.81744
#
# Poissons Ratio (x) = 0.85824 0.39380
# Poissons Ratio (y) = 0.43336 0.01802
# Poissons Ratio (z) = 0.17425 0.01580
#
# Static dielectric constant tensor:
#      x y z
#    x 3.398270 0.190760 -1.612430 
#    y 0.190760 4.149780 -0.094170 
#    z -1.612430 -0.094170 -1.788400 
# 
# 
# High freq. dielectric constant tensor:
#      x y z
#    x 1.863820 0.011890 0.016250 
#    y 0.011890 1.884190 -0.001920 
#    z 0.016250 -0.001920 1.897800 
# 
# From -- ./inp_files/612633.got.cif
#   From: 2010.06.25/outbox.cif.g09.slc.cpg/sg2_307_cif.got.tgz:612633.got - 2010.06.27 13:26:56.
