data_PCOD8024812
_publ_section_title
;
Structure prediction by ZEFSAII (Michael W. Deem and Ramdas Pophale) SiO2 
 PCOD8024812
Probable space group: P -1
;
_chemical_formula_sum "Si O2"
_cell_formula_units_Z 14
_cell_length_a 20.551948
_cell_length_b 9.175545
_cell_length_c 9.552359
_cell_angle_alpha 149.801742
_cell_angle_beta 46.161063
_cell_angle_gamma 136.249741
_cell_volume 614.357250
_symmetry_space_group_name_H-M "P -1"
_symmetry_group_IT_number 2
_symmetry_cell_setting 'triclinic'
loop_
_space_group_symop_operation_xyz
x,y,z
-x,-y,-z
loop_
_atom_site_type_symbol
_atom_site_label
_atom_site_fract_x
_atom_site_fract_y
_atom_site_fract_z
Si Si1 0.961669 0.583521 0.771773
Si Si2 0.777836 0.382459 0.236231
Si Si3 0.146484 0.104236 0.963543
Si Si4 0.405500 0.097122 0.376698
Si Si5 0.381094 0.684713 0.809237
Si Si6 0.260161 0.677407 0.438129
Si Si7 0.095277 0.940742 0.355659
O O1 0.930857 0.287117 0.665531
O O2 0.000000 0.500000 0.500000
O O3 0.867925 0.678951 0.960080
O O4 0.040674 0.870575 0.972673
O O5 0.696553 0.288134 0.162492
O O6 0.728782 0.302190 0.394718
O O7 0.830392 0.742877 0.438699
O O8 0.854424 0.202749 0.957841
O O9 0.201099 0.886665 0.642602
O O10 0.204432 0.320619 0.183965
O O11 0.356078 0.362157 0.664484
O O12 0.518507 0.252175 0.370412
O O13 0.362725 0.833106 0.339493
O O14 0.389473 0.953353 0.127978
O O15 0.000000 0.000000 0.500000
#
# Coordination Sequence:
#
# PCOD8024812 Si02
#       7
#     2   2   2   2   2   2   2
#     4  11  26  43  69  93 127 179 229 292 324 396
#     4  12  28  44  69  99 140 182 225 272 339 413
#     4  11  25  41  66  96 130 166 239 273 331 392
#     4  10  23  43  74 100 138 171 217 288 332 398
#     4  10  23  45  69 107 133 171 225 275 342 399
#     4  12  25  42  69  98 136 181 215 280 329 412
#     4  12  29  46  66  96 138 184 224 282 337 388
#
# _framework density 22.788043999999999
#
# number of rings (size 3 to 8) (size 9 to 14) (size 15 to 20)
#    0.000    0.857    1.429    3.857   12.000    0.571 
#    0.000    0.000    0.000    8.571    0.000    0.000 
#    0.000    0.000    0.000    0.000    0.000    0.000 
#
# Total GULP energy -173598.883841 kJ/mol
# GULP energy per Si atom -12399.920274 kJ/mol
# Density = 2.273618 g / cm^3
# Si number density = 22.788044 Si / 1000 Ang^3
#
#
#
# Elastic Constant Matrix: (Units=GPa)
#
#
# Indices 1 2 3 4 5 6 
#
# 1 63.5755 65.1981 12.9690 -3.7132 0.3756 -17.1815
# 2 65.1981 132.7744 29.9367 9.2233 7.5167 -5.9184
# 3 12.9690 29.9367 94.1195 17.0609 0.7112 3.2211
# 4 -3.7132 9.2233 17.0609 36.6630 -2.6704 -2.2560
# 5 0.3756 7.5167 0.7112 -2.6704 35.5202 8.4666
# 6 -17.1815 -5.9184 3.2211 -2.2560 8.4666 19.0897
#
#
#
# Elastic Compliance Matrix: (Units=1/GPa)
#
#
# Indices 1 2 3 4 5 6 
#
# 1 0.057346 -0.025875 -0.004372 0.016958 -0.005381 0.048720
# 2 -0.025875 0.020222 -0.000717 -0.008494 -0.000406 -0.017722
# 3 -0.004372 -0.000717 0.012915 -0.006653 0.001272 -0.007687
# 4 0.016958 -0.008494 -0.006653 0.035336 0.000151 0.017861
# 5 -0.005381 -0.000406 0.001272 0.000151 0.033002 -0.019803
# 6 0.048720 -0.017722 -0.007687 0.017861 -0.019803 0.102931
#
#
# Mechanical properties :
#
#
# Convention : Reuss Voigt Hill
#
# Bulk Modulus (GPa) = 35.02251 56.29744 45.65997
# Shear Modulus (GPa) = 15.00606 30.41229 22.70917
#
# Velocity S-wave (km/s) = 2.56892 3.65714 3.16023
# Velocity P-wave (km/s) = 4.91948 6.52621 5.77896
#
# Compressibility (1/GPa) = 0.02855307
#
# Stress axis : x y z
#
# Youngs Moduli (GPa) = 17.43805 49.45039 77.43043
#
# Poissons Ratio (x) = 1.27954 0.33855
# Poissons Ratio (y) = 0.45121 0.05555
# Poissons Ratio (z) = 0.07624 0.03548
#
# Static dielectric constant tensor:
#      x y z
#    x 3.991460 0.190980 -0.142920 
#    y 0.190980 4.194250 0.175080 
#    z -0.142920 0.175080 4.295950 
# 
# 
# High freq. dielectric constant tensor:
#      x y z
#    x 1.887010 0.001820 -0.004160 
#    y 0.001820 1.903250 0.017980 
#    z -0.004160 0.017980 1.916040 
# 
# From -- ./inp_files/343957.got.cif
#   From: 2010.06.25/outbox.cif.g09.slc.cpg/sg2_172_cif.got.tgz:343957.got - 2010.06.27 13:26:56.
