data_PCOD8024713
_publ_section_title
;
Structure prediction by ZEFSAII (Michael W. Deem and Ramdas Pophale) SiO2 
 PCOD8024713
Probable space group: P -1
;
_chemical_formula_sum "Si O2"
_cell_formula_units_Z 10
_cell_length_a 10.037327
_cell_length_b 7.731450
_cell_length_c 9.514936
_cell_angle_alpha 78.777661
_cell_angle_beta 123.687101
_cell_angle_gamma 134.727732
_cell_volume 411.887521
_symmetry_space_group_name_H-M "P -1"
_symmetry_group_IT_number 2
_symmetry_cell_setting 'triclinic'
loop_
_space_group_symop_operation_xyz
x,y,z
-x,-y,-z
loop_
_atom_site_type_symbol
_atom_site_label
_atom_site_fract_x
_atom_site_fract_y
_atom_site_fract_z
Si Si1 0.209879 0.844679 0.950025
Si Si2 0.574599 0.346050 0.940612
Si Si3 0.872134 0.447091 0.576825
Si Si4 0.075745 0.833251 0.174067
Si Si5 0.524222 0.593138 0.653154
O O1 0.044065 0.694861 0.740605
O O2 0.383837 0.152114 0.980937
O O3 0.361218 0.789476 0.071659
O O4 0.059695 0.756106 0.015389
O O5 0.461832 0.384707 0.754233
O O6 0.804915 0.623243 0.100559
O O7 0.789751 0.202069 0.645571
O O8 0.645228 0.379648 0.418521
O O9 0.000000 0.500000 0.500000
O O10 0.205930 0.125128 0.215074
O O11 0.500000 0.500000 0.500000
#
# Coordination Sequence:
#
# PCOD8024713 Si02
#       5
#     2   2   2   2   2
#     4  10  23  46  72  96 141 188 230 276 351 427
#     4  10  23  43  71 100 136 178 239 280 342 409
#     4  11  26  46  72 104 142 185 227 289 356 412
#     4  11  24  46  72  96 141 191 232 274 354 422
#     4  12  26  43  71 107 144 178 233 297 347 402
#
# _framework density 24.278475
#
# number of rings (size 3 to 8) (size 9 to 14) (size 15 to 20)
#    0.000    1.200    0.000    6.000   11.200    1.600 
#    3.600    0.000    0.000    0.000    0.000    0.000 
#    0.000    0.000    0.000    0.000    0.000    0.000 
#
# Total GULP energy -124034.864088 kJ/mol
# GULP energy per Si atom -12403.486409 kJ/mol
# Density = 2.422322 g / cm^3
# Si number density = 24.278475 Si / 1000 Ang^3
#
#
#
# Elastic Constant Matrix: (Units=GPa)
#
#
# Indices 1 2 3 4 5 6 
#
# 1 49.6064 17.1205 21.0111 -6.6214 -12.3938 -1.9716
# 2 17.1205 144.3571 35.7880 -18.8781 -4.6870 4.2588
# 3 21.0111 35.7880 101.2722 -19.8877 -5.8179 -5.7994
# 4 -6.6214 -18.8781 -19.8877 47.6336 -12.9907 4.9884
# 5 -12.3938 -4.6870 -5.8179 -12.9907 43.6397 -3.2950
# 6 -1.9716 4.2588 -5.7994 4.9884 -3.2950 30.5971
#
#
#
# Elastic Compliance Matrix: (Units=1/GPa)
#
#
# Indices 1 2 3 4 5 6 
#
# 1 0.024444 -0.001422 -0.003418 0.003284 0.007416 0.001388
# 2 -0.001422 0.008032 -0.002115 0.002518 0.000780 -0.001937
# 3 -0.003418 -0.002115 0.012361 0.004143 0.001830 0.001938
# 4 0.003284 0.002518 0.004143 0.027086 0.009612 -0.002734
# 5 0.007416 0.000780 0.001830 0.009612 0.028377 0.002205
# 6 0.001388 -0.001937 0.001938 -0.002734 0.002205 0.034093
#
#
# Mechanical properties :
#
#
# Convention : Reuss Voigt Hill
#
# Bulk Modulus (GPa) = 32.33560 49.23055 40.78308
# Shear Modulus (GPa) = 31.52364 39.12848 35.32606
#
# Velocity S-wave (km/s) = 3.60727 4.01890 3.81863
# Velocity P-wave (km/s) = 5.54052 6.46969 6.02305
#
# Compressibility (1/GPa) = 0.03092567
#
# Stress axis : x y z
#
# Youngs Moduli (GPa) = 40.91020 124.50144 80.90122
#
# Poissons Ratio (x) = 0.17707 0.27654
# Poissons Ratio (y) = 0.05818 0.17110
# Poissons Ratio (z) = 0.13984 0.26331
#
# Static dielectric constant tensor:
#      x y z
#    x 4.212850 0.070440 0.276350 
#    y 0.070440 4.705640 -0.145080 
#    z 0.276350 -0.145080 4.595210 
# 
# 
# High freq. dielectric constant tensor:
#      x y z
#    x 1.955300 0.002100 0.007850 
#    y 0.002100 1.983710 -0.012740 
#    z 0.007850 -0.012740 1.962760 
# 
# From -- ./inp_files/147239.got.cif
#   From: 2010.06.25/outbox.cif.g09.slc.cpg/sg2_74_cif.got.tgz:147239.got - 2010.06.27 13:26:56.
