data_PCOD8024901
_publ_section_title
;
Structure prediction by ZEFSAII (Michael W. Deem and Ramdas Pophale) SiO2 
 PCOD8024901
Probable space group: P -1
;
_chemical_formula_sum "Si O2"
_cell_formula_units_Z 14
_cell_length_a 11.874871
_cell_length_b 9.154018
_cell_length_c 14.025872
_cell_angle_alpha 129.507648
_cell_angle_beta 65.129308
_cell_angle_gamma 145.272068
_cell_volume 651.733374
_symmetry_space_group_name_H-M "P -1"
_symmetry_group_IT_number 2
_symmetry_cell_setting 'triclinic'
loop_
_space_group_symop_operation_xyz
x,y,z
-x,-y,-z
loop_
_atom_site_type_symbol
_atom_site_label
_atom_site_fract_x
_atom_site_fract_y
_atom_site_fract_z
Si Si1 0.322590 0.849464 0.135592
Si Si2 0.022131 0.171817 0.925678
Si Si3 0.729499 0.849402 0.069292
Si Si4 0.523167 0.854806 0.502806
Si Si5 0.264399 0.190966 0.286504
Si Si6 0.142885 0.837320 0.356231
Si Si7 0.309539 0.782661 0.725826
O O1 0.198023 0.716774 0.224875
O O2 0.341016 0.077292 0.172179
O O3 0.552189 0.055604 0.160148
O O4 0.186078 0.536036 0.995536
O O5 0.138725 0.135477 0.911070
O O6 0.935806 0.003286 0.783974
O O7 0.834891 0.005070 0.992757
O O8 0.727730 0.041946 0.210511
O O9 0.500000 0.500000 0.000000
O O10 0.423153 0.550668 0.363487
O O11 0.418253 0.793046 0.610980
O O12 0.500000 0.000000 0.500000
O O13 0.752779 0.065562 0.536454
O O14 0.223482 0.119297 0.385456
O O15 0.904123 0.579456 0.339404
#
# Coordination Sequence:
#
# PCOD8024901 Si02
#       7
#     2   2   2   2   2   2   2
#     4   9  20  40  64  92 125 164 207 265 315 371
#     4  11  22  40  66  93 138 162 212 265 323 379
#     4  11  23  38  63  97 130 175 208 262 322 381
#     4  11  26  43  65  93 132 171 214 266 317 380
#     4  10  23  44  65  95 129 173 207 263 329 374
#     4   9  22  43  65  87 128 164 218 258 318 367
#     4  11  22  42  67  93 127 172 218 261 316 381
#
# _framework density 21.481176000000001
#
# number of rings (size 3 to 8) (size 9 to 14) (size 15 to 20)
#    0.857    0.857    2.857    0.857    4.000    1.143 
#    2.571    1.429    0.000    0.000    0.000    0.000 
#    0.000    0.000    0.000    0.000    0.000    0.000 
#
# Total GULP energy -173455.113370 kJ/mol
# GULP energy per Si atom -12389.650955 kJ/mol
# Density = 2.143228 g / cm^3
# Si number density = 21.481176 Si / 1000 Ang^3
#
#
#
# Elastic Constant Matrix: (Units=GPa)
#
#
# Indices 1 2 3 4 5 6 
#
# 1 120.4984 51.7844 38.8031 16.8850 20.6291 0.2280
# 2 51.7844 78.7407 22.1497 29.8479 10.8151 4.6496
# 3 38.8031 22.1497 80.3492 31.7099 9.6952 -2.3445
# 4 16.8850 29.8479 31.7099 34.1149 0.5239 -2.0226
# 5 20.6291 10.8151 9.6952 0.5239 49.0379 6.9646
# 6 0.2280 4.6496 -2.3445 -2.0226 6.9646 42.5999
#
#
#
# Elastic Compliance Matrix: (Units=1/GPa)
#
#
# Indices 1 2 3 4 5 6 
#
# 1 0.014319 -0.010508 -0.007175 0.008906 -0.002599 0.001523
# 2 -0.010508 0.028221 0.008328 -0.027394 -0.002671 -0.003430
# 3 -0.007175 0.008328 0.024432 -0.026407 -0.003333 -0.000235
# 4 0.008906 -0.027394 -0.026407 0.073559 0.006166 0.003973
# 5 -0.002599 -0.002671 -0.003333 0.006166 0.023147 -0.003369
# 6 0.001523 -0.003430 -0.000235 0.003973 -0.003369 0.024567
#
#
# Mechanical properties :
#
#
# Convention : Reuss Voigt Hill
#
# Bulk Modulus (GPa) = 20.71991 56.11808 38.41900
# Shear Modulus (GPa) = 22.41731 36.27394 29.34562
#
# Velocity S-wave (km/s) = 3.23395 4.11376 3.70010
# Velocity P-wave (km/s) = 4.85913 6.98177 6.01482
#
# Compressibility (1/GPa) = 0.04826276
#
# Stress axis : x y z
#
# Youngs Moduli (GPa) = 69.83601 35.43468 40.92974
#
# Poissons Ratio (x) = 0.37233 0.29368
# Poissons Ratio (y) = 0.73380 -0.34086
# Poissons Ratio (z) = 0.50108 -0.29510
#
# Static dielectric constant tensor:
#      x y z
#    x 4.092670 0.063020 0.211450 
#    y 0.063020 3.671500 0.128810 
#    z 0.211450 0.128810 3.943340 
# 
# 
# High freq. dielectric constant tensor:
#      x y z
#    x 1.859380 0.003740 0.005270 
#    y 0.003740 1.819350 0.025170 
#    z 0.005270 0.025170 1.830520 
# 
# From -- ./inp_files/516246.got.cif
#   From: 2010.06.25/outbox.cif.g09.slc.cpg/sg2_259_cif.got.tgz:516246.got - 2010.06.27 13:26:56.
