data_PCOD8024765
_publ_section_title
;
Structure prediction by ZEFSAII (Michael W. Deem and Ramdas Pophale) SiO2 
 PCOD8024765
Probable space group: P -1
;
_chemical_formula_sum "Si O2"
_cell_formula_units_Z 16
_cell_length_a 17.590071
_cell_length_b 12.914044
_cell_length_c 7.916378
_cell_angle_alpha 84.495179
_cell_angle_beta 47.734078
_cell_angle_gamma 46.026469
_cell_volume 687.003644
_symmetry_space_group_name_H-M "P -1"
_symmetry_group_IT_number 2
_symmetry_cell_setting 'triclinic'
loop_
_space_group_symop_operation_xyz
x,y,z
-x,-y,-z
loop_
_atom_site_type_symbol
_atom_site_label
_atom_site_fract_x
_atom_site_fract_y
_atom_site_fract_z
Si Si1 0.274551 0.420277 0.603583
Si Si2 0.538781 0.945595 0.755471
Si Si3 0.108733 0.299010 0.338315
Si Si4 0.349529 0.810006 0.774849
Si Si5 0.879842 0.789005 0.298111
Si Si6 0.944661 0.263501 0.377792
Si Si7 0.830100 0.070701 0.303426
Si Si8 0.298569 0.718101 0.197215
O O1 0.353009 0.258566 0.396924
O O2 0.444982 0.307173 0.496516
O O3 0.214285 0.571835 0.555718
O O4 0.078436 0.556415 0.978679
O O5 0.687404 0.907075 0.470147
O O6 0.500000 0.000000 0.000000
O O7 0.324107 0.133086 0.953021
O O8 0.154419 0.198486 0.456228
O O9 0.000000 0.500000 0.500000
O O10 0.961234 0.354075 0.446107
O O11 0.346755 0.760235 0.598552
O O12 0.325301 0.750325 0.973534
O O13 0.163611 0.049754 0.015737
O O14 0.906714 0.886940 0.207844
O O15 0.860340 0.236225 0.606677
O O16 0.772766 0.141864 0.571163
O O17 0.000000 0.000000 0.000000
O O18 0.500000 0.500000 0.000000
#
# Coordination Sequence:
#
# PCOD8024765 Si02
#       8
#     2   2   2   2   2   2   2   2
#     4  12  24  47  73 109 148 190 251 311 377 455
#     4  10  23  43  72 105 146 194 249 309 373 451
#     4  11  25  45  75 110 149 200 255 305 380 456
#     4  12  26  47  76 108 152 200 252 309 380 449
#     4  11  25  46  72 107 151 195 247 320 377 445
#     4  12  23  47  71 106 148 195 249 309 376 447
#     4  12  27  49  75 110 153 195 255 313 376 454
#     4  12  27  46  75 111 149 204 252 313 379 445
#
# _framework density 23.289542000000001
#
# number of rings (size 3 to 8) (size 9 to 14) (size 15 to 20)
#    0.000    0.500    5.000    3.000    3.500    3.500 
#    0.000    1.875    0.000    0.000    0.000    0.000 
#    0.000    0.000    0.000    0.000    0.000    0.000 
#
# Total GULP energy -198334.206732 kJ/mol
# GULP energy per Si atom -12395.887921 kJ/mol
# Density = 2.323653 g / cm^3
# Si number density = 23.289542 Si / 1000 Ang^3
#
#
#
# Elastic Constant Matrix: (Units=GPa)
#
#
# Indices 1 2 3 4 5 6 
#
# 1 135.8755 40.1197 46.8948 -1.3055 -30.1919 7.3127
# 2 40.1197 104.5021 32.1244 12.2485 -13.9641 9.7851
# 3 46.8948 32.1244 128.1550 14.9044 -30.7152 15.2012
# 4 -1.3055 12.2485 14.9044 39.4006 -1.0662 -0.9258
# 5 -30.1919 -13.9641 -30.7152 -1.0662 30.2353 -3.0212
# 6 7.3127 9.7851 15.2012 -0.9258 -3.0212 37.1916
#
#
#
# Elastic Compliance Matrix: (Units=1/GPa)
#
#
# Indices 1 2 3 4 5 6 
#
# 1 0.010414 -0.002737 -0.001513 0.001975 0.007664 -0.000037
# 2 -0.002737 0.011691 -0.000959 -0.003375 0.001362 -0.002119
# 3 -0.001513 -0.000959 0.011769 -0.004031 0.009501 -0.003589
# 4 0.001975 -0.003375 -0.004031 0.028016 -0.002430 0.002647
# 5 0.007664 0.001362 0.009501 -0.002430 0.050753 -0.001686
# 6 -0.000037 -0.002119 -0.003589 0.002647 -0.001686 0.028849
#
#
# Mechanical properties :
#
#
# Convention : Reuss Voigt Hill
#
# Bulk Modulus (GPa) = 42.63305 67.42339 55.02822
# Shear Modulus (GPa) = 31.30338 37.99174 34.64756
#
# Velocity S-wave (km/s) = 3.67017 4.04329 3.86124
# Velocity P-wave (km/s) = 6.02541 7.12815 6.59985
#
# Compressibility (1/GPa) = 0.02345598
#
# Stress axis : x y z
#
# Youngs Moduli (GPa) = 96.02598 85.53900 84.97108
#
# Poissons Ratio (x) = 0.23410 0.12857
# Poissons Ratio (y) = 0.26280 0.08147
# Poissons Ratio (z) = 0.14529 0.08201
#
# Static dielectric constant tensor:
#      x y z
#    x 5.476740 -0.769910 1.062670 
#    y -0.769910 4.318120 -0.491930 
#    z 1.062670 -0.491930 6.105370 
# 
# 
# High freq. dielectric constant tensor:
#      x y z
#    x 1.932200 0.001160 -0.012880 
#    y 0.001160 1.918310 0.003580 
#    z -0.012880 0.003580 1.929420 
# 
# From -- ./inp_files/333207.got.cif
#   From: 2010.06.25/outbox.cif.g09.slc.cpg/sg2_167_cif.got.tgz:333207.got - 2010.06.27 13:26:56.
