data_PCOD8024204
_publ_section_title
;
Structure prediction by ZEFSAII (Michael W. Deem and Ramdas Pophale) SiO2 
 PCOD8024204
Probable space group: P -1
;
_chemical_formula_sum "Si O2"
_cell_formula_units_Z 10
_cell_length_a 4.897063
_cell_length_b 12.640548
_cell_length_c 12.113077
_cell_angle_alpha 41.436592
_cell_angle_beta 49.619139
_cell_angle_gamma 75.803495
_cell_volume 332.232586
_symmetry_space_group_name_H-M "P -1"
_symmetry_group_IT_number 2
_symmetry_cell_setting 'triclinic'
loop_
_space_group_symop_operation_xyz
x,y,z
-x,-y,-z
loop_
_atom_site_type_symbol
_atom_site_label
_atom_site_fract_x
_atom_site_fract_y
_atom_site_fract_z
Si Si1 0.492695 0.963632 0.720813
Si Si2 0.292289 0.290378 0.251560
Si Si3 0.189661 0.453273 0.713973
Si Si4 0.518028 0.227100 0.917272
Si Si5 0.184703 0.224244 0.581911
O O1 0.121703 0.017480 0.774298
O O2 0.862270 0.141488 0.424902
O O3 0.396277 0.784229 0.811270
O O4 0.618171 0.949078 0.827895
O O5 0.193295 0.285932 0.408324
O O6 0.500000 0.500000 0.000000
O O7 0.500000 0.500000 0.500000
O O8 0.174751 0.273734 0.919583
O O9 0.355298 0.632925 0.605346
O O10 0.757461 0.392253 0.814799
O O11 0.820027 0.230954 0.738839
#
# Coordination Sequence:
#
# PCOD8024204 Si02
#       5
#     2   2   2   2   2
#     4  11  27  46  73 112 144 194 254 304 373 441
#     4  11  27  49  73 101 152 199 250 303 372 444
#     4  10  23  42  73 113 152 193 239 299 375 441
#     4  11  25  46  77 113 153 189 247 312 371 440
#     4  11  24  43  76 105 149 193 246 312 368 440
#
# _framework density 30.099395999999999
#
# number of rings (size 3 to 8) (size 9 to 14) (size 15 to 20)
#    0.000    1.200    0.000    4.800   14.000    1.600 
#    0.000    0.000    0.000    0.000    0.000    0.000 
#    0.000    0.000    0.000    0.000    0.000    0.000 
#
# Total GULP energy -123912.483610 kJ/mol
# GULP energy per Si atom -12391.248361 kJ/mol
# Density = 3.003089 g / cm^3
# Si number density = 30.099396 Si / 1000 Ang^3
#
#
#
# Elastic Constant Matrix: (Units=GPa)
#
#
# Indices 1 2 3 4 5 6 
#
# 1 95.7017 41.3542 7.1616 16.1414 26.0416 -6.1531
# 2 41.3542 210.4627 81.7238 -25.3555 2.5016 -9.4455
# 3 7.1616 81.7238 190.5699 -14.7678 12.4076 5.1193
# 4 16.1414 -25.3555 -14.7678 68.7785 -2.2713 1.1787
# 5 26.0416 2.5016 12.4076 -2.2713 37.1865 3.4142
# 6 -6.1531 -9.4455 5.1193 1.1787 3.4142 39.1982
#
#
#
# Elastic Compliance Matrix: (Units=1/GPa)
#
#
# Indices 1 2 3 4 5 6 
#
# 1 0.016711 -0.004283 0.001515 -0.005634 -0.012507 0.002652
# 2 -0.004283 0.007096 -0.002903 0.003099 0.003587 0.001011
# 3 0.001515 -0.002903 0.006653 -0.000078 -0.002992 -0.001067
# 4 -0.005634 0.003099 -0.000078 0.017168 0.004910 -0.001071
# 5 -0.012507 0.003587 -0.002992 0.004910 0.037083 -0.004086
# 6 0.002652 0.001011 -0.001067 -0.001071 -0.004086 0.026699
#
#
# Mechanical properties :
#
#
# Convention : Reuss Voigt Hill
#
# Bulk Modulus (GPa) = 52.30472 84.13485 68.21978
# Shear Modulus (GPa) = 38.72287 53.46563 46.09425
#
# Velocity S-wave (km/s) = 3.59067 4.21919 3.91756
# Velocity P-wave (km/s) = 5.88265 7.19364 6.57092
#
# Compressibility (1/GPa) = 0.01911874
#
# Stress axis : x y z
#
# Youngs Moduli (GPa) = 59.84220 140.91954 150.31358
#
# Poissons Ratio (x) = 0.60355 -0.22776
# Poissons Ratio (y) = 0.25630 0.43632
# Poissons Ratio (z) = -0.09067 0.40905
#
# Static dielectric constant tensor:
#      x y z
#    x 3.417680 -1.395470 2.196370 
#    y -1.395470 5.132270 1.193610 
#    z 2.196370 1.193610 4.777010 
# 
# 
# High freq. dielectric constant tensor:
#      x y z
#    x 2.232590 -0.001260 -0.028770 
#    y -0.001260 2.255860 -0.016030 
#    z -0.028770 -0.016030 2.282290 
# 
# From -- ./inp_files/16285.got.cif
#   From: 2010.06.25/outbox.cif.g09.slc.cpg/sg2_9_cif.got.tgz:16285.got - 2010.06.27 13:26:56.
