data_PCOD8024271
_publ_section_title
;
Structure prediction by ZEFSAII (Michael W. Deem and Ramdas Pophale) SiO2 
 PCOD8024271
Probable space group: P -1
;
_chemical_formula_sum "Si O2"
_cell_formula_units_Z 12
_cell_length_a 19.964896
_cell_length_b 10.260689
_cell_length_c 10.199696
_cell_angle_alpha 48.471018
_cell_angle_beta 154.122692
_cell_angle_gamma 144.841287
_cell_volume 502.750317
_symmetry_space_group_name_H-M "P -1"
_symmetry_group_IT_number 2
_symmetry_cell_setting 'triclinic'
loop_
_space_group_symop_operation_xyz
x,y,z
-x,-y,-z
loop_
_atom_site_type_symbol
_atom_site_label
_atom_site_fract_x
_atom_site_fract_y
_atom_site_fract_z
Si Si1 0.234517 0.122298 0.850533
Si Si2 0.917757 0.912501 0.768163
Si Si3 0.412927 0.899616 0.737623
Si Si4 0.854432 0.226215 0.888872
Si Si5 0.838198 0.222421 0.386165
Si Si6 0.502200 0.598019 0.131898
O O1 0.366717 0.253356 0.866923
O O2 0.342913 0.318015 0.026037
O O3 0.000000 0.000000 0.500000
O O4 0.238217 0.924606 0.038935
O O5 0.668429 0.680021 0.484090
O O6 0.949298 0.124551 0.607509
O O7 0.025352 0.838022 0.929669
O O8 0.000000 0.000000 0.000000
O O9 0.334148 0.851380 0.482105
O O10 0.272383 0.908329 0.581414
O O11 0.374259 0.676567 0.879662
O O12 0.659471 0.136797 0.022188
O O13 0.000000 0.500000 0.000000
O O14 0.000000 0.500000 0.500000
#
# Coordination Sequence:
#
# PCOD8024271 Si02
#       6
#     2   2   2   2   2   2
#     4  11  23  44  70  98 138 183 229 281 345 407
#     4  11  23  46  68 100 139 179 227 285 340 412
#     4  10  23  43  64 102 138 170 232 284 336 409
#     4  12  26  43  71 102 142 180 229 287 343 408
#     4  10  23  43  71  96 136 184 226 278 345 409
#     4  10  24  43  71  99 135 184 232 280 344 411
#
# _framework density 23.868704999999999
#
# number of rings (size 3 to 8) (size 9 to 14) (size 15 to 20)
#    0.000    1.333    3.333    1.000    4.667    4.667 
#    0.000    1.667    0.000    0.000    0.000    0.000 
#    0.000    0.000    0.000    0.000    0.000    0.000 
#
# Total GULP energy -148704.123582 kJ/mol
# GULP energy per Si atom -12392.010299 kJ/mol
# Density = 2.381438 g / cm^3
# Si number density = 23.868705 Si / 1000 Ang^3
#
#
#
# Elastic Constant Matrix: (Units=GPa)
#
#
# Indices 1 2 3 4 5 6 
#
# 1 71.3399 28.5374 39.3896 3.4933 -7.3763 -15.1381
# 2 28.5374 182.5796 71.2454 25.4860 -10.7226 -29.1834
# 3 39.3896 71.2454 171.5248 17.7535 -34.0540 -12.3683
# 4 3.4933 25.4860 17.7535 36.8622 -16.6586 -7.4660
# 5 -7.3763 -10.7226 -34.0540 -16.6586 45.4003 -3.0148
# 6 -15.1381 -29.1834 -12.3683 -7.4660 -3.0148 39.9810
#
#
#
# Elastic Compliance Matrix: (Units=1/GPa)
#
#
# Indices 1 2 3 4 5 6 
#
# 1 0.017305 -0.000806 -0.003193 0.002199 0.001398 0.005492
# 2 -0.000806 0.007666 -0.002627 -0.003888 -0.001476 0.003641
# 3 -0.003193 -0.002627 0.008720 0.000453 0.005572 0.000075
# 4 0.002199 -0.003888 0.000453 0.036795 0.013681 0.006037
# 5 0.001398 -0.001476 0.005572 0.013681 0.031510 0.006106
# 6 0.005492 0.003641 0.000075 0.006037 0.006106 0.031360
#
#
# Mechanical properties :
#
#
# Convention : Reuss Voigt Hill
#
# Bulk Modulus (GPa) = 48.92846 78.19877 63.56362
# Shear Modulus (GPa) = 32.58999 43.53352 38.06175
#
# Velocity S-wave (km/s) = 3.69912 4.27532 3.99761
# Velocity P-wave (km/s) = 6.22801 7.56335 6.92793
#
# Compressibility (1/GPa) = 0.02043800
#
# Stress axis : x y z
#
# Youngs Moduli (GPa) = 57.78606 130.44281 114.68477
#
# Poissons Ratio (x) = 0.10509 0.36624
# Poissons Ratio (y) = 0.04656 0.30131
# Poissons Ratio (z) = 0.18454 0.34271
#
# Static dielectric constant tensor:
#      x y z
#    x 4.875240 -0.399760 0.008220 
#    y -0.399760 4.444980 -0.106500 
#    z 0.008220 -0.106500 4.854380 
# 
# 
# High freq. dielectric constant tensor:
#      x y z
#    x 1.942210 -0.033590 -0.001770 
#    y -0.033590 1.936610 0.007280 
#    z -0.001770 0.007280 1.966080 
# 
# From -- ./inp_files/23846.got.cif
#   From: 2010.06.25/outbox.cif.g09.slc.cpg/sg2_12_cif.got.tgz:23846.got - 2010.06.27 13:26:56.
