data_PCOD8024157
_publ_section_title
;
Structure prediction by ZEFSAII (Michael W. Deem and Ramdas Pophale) SiO2 
 PCOD8024157
Probable space group: P -1
;
_chemical_formula_sum "Si O2"
_cell_formula_units_Z 12
_cell_length_a 9.123768
_cell_length_b 8.512341
_cell_length_c 13.290651
_cell_angle_alpha 73.024750
_cell_angle_beta 64.805984
_cell_angle_gamma 32.477012
_cell_volume 496.719747
_symmetry_space_group_name_H-M "P -1"
_symmetry_group_IT_number 2
_symmetry_cell_setting 'triclinic'
loop_
_space_group_symop_operation_xyz
x,y,z
-x,-y,-z
loop_
_atom_site_type_symbol
_atom_site_label
_atom_site_fract_x
_atom_site_fract_y
_atom_site_fract_z
Si Si1 0.574798 0.968924 0.743106
Si Si2 0.029298 0.626133 0.155807
Si Si3 0.287781 0.865843 0.462246
Si Si4 0.372230 0.649062 0.673915
Si Si5 0.236655 0.760179 0.181374
Si Si6 0.375644 0.271199 0.942541
O O1 0.735788 0.930252 0.613612
O O2 0.404996 0.239657 0.818760
O O3 0.306459 0.080093 0.764871
O O4 0.818333 0.654080 0.781609
O O5 0.174847 0.674992 0.132528
O O6 0.061422 0.568531 0.034633
O O7 0.357302 0.820008 0.570441
O O8 0.565457 0.553640 0.382380
O O9 0.000000 0.000000 0.500000
O O10 0.621936 0.449017 0.723147
O O11 0.055755 0.893845 0.769440
O O12 0.440612 0.724134 0.077438
O O13 0.500000 0.000000 0.000000
#
# Coordination Sequence:
#
# PCOD8024157 Si02
#       6
#     2   2   2   2   2   2
#     4  11  24  43  69  97 132 170 227 275 312 386
#     4  11  26  43  64  98 139 176 212 266 336 388
#     4  11  23  42  72 102 124 169 228 277 322 378
#     4  11  24  39  71  96 128 169 223 266 330 383
#     4  12  24  45  65  99 138 174 210 270 335 393
#     4  10  23  42  71  98 129 174 227 268 315 385
#
# _framework density 24.158491999999999
#
# number of rings (size 3 to 8) (size 9 to 14) (size 15 to 20)
#    0.000    1.000    3.333    2.000    9.333    2.667 
#    0.000   10.833    0.000    0.000    0.000    0.000 
#    0.000    0.000    0.000    0.000    0.000    0.000 
#
# Total GULP energy -148707.195272 kJ/mol
# GULP energy per Si atom -12392.266273 kJ/mol
# Density = 2.410351 g / cm^3
# Si number density = 24.158492 Si / 1000 Ang^3
#
#
#
# Elastic Constant Matrix: (Units=GPa)
#
#
# Indices 1 2 3 4 5 6 
#
# 1 57.7861 0.2396 16.3025 -25.8354 -12.3961 -0.6101
# 2 0.2396 80.1127 14.9246 1.9071 3.1794 -13.8527
# 3 16.3025 14.9246 90.0619 -12.3321 -14.4906 6.7976
# 4 -25.8354 1.9071 -12.3321 37.0537 1.2087 -1.3932
# 5 -12.3961 3.1794 -14.4906 1.2087 34.7767 -2.9852
# 6 -0.6101 -13.8527 6.7976 -1.3932 -2.9852 31.1907
#
#
#
# Elastic Compliance Matrix: (Units=1/GPa)
#
#
# Indices 1 2 3 4 5 6 
#
# 1 0.028120 -0.000268 -0.001156 0.019029 0.009111 0.002405
# 2 -0.000268 0.014446 -0.003459 -0.001751 -0.002206 0.006875
# 3 -0.001156 -0.003459 0.013478 0.003548 0.005066 -0.003853
# 4 0.019029 -0.001751 0.003548 0.041345 0.007100 0.001348
# 5 0.009111 -0.002206 0.005066 0.007100 0.034213 0.001686
# 6 0.002405 0.006875 -0.003853 0.001348 0.001686 0.036223
#
#
# Mechanical properties :
#
#
# Convention : Reuss Voigt Hill
#
# Bulk Modulus (GPa) = 21.60839 32.32156 26.96498
# Shear Modulus (GPa) = 25.90479 33.70382 29.80430
#
# Velocity S-wave (km/s) = 3.27813 3.73917 3.51622
# Velocity P-wave (km/s) = 4.82618 5.66126 5.26032
#
# Compressibility (1/GPa) = 0.04627832
#
# Stress axis : x y z
#
# Youngs Moduli (GPa) = 35.56227 69.22498 74.19737
#
# Poissons Ratio (x) = 0.01852 0.08575
# Poissons Ratio (y) = 0.00951 0.25665
# Poissons Ratio (z) = 0.04110 0.23945
#
# Static dielectric constant tensor:
#      x y z
#    x 4.113480 -0.066210 0.057910 
#    y -0.066210 4.309080 0.029540 
#    z 0.057910 0.029540 4.911640 
# 
# 
# High freq. dielectric constant tensor:
#      x y z
#    x 1.934710 -0.006500 -0.008720 
#    y -0.006500 1.959750 -0.000930 
#    z -0.008720 -0.000930 1.972340 
# 
# From -- ./inp_files/24936.got.cif
#   From: 2010.06.25/outbox.cif.g09.slc.cpg/sg2_13_cif.got.tgz:24936.got - 2010.06.27 13:26:56.
