data_PCOD8024887
_publ_section_title
;
Structure prediction by ZEFSAII (Michael W. Deem and Ramdas Pophale) SiO2 
 PCOD8024887
Probable space group: P -1
;
_chemical_formula_sum "Si O2"
_cell_formula_units_Z 16
_cell_length_a 8.539955
_cell_length_b 22.894780
_cell_length_c 8.502685
_cell_angle_alpha 34.047052
_cell_angle_beta 57.667503
_cell_angle_gamma 54.395110
_cell_volume 751.717798
_symmetry_space_group_name_H-M "P -1"
_symmetry_group_IT_number 2
_symmetry_cell_setting 'triclinic'
loop_
_space_group_symop_operation_xyz
x,y,z
-x,-y,-z
loop_
_atom_site_type_symbol
_atom_site_label
_atom_site_fract_x
_atom_site_fract_y
_atom_site_fract_z
Si Si1 0.490347 0.971590 0.249025
Si Si2 0.716148 0.452488 0.055347
Si Si3 0.020324 0.724738 0.901995
Si Si4 0.896083 0.819727 0.437512
Si Si5 0.645687 0.790344 0.138358
Si Si6 0.712983 0.672253 0.685499
Si Si7 0.338488 0.768271 0.839273
Si Si8 0.292066 0.736753 0.293594
O O1 0.713579 0.925861 0.285250
O O2 0.372458 0.886332 0.540827
O O3 0.500000 0.000000 0.000000
O O4 0.381226 0.081093 0.158376
O O5 0.852271 0.391260 0.976000
O O6 0.723286 0.376739 0.372671
O O7 0.500000 0.500000 0.000000
O O8 0.802543 0.549954 0.846225
O O9 0.132299 0.771933 0.869358
O O10 0.964828 0.811920 0.597631
O O11 0.821840 0.715868 0.106132
O O12 0.844133 0.708086 0.665874
O O13 0.080203 0.827030 0.218466
O O14 0.686034 0.761178 0.363832
O O15 0.446574 0.770002 0.242569
O O16 0.503843 0.678843 0.855818
O O17 0.353938 0.726713 0.102303
#
# Coordination Sequence:
#
# PCOD8024887 Si02
#       8
#     2   2   2   2   2   2   2   2
#     4  11  24  43  71  96 131 178 216 267 341 385
#     4  11  22  46  70  98 129 181 214 271 340 385
#     4  11  25  42  68  98 135 173 224 270 327 392
#     4  10  23  44  65 100 131 177 221 271 326 392
#     4  12  23  43  67  98 135 173 218 277 323 394
#     4  11  21  43  70  93 140 168 219 276 324 390
#     4  11  23  43  65  98 135 171 219 276 318 394
#     4  11  25  42  68  98 136 172 224 271 326 391
#
# _framework density 21.284583000000001
#
# number of rings (size 3 to 8) (size 9 to 14) (size 15 to 20)
#    0.000    1.000    5.000    3.000    0.000    6.000 
#    0.000    0.000    0.000    0.000    0.000    0.000 
#    0.000    0.000    0.000    0.000    0.000    0.000 
#
# Total GULP energy -198407.778863 kJ/mol
# GULP energy per Si atom -12400.486179 kJ/mol
# Density = 2.123614 g / cm^3
# Si number density = 21.284583 Si / 1000 Ang^3
#
#
#
# Elastic Constant Matrix: (Units=GPa)
#
#
# Indices 1 2 3 4 5 6 
#
# 1 73.6169 19.0342 23.8485 -6.6006 -0.3438 -9.5506
# 2 19.0342 110.8864 45.1344 0.2320 -2.1245 -13.2862
# 3 23.8485 45.1344 93.4431 -6.0832 1.9508 1.5460
# 4 -6.6006 0.2320 -6.0832 38.9380 3.3140 -2.0187
# 5 -0.3438 -2.1245 1.9508 3.3140 36.7902 7.4076
# 6 -9.5506 -13.2862 1.5460 -2.0187 7.4076 32.3108
#
#
#
# Elastic Compliance Matrix: (Units=1/GPa)
#
#
# Indices 1 2 3 4 5 6 
#
# 1 0.015780 -0.000674 -0.003604 0.002449 -0.000912 0.004921
# 2 -0.000674 0.012100 -0.005811 -0.000842 0.000073 0.004985
# 3 -0.003604 -0.005811 0.014604 0.001542 -0.000488 -0.003945
# 4 0.002449 -0.000842 0.001542 0.026742 -0.003055 0.002675
# 5 -0.000912 0.000073 -0.000488 -0.003055 0.028894 -0.007031
# 6 0.004921 0.004985 -0.003945 0.002675 -0.007031 0.036422
#
#
# Mechanical properties :
#
#
# Convention : Reuss Voigt Hill
#
# Bulk Modulus (GPa) = 44.83543 50.44228 47.63886
# Shear Modulus (GPa) = 30.83469 34.26977 32.55223
#
# Velocity S-wave (km/s) = 3.81029 4.01693 3.91497
# Velocity P-wave (km/s) = 6.36146 6.72790 6.54725
#
# Compressibility (1/GPa) = 0.02230379
#
# Stress axis : x y z
#
# Youngs Moduli (GPa) = 63.37276 82.64666 68.47299
#
# Poissons Ratio (x) = 0.05574 0.24681
# Poissons Ratio (y) = 0.04274 0.39790
# Poissons Ratio (z) = 0.22843 0.48026
#
# Static dielectric constant tensor:
#      x y z
#    x 3.979910 -0.093570 0.048880 
#    y -0.093570 4.106860 -0.032190 
#    z 0.048880 -0.032190 3.761200 
# 
# 
# High freq. dielectric constant tensor:
#      x y z
#    x 1.851080 -0.004120 0.004290 
#    y -0.004120 1.839830 0.006990 
#    z 0.004290 0.006990 1.820200 
# 
# From -- ./inp_files/225812.got.cif
#   From: 2010.06.25/outbox.cif.g09.slc.cpg/sg2_113_cif.got.tgz:225812.got - 2010.06.27 13:26:56.
