data_PCOD8024971
_publ_section_title
;
Structure prediction by ZEFSAII (Michael W. Deem and Ramdas Pophale) SiO2 
 PCOD8024971
Probable space group: P -1
;
_chemical_formula_sum "Si O2"
_cell_formula_units_Z 14
_cell_length_a 18.355155
_cell_length_b 6.908781
_cell_length_c 7.089808
_cell_angle_alpha 56.155269
_cell_angle_beta 48.461966
_cell_angle_gamma 61.550606
_cell_volume 550.583187
_symmetry_space_group_name_H-M "P -1"
_symmetry_group_IT_number 2
_symmetry_cell_setting 'triclinic'
loop_
_space_group_symop_operation_xyz
x,y,z
-x,-y,-z
loop_
_atom_site_type_symbol
_atom_site_label
_atom_site_fract_x
_atom_site_fract_y
_atom_site_fract_z
Si Si1 0.234401 0.516235 0.202411
Si Si2 0.614235 0.735865 0.598267
Si Si3 0.613122 0.990002 0.813254
Si Si4 0.955151 0.102467 0.716032
Si Si5 0.872400 0.902670 0.310062
Si Si6 0.725847 0.365978 0.334823
Si Si7 0.612997 0.164913 0.114508
O O1 0.355219 0.254111 0.233966
O O2 0.212709 0.256498 0.449270
O O3 0.130223 0.685320 0.308984
O O4 0.266847 0.482196 0.947297
O O5 0.697156 0.542373 0.463778
O O6 0.501090 0.697974 0.784639
O O7 0.623813 0.997731 0.367862
O O8 0.682853 0.362840 0.890884
O O9 0.637511 0.217727 0.537756
O O10 0.500000 0.000000 0.000000
O O11 0.648528 0.992857 0.967421
O O12 0.039004 0.195948 0.645906
O O13 0.000000 0.000000 0.500000
O O14 0.911279 0.908566 0.023817
O O15 0.825364 0.173992 0.305651
#
# Coordination Sequence:
#
# PCOD8024971 Si02
#       7
#     2   2   2   2   2   2   2
#     4  11  24  46  76 110 148 185 241 304 356 431
#     4  10  23  47  68 100 152 194 247 292 344 424
#     4  10  23  44  67 100 143 193 248 293 348 418
#     4  10  24  49  76 103 144 185 237 291 367 440
#     4  10  25  49  71 110 145 184 235 296 369 427
#     4  11  25  43  72 107 146 190 244 295 353 429
#     4  10  23  45  71 104 142 199 241 297 360 408
#
# _framework density 25.427585000000001
#
# number of rings (size 3 to 8) (size 9 to 14) (size 15 to 20)
#    0.000    1.714    1.429    0.429    4.000    5.714 
#    2.571    0.000    0.000    0.000    0.000    0.000 
#    0.000    0.000    0.000    0.000    0.000    0.000 
#
# Total GULP energy -173460.206066 kJ/mol
# GULP energy per Si atom -12390.014719 kJ/mol
# Density = 2.536971 g / cm^3
# Si number density = 25.427585 Si / 1000 Ang^3
#
#
#
# Elastic Constant Matrix: (Units=GPa)
#
#
# Indices 1 2 3 4 5 6 
#
# 1 129.9870 49.5847 65.5266 15.1164 -10.2294 -1.4038
# 2 49.5847 120.7926 72.2179 27.8327 3.0832 18.2343
# 3 65.5266 72.2179 131.1963 9.9873 -7.1610 1.8690
# 4 15.1164 27.8327 9.9873 51.5213 8.1533 2.0464
# 5 -10.2294 3.0832 -7.1610 8.1533 52.5611 10.9232
# 6 -1.4038 18.2343 1.8690 2.0464 10.9232 45.3789
#
#
#
# Elastic Compliance Matrix: (Units=1/GPa)
#
#
# Indices 1 2 3 4 5 6 
#
# 1 0.010832 -0.001648 -0.004287 -0.001762 0.001720 0.000839
# 2 -0.001648 0.015568 -0.007188 -0.006298 -0.000049 -0.005715
# 3 -0.004287 -0.007188 0.013552 0.002331 0.000671 0.001931
# 4 -0.001762 -0.006298 0.002331 0.023381 -0.003746 0.002228
# 5 0.001720 -0.000049 0.000671 -0.003746 0.021044 -0.004851
# 6 0.000839 -0.005715 0.001931 0.002228 -0.004851 0.025347
#
#
# Mechanical properties :
#
#
# Convention : Reuss Voigt Hill
#
# Bulk Modulus (GPa) = 72.96320 84.07049 78.51684
# Shear Modulus (GPa) = 35.57753 42.86870 39.22312
#
# Velocity S-wave (km/s) = 3.74461 4.11044 3.93178
# Velocity P-wave (km/s) = 6.88861 7.46071 7.18036
#
# Compressibility (1/GPa) = 0.01370554
#
# Stress axis : x y z
#
# Youngs Moduli (GPa) = 92.31805 64.23487 73.79178
#
# Poissons Ratio (x) = 0.10586 0.31634
# Poissons Ratio (y) = 0.15215 0.53042
# Poissons Ratio (z) = 0.39576 0.46173
#
# Static dielectric constant tensor:
#      x y z
#    x 4.306580 -0.441070 -0.227090 
#    y -0.441070 4.982520 -0.071490 
#    z -0.227090 -0.071490 4.860330 
# 
# 
# High freq. dielectric constant tensor:
#      x y z
#    x 2.022020 -0.010420 -0.001280 
#    y -0.010420 2.030310 0.008140 
#    z -0.001280 0.008140 2.038620 
# 
# From -- ./inp_files/351594.got.cif
#   From: 2010.06.25/outbox.cif.g09.slc.cpg/sg2_176_cif.got.tgz:351594.got - 2010.06.27 13:26:56.
