data_PCOD8024166
_publ_section_title
;
Structure prediction by ZEFSAII (Michael W. Deem and Ramdas Pophale) SiO2 
 PCOD8024166
Probable space group: P -1
;
_chemical_formula_sum "Si O2"
_cell_formula_units_Z 16
_cell_length_a 13.988150
_cell_length_b 12.207892
_cell_length_c 15.327733
_cell_angle_alpha 26.745614
_cell_angle_beta 134.879382
_cell_angle_gamma 140.064662
_cell_volume 754.163705
_symmetry_space_group_name_H-M "P -1"
_symmetry_group_IT_number 2
_symmetry_cell_setting 'triclinic'
loop_
_space_group_symop_operation_xyz
x,y,z
-x,-y,-z
loop_
_atom_site_type_symbol
_atom_site_label
_atom_site_fract_x
_atom_site_fract_y
_atom_site_fract_z
Si Si1 0.392157 0.880011 0.341279
Si Si2 0.365530 0.594896 0.944300
Si Si3 0.653413 0.976066 0.098956
Si Si4 0.367377 0.415301 0.786653
Si Si5 0.834408 0.451646 0.990545
Si Si6 0.652388 0.534910 0.533547
Si Si7 0.921886 0.719009 0.696986
Si Si8 0.822609 0.837868 0.001291
O O1 0.390850 0.681070 0.559321
O O2 0.363451 0.728396 0.339736
O O3 0.555946 0.131024 0.257258
O O4 0.258565 0.967590 0.206889
O O5 0.301284 0.624740 0.975917
O O6 0.493037 0.495709 0.119625
O O7 0.228821 0.379783 0.954839
O O8 0.646324 0.846538 0.091103
O O9 0.702907 0.793551 0.322469
O O10 0.785161 0.262868 0.005132
O O11 0.500000 0.000000 0.000000
O O12 0.220982 0.313884 0.825474
O O13 0.969166 0.426644 0.145290
O O14 0.892900 0.737092 0.771336
O O15 0.500000 0.500000 0.500000
O O16 0.763159 0.554402 0.667846
O O17 0.000000 0.000000 0.500000
O O18 0.000000 0.000000 0.000000
#
# Coordination Sequence:
#
# PCOD8024166 Si02
#       8
#     2   2   2   2   2   2   2   2
#     4  10  24  44  68 101 129 167 228 283 329 392
#     4  11  24  44  69  97 128 175 230 274 336 388
#     4  11  20  38  65 101 134 167 219 268 337 401
#     4  10  23  42  72 100 129 174 221 282 334 394
#     4  11  24  39  65  95 136 183 209 279 333 396
#     4  11  23  38  67  98 134 174 216 274 334 401
#     4  11  25  41  58  95 142 177 224 262 337 406
#     4  11  27  46  68  95 134 179 227 276 335 396
#
# _framework density 21.215553
#
# number of rings (size 3 to 8) (size 9 to 14) (size 15 to 20)
#    0.000    1.250    2.500    3.000    8.750    3.500 
#    0.000    0.000    0.000    0.000    0.000    0.000 
#    0.000    0.000    0.000    0.000    0.000    0.000 
#
# Total GULP energy -198222.442302 kJ/mol
# GULP energy per Si atom -12388.902644 kJ/mol
# Density = 2.116727 g / cm^3
# Si number density = 21.215553 Si / 1000 Ang^3
#
#
#
# Elastic Constant Matrix: (Units=GPa)
#
#
# Indices 1 2 3 4 5 6 
#
# 1 119.5028 55.3860 51.7376 -6.4426 -22.0117 15.1402
# 2 55.3860 127.8633 50.7001 5.9847 -3.0651 12.5247
# 3 51.7376 50.7001 144.8666 4.2011 -19.7044 2.6317
# 4 -6.4426 5.9847 4.2011 26.7191 1.2234 2.3638
# 5 -22.0117 -3.0651 -19.7044 1.2234 36.6348 -0.7019
# 6 15.1402 12.5247 2.6317 2.3638 -0.7019 37.2838
#
#
#
# Elastic Compliance Matrix: (Units=1/GPa)
#
#
# Indices 1 2 3 4 5 6 
#
# 1 0.013400 -0.004528 -0.002432 0.004695 0.006132 -0.003931
# 2 -0.004528 0.011004 -0.002544 -0.002877 -0.003102 -0.001554
# 3 -0.002432 -0.002544 0.009139 -0.001727 0.003326 0.001369
# 4 0.004695 -0.002877 -0.001727 0.039757 0.000260 -0.003334
# 5 0.006132 -0.003102 0.003326 0.000260 0.032481 -0.001088
# 6 -0.003931 -0.001554 0.001369 -0.003334 -0.001088 0.029034
#
#
# Mechanical properties :
#
#
# Convention : Reuss Voigt Hill
#
# Bulk Modulus (GPa) = 68.79742 78.65334 73.72538
# Shear Modulus (GPa) = 31.51247 35.75479 33.63363
#
# Velocity S-wave (km/s) = 3.85820 4.10971 3.98594
# Velocity P-wave (km/s) = 7.23504 7.72486 7.48396
#
# Compressibility (1/GPa) = 0.01453543
#
# Stress axis : x y z
#
# Youngs Moduli (GPa) = 74.62693 90.87999 109.41780
#
# Poissons Ratio (x) = 0.41150 0.26606
# Poissons Ratio (y) = 0.33790 0.27838
# Poissons Ratio (z) = 0.18146 0.23121
#
# Static dielectric constant tensor:
#      x y z
#    x 3.749970 0.223530 -0.138600 
#    y 0.223530 3.235480 -0.201850 
#    z -0.138600 -0.201850 3.896630 
# 
# 
# High freq. dielectric constant tensor:
#      x y z
#    x 1.826770 0.007530 -0.016800 
#    y 0.007530 1.833190 0.008720 
#    z -0.016800 0.008720 1.848950 
# 
# From -- ./inp_files/532280.got.cif
#   From: 2010.06.25/outbox.cif.g09.slc.cpg/sg2_267_cif.got.tgz:532280.got - 2010.06.27 13:26:56.
