data_PCOD8024380
_publ_section_title
;
Structure prediction by ZEFSAII (Michael W. Deem and Ramdas Pophale) SiO2 
 PCOD8024380
Probable space group: P -1
;
_chemical_formula_sum "Si O2"
_cell_formula_units_Z 16
_cell_length_a 11.294457
_cell_length_b 5.188272
_cell_length_c 23.086468
_cell_angle_alpha 109.992786
_cell_angle_beta 31.585152
_cell_angle_gamma 116.623568
_cell_volume 631.142291
_symmetry_space_group_name_H-M "P -1"
_symmetry_group_IT_number 2
_symmetry_cell_setting 'triclinic'
loop_
_space_group_symop_operation_xyz
x,y,z
-x,-y,-z
loop_
_atom_site_type_symbol
_atom_site_label
_atom_site_fract_x
_atom_site_fract_y
_atom_site_fract_z
Si Si1 0.199012 0.681638 0.975143
Si Si2 0.457083 0.010847 0.710945
Si Si3 0.096099 0.440951 0.229995
Si Si4 0.115038 0.157394 0.520830
Si Si5 0.646535 0.076021 0.762891
Si Si6 0.396014 0.765615 0.444313
Si Si7 0.085739 0.261594 0.092356
Si Si8 0.192537 0.131245 0.630329
O O1 0.227884 0.485738 0.001651
O O2 0.131812 0.957702 0.045275
O O3 0.000000 0.500000 0.000000
O O4 0.455703 0.786689 0.844831
O O5 0.557935 0.141910 0.741187
O O6 0.471046 0.255067 0.674439
O O7 0.620824 0.870935 0.593418
O O8 0.192727 0.788104 0.808221
O O9 0.004435 0.128522 0.274580
O O10 0.327188 0.651358 0.183934
O O11 0.170774 0.398916 0.130031
O O12 0.889306 0.590677 0.326182
O O13 0.152672 0.497775 0.529128
O O14 0.908344 0.030413 0.646987
O O15 0.000000 0.000000 0.500000
O O16 0.282394 0.030548 0.524254
O O17 0.573459 0.754122 0.419687
#
# Coordination Sequence:
#
# PCOD8024380 Si02
#       8
#     2   2   2   2   2   2   2   2
#     4  12  28  53  80 113 144 202 259 317 374 445
#     4  11  24  44  75 113 149 200 247 315 376 454
#     4  12  25  50  72 113 147 201 250 315 380 443
#     4  10  23  43  66 113 152 198 238 312 379 450
#     4  11  26  48  75 108 160 198 251 319 380 454
#     4  11  23  40  72 110 150 205 251 305 375 458
#     4  12  27  49  83 110 149 197 261 317 367 450
#     4  11  25  42  76 106 157 201 249 304 374 464
#
# _framework density 25.350861999999999
#
# number of rings (size 3 to 8) (size 9 to 14) (size 15 to 20)
#    0.000    0.750    3.750    2.625    1.750    5.000 
#    6.750    0.000    0.000    0.000    0.000    0.000 
#    0.000    0.000    0.000    0.000    0.000    0.000 
#
# Total GULP energy -198254.354020 kJ/mol
# GULP energy per Si atom -12390.897126 kJ/mol
# Density = 2.529316 g / cm^3
# Si number density = 25.350862 Si / 1000 Ang^3
#
#
#
# Elastic Constant Matrix: (Units=GPa)
#
#
# Indices 1 2 3 4 5 6 
#
# 1 112.8478 41.4758 38.2059 -1.8898 34.9758 26.7730
# 2 41.4758 111.4912 37.1436 -5.0437 8.8919 24.5363
# 3 38.2059 37.1436 128.3026 -23.9996 14.3808 14.5621
# 4 -1.8898 -5.0437 -23.9996 49.1048 -0.4255 0.0008
# 5 34.9758 8.8919 14.3808 -0.4255 50.0202 4.9130
# 6 26.7730 24.5363 14.5621 0.0008 4.9130 42.0092
#
#
#
# Elastic Compliance Matrix: (Units=1/GPa)
#
#
# Indices 1 2 3 4 5 6 
#
# 1 0.014653 -0.002799 -0.002063 -0.000806 -0.008574 -0.005986
# 2 -0.002799 0.011608 -0.002126 0.000054 0.000934 -0.004368
# 3 -0.002063 -0.002126 0.010091 0.004626 -0.000960 -0.000829
# 4 -0.000806 0.000054 0.004626 0.022596 -0.000479 -0.001065
# 5 -0.008574 0.000934 -0.000960 -0.000479 0.025874 0.002225
# 6 -0.005986 -0.004368 -0.000829 -0.001065 0.002225 0.030198
#
#
# Mechanical properties :
#
#
# Convention : Reuss Voigt Hill
#
# Bulk Modulus (GPa) = 44.69251 65.14357 54.91804
# Shear Modulus (GPa) = 36.64228 43.94794 40.29511
#
# Velocity S-wave (km/s) = 3.80597 4.16815 3.99117
# Velocity P-wave (km/s) = 6.08126 6.99409 6.55359
#
# Compressibility (1/GPa) = 0.02237511
#
# Stress axis : x y z
#
# Youngs Moduli (GPa) = 68.24667 86.14665 99.09905
#
# Poissons Ratio (x) = 0.24112 0.20449
# Poissons Ratio (y) = 0.19102 0.21068
# Poissons Ratio (z) = 0.14082 0.18314
#
# Static dielectric constant tensor:
#      x y z
#    x 4.926790 0.226930 0.221070 
#    y 0.226930 4.763290 0.256040 
#    z 0.221070 0.256040 5.216710 
# 
# 
# High freq. dielectric constant tensor:
#      x y z
#    x 2.039700 0.015660 0.014090 
#    y 0.015660 2.002300 -0.004330 
#    z 0.014090 -0.004330 2.023380 
# 
# From -- ./inp_files/609215.got.cif
#   From: 2010.06.25/outbox.cif.g09.slc.cpg/sg2_305_cif.got.tgz:609215.got - 2010.06.27 13:26:56.
