data_PCOD8024725
_publ_section_title
;
Structure prediction by ZEFSAII (Michael W. Deem and Ramdas Pophale) SiO2 
 PCOD8024725
Probable space group: P -1
;
_chemical_formula_sum "Si O2"
_cell_formula_units_Z 16
_cell_length_a 8.779465
_cell_length_b 8.576568
_cell_length_c 14.961287
_cell_angle_alpha 84.664728
_cell_angle_beta 100.524642
_cell_angle_gamma 143.822146
_cell_volume 650.923373
_symmetry_space_group_name_H-M "P -1"
_symmetry_group_IT_number 2
_symmetry_cell_setting 'triclinic'
loop_
_space_group_symop_operation_xyz
x,y,z
-x,-y,-z
loop_
_atom_site_type_symbol
_atom_site_label
_atom_site_fract_x
_atom_site_fract_y
_atom_site_fract_z
Si Si1 0.641126 0.825566 0.686877
Si Si2 0.080983 0.457175 0.228175
Si Si3 0.412990 0.962909 0.681288
Si Si4 0.317918 0.360232 0.571904
Si Si5 0.196386 0.949091 0.506392
Si Si6 0.068078 0.430745 0.937189
Si Si7 0.674502 0.836231 0.978735
Si Si8 0.917164 0.860257 0.853849
O O1 0.452447 0.518943 0.671966
O O2 0.694106 0.918495 0.586030
O O3 0.885619 0.961952 0.764551
O O4 0.506582 0.863017 0.719144
O O5 0.977622 0.529233 0.165838
O O6 0.356945 0.724289 0.290378
O O7 0.129627 0.355647 0.170131
O O8 0.854826 0.218681 0.284988
O O9 0.343032 0.922524 0.569836
O O10 0.500000 0.500000 0.500000
O O11 0.196550 0.086904 0.576430
O O12 0.109670 0.329679 0.530373
O O13 0.373618 0.636351 0.967306
O O14 0.864921 0.123970 0.942328
O O15 0.000000 0.500000 0.000000
O O16 0.701458 0.715054 0.917408
O O17 0.790813 0.883382 0.086089
#
# Coordination Sequence:
#
# PCOD8024725 Si02
#       8
#     2   2   2   2   2   2   2   2
#     4  11  24  46  69 102 146 189 239 301 352 427
#     4  12  28  46  73 107 145 191 238 298 356 434
#     4  12  29  46  72 106 148 190 244 291 359 427
#     4   9  21  40  68 100 135 183 232 295 354 414
#     4  10  23  43  71 102 140 194 237 295 353 426
#     4  12  24  49  75 106 145 188 236 293 368 424
#     4  11  27  49  77 107 146 189 242 298 362 440
#     4  11  26  47  73 109 144 191 243 301 362 426
#
# _framework density 24.580468
#
# number of rings (size 3 to 8) (size 9 to 14) (size 15 to 20)
#    0.000    1.000    1.250    3.750   12.250    3.500 
#    4.500    0.000    0.000    0.000    0.000    0.000 
#    0.000    0.000    0.000    0.000    0.000    0.000 
#
# Total GULP energy -198243.510486 kJ/mol
# GULP energy per Si atom -12390.219405 kJ/mol
# Density = 2.452452 g / cm^3
# Si number density = 24.580468 Si / 1000 Ang^3
#
#
#
# Elastic Constant Matrix: (Units=GPa)
#
#
# Indices 1 2 3 4 5 6 
#
# 1 130.1617 52.0614 46.9327 8.3319 2.9345 12.1222
# 2 52.0614 123.2917 39.7938 5.9827 -0.7355 21.5999
# 3 46.9327 39.7938 139.5641 0.7499 24.3631 4.4248
# 4 8.3319 5.9827 0.7499 23.2977 -10.4902 4.7107
# 5 2.9345 -0.7355 24.3631 -10.4902 55.4461 3.0081
# 6 12.1222 21.5999 4.4248 4.7107 3.0081 42.9130
#
#
#
# Elastic Compliance Matrix: (Units=1/GPa)
#
#
# Indices 1 2 3 4 5 6 
#
# 1 0.010079 -0.003221 -0.002445 -0.002531 0.000057 -0.000700
# 2 -0.003221 0.010966 -0.002165 -0.000007 0.001510 -0.004492
# 3 -0.002445 -0.002165 0.009314 -0.001034 -0.004254 0.001232
# 4 -0.002531 -0.000007 -0.001034 0.049558 0.010254 -0.005334
# 5 0.000057 0.001510 -0.004254 0.010254 0.022025 -0.003007
# 6 -0.000700 -0.004492 0.001232 -0.005334 -0.003007 0.026431
#
#
# Mechanical properties :
#
#
# Convention : Reuss Voigt Hill
#
# Bulk Modulus (GPa) = 68.04110 74.51035 71.27573
# Shear Modulus (GPa) = 33.57230 41.28000 37.42615
#
# Velocity S-wave (km/s) = 3.69970 4.10247 3.90628
# Velocity P-wave (km/s) = 6.78170 7.26767 7.02888
#
# Compressibility (1/GPa) = 0.01469700
#
# Stress axis : x y z
#
# Youngs Moduli (GPa) = 99.22060 91.19299 107.36812
#
# Poissons Ratio (x) = 0.29372 0.26252
# Poissons Ratio (y) = 0.31957 0.23241
# Poissons Ratio (z) = 0.24260 0.19740
#
# Static dielectric constant tensor:
#      x y z
#    x 5.229030 -0.432550 -0.005800 
#    y -0.432550 4.863590 0.494120 
#    z -0.005800 0.494120 4.726320 
# 
# 
# High freq. dielectric constant tensor:
#      x y z
#    x 1.990790 -0.000920 0.008360 
#    y -0.000920 1.966790 0.013500 
#    z 0.008360 0.013500 1.987730 
# 
# From -- ./inp_files/495071.got.cif
#   From: 2010.06.25/outbox.cif.g09.slc.cpg/sg2_248_cif.got.tgz:495071.got - 2010.06.27 13:26:56.
