data_PCOD8024976
_publ_section_title
;
Structure prediction by ZEFSAII (Michael W. Deem and Ramdas Pophale) SiO2 
 PCOD8024976
Probable space group: P -1
;
_chemical_formula_sum "Si O2"
_cell_formula_units_Z 16
_cell_length_a 23.236790
_cell_length_b 6.683270
_cell_length_c 7.323044
_cell_angle_alpha 118.941757
_cell_angle_beta 56.048371
_cell_angle_gamma 132.977698
_cell_volume 680.131482
_symmetry_space_group_name_H-M "P -1"
_symmetry_group_IT_number 2
_symmetry_cell_setting 'triclinic'
loop_
_space_group_symop_operation_xyz
x,y,z
-x,-y,-z
loop_
_atom_site_type_symbol
_atom_site_label
_atom_site_fract_x
_atom_site_fract_y
_atom_site_fract_z
Si Si1 0.630037 0.809195 0.628530
Si Si2 0.242090 0.288079 0.483324
Si Si3 0.493864 0.199657 0.732607
Si Si4 0.019955 0.392878 0.238391
Si Si5 0.829882 0.043387 0.891460
Si Si6 0.347739 0.178669 0.824871
Si Si7 0.383010 0.712777 0.170230
Si Si8 0.879797 0.871013 0.064183
O O1 0.718156 0.863986 0.559103
O O2 0.552942 0.521430 0.715405
O O3 0.620511 0.814117 0.429777
O O4 0.623529 0.058071 0.821505
O O5 0.317233 0.587105 0.403883
O O6 0.178428 0.093417 0.350631
O O7 0.188485 0.324875 0.745976
O O8 0.399678 0.128732 0.861574
O O9 0.522383 0.158672 0.862658
O O10 0.500000 0.000000 0.500000
O O11 0.084241 0.654462 0.114672
O O12 0.000000 0.500000 0.500000
O O13 0.935687 0.185946 0.181713
O O14 0.062688 0.232615 0.144588
O O15 0.830498 0.854211 0.963908
O O16 0.750293 0.062548 0.075873
O O17 0.358133 0.469892 0.965740
#
# Coordination Sequence:
#
# PCOD8024976 Si02
#       8
#     2   2   2   2   2   2   2   2
#     4  11  23  44  66  96 140 180 227 283 336 392
#     4  10  23  44  67 103 138 171 236 277 331 411
#     4  11  23  42  65  96 138 181 229 283 333 400
#     4  11  25  46  70 103 135 174 225 275 334 414
#     4  11  24  45  70  99 135 178 224 275 342 401
#     4  11  23  42  65  97 130 181 227 275 344 393
#     4  10  24  42  64  98 135 181 227 285 333 397
#     4  11  24  45  70 100 136 179 217 278 342 397
#
# _framework density 23.524864999999998
#
# number of rings (size 3 to 8) (size 9 to 14) (size 15 to 20)
#    0.000    1.250    3.750    1.125    1.750    3.000 
#    9.000    0.000    0.000    0.000    0.000    0.000 
#    0.000    0.000    0.000    0.000    0.000    0.000 
#
# Total GULP energy -198443.988466 kJ/mol
# GULP energy per Si atom -12402.749279 kJ/mol
# Density = 2.347132 g / cm^3
# Si number density = 23.524865 Si / 1000 Ang^3
#
#
#
# Elastic Constant Matrix: (Units=GPa)
#
#
# Indices 1 2 3 4 5 6 
#
# 1 125.9830 24.0041 34.1670 0.8513 -2.3921 -3.7368
# 2 24.0041 61.4998 14.4322 21.0744 -11.9654 -10.3728
# 3 34.1670 14.4322 92.7009 9.9552 -15.0616 -1.5211
# 4 0.8513 21.0744 9.9552 31.1808 -0.5644 -5.1448
# 5 -2.3921 -11.9654 -15.0616 -0.5644 37.6790 -2.6692
# 6 -3.7368 -10.3728 -1.5211 -5.1448 -2.6692 29.0920
#
#
#
# Elastic Compliance Matrix: (Units=1/GPa)
#
#
# Indices 1 2 3 4 5 6 
#
# 1 0.009780 -0.004844 -0.003674 0.004113 -0.002335 -0.000150
# 2 -0.004844 0.026521 0.000995 -0.016845 0.008735 0.006708
# 3 -0.003674 0.000995 0.013369 -0.004703 0.005373 0.000243
# 4 0.004113 -0.016845 -0.004703 0.045009 -0.006176 0.001669
# 5 -0.002335 0.008735 0.005373 -0.006176 0.031568 0.004900
# 6 -0.000150 0.006708 0.000243 0.001669 0.004900 0.037504
#
#
# Mechanical properties :
#
#
# Convention : Reuss Voigt Hill
#
# Bulk Modulus (GPa) = 28.88260 47.26558 38.07409
# Shear Modulus (GPa) = 26.26882 33.42905 29.84893
#
# Velocity S-wave (km/s) = 3.34524 3.77372 3.56592
# Velocity P-wave (km/s) = 5.21776 6.25486 5.75970
#
# Compressibility (1/GPa) = 0.03462292
#
# Stress axis : x y z
#
# Youngs Moduli (GPa) = 102.24472 37.70609 74.80110
#
# Poissons Ratio (x) = 0.18266 0.27483
# Poissons Ratio (y) = 0.49530 -0.07442
# Poissons Ratio (z) = 0.37567 -0.03751
#
# Static dielectric constant tensor:
#      x y z
#    x 4.383680 0.142380 -0.085290 
#    y 0.142380 4.178660 -0.051080 
#    z -0.085290 -0.051080 4.252160 
# 
# 
# High freq. dielectric constant tensor:
#      x y z
#    x 1.937580 0.006340 -0.002390 
#    y 0.006340 1.924850 -0.001960 
#    z -0.002390 -0.001960 1.937400 
# 
# From -- ./inp_files/351077.got.cif
#   From: 2010.06.25/outbox.cif.g09.slc.cpg/sg2_176_cif.got.tgz:351077.got - 2010.06.27 13:26:56.
