data_PCOD8024171
_publ_section_title
;
Structure prediction by ZEFSAII (Michael W. Deem and Ramdas Pophale) SiO2 
 PCOD8024171
Probable space group: P -1
;
_chemical_formula_sum "Si O2"
_cell_formula_units_Z 16
_cell_length_a 14.286922
_cell_length_b 5.546937
_cell_length_c 8.825483
_cell_angle_alpha 104.999795
_cell_angle_beta 100.517737
_cell_angle_gamma 97.524116
_cell_volume 652.429594
_symmetry_space_group_name_H-M "P -1"
_symmetry_group_IT_number 2
_symmetry_cell_setting 'triclinic'
loop_
_space_group_symop_operation_xyz
x,y,z
-x,-y,-z
loop_
_atom_site_type_symbol
_atom_site_label
_atom_site_fract_x
_atom_site_fract_y
_atom_site_fract_z
Si Si1 0.709884 0.558211 0.443620
Si Si2 0.983299 0.304807 0.723760
Si Si3 0.855995 0.958077 0.405150
Si Si4 0.671457 0.414159 0.723095
Si Si5 0.536917 0.806535 0.369463
Si Si6 0.277168 0.005575 0.103197
Si Si7 0.332297 0.930576 0.797047
Si Si8 0.065977 0.796533 0.970210
O O1 0.815294 0.738849 0.482721
O O2 0.702448 0.360147 0.550943
O O3 0.623972 0.714844 0.468016
O O4 0.683134 0.376162 0.260703
O O5 0.065416 0.130877 0.698741
O O6 0.033079 0.603209 0.786881
O O7 0.903942 0.215362 0.553418
O O8 0.932917 0.306292 0.873952
O O9 0.764182 0.988578 0.284702
O O10 0.557683 0.412029 0.720048
O O11 0.707057 0.198148 0.797909
O O12 0.723744 0.708617 0.798074
O O13 0.500000 0.000000 0.500000
O O14 0.572329 0.934180 0.241435
O O15 0.353509 0.012125 0.990384
O O16 0.174601 0.914331 0.977553
O O17 0.000000 0.000000 0.000000
#
# Coordination Sequence:
#
# PCOD8024171 Si02
#       8
#     2   2   2   2   2   2   2   2
#     4  11  24  44  77 103 145 191 245 301 367 433
#     4  10  23  42  72 101 142 185 245 299 366 435
#     4  10  23  44  70 110 139 188 247 304 362 435
#     4  12  28  47  76 108 148 194 248 298 365 448
#     4  11  24  47  75 108 144 190 245 304 364 433
#     4  12  30  47  73 109 153 192 243 302 373 434
#     4  11  26  44  75 101 151 188 241 302 370 426
#     4  11  25  44  71  99 149 192 239 299 374 430
#
# _framework density 24.523717999999999
#
# number of rings (size 3 to 8) (size 9 to 14) (size 15 to 20)
#    0.000    1.000    1.250    3.375   14.000    2.000 
#    0.000    3.125    0.000    0.000    0.000    0.000 
#    0.000    0.000    0.000    0.000    0.000    0.000 
#
# Total GULP energy -198267.527419 kJ/mol
# GULP energy per Si atom -12391.720464 kJ/mol
# Density = 2.446790 g / cm^3
# Si number density = 24.523718 Si / 1000 Ang^3
#
#
#
# Elastic Constant Matrix: (Units=GPa)
#
#
# Indices 1 2 3 4 5 6 
#
# 1 91.5364 11.1252 6.5430 1.4341 -7.3053 17.7842
# 2 11.1252 110.3790 22.8551 9.9746 2.9146 4.1739
# 3 6.5430 22.8551 70.5530 9.7805 -9.8260 1.1723
# 4 1.4341 9.9746 9.7805 44.5132 7.0536 0.2594
# 5 -7.3053 2.9146 -9.8260 7.0536 35.3409 9.3006
# 6 17.7842 4.1739 1.1723 0.2594 9.3006 39.1314
#
#
#
# Elastic Compliance Matrix: (Units=1/GPa)
#
#
# Indices 1 2 3 4 5 6 
#
# 1 0.012763 -0.001086 0.000060 -0.000888 0.004712 -0.006801
# 2 -0.001086 0.009989 -0.003196 -0.001236 -0.001671 -0.000071
# 3 0.000060 -0.003196 0.016619 -0.003894 0.006097 -0.001608
# 4 -0.000888 -0.001236 -0.003894 0.024665 -0.006630 0.002065
# 5 0.004712 -0.001671 0.006097 -0.006630 0.035180 -0.010463
# 6 -0.006801 -0.000071 -0.001608 0.002065 -0.010463 0.031174
#
#
# Mechanical properties :
#
#
# Convention : Reuss Voigt Hill
#
# Bulk Modulus (GPa) = 32.33139 39.27945 35.80542
# Shear Modulus (GPa) = 33.52487 39.26010 36.39249
#
# Velocity S-wave (km/s) = 3.70136 4.00547 3.85641
# Velocity P-wave (km/s) = 5.61062 6.11910 5.87037
#
# Compressibility (1/GPa) = 0.03092970
#
# Stress axis : x y z
#
# Youngs Moduli (GPa) = 78.34862 100.10686 60.17210
#
# Poissons Ratio (x) = 0.10871 -0.00364
# Poissons Ratio (y) = 0.08508 0.19228
# Poissons Ratio (z) = -0.00473 0.31989
#
# Static dielectric constant tensor:
#      x y z
#    x 5.112210 0.607990 -0.199980 
#    y 0.607990 4.569890 -0.033860 
#    z -0.199980 -0.033860 4.578060 
# 
# 
# High freq. dielectric constant tensor:
#      x y z
#    x 1.986460 0.013790 -0.015750 
#    y 0.013790 1.975660 0.009580 
#    z -0.015750 0.009580 1.973120 
# 
# From -- ./inp_files/141507.got.cif
#   From: 2010.06.25/outbox.cif.g09.slc.cpg/sg2_71_cif.got.tgz:141507.got - 2010.06.27 13:26:56.
