data_PCOD8024663
_publ_section_title
;
Structure prediction by ZEFSAII (Michael W. Deem and Ramdas Pophale) SiO2 
 PCOD8024663
Probable space group: P -1
;
_chemical_formula_sum "Si O2"
_cell_formula_units_Z 14
_cell_length_a 11.127844
_cell_length_b 11.671290
_cell_length_c 10.713958
_cell_angle_alpha 85.885748
_cell_angle_beta 113.170676
_cell_angle_gamma 36.761951
_cell_volume 544.272712
_symmetry_space_group_name_H-M "P -1"
_symmetry_group_IT_number 2
_symmetry_cell_setting 'triclinic'
loop_
_space_group_symop_operation_xyz
x,y,z
-x,-y,-z
loop_
_atom_site_type_symbol
_atom_site_label
_atom_site_fract_x
_atom_site_fract_y
_atom_site_fract_z
Si Si1 0.341362 0.069832 0.310631
Si Si2 0.212564 0.907715 0.507085
Si Si3 0.178774 0.807028 0.899946
Si Si4 0.645825 0.996879 0.269019
Si Si5 0.664112 0.602924 0.082649
Si Si6 0.683519 0.349269 0.763126
Si Si7 0.314186 0.411904 0.619036
O O1 0.400964 0.098652 0.209252
O O2 0.981459 0.345299 0.160562
O O3 0.500000 0.000000 0.500000
O O4 0.476246 0.836090 0.360201
O O5 0.318509 0.938709 0.612032
O O6 0.514946 0.594242 0.616262
O O7 0.000000 0.000000 0.500000
O O8 0.010450 0.109703 0.290616
O O9 0.508430 0.597466 0.003341
O O10 0.206447 0.711078 0.045418
O O11 0.984404 0.079068 0.827634
O O12 0.541523 0.136746 0.086990
O O13 0.971134 0.676595 0.404270
O O14 0.691314 0.619623 0.235354
O O15 0.440719 0.439350 0.658269
#
# Coordination Sequence:
#
# PCOD8024663 Si02
#       7
#     2   2   2   2   2   2   2
#     4  12  28  51  75 105 141 194 247 298 360 424
#     4  12  23  42  71 107 146 183 231 287 362 428
#     4  10  23  44  69 106 145 188 234 289 361 423
#     4  12  26  47  74 108 146 191 239 297 355 430
#     4  11  25  49  74 107 144 191 243 299 356 423
#     4  10  23  43  70 107 142 187 234 293 356 429
#     4  11  25  49  74 104 147 190 240 297 362 421
#
# _framework density 25.7224
#
# number of rings (size 3 to 8) (size 9 to 14) (size 15 to 20)
#    0.000    0.857    4.286    1.286    2.000    5.714 
#    2.571    0.000    0.000    0.000    0.000    0.000 
#    0.000    0.000    0.000    0.000    0.000    0.000 
#
# Total GULP energy -173726.070883 kJ/mol
# GULP energy per Si atom -12409.005063 kJ/mol
# Density = 2.566385 g / cm^3
# Si number density = 25.722400 Si / 1000 Ang^3
#
#
#
# Elastic Constant Matrix: (Units=GPa)
#
#
# Indices 1 2 3 4 5 6 
#
# 1 78.6470 -1.0673 23.5363 -8.5323 4.6421 -11.1003
# 2 -1.0673 109.5742 39.1205 -10.7468 14.4163 -5.6987
# 3 23.5363 39.1205 161.9744 -20.5850 -5.7793 -9.9015
# 4 -8.5323 -10.7468 -20.5850 32.1993 -4.8407 4.2691
# 5 4.6421 14.4163 -5.7793 -4.8407 33.0653 -8.9100
# 6 -11.1003 -5.6987 -9.9015 4.2691 -8.9100 36.0099
#
#
#
# Elastic Compliance Matrix: (Units=1/GPa)
#
#
# Indices 1 2 3 4 5 6 
#
# 1 0.014149 0.001470 -0.001980 0.002269 -0.001738 0.003351
# 2 0.001470 0.011007 -0.002886 0.001430 -0.005323 -0.000085
# 3 -0.001980 -0.002886 0.007897 0.003938 0.003927 0.001609
# 4 0.002269 0.001430 0.003938 0.035492 0.004661 -0.001046
# 5 -0.001738 -0.005323 0.003927 0.004661 0.036373 0.008149
# 6 0.003351 -0.000085 0.001609 -0.001046 0.008149 0.031372
#
#
# Mechanical properties :
#
#
# Convention : Reuss Voigt Hill
#
# Bulk Modulus (GPa) = 38.07652 52.59720 45.33686
# Shear Modulus (GPa) = 32.93048 39.49529 36.21289
#
# Velocity S-wave (km/s) = 3.58191 3.92272 3.75618
# Velocity P-wave (km/s) = 5.65170 6.40386 6.03950
#
# Compressibility (1/GPa) = 0.02626290
#
# Stress axis : x y z
#
# Youngs Moduli (GPa) = 70.67546 90.85204 126.62415
#
# Poissons Ratio (x) = -0.13357 0.25071
# Poissons Ratio (y) = -0.10391 0.36538
# Poissons Ratio (z) = 0.13994 0.26215
#
# Static dielectric constant tensor:
#      x y z
#    x 4.688830 -0.056820 0.006820 
#    y -0.056820 5.059460 -0.248630 
#    z 0.006820 -0.248630 5.004130 
# 
# 
# High freq. dielectric constant tensor:
#      x y z
#    x 2.021200 -0.008260 -0.000720 
#    y -0.008260 2.046670 -0.014690 
#    z -0.000720 -0.014690 2.040620 
# 
# From -- ./inp_files/428170.got.cif
#   From: 2010.06.25/outbox.cif.g09.slc.cpg/sg2_215_cif.got.tgz:428170.got - 2010.06.27 13:26:56.
