data_PCOD8024927
_publ_section_title
;
Structure prediction by ZEFSAII (Michael W. Deem and Ramdas Pophale) SiO2 
 PCOD8024927
Probable space group: P -1
;
_chemical_formula_sum "Si O2"
_cell_formula_units_Z 12
_cell_length_a 11.733087
_cell_length_b 9.114282
_cell_length_c 7.604271
_cell_angle_alpha 92.317180
_cell_angle_beta 98.051218
_cell_angle_gamma 36.664429
_cell_volume 477.222099
_symmetry_space_group_name_H-M "P -1"
_symmetry_group_IT_number 2
_symmetry_cell_setting 'triclinic'
loop_
_space_group_symop_operation_xyz
x,y,z
-x,-y,-z
loop_
_atom_site_type_symbol
_atom_site_label
_atom_site_fract_x
_atom_site_fract_y
_atom_site_fract_z
Si Si1 0.809781 0.739942 0.363685
Si Si2 0.811372 0.016675 0.951840
Si Si3 0.559335 0.006685 0.829259
Si Si4 0.758609 0.304271 0.668098
Si Si5 0.908965 0.437208 0.827883
Si Si6 0.317570 0.813751 0.671181
O O1 0.000000 0.500000 0.500000
O O2 0.893505 0.675746 0.181345
O O3 0.632049 0.805862 0.329099
O O4 0.726284 0.983252 0.418261
O O5 0.849882 0.107704 0.829894
O O6 0.629878 0.101969 0.852893
O O7 0.762639 0.122833 0.144699
O O8 0.017385 0.712137 0.980145
O O9 0.726877 0.728427 0.782658
O O10 0.500000 0.000000 0.000000
O O11 0.877679 0.333722 0.680178
O O12 0.546889 0.558223 0.707783
O O13 0.773867 0.216695 0.475416
#
# Coordination Sequence:
#
# PCOD8024927 Si02
#       6
#     2   2   2   2   2   2
#     4  11  26  43  70 105 143 185 241 294 355 421
#     4  11  24  42  73 104 139 189 235 288 362 423
#     4  12  23  45  70  99 147 188 231 303 347 416
#     4  11  23  43  73 100 144 189 228 294 356 425
#     4  11  24  44  71 103 142 186 239 291 354 426
#     4  10  23  44  66 103 143 181 239 288 350 424
#
# _framework density 25.145527000000001
#
# number of rings (size 3 to 8) (size 9 to 14) (size 15 to 20)
#    0.000    1.000    5.000    1.500    2.333    6.000 
#    0.000    1.667    0.000    0.000    0.000    0.000 
#    0.000    0.000    0.000    0.000    0.000    0.000 
#
# Total GULP energy -148670.980358 kJ/mol
# GULP energy per Si atom -12389.248363 kJ/mol
# Density = 2.508829 g / cm^3
# Si number density = 25.145527 Si / 1000 Ang^3
#
#
#
# Elastic Constant Matrix: (Units=GPa)
#
#
# Indices 1 2 3 4 5 6 
#
# 1 68.4242 9.7103 35.6501 20.9113 21.0159 -2.4294
# 2 9.7103 121.4198 45.6622 -15.4184 9.9056 -5.7129
# 3 35.6501 45.6622 100.1526 -5.2456 19.9346 1.7507
# 4 20.9113 -15.4184 -5.2456 42.9150 2.3197 6.9442
# 5 21.0159 9.9056 19.9346 2.3197 38.7527 -7.6844
# 6 -2.4294 -5.7129 1.7507 6.9442 -7.6844 35.3800
#
#
#
# Elastic Compliance Matrix: (Units=1/GPa)
#
#
# Indices 1 2 3 4 5 6 
#
# 1 0.025737 0.000186 -0.008360 -0.013545 -0.008285 0.003070
# 2 0.000186 0.010413 -0.004625 0.002893 -0.000301 0.001290
# 3 -0.008360 -0.004625 0.016145 0.005223 -0.003684 -0.003945
# 4 -0.013545 0.002893 0.005223 0.032683 0.000573 -0.007012
# 5 -0.008285 -0.000301 -0.003684 0.000573 0.033573 0.006744
# 6 0.003070 0.001290 -0.003945 -0.007012 0.006744 0.031720
#
#
# Mechanical properties :
#
#
# Convention : Reuss Voigt Hill
#
# Bulk Modulus (GPa) = 37.45721 52.44908 44.95315
# Shear Modulus (GPa) = 27.06088 36.67447 31.86768
#
# Velocity S-wave (km/s) = 3.28406 3.82316 3.56382
# Velocity P-wave (km/s) = 5.41374 6.35549 5.90342
#
# Compressibility (1/GPa) = 0.02669713
#
# Stress axis : x y z
#
# Youngs Moduli (GPa) = 38.85398 96.03538 61.93849
#
# Poissons Ratio (x) = -0.01787 0.51782
# Poissons Ratio (y) = -0.00723 0.28646
# Poissons Ratio (z) = 0.32483 0.44415
#
# Static dielectric constant tensor:
#      x y z
#    x 4.796120 0.143370 0.455160 
#    y 0.143370 3.899550 -0.768900 
#    z 0.455160 -0.768900 4.225860 
# 
# 
# High freq. dielectric constant tensor:
#      x y z
#    x 2.004680 -0.006580 0.022930 
#    y -0.006580 2.018040 -0.013500 
#    z 0.022930 -0.013500 1.994810 
# 
# From -- ./inp_files/182095.got.cif
#   From: 2010.06.25/outbox.cif.g09.slc.cpg/sg2_92_cif.got.tgz:182095.got - 2010.06.27 13:26:56.
