data_PCOD8024361
_publ_section_title
;
Structure prediction by ZEFSAII (Michael W. Deem and Ramdas Pophale) SiO2 
 PCOD8024361
Probable space group: P -1
;
_chemical_formula_sum "Si O2"
_cell_formula_units_Z 16
_cell_length_a 25.094585
_cell_length_b 11.670011
_cell_length_c 8.636340
_cell_angle_alpha 135.868184
_cell_angle_beta 149.332266
_cell_angle_gamma 32.633563
_cell_volume 695.467814
_symmetry_space_group_name_H-M "P -1"
_symmetry_group_IT_number 2
_symmetry_cell_setting 'triclinic'
loop_
_space_group_symop_operation_xyz
x,y,z
-x,-y,-z
loop_
_atom_site_type_symbol
_atom_site_label
_atom_site_fract_x
_atom_site_fract_y
_atom_site_fract_z
Si Si1 0.406265 0.447241 0.769002
Si Si2 0.645671 0.832449 0.130782
Si Si3 0.247271 0.529058 0.731869
Si Si4 0.894596 0.763668 0.816524
Si Si5 0.639279 0.996825 0.957087
Si Si6 0.149336 0.331238 0.078859
Si Si7 0.790873 0.179664 0.562093
Si Si8 0.071394 0.908923 0.869606
O O1 0.362005 0.510356 0.900938
O O2 0.274572 0.599249 0.478666
O O3 0.500000 0.500000 0.000000
O O4 0.487103 0.192015 0.703697
O O5 0.694695 0.605896 0.094440
O O6 0.751455 0.865608 0.480894
O O7 0.633282 0.862674 0.944042
O O8 0.500000 0.000000 0.000000
O O9 0.189200 0.449532 0.395446
O O10 0.129822 0.769855 0.724843
O O11 0.876053 0.792111 0.984094
O O12 0.008854 0.511810 0.814206
O O13 0.950405 0.877114 0.002737
O O14 0.695322 0.115280 0.276308
O O15 0.729934 0.834619 0.891419
O O16 0.825964 0.218137 0.854540
O O17 0.925006 0.981121 0.615540
#
# Coordination Sequence:
#
# PCOD8024361 Si02
#       8
#     2   2   2   2   2   2   2   2
#     4  10  23  43  65  99 138 177 228 277 332 400
#     4  11  23  46  68  97 139 174 225 273 336 405
#     4  11  25  44  68 102 136 179 228 276 335 404
#     4  10  23  44  67 102 136 173 229 274 337 405
#     4  11  23  45  70  94 139 181 223 283 333 403
#     4  10  25  42  69 104 134 176 227 278 341 393
#     4  10  24  43  68 104 133 176 230 274 346 397
#     4  11  24  44  71  99 138 179 221 286 337 396
#
# _framework density 23.006097
#
# number of rings (size 3 to 8) (size 9 to 14) (size 15 to 20)
#    0.000    1.500    2.500    0.750    8.750    5.000 
#    4.500    3.125    0.000    0.000    0.000    0.000 
#    0.000    0.000    0.000    0.000    0.000    0.000 
#
# Total GULP energy -198334.563050 kJ/mol
# GULP energy per Si atom -12395.910191 kJ/mol
# Density = 2.295373 g / cm^3
# Si number density = 23.006097 Si / 1000 Ang^3
#
#
#
# Elastic Constant Matrix: (Units=GPa)
#
#
# Indices 1 2 3 4 5 6 
#
# 1 158.7918 63.2332 16.3920 -8.6577 -8.9647 -0.7828
# 2 63.2332 124.9230 29.6700 -26.1233 -21.6597 -8.8694
# 3 16.3920 29.6700 50.5187 -20.0761 -4.0436 -4.8048
# 4 -8.6577 -26.1233 -20.0761 27.9265 2.4727 -3.4565
# 5 -8.9647 -21.6597 -4.0436 2.4727 31.8031 -1.6191
# 6 -0.7828 -8.8694 -4.8048 -3.4565 -1.6191 58.6521
#
#
#
# Elastic Compliance Matrix: (Units=1/GPa)
#
#
# Indices 1 2 3 4 5 6 
#
# 1 0.008030 -0.004544 -0.001114 -0.002594 -0.000814 -0.000847
# 2 -0.004544 0.014476 -0.002046 0.010328 0.007656 0.002781
# 3 -0.001114 -0.002046 0.029338 0.019170 0.000697 0.003228
# 4 -0.002594 0.010328 0.019170 0.058876 0.004503 0.006692
# 5 -0.000814 0.007656 0.000697 0.004503 0.036293 0.002471
# 6 -0.000847 0.002781 0.003228 0.006692 0.002471 0.018186
#
#
# Mechanical properties :
#
#
# Convention : Reuss Voigt Hill
#
# Bulk Modulus (GPa) = 27.44404 61.42487 44.43446
# Shear Modulus (GPa) = 25.94019 38.67223 32.30621
#
# Velocity S-wave (km/s) = 3.36152 4.10439 3.75139
# Velocity P-wave (km/s) = 5.19821 7.01561 6.17414
#
# Compressibility (1/GPa) = 0.03643778
#
# Stress axis : x y z
#
# Youngs Moduli (GPa) = 124.52583 69.08214 34.08510
#
# Poissons Ratio (x) = 0.31392 0.03796
# Poissons Ratio (y) = 0.56586 0.06972
# Poissons Ratio (z) = 0.13867 0.14131
#
# Static dielectric constant tensor:
#      x y z
#    x 4.687550 0.303490 0.111510 
#    y 0.303490 4.511160 -0.449540 
#    z 0.111510 -0.449540 3.944930 
# 
# 
# High freq. dielectric constant tensor:
#      x y z
#    x 1.929690 0.009340 0.015650 
#    y 0.009340 1.912980 -0.027670 
#    z 0.015650 -0.027670 1.886510 
# 
# From -- ./inp_files/329105.got.cif
#   From: 2010.06.25/outbox.cif.g09.slc.cpg/sg2_165_cif.got.tgz:329105.got - 2010.06.27 13:26:56.
