data_PCOD8024301
_publ_section_title
;
Structure prediction by ZEFSAII (Michael W. Deem and Ramdas Pophale) SiO2 
 PCOD8024301
Probable space group: P -1
;
_chemical_formula_sum "Si O2"
_cell_formula_units_Z 14
_cell_length_a 20.844536
_cell_length_b 11.742685
_cell_length_c 15.223133
_cell_angle_alpha 30.906926
_cell_angle_beta 151.237968
_cell_angle_gamma 158.626790
_cell_volume 634.707773
_symmetry_space_group_name_H-M "P -1"
_symmetry_group_IT_number 2
_symmetry_cell_setting 'triclinic'
loop_
_space_group_symop_operation_xyz
x,y,z
-x,-y,-z
loop_
_atom_site_type_symbol
_atom_site_label
_atom_site_fract_x
_atom_site_fract_y
_atom_site_fract_z
Si Si1 0.039286 0.540709 0.390955
Si Si2 0.273625 0.578203 0.169292
Si Si3 0.069209 0.042961 0.419081
Si Si4 0.409028 0.481109 0.992864
Si Si5 0.243861 0.062562 0.781183
Si Si6 0.319070 0.852941 0.667586
Si Si7 0.976459 0.118571 0.980346
O O1 0.832870 0.383006 0.281802
O O2 0.203986 0.830741 0.463819
O O3 0.071147 0.687804 0.236529
O O4 0.037440 0.269930 0.563004
O O5 0.182543 0.363350 0.288845
O O6 0.503053 0.797174 0.306815
O O7 0.180013 0.347585 0.124559
O O8 0.227177 0.783025 0.969422
O O9 0.215630 0.079910 0.632745
O O10 0.914405 0.992353 0.320066
O O11 0.547705 0.590246 0.169375
O O12 0.193065 0.141196 0.981904
O O13 0.500000 0.500000 0.000000
O O14 0.411322 0.746045 0.807342
O O15 0.000000 0.000000 0.000000
#
# Coordination Sequence:
#
# PCOD8024301 Si02
#       7
#     2   2   2   2   2   2   2
#     4  11  23  44  64  99 138 174 226 278 332 407
#     4  11  24  43  68  98 130 180 222 281 337 396
#     4  11  23  42  68  97 138 175 222 283 335 398
#     4  11  23  44  69  96 135 181 226 275 335 402
#     4  10  23  43  65 100 134 176 226 277 334 403
#     4  10  24  42  66  96 133 176 225 277 335 400
#     4  12  25  43  69  99 136 180 227 273 342 400
#
# _framework density 22.057393999999999
#
# number of rings (size 3 to 8) (size 9 to 14) (size 15 to 20)
#    0.000    1.143    2.857    3.000    4.000    3.429 
#    0.000    1.429    0.000    0.000    0.000    0.000 
#    0.000    0.000    0.000    0.000    0.000    0.000 
#
# Total GULP energy -173525.176273 kJ/mol
# GULP energy per Si atom -12394.655448 kJ/mol
# Density = 2.200719 g / cm^3
# Si number density = 22.057394 Si / 1000 Ang^3
#
#
#
# Elastic Constant Matrix: (Units=GPa)
#
#
# Indices 1 2 3 4 5 6 
#
# 1 110.2135 46.1326 26.2498 6.4613 -1.8732 -4.4839
# 2 46.1326 158.2460 57.3647 36.3571 -19.6689 -10.8414
# 3 26.2498 57.3647 102.3046 2.5602 -20.2153 -2.1359
# 4 6.4613 36.3571 2.5602 40.1759 -4.2334 -4.6413
# 5 -1.8732 -19.6689 -20.2153 -4.2334 31.2368 -0.1179
# 6 -4.4839 -10.8414 -2.1359 -4.6413 -0.1179 28.6291
#
#
#
# Elastic Compliance Matrix: (Units=1/GPa)
#
#
# Indices 1 2 3 4 5 6 
#
# 1 0.010609 -0.003000 -0.001461 0.000949 -0.002067 0.000562
# 2 -0.003000 0.011543 -0.004900 -0.009129 0.002688 0.002067
# 3 -0.001461 -0.004900 0.014071 0.004427 0.006532 -0.000290
# 4 0.000949 -0.009129 0.004427 0.033172 0.001679 0.002406
# 5 -0.002067 0.002688 0.006532 0.001679 0.038043 0.001610
# 6 0.000562 0.002067 -0.000290 0.002406 0.001610 0.036175
#
#
# Mechanical properties :
#
#
# Convention : Reuss Voigt Hill
#
# Bulk Modulus (GPa) = 57.13522 70.02872 63.58197
# Shear Modulus (GPa) = 29.73205 36.07614 32.90409
#
# Velocity S-wave (km/s) = 3.67541 4.04859 3.86651
# Velocity P-wave (km/s) = 6.63105 7.32613 6.98723
#
# Compressibility (1/GPa) = 0.01750234
#
# Stress axis : x y z
#
# Youngs Moduli (GPa) = 94.26077 86.63083 71.06802
#
# Poissons Ratio (x) = 0.25986 0.10380
# Poissons Ratio (y) = 0.28275 0.34825
# Poissons Ratio (z) = 0.13768 0.42451
#
# Static dielectric constant tensor:
#      x y z
#    x 3.806440 -0.184270 -0.145610 
#    y -0.184270 4.407200 0.256660 
#    z -0.145610 0.256660 4.240310 
# 
# 
# High freq. dielectric constant tensor:
#      x y z
#    x 1.860350 -0.012700 -0.005170 
#    y -0.012700 1.873060 0.013650 
#    z -0.005170 0.013650 1.880330 
# 
# From -- ./inp_files/189721.got.cif
#   From: 2010.06.25/outbox.cif.g09.slc.cpg/sg2_95_cif.got.tgz:189721.got - 2010.06.27 13:26:56.
