data_PCOD8024410
_publ_section_title
;
Structure prediction by ZEFSAII (Michael W. Deem and Ramdas Pophale) SiO2 
 PCOD8024410
Probable space group: P -1
;
_chemical_formula_sum "Si O2"
_cell_formula_units_Z 16
_cell_length_a 12.574533
_cell_length_b 17.793805
_cell_length_c 9.294488
_cell_angle_alpha 30.567504
_cell_angle_beta 44.954147
_cell_angle_gamma 45.024801
_cell_volume 719.219046
_symmetry_space_group_name_H-M "P -1"
_symmetry_group_IT_number 2
_symmetry_cell_setting 'triclinic'
loop_
_space_group_symop_operation_xyz
x,y,z
-x,-y,-z
loop_
_atom_site_type_symbol
_atom_site_label
_atom_site_fract_x
_atom_site_fract_y
_atom_site_fract_z
Si Si1 0.589766 0.294937 0.868649
Si Si2 0.095625 0.106500 0.034251
Si Si3 0.140889 0.378557 0.357364
Si Si4 0.855743 0.043627 0.177958
Si Si5 0.766293 0.242267 0.509262
Si Si6 0.270342 0.242856 0.176428
Si Si7 0.932606 0.691969 0.993949
Si Si8 0.586200 0.489154 0.084418
O O1 0.674063 0.337271 0.576406
O O2 0.525674 0.442664 0.786672
O O3 0.721344 0.183867 0.019902
O O4 0.453576 0.220464 0.067475
O O5 0.131651 0.216833 0.695048
O O6 0.101072 0.179078 0.064208
O O7 0.924480 0.085913 0.194476
O O8 0.222020 0.938886 0.187919
O O9 0.166271 0.367384 0.179895
O O10 0.291034 0.414065 0.225999
O O11 0.988049 0.522207 0.293165
O O12 0.768523 0.915878 0.499437
O O13 0.000000 0.000000 0.000000
O O14 0.675599 0.313467 0.332297
O O15 0.936690 0.272827 0.294644
O O16 0.222893 0.298364 0.966645
O O17 0.500000 0.500000 0.000000
#
# Coordination Sequence:
#
# PCOD8024410 Si02
#       8
#     2   2   2   2   2   2   2   2
#     4  11  24  42  68 100 136 178 227 274 335 406
#     4  12  24  42  70 102 133 175 233 278 333 390
#     4  10  23  43  66  99 134 176 230 274 334 409
#     4  12  22  41  72 100 135 181 225 276 333 403
#     4  11  23  45  67  97 133 179 230 268 330 407
#     4  11  22  42  65 101 132 177 226 282 335 396
#     4  11  24  42  68  98 137 177 229 281 333 392
#     4  10  25  45  69  98 140 179 219 281 344 396
#
# _framework density 22.246352000000002
#
# number of rings (size 3 to 8) (size 9 to 14) (size 15 to 20)
#    0.000    1.000    3.750    1.875    3.500    2.000 
#    2.250    1.250    0.000    0.000    0.000    0.000 
#    0.000    0.000    0.000    0.000    0.000    0.000 
#
# Total GULP energy -198366.377916 kJ/mol
# GULP energy per Si atom -12397.898620 kJ/mol
# Density = 2.219572 g / cm^3
# Si number density = 22.246352 Si / 1000 Ang^3
#
#
#
# Elastic Constant Matrix: (Units=GPa)
#
#
# Indices 1 2 3 4 5 6 
#
# 1 165.3327 47.3074 25.4647 -6.4036 15.6705 9.8937
# 2 47.3074 87.1579 28.5193 -4.4527 3.9951 -3.5313
# 3 25.4647 28.5193 94.1060 -17.3318 9.4763 -5.7321
# 4 -6.4036 -4.4527 -17.3318 37.4746 -3.4368 6.9479
# 5 15.6705 3.9951 9.4763 -3.4368 28.6237 -4.2606
# 6 9.8937 -3.5313 -5.7321 6.9479 -4.2606 35.1858
#
#
#
# Elastic Compliance Matrix: (Units=1/GPa)
#
#
# Indices 1 2 3 4 5 6 
#
# 1 0.007895 -0.004010 -0.000566 0.000871 -0.003972 -0.003367
# 2 -0.004010 0.014800 -0.003574 -0.000880 0.001563 0.002394
# 3 -0.000566 -0.003574 0.013138 0.005189 -0.002833 0.000573
# 4 0.000871 -0.000880 0.005189 0.030192 0.000756 -0.005358
# 5 -0.003972 0.001563 -0.002833 0.000756 0.038717 0.005351
# 6 -0.003367 0.002394 0.000573 -0.005358 0.005351 0.031407
#
#
# Mechanical properties :
#
#
# Convention : Reuss Voigt Hill
#
# Bulk Modulus (GPa) = 51.19328 61.01992 56.10660
# Shear Modulus (GPa) = 31.45481 36.61052 34.03266
#
# Velocity S-wave (km/s) = 3.76431 4.06111 3.91552
# Velocity P-wave (km/s) = 6.47729 7.03412 6.76144
#
# Compressibility (1/GPa) = 0.01953381
#
# Stress axis : x y z
#
# Youngs Moduli (GPa) = 126.66947 67.56954 76.11327
#
# Poissons Ratio (x) = 0.27094 0.04307
# Poissons Ratio (y) = 0.50791 0.27201
# Poissons Ratio (z) = 0.07167 0.24148
#
# Static dielectric constant tensor:
#      x y z
#    x 8.225120 1.346700 -5.209510 
#    y 1.346700 4.588180 -1.997750 
#    z -5.209510 -1.997750 11.039350 
# 
# 
# High freq. dielectric constant tensor:
#      x y z
#    x 1.884450 0.000340 0.009790 
#    y 0.000340 1.870210 -0.010710 
#    z 0.009790 -0.010710 1.878060 
# 
# From -- ./inp_files/207768.got.cif
#   From: 2010.06.25/outbox.cif.g09.slc.cpg/sg2_104_cif.got.tgz:207768.got - 2010.06.27 13:26:56.
