data_PCOD8024352
_publ_section_title
;
Structure prediction by ZEFSAII (Michael W. Deem and Ramdas Pophale) SiO2 
 PCOD8024352
Probable space group: P -1
;
_chemical_formula_sum "Si O2"
_cell_formula_units_Z 16
_cell_length_a 9.284079
_cell_length_b 11.833454
_cell_length_c 18.622806
_cell_angle_alpha 139.357717
_cell_angle_beta 46.280011
_cell_angle_gamma 103.055121
_cell_volume 744.646747
_symmetry_space_group_name_H-M "P -1"
_symmetry_group_IT_number 2
_symmetry_cell_setting 'triclinic'
loop_
_space_group_symop_operation_xyz
x,y,z
-x,-y,-z
loop_
_atom_site_type_symbol
_atom_site_label
_atom_site_fract_x
_atom_site_fract_y
_atom_site_fract_z
Si Si1 0.404102 0.242812 0.663737
Si Si2 0.003756 0.713917 0.390574
Si Si3 0.917807 0.963528 0.110900
Si Si4 0.093434 0.431638 0.093185
Si Si5 0.769161 0.239597 0.431745
Si Si6 0.418015 0.767717 0.248377
Si Si7 0.882858 0.708080 0.589008
Si Si8 0.579801 0.254443 0.242659
O O1 0.576970 0.280615 0.578203
O O2 0.426544 0.271854 0.753121
O O3 0.107450 0.419732 0.829245
O O4 0.500000 0.000000 0.500000
O O5 0.983027 0.565254 0.270727
O O6 0.265673 0.673581 0.265983
O O7 0.001730 0.633691 0.432043
O O8 0.764221 0.973921 0.587675
O O9 0.839002 0.047353 0.260107
O O10 0.742183 0.178450 0.223300
O O11 0.861665 0.797882 0.028483
O O12 0.220381 0.841900 0.938835
O O13 0.364148 0.377374 0.957400
O O14 0.627974 0.476130 0.554232
O O15 0.036327 0.152342 0.336260
O O16 0.574877 0.843915 0.757373
O O17 0.000000 0.500000 0.500000
#
# Coordination Sequence:
#
# PCOD8024352 Si02
#       8
#     2   2   2   2   2   2   2   2
#     4  12  23  43  66  98 136 175 221 276 344 398
#     4  11  24  46  68  98 140 176 232 279 334 407
#     4  11  24  40  68 101 132 173 225 279 343 402
#     4  12  25  42  69 103 135 177 226 284 339 406
#     4  11  23  44  65  94 137 177 220 281 333 399
#     4  11  24  44  69  99 135 184 225 278 340 403
#     4  10  23  43  70  94 131 184 223 273 338 394
#     4  10  23  43  65  98 132 175 230 278 336 399
#
# _framework density 21.486698000000001
#
# number of rings (size 3 to 8) (size 9 to 14) (size 15 to 20)
#    0.000    1.000    3.750    2.625    1.750    4.500 
#    0.000    6.250    0.000    0.000    0.000    0.000 
#    0.000    0.000    0.000    0.000    0.000    0.000 
#
# Total GULP energy -198418.228912 kJ/mol
# GULP energy per Si atom -12401.139307 kJ/mol
# Density = 2.143779 g / cm^3
# Si number density = 21.486698 Si / 1000 Ang^3
#
#
#
# Elastic Constant Matrix: (Units=GPa)
#
#
# Indices 1 2 3 4 5 6 
#
# 1 104.5144 32.7192 30.9129 -2.2459 -5.6257 1.9143
# 2 32.7192 101.6996 30.3062 -11.9110 -7.6466 0.3743
# 3 30.9129 30.3062 64.8070 -10.5159 -12.0876 5.4140
# 4 -2.2459 -11.9110 -10.5159 34.5627 10.3662 -2.2739
# 5 -5.6257 -7.6466 -12.0876 10.3662 35.8568 -12.3638
# 6 1.9143 0.3743 5.4140 -2.2739 -12.3638 40.4503
#
#
#
# Elastic Compliance Matrix: (Units=1/GPa)
#
#
# Indices 1 2 3 4 5 6 
#
# 1 0.011710 -0.002564 -0.004609 -0.001586 0.000217 0.000064
# 2 -0.002564 0.012208 -0.004045 0.002768 0.000313 0.000801
# 3 -0.004609 -0.004045 0.020927 0.003366 0.004117 -0.001098
# 4 -0.001586 0.002768 0.003366 0.033295 -0.008542 -0.001141
# 5 0.000217 0.000313 0.004117 -0.008542 0.035196 0.009714
# 6 0.000064 0.000801 -0.001098 -0.001141 0.009714 0.027763
#
#
# Mechanical properties :
#
#
# Convention : Reuss Voigt Hill
#
# Bulk Modulus (GPa) = 44.62535 50.98861 47.80698
# Shear Modulus (GPa) = 29.23886 33.97949 31.60917
#
# Velocity S-wave (km/s) = 3.69289 3.98102 3.83966
# Velocity P-wave (km/s) = 6.24477 6.70173 6.47728
#
# Compressibility (1/GPa) = 0.02240879
#
# Stress axis : x y z
#
# Youngs Moduli (GPa) = 85.39467 81.91338 47.78613
#
# Poissons Ratio (x) = 0.21000 0.22025
# Poissons Ratio (y) = 0.21892 0.19331
# Poissons Ratio (z) = 0.39359 0.33137
#
# Static dielectric constant tensor:
#      x y z
#    x 4.138810 0.200950 -0.255050 
#    y 0.200950 3.535740 0.069010 
#    z -0.255050 0.069010 3.655860 
# 
# 
# High freq. dielectric constant tensor:
#      x y z
#    x 1.855670 0.002840 -0.012480 
#    y 0.002840 1.852770 -0.010690 
#    z -0.012480 -0.010690 1.831830 
# 
# From -- ./inp_files/279903.got.cif
#   From: 2010.06.25/outbox.cif.g09.slc.cpg/sg2_140_cif.got.tgz:279903.got - 2010.06.27 13:26:56.
