data_PCOD8024374
_publ_section_title
;
Structure prediction by ZEFSAII (Michael W. Deem and Ramdas Pophale) SiO2 
 PCOD8024374
Probable space group: P -1
;
_chemical_formula_sum "Si O2"
_cell_formula_units_Z 16
_cell_length_a 8.619505
_cell_length_b 12.760510
_cell_length_c 9.472864
_cell_angle_alpha 135.596412
_cell_angle_beta 85.143205
_cell_angle_gamma 97.508441
_cell_volume 722.727544
_symmetry_space_group_name_H-M "P -1"
_symmetry_group_IT_number 2
_symmetry_cell_setting 'triclinic'
loop_
_space_group_symop_operation_xyz
x,y,z
-x,-y,-z
loop_
_atom_site_type_symbol
_atom_site_label
_atom_site_fract_x
_atom_site_fract_y
_atom_site_fract_z
Si Si1 0.422566 0.110701 0.508220
Si Si2 0.956747 0.672347 0.863658
Si Si3 0.088509 0.860198 0.802654
Si Si4 0.065387 0.357876 0.628121
Si Si5 0.571116 0.617914 0.406906
Si Si6 0.915852 0.839250 0.314362
Si Si7 0.373556 0.330560 0.227628
Si Si8 0.573275 0.988441 0.131674
O O1 0.499843 0.276456 0.606773
O O2 0.260525 0.140123 0.613900
O O3 0.500000 0.000000 0.500000
O O4 0.430256 0.023206 0.276520
O O5 0.809373 0.645870 0.742872
O O6 0.099197 0.747030 0.826977
O O7 0.983537 0.509059 0.761239
O O8 0.931140 0.790023 0.104096
O O9 0.985398 0.772581 0.605528
O O10 0.261310 0.906265 0.770831
O O11 0.000000 0.000000 0.000000
O O12 0.249811 0.403005 0.656386
O O13 0.016681 0.288525 0.718088
O O14 0.469339 0.459305 0.252695
O O15 0.561583 0.681199 0.629015
O O16 0.000000 0.000000 0.500000
O O17 0.392486 0.179373 0.995881
O O18 0.500000 0.000000 0.000000
#
# Coordination Sequence:
#
# PCOD8024374 Si02
#       8
#     2   2   2   2   2   2   2   2
#     4  11  26  46  68  98 140 182 237 279 353 423
#     4  12  25  43  71 105 137 184 239 286 357 421
#     4  12  25  43  73 103 143 179 238 298 344 417
#     4  11  25  44  69 105 138 185 234 287 357 422
#     4  10  23  43  66 102 143 182 221 296 354 413
#     4  11  27  47  70  97 145 188 232 294 351 424
#     4  11  23  41  69 102 143 176 232 290 353 416
#     4  12  26  43  70 105 137 183 238 289 351 415
#
# _framework density 22.138358
#
# number of rings (size 3 to 8) (size 9 to 14) (size 15 to 20)
#    0.000    0.750    3.750    2.250    8.750    0.000 
#    0.000    5.625    0.000    0.000    0.000    0.000 
#    0.000    0.000    0.000    0.000    0.000    0.000 
#
# Total GULP energy -198213.794959 kJ/mol
# GULP energy per Si atom -12388.362185 kJ/mol
# Density = 2.208797 g / cm^3
# Si number density = 22.138358 Si / 1000 Ang^3
#
#
#
# Elastic Constant Matrix: (Units=GPa)
#
#
# Indices 1 2 3 4 5 6 
#
# 1 44.7044 30.6913 31.3137 12.4949 6.9981 -3.6929
# 2 30.6913 169.1182 36.6680 12.0693 14.3417 -4.9138
# 3 31.3137 36.6680 91.0283 1.7917 1.5776 8.9753
# 4 12.4949 12.0693 1.7917 44.9845 0.4547 -0.0144
# 5 6.9981 14.3417 1.5776 0.4547 29.8290 4.8463
# 6 -3.6929 -4.9138 8.9753 -0.0144 4.8463 39.1627
#
#
#
# Elastic Compliance Matrix: (Units=1/GPa)
#
#
# Indices 1 2 3 4 5 6 
#
# 1 0.036833 -0.002588 -0.011993 -0.008978 -0.007739 0.006851
# 2 -0.002588 0.007211 -0.002090 -0.001102 -0.002977 0.001508
# 3 -0.011993 -0.002090 0.016378 0.003199 0.003816 -0.005618
# 4 -0.008978 -0.001102 0.003199 0.024867 0.002414 -0.002008
# 5 -0.007739 -0.002977 0.003816 0.002414 0.037610 -0.006631
# 6 0.006851 0.001508 -0.005618 -0.002008 -0.006631 0.028477
#
#
# Mechanical properties :
#
#
# Convention : Reuss Voigt Hill
#
# Bulk Modulus (GPa) = 36.92679 55.79966 46.36322
# Shear Modulus (GPa) = 25.80723 36.54042 31.17383
#
# Velocity S-wave (km/s) = 3.41798 4.06710 3.75659
# Velocity P-wave (km/s) = 5.68269 6.87857 6.30903
#
# Compressibility (1/GPa) = 0.02708061
#
# Stress axis : x y z
#
# Youngs Moduli (GPa) = 27.14924 138.68233 61.05874
#
# Poissons Ratio (x) = 0.35892 0.73227
# Poissons Ratio (y) = 0.07026 0.12759
# Poissons Ratio (z) = 0.32560 0.28980
#
# Static dielectric constant tensor:
#      x y z
#    x 3.139530 -0.610970 -0.039790 
#    y -0.610970 4.248120 -0.052610 
#    z -0.039790 -0.052610 3.996100 
# 
# 
# High freq. dielectric constant tensor:
#      x y z
#    x 1.858190 -0.000560 -0.010000 
#    y -0.000560 1.903780 0.005070 
#    z -0.010000 0.005070 1.867170 
# 
# From -- ./inp_files/158713.got.cif
#   From: 2010.06.25/outbox.cif.g09.slc.cpg/sg2_80_cif.got.tgz:158713.got - 2010.06.27 13:26:56.
