data_PCOD8024103
_publ_section_title
;
Structure prediction by ZEFSAII (Michael W. Deem and Ramdas Pophale) SiO2 
 PCOD8024103
Probable space group: P -1
;
_chemical_formula_sum "Si O2"
_cell_formula_units_Z 12
_cell_length_a 9.630220
_cell_length_b 15.130104
_cell_length_c 6.581787
_cell_angle_alpha 127.571276
_cell_angle_beta 63.103034
_cell_angle_gamma 137.065281
_cell_volume 517.724865
_symmetry_space_group_name_H-M "P -1"
_symmetry_group_IT_number 2
_symmetry_cell_setting 'triclinic'
loop_
_space_group_symop_operation_xyz
x,y,z
-x,-y,-z
loop_
_atom_site_type_symbol
_atom_site_label
_atom_site_fract_x
_atom_site_fract_y
_atom_site_fract_z
Si Si1 0.932481 0.847756 0.143264
Si Si2 0.386724 0.566389 0.795011
Si Si3 0.991872 0.279616 0.449399
Si Si4 0.545454 0.622321 0.346189
Si Si5 0.650085 0.285327 0.641114
Si Si6 0.781743 0.011136 0.495728
O O1 0.764568 0.749534 0.290107
O O2 0.886013 0.950765 0.236465
O O3 0.146669 0.940505 0.249959
O O4 0.923580 0.756303 0.839295
O O5 0.547834 0.655917 0.631780
O O6 0.489151 0.529368 0.846588
O O7 0.178745 0.415210 0.641476
O O8 0.345140 0.666367 0.063093
O O9 0.859226 0.319299 0.498468
O O10 0.839415 0.143598 0.508021
O O11 0.366378 0.613576 0.352356
O O12 0.461525 0.113677 0.503559
#
# Coordination Sequence:
#
# PCOD8024103 Si02
#       6
#     2   2   2   2   2   2
#     4  10  23  42  70  97 128 170 223 267 317 388
#     4  11  25  42  71  95 131 172 221 266 318 392
#     4  12  25  42  69 100 132 171 211 275 328 379
#     4  10  24  43  67  94 127 177 217 263 316 385
#     4  11  26  43  67  98 136 169 214 270 327 385
#     4  10  23  43  66  95 132 173 219 263 318 392
#
# _framework density 23.178336000000002
#
# number of rings (size 3 to 8) (size 9 to 14) (size 15 to 20)
#    0.000    1.333    1.667    2.000   11.667    6.667 
#    0.000    0.000    0.000    0.000    0.000    0.000 
#    0.000    0.000    0.000    0.000    0.000    0.000 
#
# Total GULP energy -148795.920730 kJ/mol
# GULP energy per Si atom -12399.660061 kJ/mol
# Density = 2.312558 g / cm^3
# Si number density = 23.178336 Si / 1000 Ang^3
#
#
#
# Elastic Constant Matrix: (Units=GPa)
#
#
# Indices 1 2 3 4 5 6 
#
# 1 115.0247 21.8815 15.5547 4.2498 8.2556 2.7280
# 2 21.8815 76.8987 17.0915 2.2155 14.8311 3.3450
# 3 15.5547 17.0915 40.5416 20.0486 4.3429 5.8693
# 4 4.2498 2.2155 20.0486 24.1774 2.4391 5.9026
# 5 8.2556 14.8311 4.3429 2.4391 21.6940 1.9152
# 6 2.7280 3.3450 5.8693 5.9026 1.9152 28.0163
#
#
#
# Elastic Compliance Matrix: (Units=1/GPa)
#
#
# Indices 1 2 3 4 5 6 
#
# 1 0.009567 -0.001572 -0.003606 0.001707 -0.002018 -0.000210
# 2 -0.001572 0.017274 -0.009207 0.007566 -0.010141 -0.000881
# 3 -0.003606 -0.009207 0.049304 -0.039463 0.002297 -0.000722
# 4 0.001707 0.007566 -0.039463 0.075707 -0.005696 -0.008363
# 5 -0.002018 -0.010141 0.002297 -0.005696 0.054116 -0.001573
# 6 -0.000210 -0.000881 -0.000722 -0.008363 -0.001573 0.037840
#
#
# Mechanical properties :
#
#
# Convention : Reuss Voigt Hill
#
# Bulk Modulus (GPa) = 21.10753 37.94671 29.52712
# Shear Modulus (GPa) = 17.33886 26.64004 21.98945
#
# Velocity S-wave (km/s) = 2.73804 3.39389 3.08345
# Velocity P-wave (km/s) = 4.37289 5.63605 5.04417
#
# Compressibility (1/GPa) = 0.04737646
#
# Stress axis : x y z
#
# Youngs Moduli (GPa) = 104.52484 57.89082 20.28217
#
# Poissons Ratio (x) = 0.09099 0.07313
# Poissons Ratio (y) = 0.16430 0.18674
# Poissons Ratio (z) = 0.37687 0.53300
#
# Static dielectric constant tensor:
#      x y z
#    x 4.263370 -0.215830 0.069840 
#    y -0.215830 4.103150 0.029580 
#    z 0.069840 0.029580 4.080390 
# 
# 
# High freq. dielectric constant tensor:
#      x y z
#    x 1.918680 -0.003750 0.007700 
#    y -0.003750 1.913670 0.005300 
#    z 0.007700 0.005300 1.916830 
# 
# From -- ./inp_files/28827.got.cif
#   From: 2010.06.25/outbox.cif.g09.slc.cpg/sg2_15_cif.got.tgz:28827.got - 2010.06.27 13:26:56.
