data_PCOD8024981
_publ_section_title
;
Structure prediction by ZEFSAII (Michael W. Deem and Ramdas Pophale) SiO2 
 PCOD8024981
Probable space group: P -1
;
_chemical_formula_sum "Si O2"
_cell_formula_units_Z 16
_cell_length_a 13.941908
_cell_length_b 11.544279
_cell_length_c 19.058551
_cell_angle_alpha 50.136060
_cell_angle_beta 149.050494
_cell_angle_gamma 149.150019
_cell_volume 754.269869
_symmetry_space_group_name_H-M "P -1"
_symmetry_group_IT_number 2
_symmetry_cell_setting 'triclinic'
loop_
_space_group_symop_operation_xyz
x,y,z
-x,-y,-z
loop_
_atom_site_type_symbol
_atom_site_label
_atom_site_fract_x
_atom_site_fract_y
_atom_site_fract_z
Si Si1 0.291572 0.111104 0.671179
Si Si2 0.118536 0.477328 0.852693
Si Si3 0.103402 0.401637 0.130228
Si Si4 0.269922 0.103190 0.976769
Si Si5 0.248880 0.777844 0.528683
Si Si6 0.580056 0.050225 0.770349
Si Si7 0.148155 0.885361 0.290360
Si Si8 0.196061 0.824579 0.833833
O O1 0.541264 0.394380 0.738597
O O2 0.457102 0.094468 0.731266
O O3 0.188972 0.980627 0.731843
O O4 0.000000 0.000000 0.500000
O O5 0.148758 0.677213 0.797714
O O6 0.931003 0.300731 0.871392
O O7 0.959689 0.327399 0.739458
O O8 0.472410 0.653631 0.004189
O O9 0.077693 0.371079 0.209627
O O10 0.907577 0.145432 0.074147
O O11 0.000000 0.500000 0.000000
O O12 0.043991 0.091362 0.861315
O O13 0.426705 0.124689 0.134772
O O14 0.118699 0.828010 0.376894
O O15 0.000000 0.500000 0.500000
O O16 0.372851 0.930698 0.618189
O O17 0.510777 0.861496 0.615831
O O18 0.500000 0.000000 0.000000
#
# Coordination Sequence:
#
# PCOD8024981 Si02
#       8
#     2   2   2   2   2   2   2   2
#     4  12  27  43  63 102 136 171 227 278 335 401
#     4  11  21  40  69  92 132 165 219 274 328 390
#     4  12  22  43  69  98 131 174 226 274 331 401
#     4  12  23  40  70  97 132 166 224 278 324 392
#     4  10  23  44  67  87 137 176 215 264 339 397
#     4  11  23  42  65  92 129 175 215 275 331 391
#     4  10  25  42  63 103 127 171 222 271 328 397
#     4  12  21  41  73  93 127 180 218 268 339 388
#
# _framework density 21.212565999999999
#
# number of rings (size 3 to 8) (size 9 to 14) (size 15 to 20)
#    0.000    0.750    6.250    1.125    0.000    5.500 
#    4.500    0.000    0.000    0.000    0.000    0.000 
#    0.000    0.000    0.000    0.000    0.000    0.000 
#
# Total GULP energy -198279.161735 kJ/mol
# GULP energy per Si atom -12392.447608 kJ/mol
# Density = 2.116429 g / cm^3
# Si number density = 21.212566 Si / 1000 Ang^3
#
#
#
# Elastic Constant Matrix: (Units=GPa)
#
#
# Indices 1 2 3 4 5 6 
#
# 1 82.2401 47.0568 39.2829 -5.6444 -10.3263 12.4162
# 2 47.0568 124.2062 61.6344 17.4616 0.8515 23.6001
# 3 39.2829 61.6344 127.9709 -1.9503 -2.8609 11.9736
# 4 -5.6444 17.4616 -1.9503 38.0302 5.2325 -2.3381
# 5 -10.3263 0.8515 -2.8609 5.2325 35.3018 7.9279
# 6 12.4162 23.6001 11.9736 -2.3381 7.9279 40.8043
#
#
#
# Elastic Compliance Matrix: (Units=1/GPa)
#
#
# Indices 1 2 3 4 5 6 
#
# 1 0.017867 -0.005909 -0.002266 0.004434 0.004993 -0.002070
# 2 -0.005909 0.015107 -0.005031 -0.008451 0.000092 -0.005965
# 3 -0.002266 -0.005031 0.010914 0.002592 -0.000171 0.000578
# 4 0.004434 -0.008451 0.002592 0.031882 -0.004233 0.005427
# 5 0.004993 0.000092 -0.000171 -0.004233 0.032200 -0.008021
# 6 -0.002070 -0.005965 0.000578 0.005427 -0.008021 0.030287
#
#
# Mechanical properties :
#
#
# Convention : Reuss Voigt Hill
#
# Bulk Modulus (GPa) = 57.21726 70.04059 63.62892
# Shear Modulus (GPa) = 29.32657 35.25680 32.29169
#
# Velocity S-wave (km/s) = 3.72224 4.08127 3.90589
# Velocity P-wave (km/s) = 6.74576 7.43634 7.09945
#
# Compressibility (1/GPa) = 0.01747724
#
# Stress axis : x y z
#
# Youngs Moduli (GPa) = 55.97054 66.19420 91.62296
#
# Poissons Ratio (x) = 0.39114 0.20758
# Poissons Ratio (y) = 0.33073 0.46093
# Poissons Ratio (z) = 0.12681 0.33301
#
# Static dielectric constant tensor:
#      x y z
#    x 4.057580 0.336690 -0.075960 
#    y 0.336690 4.205360 0.275320 
#    z -0.075960 0.275320 3.872810 
# 
# 
# High freq. dielectric constant tensor:
#      x y z
#    x 1.831770 0.020300 -0.011160 
#    y 0.020300 1.843570 0.024930 
#    z -0.011160 0.024930 1.817190 
# 
# From -- ./inp_files/521961.got.cif
#   From: 2010.06.25/outbox.cif.g09.slc.cpg/sg2_261_cif.got.tgz:521961.got - 2010.06.27 13:26:56.
