data_PCOD8024651
_publ_section_title
;
Structure prediction by ZEFSAII (Michael W. Deem and Ramdas Pophale) SiO2 
 PCOD8024651
Probable space group: P -1
;
_chemical_formula_sum "Si O2"
_cell_formula_units_Z 14
_cell_length_a 11.872039
_cell_length_b 5.566274
_cell_length_c 11.830451
_cell_angle_alpha 97.676939
_cell_angle_beta 46.674784
_cell_angle_gamma 104.830189
_cell_volume 548.802715
_symmetry_space_group_name_H-M "P -1"
_symmetry_group_IT_number 2
_symmetry_cell_setting 'triclinic'
loop_
_space_group_symop_operation_xyz
x,y,z
-x,-y,-z
loop_
_atom_site_type_symbol
_atom_site_label
_atom_site_fract_x
_atom_site_fract_y
_atom_site_fract_z
Si Si1 0.494068 0.496289 0.870744
Si Si2 0.072342 0.637611 0.792324
Si Si3 0.343981 0.940229 0.240988
Si Si4 0.787995 0.811896 0.070792
Si Si5 0.681040 0.637676 0.362704
Si Si6 0.836387 0.152209 0.858857
Si Si7 0.867136 0.013712 0.419248
O O1 0.569017 0.769618 0.786619
O O2 0.316461 0.432213 0.937178
O O3 0.572964 0.262292 0.768508
O O4 0.500000 0.500000 0.000000
O O5 0.206847 0.547399 0.766923
O O6 0.169145 0.788571 0.632582
O O7 0.939122 0.426688 0.812640
O O8 0.975135 0.793991 0.948271
O O9 0.313349 0.868967 0.124455
O O10 0.176745 0.916320 0.420498
O O11 0.709913 0.835473 0.250101
O O12 0.775369 0.049512 0.018149
O O13 0.500000 0.500000 0.500000
O O14 0.752018 0.754253 0.439901
O O15 0.946118 0.980815 0.716725
#
# Coordination Sequence:
#
# PCOD8024651 Si02
#       7
#     2   2   2   2   2   2   2
#     4  12  26  45  71 107 144 190 239 297 355 424
#     4  10  24  44  69 100 141 184 241 290 359 430
#     4  12  26  44  74 105 151 185 241 298 358 419
#     4  11  24  43  71 101 139 189 238 294 359 423
#     4  11  25  46  69 101 140 181 242 299 361 425
#     4  10  23  43  70 101 141 185 236 292 357 432
#     4  10  25  44  67 103 138 189 234 292 360 432
#
# _framework density 25.510076000000002
#
# number of rings (size 3 to 8) (size 9 to 14) (size 15 to 20)
#    0.000    1.143    1.429    3.000   10.000    7.429 
#    0.000    0.000    0.000    0.000    0.000    0.000 
#    0.000    0.000    0.000    0.000    0.000    0.000 
#
# Total GULP energy -173522.427827 kJ/mol
# GULP energy per Si atom -12394.459131 kJ/mol
# Density = 2.545201 g / cm^3
# Si number density = 25.510076 Si / 1000 Ang^3
#
#
#
# Elastic Constant Matrix: (Units=GPa)
#
#
# Indices 1 2 3 4 5 6 
#
# 1 99.2755 13.3671 23.6156 2.3892 -14.4500 -9.6648
# 2 13.3671 106.8198 17.3304 -8.5944 -13.1796 -17.6106
# 3 23.6156 17.3304 120.6237 -11.5912 3.8213 -17.5629
# 4 2.3892 -8.5944 -11.5912 30.7655 6.8605 1.1634
# 5 -14.4500 -13.1796 3.8213 6.8605 40.6771 1.3649
# 6 -9.6648 -17.6106 -17.5629 1.1634 1.3649 32.4367
#
#
#
# Elastic Compliance Matrix: (Units=1/GPa)
#
#
# Indices 1 2 3 4 5 6 
#
# 1 0.011631 -0.000432 -0.002385 -0.003033 0.004665 0.001853
# 2 -0.000432 0.010905 -0.000617 0.001996 0.002925 0.005263
# 3 -0.002385 -0.000617 0.009973 0.004241 -0.002844 0.004322
# 4 -0.003033 0.001996 0.004241 0.036404 -0.007018 0.001466
# 5 0.004665 0.002925 -0.002844 -0.007018 0.028623 0.000485
# 6 0.001853 0.005263 0.004322 0.001466 0.000485 0.036506
#
#
# Mechanical properties :
#
#
# Convention : Reuss Voigt Hill
#
# Bulk Modulus (GPa) = 38.99775 48.37169 43.68472
# Shear Modulus (GPa) = 33.45495 38.93625 36.19560
#
# Velocity S-wave (km/s) = 3.62531 3.91104 3.77088
# Velocity P-wave (km/s) = 5.73099 6.27678 6.01008
#
# Compressibility (1/GPa) = 0.02564250
#
# Stress axis : x y z
#
# Youngs Moduli (GPa) = 85.97954 91.70287 100.27486
#
# Poissons Ratio (x) = 0.03957 0.23911
# Poissons Ratio (y) = 0.03710 0.06184
# Poissons Ratio (z) = 0.20502 0.05656
#
# Static dielectric constant tensor:
#      x y z
#    x 4.636370 -0.262680 -0.157110 
#    y -0.262680 4.775270 -0.035410 
#    z -0.157110 -0.035410 4.501210 
# 
# 
# High freq. dielectric constant tensor:
#      x y z
#    x 2.016040 -0.006410 -0.004700 
#    y -0.006410 2.025350 -0.008920 
#    z -0.004700 -0.008920 2.014740 
# 
# From -- ./inp_files/48688.got.cif
#   From: 2010.06.25/outbox.cif.g09.slc.cpg/sg2_25_cif.got.tgz:48688.got - 2010.06.27 13:26:56.
