data_PCOD8024000
_publ_section_title
;
Structure prediction by ZEFSAII (Michael W. Deem and Ramdas Pophale) SiO2 
 PCOD8024000
Probable space group: P -1
;
_chemical_formula_sum "Si O2"
_cell_formula_units_Z 16
_cell_length_a 12.097760
_cell_length_b 9.608517
_cell_length_c 12.165525
_cell_angle_alpha 116.803894
_cell_angle_beta 131.225551
_cell_angle_gamma 44.904105
_cell_volume 750.487481
_symmetry_space_group_name_H-M "P -1"
_symmetry_group_IT_number 2
_symmetry_cell_setting 'triclinic'
loop_
_space_group_symop_operation_xyz
x,y,z
-x,-y,-z
loop_
_atom_site_type_symbol
_atom_site_label
_atom_site_fract_x
_atom_site_fract_y
_atom_site_fract_z
Si Si1 0.790035 0.088513 0.259479
Si Si2 0.793970 0.073768 0.876488
Si Si3 0.885891 0.908983 0.484082
Si Si4 0.180712 0.169259 0.999827
Si Si5 0.287630 0.103054 0.423896
Si Si6 0.504912 0.481372 0.743772
Si Si7 0.192769 0.491929 0.432157
Si Si8 0.223994 0.483135 0.189677
O O1 0.628464 0.315887 0.202717
O O2 0.992024 0.037832 0.354589
O O3 0.765153 0.066631 0.364826
O O4 0.771100 0.944988 0.124370
O O5 0.645004 0.311626 0.862705
O O6 0.785773 0.996366 0.726255
O O7 0.740113 0.989785 0.907743
O O8 0.000000 0.000000 0.000000
O O9 0.742730 0.918249 0.475639
O O10 0.021168 0.696585 0.441473
O O11 0.960442 0.337952 0.929947
O O12 0.279016 0.274219 0.108344
O O13 0.164087 0.332023 0.391878
O O14 0.500000 0.000000 0.500000
O O15 0.387700 0.425414 0.584312
O O16 0.612550 0.505923 0.729053
O O17 0.189388 0.507434 0.305008
#
# Coordination Sequence:
#
# PCOD8024000 Si02
#       8
#     2   2   2   2   2   2   2   2
#     4  10  23  43  67 100 134 183 226 282 343 401
#     4  12  24  43  67  97 140 184 222 276 346 418
#     4  10  23  42  68  99 141 175 222 285 347 402
#     4  11  23  42  67  93 138 179 229 267 342 420
#     4  12  25  42  70 105 136 178 230 287 338 397
#     4  11  25  40  68 101 133 179 233 286 337 397
#     4  11  22  43  67 102 136 173 231 285 342 399
#     4  11  23  41  68 100 130 181 231 281 330 407
#
# _framework density 21.319476000000002
#
# number of rings (size 3 to 8) (size 9 to 14) (size 15 to 20)
#    0.000    1.000    5.000    1.500    1.750    1.000 
#    0.000    0.000    0.000    0.000    0.000    0.000 
#    0.000    0.000    0.000    0.000    0.000    0.000 
#
# Total GULP energy -198473.803161 kJ/mol
# GULP energy per Si atom -12404.612698 kJ/mol
# Density = 2.127095 g / cm^3
# Si number density = 21.319476 Si / 1000 Ang^3
#
#
#
# Elastic Constant Matrix: (Units=GPa)
#
#
# Indices 1 2 3 4 5 6 
#
# 1 119.0580 40.2347 36.4144 -1.8663 -9.7779 10.8145
# 2 40.2347 136.7336 54.4502 -7.1998 -1.9755 9.1978
# 3 36.4144 54.4502 91.6636 1.0428 -2.3956 -10.6309
# 4 -1.8663 -7.1998 1.0428 39.8589 0.7084 -7.0938
# 5 -9.7779 -1.9755 -2.3956 0.7084 29.6005 -4.2131
# 6 10.8145 9.1978 -10.6309 -7.0938 -4.2131 24.1073
#
#
#
# Elastic Compliance Matrix: (Units=1/GPa)
#
#
# Indices 1 2 3 4 5 6 
#
# 1 0.010812 -0.001052 -0.004316 -0.000708 0.002292 -0.006160
# 2 -0.001052 0.010808 -0.006805 0.000931 -0.001135 -0.006577
# 3 -0.004316 -0.006805 0.018197 0.000366 0.001422 0.012914
# 4 -0.000708 0.000931 0.000366 0.026636 0.000363 0.008025
# 5 0.002292 -0.001135 0.001422 0.000363 0.035473 0.006338
# 6 -0.006160 -0.006577 0.012914 0.008025 0.006338 0.055918
#
#
# Mechanical properties :
#
#
# Convention : Reuss Voigt Hill
#
# Bulk Modulus (GPa) = 64.64467 67.73933 66.19200
# Shear Modulus (GPa) = 26.68824 33.13707 29.91266
#
# Velocity S-wave (km/s) = 3.54195 3.94675 3.74982
# Velocity P-wave (km/s) = 6.86403 7.25338 7.06139
#
# Compressibility (1/GPa) = 0.01546918
#
# Stress axis : x y z
#
# Youngs Moduli (GPa) = 92.49187 92.52220 54.95284
#
# Poissons Ratio (x) = 0.09736 0.23720
# Poissons Ratio (y) = 0.09733 0.37397
# Poissons Ratio (z) = 0.39923 0.62965
#
# Static dielectric constant tensor:
#      x y z
#    x 3.310830 0.002110 0.620860 
#    y 0.002110 4.020180 0.401580 
#    z 0.620860 0.401580 2.841420 
# 
# 
# High freq. dielectric constant tensor:
#      x y z
#    x 1.821340 0.012480 0.002150 
#    y 0.012480 1.858800 -0.000770 
#    z 0.002150 -0.000770 1.832740 
# 
# From -- ./inp_files/263341.got.cif
#   From: 2010.06.25/outbox.cif.g09.slc.cpg/sg2_132_cif.got.tgz:263341.got - 2010.06.27 13:26:56.
