data_PCOD8024531
_publ_section_title
;
Structure prediction by ZEFSAII (Michael W. Deem and Ramdas Pophale) SiO2 
 PCOD8024531
Probable space group: P -1
;
_chemical_formula_sum "Si O2"
_cell_formula_units_Z 16
_cell_length_a 8.921831
_cell_length_b 13.923184
_cell_length_c 24.814249
_cell_angle_alpha 156.401313
_cell_angle_beta 141.688280
_cell_angle_gamma 46.703652
_cell_volume 758.095340
_symmetry_space_group_name_H-M "P -1"
_symmetry_group_IT_number 2
_symmetry_cell_setting 'triclinic'
loop_
_space_group_symop_operation_xyz
x,y,z
-x,-y,-z
loop_
_atom_site_type_symbol
_atom_site_label
_atom_site_fract_x
_atom_site_fract_y
_atom_site_fract_z
Si Si1 0.806109 0.770477 0.338841
Si Si2 0.395944 0.718628 0.110911
Si Si3 0.650710 0.559988 0.411304
Si Si4 0.090919 0.391584 0.023285
Si Si5 0.137029 0.367299 0.209604
Si Si6 0.052372 0.848998 0.738824
Si Si7 0.564009 0.742500 0.369453
Si Si8 0.873308 0.936209 0.847117
O O1 0.563647 0.799279 0.251082
O O2 0.742625 0.764880 0.380784
O O3 0.913027 0.523974 0.227997
O O4 0.000000 0.000000 0.500000
O O5 0.368582 0.948752 0.182470
O O6 0.500000 0.500000 0.000000
O O7 0.119730 0.619035 0.997342
O O8 0.369327 0.531358 0.334157
O O9 0.788859 0.759284 0.592608
O O10 0.703206 0.649039 0.411168
O O11 0.750961 0.303046 0.309768
O O12 0.325285 0.555023 0.195480
O O13 0.000000 0.500000 0.000000
O O14 0.150317 0.122281 0.889491
O O15 0.205288 0.279988 0.243860
O O16 0.065500 0.137750 0.033465
O O17 0.017185 0.829972 0.783672
O O18 0.500000 0.000000 0.500000
#
# Coordination Sequence:
#
# PCOD8024531 Si02
#       8
#     2   2   2   2   2   2   2   2
#     4  12  27  44  66 100 139 177 217 278 340 401
#     4  11  23  43  67 100 136 174 223 274 333 402
#     4  11  24  44  66  98 136 174 222 280 334 396
#     4  11  23  42  69  96 128 180 223 276 327 394
#     4  11  24  43  68  99 132 175 227 275 341 396
#     4  10  24  43  65  95 134 174 225 275 333 392
#     4  12  26  44  69  99 136 175 225 276 335 401
#     4  10  23  43  68  96 130 177 226 275 328 403
#
# _framework density 21.105525
#
# number of rings (size 3 to 8) (size 9 to 14) (size 15 to 20)
#    0.000    1.000    2.500    3.750    7.000    5.500 
#    4.500    0.000    0.000    0.000    0.000    0.000 
#    0.000    0.000    0.000    0.000    0.000    0.000 
#
# Total GULP energy -198447.202713 kJ/mol
# GULP energy per Si atom -12402.950170 kJ/mol
# Density = 2.105749 g / cm^3
# Si number density = 21.105525 Si / 1000 Ang^3
#
#
#
# Elastic Constant Matrix: (Units=GPa)
#
#
# Indices 1 2 3 4 5 6 
#
# 1 103.5533 32.2198 45.1622 -8.8632 4.4149 10.0193
# 2 32.2198 109.6058 27.0486 4.6116 3.3622 15.7255
# 3 45.1622 27.0486 128.6017 2.2354 -1.0426 1.9581
# 4 -8.8632 4.6116 2.2354 30.7527 1.0382 -3.8443
# 5 4.4149 3.3622 -1.0426 1.0382 34.1560 0.3904
# 6 10.0193 15.7255 1.9581 -3.8443 0.3904 46.3131
#
#
#
# Elastic Compliance Matrix: (Units=1/GPa)
#
#
# Indices 1 2 3 4 5 6 
#
# 1 0.012807 -0.002722 -0.003993 0.004281 -0.001625 -0.001309
# 2 -0.002722 0.010827 -0.001230 -0.002704 -0.000632 -0.003255
# 3 -0.003993 -0.001230 0.009461 -0.001594 0.000966 0.000741
# 4 0.004281 -0.002704 -0.001594 0.034690 -0.001424 0.002951
# 5 -0.001625 -0.000632 0.000966 -0.001424 0.029621 0.000157
# 6 -0.001309 -0.003255 0.000741 0.002951 0.000157 0.023193
#
#
# Mechanical properties :
#
#
# Convention : Reuss Voigt Hill
#
# Bulk Modulus (GPa) = 58.11823 61.18021 59.64922
# Shear Modulus (GPa) = 35.15579 38.06637 36.61108
#
# Velocity S-wave (km/s) = 4.08574 4.25151 4.16945
# Velocity P-wave (km/s) = 7.06077 7.29049 7.17655
#
# Compressibility (1/GPa) = 0.01720631
#
# Stress axis : x y z
#
# Youngs Moduli (GPa) = 78.07937 92.35788 105.69593
#
# Poissons Ratio (x) = 0.25140 0.42203
# Poissons Ratio (y) = 0.21254 0.13000
# Poissons Ratio (z) = 0.31176 0.11360
#
# Static dielectric constant tensor:
#      x y z
#    x 3.895650 0.347620 -0.162410 
#    y 0.347620 4.200580 0.205530 
#    z -0.162410 0.205530 3.505780 
# 
# 
# High freq. dielectric constant tensor:
#      x y z
#    x 1.830550 0.008040 -0.012890 
#    y 0.008040 1.842890 0.003490 
#    z -0.012890 0.003490 1.832260 
# 
# From -- ./inp_files/260549.got.cif
#   From: 2010.06.25/outbox.cif.g09.slc.cpg/sg2_131_cif.got.tgz:260549.got - 2010.06.27 13:26:56.
