data_PCOD8024236
_publ_section_title
;
Structure prediction by ZEFSAII (Michael W. Deem and Ramdas Pophale) SiO2 
 PCOD8024236
Probable space group: P -1
;
_chemical_formula_sum "Si O2"
_cell_formula_units_Z 10
_cell_length_a 11.610331
_cell_length_b 13.632219
_cell_length_c 7.813939
_cell_angle_alpha 94.747109
_cell_angle_beta 106.468245
_cell_angle_gamma 147.424895
_cell_volume 499.511217
_symmetry_space_group_name_H-M "P -1"
_symmetry_group_IT_number 2
_symmetry_cell_setting 'triclinic'
loop_
_space_group_symop_operation_xyz
x,y,z
-x,-y,-z
loop_
_atom_site_type_symbol
_atom_site_label
_atom_site_fract_x
_atom_site_fract_y
_atom_site_fract_z
Si Si1 0.195905 0.877735 0.742026
Si Si2 0.387525 0.664631 0.899929
Si Si3 0.249866 0.108277 0.611994
Si Si4 0.364394 0.623357 0.505312
Si Si5 0.253450 0.770991 0.474064
O O1 0.281072 0.837717 0.684501
O O2 0.911158 0.647079 0.700194
O O3 0.130704 0.909596 0.567440
O O4 0.450204 0.108241 0.000095
O O5 0.449139 0.659004 0.741929
O O6 0.055077 0.432913 0.763886
O O7 0.515938 0.693494 0.112594
O O8 0.385095 0.215434 0.495916
O O9 0.000000 0.000000 0.500000
O O10 0.281382 0.675582 0.478489
O O11 0.500000 0.000000 0.500000
#
# Coordination Sequence:
#
# PCOD8024236 Si02
#       5
#     2   2   2   2   2
#     4   9  21  40  58  94 122 151 209 240 299 370
#     4   9  22  40  60  95 120 160 202 239 317 353
#     4  10  23  43  61  88 124 160 210 249 287 361
#     4  11  22  39  64  88 126 160 194 256 301 357
#     4  11  20  37  65  94 124 155 198 250 307 369
#
# _framework density 20.019572
#
# number of rings (size 3 to 8) (size 9 to 14) (size 15 to 20)
#    1.200    0.800    2.000    2.400    0.000    9.600 
#    0.000    4.000    0.000    0.000    0.000    0.000 
#    0.000    0.000    0.000    0.000    0.000    0.000 
#
# Total GULP energy -123904.989563 kJ/mol
# GULP energy per Si atom -12390.498956 kJ/mol
# Density = 1.997401 g / cm^3
# Si number density = 20.019572 Si / 1000 Ang^3
#
#
#
# Elastic Constant Matrix: (Units=GPa)
#
#
# Indices 1 2 3 4 5 6 
#
# 1 76.4428 51.9093 36.3886 6.7603 10.1391 27.1784
# 2 51.9093 145.9391 34.6270 16.5066 -1.4151 18.4502
# 3 36.3886 34.6270 103.6333 5.7076 -1.1498 15.1390
# 4 6.7603 16.5066 5.7076 35.6366 -5.9766 -7.7186
# 5 10.1391 -1.4151 -1.1498 -5.9766 26.2700 7.2168
# 6 27.1784 18.4502 15.1390 -7.7186 7.2168 35.7705
#
#
#
# Elastic Compliance Matrix: (Units=1/GPa)
#
#
# Indices 1 2 3 4 5 6 
#
# 1 0.025950 -0.005650 -0.004875 -0.005980 -0.007929 -0.014430
# 2 -0.005650 0.009626 -0.000814 -0.003185 0.002348 -0.001489
# 3 -0.004875 -0.000814 0.011919 -0.000498 0.002677 -0.001569
# 4 -0.005980 -0.003185 -0.000498 0.034562 0.006534 0.012537
# 5 -0.007929 0.002348 0.002677 0.006534 0.043891 -0.003764
# 6 -0.014430 -0.001489 -0.001569 0.012537 -0.003764 0.043817
#
#
# Mechanical properties :
#
#
# Convention : Reuss Voigt Hill
#
# Bulk Modulus (GPa) = 40.29133 63.54056 51.91594
# Shear Modulus (GPa) = 24.91121 33.07478 28.99300
#
# Velocity S-wave (km/s) = 3.53135 4.06904 3.80969
# Velocity P-wave (km/s) = 6.06605 7.34059 6.73354
#
# Compressibility (1/GPa) = 0.02481924
#
# Stress axis : x y z
#
# Youngs Moduli (GPa) = 38.53634 103.88458 83.89865
#
# Poissons Ratio (x) = 0.58691 0.40897
# Poissons Ratio (y) = 0.21772 0.06826
# Poissons Ratio (z) = 0.18785 0.08452
#
# Static dielectric constant tensor:
#      x y z
#    x 3.359410 -0.029790 -0.188700 
#    y -0.029790 4.013000 -0.056100 
#    z -0.188700 -0.056100 3.737790 
# 
# 
# High freq. dielectric constant tensor:
#      x y z
#    x 1.756260 -0.002680 -0.011140 
#    y -0.002680 1.794080 0.010260 
#    z -0.011140 0.010260 1.771860 
# 
# From -- ./inp_files/92241.got.cif
#   From: 2010.06.25/outbox.cif.g09.slc.cpg/sg2_47_cif.got.tgz:92241.got - 2010.06.27 13:26:56.
