data_PCOD8024604
_publ_section_title
;
Structure prediction by ZEFSAII (Michael W. Deem and Ramdas Pophale) SiO2 
 PCOD8024604
Probable space group: P -1
;
_chemical_formula_sum "Si O2"
_cell_formula_units_Z 14
_cell_length_a 23.575723
_cell_length_b 5.359161
_cell_length_c 9.214499
_cell_angle_alpha 76.840429
_cell_angle_beta 32.312133
_cell_angle_gamma 70.118991
_cell_volume 581.072702
_symmetry_space_group_name_H-M "P -1"
_symmetry_group_IT_number 2
_symmetry_cell_setting 'triclinic'
loop_
_space_group_symop_operation_xyz
x,y,z
-x,-y,-z
loop_
_atom_site_type_symbol
_atom_site_label
_atom_site_fract_x
_atom_site_fract_y
_atom_site_fract_z
Si Si1 0.242018 0.358017 0.398561
Si Si2 0.988335 0.217923 0.620894
Si Si3 0.892486 0.035001 0.324377
Si Si4 0.403334 0.389050 0.279563
Si Si5 0.633696 0.670313 0.157310
Si Si6 0.591098 0.026798 0.460144
Si Si7 0.742928 0.272619 0.221535
O O1 0.165913 0.651203 0.569238
O O2 0.352318 0.270901 0.269374
O O3 0.181142 0.125810 0.579979
O O4 0.275370 0.365381 0.158371
O O5 0.000000 0.500000 0.500000
O O6 0.870278 0.254570 0.946222
O O7 0.000000 0.000000 0.500000
O O8 0.079727 0.104668 0.559963
O O9 0.000000 0.000000 0.000000
O O10 0.301785 0.615303 0.540568
O O11 0.457610 0.178329 0.315593
O O12 0.500000 0.500000 0.000000
O O13 0.509944 0.697096 0.358210
O O14 0.675138 0.427616 0.209357
O O15 0.624109 0.941437 0.234105
O O16 0.705155 0.006877 0.307367
#
# Coordination Sequence:
#
# PCOD8024604 Si02
#       7
#     2   2   2   2   2   2   2
#     4  12  28  46  79 105 151 194 249 304 377 444
#     4  12  28  48  78 110 146 192 257 313 370 439
#     4  12  28  51  73 110 150 200 250 313 376 445
#     4  11  27  45  71 110 147 196 244 301 370 459
#     4  10  23  43  69 109 140 186 242 296 373 438
#     4  10  24  43  73 101 148 189 240 302 369 447
#     4  11  24  44  73 102 146 187 245 303 376 432
#
# _framework density 24.09337
#
# number of rings (size 3 to 8) (size 9 to 14) (size 15 to 20)
#    0.000    0.857    0.000    5.143   14.000    2.286 
#    0.000    0.000    0.000    0.000    0.000    0.000 
#    0.000    0.000    0.000    0.000    0.000    0.000 
#
# Total GULP energy -173520.437528 kJ/mol
# GULP energy per Si atom -12394.316966 kJ/mol
# Density = 2.403853 g / cm^3
# Si number density = 24.093370 Si / 1000 Ang^3
#
#
#
# Elastic Constant Matrix: (Units=GPa)
#
#
# Indices 1 2 3 4 5 6 
#
# 1 112.3214 19.6223 32.8519 -8.8981 -2.0731 15.8362
# 2 19.6223 110.1396 37.6181 1.9773 1.8760 15.4672
# 3 32.8519 37.6181 153.8869 1.2577 3.8264 23.4499
# 4 -8.8981 1.9773 1.2577 39.5469 5.1509 -4.6172
# 5 -2.0731 1.8760 3.8264 5.1509 47.7565 -4.4427
# 6 15.8362 15.4672 23.4499 -4.6172 -4.4427 40.7947
#
#
#
# Elastic Compliance Matrix: (Units=1/GPa)
#
#
# Indices 1 2 3 4 5 6 
#
# 1 0.010029 -0.000958 -0.001565 0.002056 0.000155 -0.002381
# 2 -0.000958 0.010285 -0.001897 -0.000915 -0.000436 -0.002588
# 3 -0.001565 -0.001897 0.007835 -0.000788 -0.000849 -0.003359
# 4 0.002056 -0.000915 -0.000788 0.026453 -0.002411 0.002733
# 5 0.000155 -0.000436 -0.000849 -0.002411 0.021539 0.002666
# 6 -0.002381 -0.002588 -0.003359 0.002733 0.002666 0.028949
#
#
# Mechanical properties :
#
#
# Convention : Reuss Voigt Hill
#
# Bulk Modulus (GPa) = 51.78314 61.83693 56.81004
# Shear Modulus (GPa) = 41.53935 44.70332 43.12133
#
# Velocity S-wave (km/s) = 4.15673 4.31213 4.23514
# Velocity P-wave (km/s) = 6.67662 7.10731 6.89533
#
# Compressibility (1/GPa) = 0.01931131
#
# Stress axis : x y z
#
# Youngs Moduli (GPa) = 99.70631 97.22637 127.62459
#
# Poissons Ratio (x) = 0.09310 0.19971
# Poissons Ratio (y) = 0.09547 0.24212
# Poissons Ratio (z) = 0.15602 0.18445
#
# Static dielectric constant tensor:
#      x y z
#    x 4.660710 0.388040 0.141730 
#    y 0.388040 3.763090 -0.563650 
#    z 0.141730 -0.563650 3.932430 
# 
# 
# High freq. dielectric constant tensor:
#      x y z
#    x 1.978040 0.000840 0.005770 
#    y 0.000840 1.956210 -0.005670 
#    z 0.005770 -0.005670 1.964230 
# 
# From -- ./inp_files/74491.got.cif
#   From: 2010.06.25/outbox.cif.g09.slc.cpg/sg2_38_cif.got.tgz:74491.got - 2010.06.27 13:26:56.
