data_PCOD8024099
_publ_section_title
;
Structure prediction by ZEFSAII (Michael W. Deem and Ramdas Pophale) SiO2 
 PCOD8024099
Probable space group: P -1
;
_chemical_formula_sum "Si O2"
_cell_formula_units_Z 16
_cell_length_a 7.018596
_cell_length_b 8.946739
_cell_length_c 18.089704
_cell_angle_alpha 71.083102
_cell_angle_beta 42.545868
_cell_angle_gamma 84.742373
_cell_volume 707.095749
_symmetry_space_group_name_H-M "P -1"
_symmetry_group_IT_number 2
_symmetry_cell_setting 'triclinic'
loop_
_space_group_symop_operation_xyz
x,y,z
-x,-y,-z
loop_
_atom_site_type_symbol
_atom_site_label
_atom_site_fract_x
_atom_site_fract_y
_atom_site_fract_z
Si Si1 0.982358 0.359961 0.588563
Si Si2 0.699188 0.595214 0.864456
Si Si3 0.404868 0.463357 0.256510
Si Si4 0.804367 0.039214 0.984661
Si Si5 0.874512 0.613875 0.208994
Si Si6 0.175403 0.051402 0.167187
Si Si7 0.068565 0.827244 0.500765
Si Si8 0.348365 0.244529 0.612053
O O1 0.289029 0.357908 0.542118
O O2 0.000000 0.500000 0.500000
O O3 0.762865 0.389187 0.710802
O O4 0.868760 0.194245 0.601169
O O5 0.519749 0.577052 0.842251
O O6 0.830708 0.780163 0.819272
O O7 0.962942 0.513784 0.782073
O O8 0.500000 0.500000 0.000000
O O9 0.706893 0.522691 0.201642
O O10 0.219031 0.300119 0.372165
O O11 0.888624 0.229526 0.910985
O O12 0.845192 0.932374 0.918542
O O13 0.470068 0.995935 0.112424
O O14 0.000000 0.000000 0.000000
O O15 0.659565 0.663845 0.322364
O O16 0.906284 0.917127 0.295724
O O17 0.341658 0.802266 0.475933
O O18 0.000000 0.000000 0.500000
#
# Coordination Sequence:
#
# PCOD8024099 Si02
#       8
#     2   2   2   2   2   2   2   2
#     4  10  23  45  72 101 135 182 239 287 350 428
#     4  12  26  46  68 101 147 182 240 297 353 412
#     4  11  26  44  71 101 144 184 237 294 348 429
#     4  10  23  42  70  95 141 182 238 290 352 417
#     4  11  24  43  72 103 132 193 233 288 358 417
#     4  10  25  42  65 106 134 186 232 290 354 421
#     4  11  27  47  69 110 143 186 239 292 359 431
#     4  11  24  45  76  99 147 186 234 293 360 428
#
# _framework density 22.627769000000001
#
# number of rings (size 3 to 8) (size 9 to 14) (size 15 to 20)
#    0.000    1.250    3.750    0.000    7.000    6.000 
#    0.000    0.000    0.000    0.000    0.000    0.000 
#    0.000    0.000    0.000    0.000    0.000    0.000 
#
# Total GULP energy -198379.628819 kJ/mol
# GULP energy per Si atom -12398.726801 kJ/mol
# Density = 2.257627 g / cm^3
# Si number density = 22.627769 Si / 1000 Ang^3
#
#
#
# Elastic Constant Matrix: (Units=GPa)
#
#
# Indices 1 2 3 4 5 6 
#
# 1 150.1877 45.6377 15.1716 6.9922 7.7892 13.3980
# 2 45.6377 144.5033 28.4317 10.9144 12.6197 19.8211
# 3 15.1716 28.4317 54.3329 2.8477 4.5057 16.3477
# 4 6.9922 10.9144 2.8477 22.7614 5.9561 -6.6939
# 5 7.7892 12.6197 4.5057 5.9561 35.7321 3.9452
# 6 13.3980 19.8211 16.3477 -6.6939 3.9452 43.5497
#
#
#
# Elastic Compliance Matrix: (Units=1/GPa)
#
#
# Indices 1 2 3 4 5 6 
#
# 1 0.007522 -0.001906 -0.000542 -0.001634 -0.000466 -0.001452
# 2 -0.001906 0.008898 -0.002967 -0.003763 -0.001417 -0.002800
# 3 -0.000542 -0.002967 0.022545 -0.003339 -0.000300 -0.007432
# 4 -0.001634 -0.003763 -0.003339 0.052342 -0.007970 0.012236
# 5 -0.000466 -0.001417 -0.000300 -0.007970 0.030293 -0.003069
# 6 -0.001452 -0.002800 -0.007432 0.012236 -0.003069 0.029632
#
#
# Mechanical properties :
#
#
# Convention : Reuss Voigt Hill
#
# Bulk Modulus (GPa) = 35.54202 58.61175 47.07688
# Shear Modulus (GPa) = 29.16490 37.72748 33.44619
#
# Velocity S-wave (km/s) = 3.59402 4.08770 3.84878
# Velocity P-wave (km/s) = 5.74143 6.94535 6.37188
#
# Compressibility (1/GPa) = 0.02813571
#
# Stress axis : x y z
#
# Youngs Moduli (GPa) = 132.94410 112.38711 44.35597
#
# Poissons Ratio (x) = 0.21417 0.02404
# Poissons Ratio (y) = 0.25335 0.13160
# Poissons Ratio (z) = 0.07204 0.33344
#
# Static dielectric constant tensor:
#      x y z
#    x 4.289340 0.303180 0.095620 
#    y 0.303180 4.460380 0.190710 
#    z 0.095620 0.190710 3.913000 
# 
# 
# High freq. dielectric constant tensor:
#      x y z
#    x 1.904620 0.013500 0.000250 
#    y 0.013500 1.899560 0.001050 
#    z 0.000250 0.001050 1.876100 
# 
# From -- ./inp_files/548016.got.cif
#   From: 2010.06.25/outbox.cif.g09.slc.cpg/sg2_275_cif.got.tgz:548016.got - 2010.06.27 13:26:56.
