data_PCOD8024894
_publ_section_title
;
Structure prediction by ZEFSAII (Michael W. Deem and Ramdas Pophale) SiO2 
 PCOD8024894
Probable space group: P -1
;
_chemical_formula_sum "Si O2"
_cell_formula_units_Z 16
_cell_length_a 18.022379
_cell_length_b 6.554284
_cell_length_c 15.662940
_cell_angle_alpha 137.217409
_cell_angle_beta 38.636733
_cell_angle_gamma 132.549980
_cell_volume 761.172164
_symmetry_space_group_name_H-M "P -1"
_symmetry_group_IT_number 2
_symmetry_cell_setting 'triclinic'
loop_
_space_group_symop_operation_xyz
x,y,z
-x,-y,-z
loop_
_atom_site_type_symbol
_atom_site_label
_atom_site_fract_x
_atom_site_fract_y
_atom_site_fract_z
Si Si1 0.725623 0.164161 0.301585
Si Si2 0.154187 0.638661 0.145055
Si Si3 0.024321 0.416344 0.857000
Si Si4 0.380516 0.536314 0.832771
Si Si5 0.146940 0.308698 0.379118
Si Si6 0.618835 0.376853 0.633915
Si Si7 0.456083 0.782389 0.661580
Si Si8 0.035994 0.290208 0.295677
O O1 0.865087 0.344979 0.216158
O O2 0.672827 0.322418 0.476351
O O3 0.658831 0.185238 0.279771
O O4 0.702262 0.797263 0.227688
O O5 0.112355 0.347097 0.156847
O O6 0.094394 0.559993 0.081967
O O7 0.114683 0.939299 0.310730
O O8 0.299979 0.693396 0.016805
O O9 0.042159 0.064372 0.733017
O O10 0.000000 0.500000 0.000000
O O11 0.504677 0.527732 0.767783
O O12 0.416403 0.756446 0.787021
O O13 0.281860 0.418857 0.330179
O O14 0.134943 0.379799 0.310924
O O15 0.055489 0.482996 0.560868
O O16 0.572880 0.064843 0.632030
O O17 0.500000 0.500000 0.500000
#
# Coordination Sequence:
#
# PCOD8024894 Si02
#       8
#     2   2   2   2   2   2   2   2
#     4  11  22  37  61  94 126 154 206 249 306 373
#     4  11  24  43  62  87 128 165 203 251 308 360
#     4  11  24  39  63  99 124 157 202 248 312 375
#     4  11  23  40  61  90 130 162 195 258 308 360
#     4  10  24  42  64  90 116 162 218 252 297 361
#     4  11  23  38  62  94 119 160 212 248 300 369
#     4  11  20  38  61  90 127 159 196 250 309 360
#     4  10  23  44  65  88 125 161 203 262 302 353
#
# _framework density 21.020212000000001
#
# number of rings (size 3 to 8) (size 9 to 14) (size 15 to 20)
#    0.000    1.250    2.500    3.375    1.750   10.500 
#    0.000    1.250    0.000    0.000    0.000    0.000 
#    0.000    0.000    0.000    0.000    0.000    0.000 
#
# Total GULP energy -198363.230928 kJ/mol
# GULP energy per Si atom -12397.701933 kJ/mol
# Density = 2.097237 g / cm^3
# Si number density = 21.020212 Si / 1000 Ang^3
#
#
#
# Elastic Constant Matrix: (Units=GPa)
#
#
# Indices 1 2 3 4 5 6 
#
# 1 115.9272 56.1056 35.1888 -6.8539 -1.9540 12.7983
# 2 56.1056 106.2442 31.5260 -21.1839 2.4169 -5.3751
# 3 35.1888 31.5260 95.2693 -14.5982 -7.1154 -2.2932
# 4 -6.8539 -21.1839 -14.5982 35.4066 -1.5875 4.1875
# 5 -1.9540 2.4169 -7.1154 -1.5875 28.7332 -3.0997
# 6 12.7983 -5.3751 -2.2932 4.1875 -3.0997 32.8411
#
#
#
# Elastic Compliance Matrix: (Units=1/GPa)
#
#
# Indices 1 2 3 4 5 6 
#
# 1 0.013527 -0.006937 -0.003182 -0.002094 -0.000087 -0.006370
# 2 -0.006937 0.015032 -0.001409 0.006526 -0.001281 0.004112
# 3 -0.003182 -0.001409 0.013037 0.003867 0.003534 0.001760
# 4 -0.002094 0.006526 0.003867 0.033654 0.001914 -0.001956
# 5 -0.000087 -0.001281 0.003534 0.001914 0.036236 0.003247
# 6 -0.006370 0.004112 0.001760 -0.001956 0.003247 0.034284
#
#
# Mechanical properties :
#
#
# Convention : Reuss Voigt Hill
#
# Bulk Modulus (GPa) = 53.93424 62.56461 58.24942
# Shear Modulus (GPa) = 28.57044 32.37085 30.47064
#
# Velocity S-wave (km/s) = 3.69072 3.92852 3.81148
# Velocity P-wave (km/s) = 6.62388 7.09974 6.86594
#
# Compressibility (1/GPa) = 0.01854110
#
# Stress axis : x y z
#
# Youngs Moduli (GPa) = 73.92435 66.52365 76.70672
#
# Poissons Ratio (x) = 0.46150 0.24405
# Poissons Ratio (y) = 0.51284 0.10805
# Poissons Ratio (z) = 0.23520 0.09371
#
# Static dielectric constant tensor:
#      x y z
#    x 9.286040 -10.024220 0.830640 
#    y -10.024220 22.193900 -1.597160 
#    z 0.830640 -1.597160 3.863530 
# 
# 
# High freq. dielectric constant tensor:
#      x y z
#    x 1.828790 -0.011770 -0.002730 
#    y -0.011770 1.828760 -0.003600 
#    z -0.002730 -0.003600 1.819890 
# 
# From -- ./inp_files/70362.got.cif
#   From: 2010.06.25/outbox.cif.g09.slc.cpg/sg2_36_cif.got.tgz:70362.got - 2010.06.27 13:26:56.
