data_PCOD8024988
_publ_section_title
;
Structure prediction by ZEFSAII (Michael W. Deem and Ramdas Pophale) SiO2 
 PCOD8024988
Probable space group: P -1
;
_chemical_formula_sum "Si O2"
_cell_formula_units_Z 16
_cell_length_a 11.812878
_cell_length_b 9.269272
_cell_length_c 11.416176
_cell_angle_alpha 83.681519
_cell_angle_beta 102.406575
_cell_angle_gamma 141.730879
_cell_volume 752.577084
_symmetry_space_group_name_H-M "P -1"
_symmetry_group_IT_number 2
_symmetry_cell_setting 'triclinic'
loop_
_space_group_symop_operation_xyz
x,y,z
-x,-y,-z
loop_
_atom_site_type_symbol
_atom_site_label
_atom_site_fract_x
_atom_site_fract_y
_atom_site_fract_z
Si Si1 0.359929 0.173830 0.082446
Si Si2 0.674074 0.889450 0.652738
Si Si3 0.722856 0.476416 0.449201
Si Si4 0.749551 0.618717 0.025221
Si Si5 0.205577 0.763970 0.532034
Si Si6 0.981703 0.321054 0.059176
Si Si7 0.036145 0.781389 0.679194
Si Si8 0.948360 0.882458 0.281255
O O1 0.357980 0.107742 0.218199
O O2 0.567320 0.359995 0.059174
O O3 0.306414 0.291055 0.064341
O O4 0.218820 0.943212 0.992818
O O5 0.478467 0.642237 0.573827
O O6 0.741395 0.102667 0.586917
O O7 0.829630 0.917727 0.668332
O O8 0.667484 0.254810 0.422233
O O9 0.838707 0.597592 0.584003
O O10 0.842763 0.663213 0.356271
O O11 0.897459 0.804279 0.142452
O O12 0.849557 0.610165 0.958123
O O13 0.000000 0.500000 0.500000
O O14 0.202935 0.870924 0.632728
O O15 0.999511 0.345945 0.200889
O O16 0.000000 0.500000 0.000000
O O17 0.111261 0.015146 0.704937
#
# Coordination Sequence:
#
# PCOD8024988 Si02
#       8
#     2   2   2   2   2   2   2   2
#     4  11  24  44  75  99 130 175 236 270 334 403
#     4  12  23  40  75  98 124 182 227 267 332 396
#     4  11  25  43  67  99 132 179 224 271 331 398
#     4  11  24  47  69 100 134 179 225 279 331 399
#     4  10  23  44  67  92 136 178 215 270 335 395
#     4  12  27  43  71 100 138 178 218 277 341 400
#     4  11  25  45  65 100 140 173 218 282 335 390
#     4  12  22  44  71  94 137 171 226 279 330 391
#
# _framework density 21.260280000000002
#
# number of rings (size 3 to 8) (size 9 to 14) (size 15 to 20)
#    0.000    0.750    6.250    1.875    5.250    1.000 
#    2.250    0.000    0.000    0.000    0.000    0.000 
#    0.000    0.000    0.000    0.000    0.000    0.000 
#
# Total GULP energy -198425.005369 kJ/mol
# GULP energy per Si atom -12401.562836 kJ/mol
# Density = 2.121189 g / cm^3
# Si number density = 21.260280 Si / 1000 Ang^3
#
#
#
# Elastic Constant Matrix: (Units=GPa)
#
#
# Indices 1 2 3 4 5 6 
#
# 1 85.8453 38.3044 31.4208 -5.1316 0.3228 2.6681
# 2 38.3044 78.7588 37.4415 -12.2078 -2.5626 14.3408
# 3 31.4208 37.4415 146.3397 -26.4593 1.7884 -0.2965
# 4 -5.1316 -12.2078 -26.4593 32.2560 2.6315 4.2296
# 5 0.3228 -2.5626 1.7884 2.6315 26.4904 2.8309
# 6 2.6681 14.3408 -0.2965 4.2296 2.8309 37.3930
#
#
#
# Elastic Compliance Matrix: (Units=1/GPa)
#
#
# Indices 1 2 3 4 5 6 
#
# 1 0.015395 -0.007339 -0.001772 -0.001977 -0.000794 0.001986
# 2 -0.007339 0.019804 -0.002636 0.004988 0.002526 -0.007848
# 3 -0.001772 -0.002636 0.009022 0.006164 -0.001522 0.000627
# 4 -0.001977 0.004988 0.006164 0.038654 -0.003123 -0.005859
# 5 -0.000794 0.002526 -0.001522 -0.003123 0.038791 -0.003508
# 6 0.001986 -0.007848 0.000627 -0.005859 -0.003508 0.030544
#
#
# Mechanical properties :
#
#
# Convention : Reuss Voigt Hill
#
# Bulk Modulus (GPa) = 48.24351 58.36414 53.30383
# Shear Modulus (GPa) = 27.38016 32.81304 30.09660
#
# Velocity S-wave (km/s) = 3.59256 3.93287 3.76656
# Velocity P-wave (km/s) = 6.32059 6.93795 6.63645
#
# Compressibility (1/GPa) = 0.02072818
#
# Stress axis : x y z
#
# Youngs Moduli (GPa) = 64.95579 50.49521 110.83428
#
# Poissons Ratio (x) = 0.37059 0.19635
# Poissons Ratio (y) = 0.47672 0.29215
# Poissons Ratio (z) = 0.11507 0.13310
#
# Static dielectric constant tensor:
#      x y z
#    x 4.706310 -0.018690 0.094740 
#    y -0.018690 3.950600 -0.089630 
#    z 0.094740 -0.089630 3.977830 
# 
# 
# High freq. dielectric constant tensor:
#      x y z
#    x 1.835400 0.007080 0.008900 
#    y 0.007080 1.832980 -0.017310 
#    z 0.008900 -0.017310 1.842810 
# 
# From -- ./inp_files/417157.got.cif
#   From: 2010.06.25/outbox.cif.g09.slc.cpg/sg2_209_cif.got.tgz:417157.got - 2010.06.27 13:26:56.
