data_PCOD8024419
_publ_section_title
;
Structure prediction by ZEFSAII (Michael W. Deem and Ramdas Pophale) SiO2 
 PCOD8024419
Probable space group: P -1
;
_chemical_formula_sum "Si O2"
_cell_formula_units_Z 14
_cell_length_a 5.328662
_cell_length_b 13.574289
_cell_length_c 8.788751
_cell_angle_alpha 93.158994
_cell_angle_beta 60.249506
_cell_angle_gamma 78.955754
_cell_volume 533.224319
_symmetry_space_group_name_H-M "P -1"
_symmetry_group_IT_number 2
_symmetry_cell_setting 'triclinic'
loop_
_space_group_symop_operation_xyz
x,y,z
-x,-y,-z
loop_
_atom_site_type_symbol
_atom_site_label
_atom_site_fract_x
_atom_site_fract_y
_atom_site_fract_z
Si Si1 0.442757 0.386138 0.192426
Si Si2 0.352102 0.733331 0.604749
Si Si3 0.673056 0.376219 0.676655
Si Si4 0.831226 0.069972 0.923683
Si Si5 0.901573 0.616908 0.005518
Si Si6 0.857372 0.810630 0.383020
Si Si7 0.775336 0.881169 0.756089
O O1 0.401562 0.321443 0.348037
O O2 0.353263 0.507420 0.260354
O O3 0.231249 0.362093 0.123739
O O4 0.802800 0.342784 0.052670
O O5 0.267506 0.643338 0.522761
O O6 0.517363 0.802845 0.459409
O O7 0.044805 0.807732 0.766099
O O8 0.931085 0.304021 0.692190
O O9 0.371394 0.337838 0.795744
O O10 0.046707 0.129968 0.782248
O O11 0.737891 0.999767 0.815846
O O12 0.533964 0.144995 0.096680
O O13 0.000000 0.000000 0.000000
O O14 0.000000 0.500000 0.000000
O O15 0.856210 0.865568 0.552093
#
# Coordination Sequence:
#
# PCOD8024419 Si02
#       7
#     2   2   2   2   2   2   2
#     4  11  25  43  73 101 150 200 253 302 364 439
#     4  11  26  43  68 105 145 188 243 308 364 441
#     4  10  24  42  65 101 142 196 241 301 367 426
#     4  11  25  47  78 102 138 188 239 301 380 456
#     4  10  23  43  67 100 139 197 256 311 357 426
#     4  11  26  44  70 105 147 184 243 306 370 446
#     4  10  25  48  69 106 141 185 237 301 382 446
#
# _framework density 26.255369000000002
#
# number of rings (size 3 to 8) (size 9 to 14) (size 15 to 20)
#    0.000    1.429    0.000    3.429   12.000    8.571 
#    0.000    0.000    0.000    0.000    0.000    0.000 
#    0.000    0.000    0.000    0.000    0.000    0.000 
#
# Total GULP energy -173493.015199 kJ/mol
# GULP energy per Si atom -12392.358229 kJ/mol
# Density = 2.619561 g / cm^3
# Si number density = 26.255369 Si / 1000 Ang^3
#
#
#
# Elastic Constant Matrix: (Units=GPa)
#
#
# Indices 1 2 3 4 5 6 
#
# 1 89.3214 28.2689 37.5218 -2.9258 -16.9950 -22.2117
# 2 28.2689 96.8158 66.1201 -12.0206 -11.1086 -21.3040
# 3 37.5218 66.1201 132.6527 -10.8085 -23.2753 -17.4330
# 4 -2.9258 -12.0206 -10.8085 48.2305 -1.2014 -4.8254
# 5 -16.9950 -11.1086 -23.2753 -1.2014 55.9385 -6.8480
# 6 -22.2117 -21.3040 -17.4330 -4.8254 -6.8480 38.1596
#
#
#
# Elastic Compliance Matrix: (Units=1/GPa)
#
#
# Indices 1 2 3 4 5 6 
#
# 1 0.015332 -0.000452 -0.001992 0.001373 0.004847 0.008805
# 2 -0.000452 0.017428 -0.007158 0.003429 0.001258 0.006856
# 3 -0.001992 -0.007158 0.012524 0.001117 0.003369 0.001312
# 4 0.001373 0.003429 0.001117 0.022654 0.002858 0.006601
# 5 0.004847 0.001258 0.003369 0.002858 0.022215 0.009411
# 6 0.008805 0.006856 0.001312 0.006601 0.009411 0.038282
#
#
# Mechanical properties :
#
#
# Convention : Reuss Voigt Hill
#
# Bulk Modulus (GPa) = 38.34243 64.73462 51.53852
# Shear Modulus (GPa) = 31.98309 40.92434 36.45371
#
# Velocity S-wave (km/s) = 3.49399 3.95233 3.73021
# Velocity P-wave (km/s) = 5.55992 6.74812 6.18263
#
# Compressibility (1/GPa) = 0.02608077
#
# Stress axis : x y z
#
# Youngs Moduli (GPa) = 65.22185 57.37811 79.84471
#
# Poissons Ratio (x) = 0.02595 0.15905
# Poissons Ratio (y) = 0.02950 0.57152
# Poissons Ratio (z) = 0.12992 0.41071
#
# Static dielectric constant tensor:
#      x y z
#    x 4.500970 -0.362380 0.124750 
#    y -0.362380 4.381880 0.475970 
#    z 0.124750 0.475970 4.490440 
# 
# 
# High freq. dielectric constant tensor:
#      x y z
#    x 2.062190 -0.001600 -0.011080 
#    y -0.001600 2.039010 0.009120 
#    z -0.011080 0.009120 2.066190 
# 
# From -- ./inp_files/135220.got.cif
#   From: 2010.06.25/outbox.cif.g09.slc.cpg/sg2_68_cif.got.tgz:135220.got - 2010.06.27 13:26:56.
