data_PCOD8024115
_publ_section_title
;
Structure prediction by ZEFSAII (Michael W. Deem and Ramdas Pophale) SiO2 
 PCOD8024115
Probable space group: P -1
;
_chemical_formula_sum "Si O2"
_cell_formula_units_Z 16
_cell_length_a 8.954252
_cell_length_b 13.787084
_cell_length_c 12.145637
_cell_angle_alpha 57.333830
_cell_angle_beta 125.369953
_cell_angle_gamma 77.977680
_cell_volume 670.667909
_symmetry_space_group_name_H-M "P -1"
_symmetry_group_IT_number 2
_symmetry_cell_setting 'triclinic'
loop_
_space_group_symop_operation_xyz
x,y,z
-x,-y,-z
loop_
_atom_site_type_symbol
_atom_site_label
_atom_site_fract_x
_atom_site_fract_y
_atom_site_fract_z
Si Si1 0.521331 0.942540 0.709918
Si Si2 0.688705 0.572247 0.707969
Si Si3 0.254989 0.402449 0.519285
Si Si4 0.779425 0.003661 0.928607
Si Si5 0.096041 0.806251 0.387277
Si Si6 0.768552 0.096006 0.249385
Si Si7 0.294125 0.470441 0.731083
Si Si8 0.137495 0.277730 0.214026
O O1 0.454002 0.894732 0.814026
O O2 0.664076 0.802206 0.759482
O O3 0.224849 0.128928 0.418011
O O4 0.723022 0.951088 0.829792
O O5 0.742675 0.514965 0.637717
O O6 0.363472 0.744655 0.488966
O O7 0.848994 0.615769 0.770154
O O8 0.822730 0.412768 0.945972
O O9 0.342426 0.435216 0.642199
O O10 0.946866 0.497689 0.346221
O O11 0.479570 0.194383 0.723279
O O12 0.900546 0.865376 0.163556
O O13 0.000000 0.000000 0.000000
O O14 0.194791 0.649580 0.597923
O O15 0.925140 0.980113 0.278202
O O16 0.586782 0.298440 0.022940
O O17 0.000000 0.000000 0.500000
#
# Coordination Sequence:
#
# PCOD8024115 Si02
#       8
#     2   2   2   2   2   2   2   2
#     4  11  24  44  70 104 136 195 232 290 365 418
#     4  11  23  44  68 102 139 184 235 299 349 421
#     4  11  23  46  69 100 148 184 230 303 350 410
#     4  12  24  45  74 105 145 185 239 301 356 419
#     4  12  27  44  72 107 138 190 237 294 361 418
#     4  12  28  49  72 103 150 189 236 296 352 430
#     4  11  28  45  71 108 143 184 243 294 353 433
#     4  10  23  42  70  98 140 182 242 286 351 435
#
# _framework density 23.856815000000001
#
# number of rings (size 3 to 8) (size 9 to 14) (size 15 to 20)
#    0.000    0.750    3.750    2.250    7.000    5.000 
#    0.000    0.000    0.000    0.000    0.000    0.000 
#    0.000    0.000    0.000    0.000    0.000    0.000 
#
# Total GULP energy -198389.128031 kJ/mol
# GULP energy per Si atom -12399.320502 kJ/mol
# Density = 2.380252 g / cm^3
# Si number density = 23.856815 Si / 1000 Ang^3
#
#
#
# Elastic Constant Matrix: (Units=GPa)
#
#
# Indices 1 2 3 4 5 6 
#
# 1 67.2852 13.1236 16.6208 7.2006 -6.3695 -15.1728
# 2 13.1236 71.4077 33.1333 2.9986 -1.2927 -13.8172
# 3 16.6208 33.1333 181.2453 2.8987 -21.4605 -2.3699
# 4 7.2006 2.9986 2.8987 37.9104 1.2138 -2.4341
# 5 -6.3695 -1.2927 -21.4605 1.2138 32.3765 -2.9774
# 6 -15.1728 -13.8172 -2.3699 -2.4341 -2.9774 34.7087
#
#
#
# Elastic Compliance Matrix: (Units=1/GPa)
#
#
# Indices 1 2 3 4 5 6 
#
# 1 0.017591 -0.001271 -0.000809 -0.002830 0.003646 0.007243
# 2 -0.001271 0.016741 -0.002980 -0.000451 -0.001008 0.005787
# 3 -0.000809 -0.002980 0.006610 -0.000294 0.004044 -0.000763
# 4 -0.002830 -0.000451 -0.000294 0.027050 -0.001756 0.000309
# 5 0.003646 -0.001008 0.004044 -0.001756 0.034708 0.004323
# 6 0.007243 0.005787 -0.000763 0.000309 0.004323 0.034622
#
#
# Mechanical properties :
#
#
# Convention : Reuss Voigt Hill
#
# Bulk Modulus (GPa) = 32.44542 49.52151 40.98347
# Shear Modulus (GPa) = 31.70246 38.13648 34.91947
#
# Velocity S-wave (km/s) = 3.64931 4.00253 3.83000
# Velocity P-wave (km/s) = 5.60234 6.49332 6.06422
#
# Compressibility (1/GPa) = 0.03082099
#
# Stress axis : x y z
#
# Youngs Moduli (GPa) = 56.84651 59.73333 151.28588
#
# Poissons Ratio (x) = 0.07593 0.12241
# Poissons Ratio (y) = 0.07226 0.45088
# Poissons Ratio (z) = 0.04600 0.17802
#
# Static dielectric constant tensor:
#      x y z
#    x 4.011400 -0.287760 -0.234590 
#    y -0.287760 4.258200 0.117160 
#    z -0.234590 0.117160 5.004460 
# 
# 
# High freq. dielectric constant tensor:
#      x y z
#    x 1.925060 -0.016880 -0.007590 
#    y -0.016880 1.936800 -0.001710 
#    z -0.007590 -0.001710 1.977440 
# 
# From -- ./inp_files/398821.got.cif
#   From: 2010.06.25/outbox.cif.g09.slc.cpg/sg2_200_cif.got.tgz:398821.got - 2010.06.27 13:26:56.
