data_PCOD8024098
_publ_section_title
;
Structure prediction by ZEFSAII (Michael W. Deem and Ramdas Pophale) SiO2 
 PCOD8024098
Probable space group: P -1
;
_chemical_formula_sum "Si O2"
_cell_formula_units_Z 16
_cell_length_a 15.646701
_cell_length_b 19.262797
_cell_length_c 12.619317
_cell_angle_alpha 151.370923
_cell_angle_beta 131.579144
_cell_angle_gamma 28.450998
_cell_volume 764.711792
_symmetry_space_group_name_H-M "P -1"
_symmetry_group_IT_number 2
_symmetry_cell_setting 'triclinic'
loop_
_space_group_symop_operation_xyz
x,y,z
-x,-y,-z
loop_
_atom_site_type_symbol
_atom_site_label
_atom_site_fract_x
_atom_site_fract_y
_atom_site_fract_z
Si Si1 0.120627 0.819398 0.459320
Si Si2 0.289752 0.312774 0.234262
Si Si3 0.472365 0.914673 0.275298
Si Si4 0.447508 0.467729 0.096754
Si Si5 0.158588 0.466452 0.092333
Si Si6 0.811437 0.295381 0.195903
Si Si7 0.118749 0.723687 0.006552
Si Si8 0.058398 0.462029 0.616107
O O1 0.350737 0.583920 0.291298
O O2 0.053078 0.729813 0.324451
O O3 0.000000 0.000000 0.500000
O O4 0.088333 0.969470 0.727788
O O5 0.246797 0.382876 0.170230
O O6 0.279513 0.485169 0.507893
O O7 0.112644 0.404877 0.263727
O O8 0.500000 0.000000 0.000000
O O9 0.500000 0.000000 0.500000
O O10 0.253923 0.155412 0.365595
O O11 0.455372 0.790053 0.164462
O O12 0.650214 0.754140 0.122305
O O13 0.623066 0.399396 0.139172
O O14 0.296328 0.630347 0.087672
O O15 0.000000 0.500000 0.000000
O O16 0.877892 0.301012 0.149467
O O17 0.000000 0.000000 0.000000
O O18 0.111874 0.569284 0.840444
O O19 0.000000 0.500000 0.500000
#
# Coordination Sequence:
#
# PCOD8024098 Si02
#       8
#     2   2   2   2   2   2   2   2
#     4   9  22  43  66 102 133 176 231 284 353 406
#     4  12  28  45  68 105 145 182 235 294 360 418
#     4  11  22  43  69 101 134 174 234 281 348 411
#     4  10  23  42  70  95 133 177 227 284 340 421
#     4  11  25  44  72 104 139 185 233 292 345 421
#     4  12  26  46  66 102 139 182 232 290 352 418
#     4  11  23  43  70  97 132 181 233 279 350 411
#     4  12  24  44  68  99 138 182 229 288 348 422
#
# _framework density 20.922915
#
# number of rings (size 3 to 8) (size 9 to 14) (size 15 to 20)
#    0.000    1.000    2.500    3.375    5.250    2.000 
#    0.000    1.875    0.000    0.000    0.000    0.000 
#    0.000    0.000    0.000    0.000    0.000    0.000 
#
# Total GULP energy -198209.454674 kJ/mol
# GULP energy per Si atom -12388.090917 kJ/mol
# Density = 2.087529 g / cm^3
# Si number density = 20.922915 Si / 1000 Ang^3
#
#
#
# Elastic Constant Matrix: (Units=GPa)
#
#
# Indices 1 2 3 4 5 6 
#
# 1 106.1277 31.9880 35.0674 0.7903 1.9044 12.2499
# 2 31.9880 105.9550 41.5781 0.7693 -0.1238 14.1319
# 3 35.0674 41.5781 144.7327 2.5121 3.1841 12.4903
# 4 0.7903 0.7693 2.5121 40.2527 7.3317 -2.3579
# 5 1.9044 -0.1238 3.1841 7.3317 33.3848 -2.1323
# 6 12.2499 14.1319 12.4903 -2.3579 -2.1323 39.3929
#
#
#
# Elastic Compliance Matrix: (Units=1/GPa)
#
#
# Indices 1 2 3 4 5 6 
#
# 1 0.010966 -0.002334 -0.001797 -0.000073 -0.000577 -0.002039
# 2 -0.002334 0.011475 -0.002510 -0.000223 0.000299 -0.002592
# 3 -0.001797 -0.002510 0.008190 -0.000374 -0.000682 -0.001197
# 4 -0.000073 -0.000223 -0.000374 0.025973 -0.005571 0.001474
# 5 -0.000577 0.000299 -0.000682 -0.005571 0.031382 0.001654
# 6 -0.002039 -0.002592 -0.001197 0.001474 0.001654 0.027507
#
#
# Mechanical properties :
#
#
# Convention : Reuss Voigt Hill
#
# Bulk Modulus (GPa) = 57.63477 63.78694 60.71086
# Shear Modulus (GPa) = 37.15875 39.15154 38.15515
#
# Velocity S-wave (km/s) = 4.21881 4.33046 4.27500
# Velocity P-wave (km/s) = 7.16500 7.45364 7.31074
#
# Compressibility (1/GPa) = 0.01735064
#
# Stress axis : x y z
#
# Youngs Moduli (GPa) = 91.19157 87.14401 122.09308
#
# Poissons Ratio (x) = 0.20338 0.21935
# Poissons Ratio (y) = 0.21283 0.30646
# Poissons Ratio (z) = 0.16383 0.21874
#
# Static dielectric constant tensor:
#      x y z
#    x 3.976670 0.115450 -0.117910 
#    y 0.115450 4.131330 0.289900 
#    z -0.117910 0.289900 4.404850 
# 
# 
# High freq. dielectric constant tensor:
#      x y z
#    x 1.829860 0.010550 0.000460 
#    y 0.010550 1.816630 0.000910 
#    z 0.000460 0.000910 1.842660 
# 
# From -- ./inp_files/392961.got.cif
#   From: 2010.06.25/outbox.cif.g09.slc.cpg/sg2_197_cif.got.tgz:392961.got - 2010.06.27 13:26:56.
