data_PCOD8024490
_publ_section_title
;
Structure prediction by ZEFSAII (Michael W. Deem and Ramdas Pophale) SiO2 
 PCOD8024490
Probable space group: P -1
;
_chemical_formula_sum "Si O2"
_cell_formula_units_Z 14
_cell_length_a 9.554729
_cell_length_b 14.628828
_cell_length_c 9.128292
_cell_angle_alpha 84.646352
_cell_angle_beta 116.171189
_cell_angle_gamma 141.260893
_cell_volume 641.205187
_symmetry_space_group_name_H-M "P -1"
_symmetry_group_IT_number 2
_symmetry_cell_setting 'triclinic'
loop_
_space_group_symop_operation_xyz
x,y,z
-x,-y,-z
loop_
_atom_site_type_symbol
_atom_site_label
_atom_site_fract_x
_atom_site_fract_y
_atom_site_fract_z
Si Si1 0.920641 0.560488 0.013866
Si Si2 0.026483 0.924604 0.619659
Si Si3 0.710245 0.687216 0.262930
Si Si4 0.919407 0.996748 0.805999
Si Si5 0.584703 0.140395 0.972290
Si Si6 0.362734 0.746261 0.708595
Si Si7 0.867059 0.559428 0.319812
O O1 0.994275 0.601493 0.212705
O O2 0.602311 0.428902 0.853654
O O3 0.000000 0.500000 0.000000
O O4 0.121303 0.727005 0.993562
O O5 0.855495 0.762512 0.479507
O O6 0.895701 0.889950 0.719637
O O7 0.000000 0.000000 0.500000
O O8 0.351954 0.061794 0.763761
O O9 0.706015 0.577862 0.234550
O O10 0.870914 0.826758 0.194658
O O11 0.622738 0.901495 0.703966
O O12 0.000000 0.000000 0.000000
O O13 0.599906 0.213896 0.108796
O O14 0.500000 0.000000 0.000000
O O15 0.335294 0.622480 0.702911
O O16 0.107271 0.679002 0.534880
#
# Coordination Sequence:
#
# PCOD8024490 Si02
#       7
#     2   2   2   2   2   2   2
#     4  12  25  46  73  98 144 186 230 283 357 420
#     4  10  23  43  68 101 139 178 230 279 352 419
#     4  11  26  45  72 106 135 187 238 284 345 427
#     4  11  22  41  72  98 140 178 229 287 352 409
#     4  12  26  45  70 106 138 181 237 292 349 417
#     4  11  25  45  69 101 145 186 228 294 356 407
#     4  11  26  45  68 104 142 185 238 283 353 419
#
# _framework density 21.833884999999999
#
# number of rings (size 3 to 8) (size 9 to 14) (size 15 to 20)
#    0.000    0.857    2.857    3.857    8.000    1.714 
#    0.000    2.143    0.000    0.000    0.000    0.000 
#    0.000    0.000    0.000    0.000    0.000    0.000 
#
# Total GULP energy -173561.889896 kJ/mol
# GULP energy per Si atom -12397.277850 kJ/mol
# Density = 2.178419 g / cm^3
# Si number density = 21.833885 Si / 1000 Ang^3
#
#
#
# Elastic Constant Matrix: (Units=GPa)
#
#
# Indices 1 2 3 4 5 6 
#
# 1 125.6939 55.2285 55.1067 -2.2784 11.8819 3.5456
# 2 55.2285 137.9352 52.8259 2.8894 18.8773 20.1061
# 3 55.1067 52.8259 151.9375 9.0280 2.0299 7.7075
# 4 -2.2784 2.8894 9.0280 29.0961 7.3685 4.6522
# 5 11.8819 18.8773 2.0299 7.3685 42.9670 -1.2417
# 6 3.5456 20.1061 7.7075 4.6522 -1.2417 46.0461
#
#
#
# Elastic Compliance Matrix: (Units=1/GPa)
#
#
# Indices 1 2 3 4 5 6 
#
# 1 0.010835 -0.003079 -0.003016 0.002457 -0.001902 0.000715
# 2 -0.003079 0.010506 -0.002337 0.001113 -0.003966 -0.004179
# 3 -0.003016 -0.002337 0.008644 -0.003225 0.002011 0.000186
# 4 0.002457 0.001113 -0.003225 0.038062 -0.007665 -0.004188
# 5 -0.001902 -0.003966 0.002011 -0.007665 0.026849 0.003040
# 6 0.000715 -0.004179 0.000186 -0.004188 0.003040 0.023961
#
#
# Mechanical properties :
#
#
# Convention : Reuss Voigt Hill
#
# Bulk Modulus (GPa) = 76.21815 82.43211 79.32513
# Shear Modulus (GPa) = 35.69006 40.44888 38.06947
#
# Velocity S-wave (km/s) = 4.04743 4.30882 4.18017
# Velocity P-wave (km/s) = 7.53832 7.91143 7.72713
#
# Compressibility (1/GPa) = 0.01312023
#
# Stress axis : x y z
#
# Youngs Moduli (GPa) = 92.29247 95.18278 115.69173
#
# Poissons Ratio (x) = 0.29303 0.34897
# Poissons Ratio (y) = 0.28413 0.27042
# Poissons Ratio (z) = 0.27839 0.22248
#
# Static dielectric constant tensor:
#      x y z
#    x 3.048390 -0.859670 -0.491650 
#    y -0.859670 3.143040 -0.319910 
#    z -0.491650 -0.319910 3.687770 
# 
# 
# High freq. dielectric constant tensor:
#      x y z
#    x 1.864900 0.002150 -0.005780 
#    y 0.002150 1.853200 0.003400 
#    z -0.005780 0.003400 1.876510 
# 
# From -- ./inp_files/207140.got.cif
#   From: 2010.06.25/outbox.cif.g09.slc.cpg/sg2_104_cif.got.tgz:207140.got - 2010.06.27 13:26:56.
