data_PCOD8024491
_publ_section_title
;
Structure prediction by ZEFSAII (Michael W. Deem and Ramdas Pophale) SiO2 
 PCOD8024491
Probable space group: P -1
;
_chemical_formula_sum "Si O2"
_cell_formula_units_Z 16
_cell_length_a 11.794698
_cell_length_b 14.284995
_cell_length_c 5.417250
_cell_angle_alpha 131.952952
_cell_angle_beta 84.204888
_cell_angle_gamma 91.204442
_cell_volume 673.994223
_symmetry_space_group_name_H-M "P -1"
_symmetry_group_IT_number 2
_symmetry_cell_setting 'triclinic'
loop_
_space_group_symop_operation_xyz
x,y,z
-x,-y,-z
loop_
_atom_site_type_symbol
_atom_site_label
_atom_site_fract_x
_atom_site_fract_y
_atom_site_fract_z
Si Si1 0.931257 0.876990 0.276888
Si Si2 0.975455 0.364671 0.382843
Si Si3 0.087389 0.357462 0.845682
Si Si4 0.453523 0.641341 0.477464
Si Si5 0.728677 0.058371 0.604103
Si Si6 0.315067 0.468651 0.877556
Si Si7 0.245688 0.672525 0.889262
Si Si8 0.402752 0.910294 0.804471
O O1 0.929903 0.791618 0.376751
O O2 0.803726 0.928488 0.329220
O O3 0.980049 0.783607 0.886761
O O4 0.000000 0.000000 0.500000
O O5 0.011716 0.412112 0.728438
O O6 0.837538 0.372441 0.389904
O O7 0.040932 0.428676 0.240108
O O8 0.222783 0.373441 0.821949
O O9 0.586851 0.603481 0.444315
O O10 0.380113 0.677078 0.800667
O O11 0.447800 0.763324 0.516070
O O12 0.388989 0.523198 0.176797
O O13 0.637679 0.051156 0.392856
O O14 0.797790 0.185755 0.766536
O O15 0.686895 0.069616 0.916990
O O16 0.238273 0.577737 0.950289
O O17 0.500000 0.000000 0.000000
#
# Coordination Sequence:
#
# PCOD8024491 Si02
#       8
#     2   2   2   2   2   2   2   2
#     4  10  23  43  68 101 139 180 226 276 347 415
#     4  10  25  43  68 104 139 177 231 279 354 401
#     4  10  26  44  66 105 133 187 225 289 342 407
#     4  10  25  44  70  99 134 189 232 287 347 405
#     4  11  23  41  67  98 134 177 223 273 343 401
#     4  11  24  46  70  95 141 182 242 281 341 417
#     4  11  23  43  69  99 137 181 232 286 342 415
#     4  11  25  43  67 101 134 174 224 286 339 402
#
# _framework density 23.739077000000002
#
# number of rings (size 3 to 8) (size 9 to 14) (size 15 to 20)
#    0.750    0.750    2.500    0.750    7.000    3.500 
#    0.000    0.000    0.000    0.000    0.000    0.000 
#    0.000    0.000    0.000    0.000    0.000    0.000 
#
# Total GULP energy -198284.437290 kJ/mol
# GULP energy per Si atom -12392.777331 kJ/mol
# Density = 2.368505 g / cm^3
# Si number density = 23.739077 Si / 1000 Ang^3
#
#
#
# Elastic Constant Matrix: (Units=GPa)
#
#
# Indices 1 2 3 4 5 6 
#
# 1 129.5145 45.2972 41.6554 -1.8844 5.9226 11.7323
# 2 45.2972 131.0300 43.2049 3.8367 3.9360 -0.8034
# 3 41.6554 43.2049 104.1699 -4.9170 6.2699 -1.5879
# 4 -1.8844 3.8367 -4.9170 30.4059 -3.3881 7.6285
# 5 5.9226 3.9360 6.2699 -3.3881 42.6802 2.7200
# 6 11.7323 -0.8034 -1.5879 7.6285 2.7200 42.0877
#
#
#
# Elastic Compliance Matrix: (Units=1/GPa)
#
#
# Indices 1 2 3 4 5 6 
#
# 1 0.009830 -0.002496 -0.002861 0.001188 -0.000423 -0.003084
# 2 -0.002496 0.009578 -0.003040 -0.002189 -0.000340 0.001183
# 3 -0.002861 -0.003040 0.012167 0.001825 -0.001025 0.000934
# 4 0.001188 -0.002189 0.001825 0.035617 0.003040 -0.006956
# 5 -0.000423 -0.000340 -0.001025 0.003040 0.024041 -0.002032
# 6 -0.003084 0.001183 0.000934 -0.006956 -0.002032 0.026070
#
#
# Mechanical properties :
#
#
# Convention : Reuss Voigt Hill
#
# Bulk Modulus (GPa) = 67.64978 69.44774 68.54876
# Shear Modulus (GPa) = 35.96494 38.67190 37.31842
#
# Velocity S-wave (km/s) = 3.89654 4.04051 3.96918
# Velocity P-wave (km/s) = 6.98592 7.14743 7.06714
#
# Compressibility (1/GPa) = 0.01478201
#
# Stress axis : x y z
#
# Youngs Moduli (GPa) = 101.72623 104.40081 82.19246
#
# Poissons Ratio (x) = 0.26057 0.23517
# Poissons Ratio (y) = 0.25390 0.24983
# Poissons Ratio (z) = 0.29106 0.31733
#
# Static dielectric constant tensor:
#      x y z
#    x 4.936190 0.438410 -0.232590 
#    y 0.438410 5.156450 0.430140 
#    z -0.232590 0.430140 4.424010 
# 
# 
# High freq. dielectric constant tensor:
#      x y z
#    x 1.939020 -0.002180 -0.007770 
#    y -0.002180 1.955640 0.020510 
#    z -0.007770 0.020510 1.941280 
# 
# From -- ./inp_files/76882.got.cif
#   From: 2010.06.25/outbox.cif.g09.slc.cpg/sg2_39_cif.got.tgz:76882.got - 2010.06.27 13:26:56.
