data_PCOD8024724
_publ_section_title
;
Structure prediction by ZEFSAII (Michael W. Deem and Ramdas Pophale) SiO2 
 PCOD8024724
Probable space group: P -1
;
_chemical_formula_sum "Si O2"
_cell_formula_units_Z 16
_cell_length_a 9.834437
_cell_length_b 19.897665
_cell_length_c 14.885021
_cell_angle_alpha 145.043433
_cell_angle_beta 154.429848
_cell_angle_gamma 35.487612
_cell_volume 686.452069
_symmetry_space_group_name_H-M "P -1"
_symmetry_group_IT_number 2
_symmetry_cell_setting 'triclinic'
loop_
_space_group_symop_operation_xyz
x,y,z
-x,-y,-z
loop_
_atom_site_type_symbol
_atom_site_label
_atom_site_fract_x
_atom_site_fract_y
_atom_site_fract_z
Si Si1 0.427797 0.719656 0.565448
Si Si2 0.304801 0.213389 0.729534
Si Si3 0.763199 0.120073 0.534632
Si Si4 0.741113 0.965668 0.742317
Si Si5 0.755025 0.548866 0.152158
Si Si6 0.198034 0.524288 0.557915
Si Si7 0.660816 0.245041 0.145317
Si Si8 0.126832 0.303987 0.033913
O O1 0.442864 0.812860 0.598967
O O2 0.484514 0.590213 0.404700
O O3 0.744031 0.720421 0.813823
O O4 0.090255 0.757062 0.463671
O O5 0.521018 0.078470 0.670633
O O6 0.390947 0.319744 0.840372
O O7 0.444918 0.188401 0.888024
O O8 0.514909 0.089704 0.421765
O O9 0.000000 0.000000 0.500000
O O10 0.953126 0.204045 0.790611
O O11 0.995754 0.849908 0.714650
O O12 0.000000 0.000000 0.000000
O O13 0.005623 0.563264 0.392469
O O14 0.895429 0.445531 0.045651
O O15 0.500000 0.500000 0.000000
O O16 0.294421 0.645803 0.771672
O O17 0.000000 0.500000 0.500000
O O18 0.447318 0.299769 0.163804
#
# Coordination Sequence:
#
# PCOD8024724 Si02
#       8
#     2   2   2   2   2   2   2   2
#     4  11  24  44  71 103 142 184 237 294 352 421
#     4  11  22  44  70 101 139 189 236 288 359 416
#     4  12  23  46  74 103 143 187 238 289 353 425
#     4  10  23  43  71 102 140 187 235 288 349 423
#     4  11  26  43  68 104 144 177 240 298 351 429
#     4  11  24  41  67 102 138 187 233 298 358 415
#     4  11  22  41  71 101 142 189 237 293 353 421
#     4  11  26  45  70 110 139 185 238 294 359 420
#
# _framework density 23.308254999999999
#
# number of rings (size 3 to 8) (size 9 to 14) (size 15 to 20)
#    0.000    1.000    2.500    3.750    5.250    6.500 
#    0.000    3.750    0.000    0.000    0.000    0.000 
#    0.000    0.000    0.000    0.000    0.000    0.000 
#
# Total GULP energy -198229.609923 kJ/mol
# GULP energy per Si atom -12389.350620 kJ/mol
# Density = 2.325520 g / cm^3
# Si number density = 23.308255 Si / 1000 Ang^3
#
#
#
# Elastic Constant Matrix: (Units=GPa)
#
#
# Indices 1 2 3 4 5 6 
#
# 1 107.7335 70.5326 27.9384 8.2215 21.2600 -12.1315
# 2 70.5326 194.8006 25.6828 13.5659 22.6764 -1.3799
# 3 27.9384 25.6828 71.9258 17.1405 16.4615 3.3832
# 4 8.2215 13.5659 17.1405 31.0168 -1.4931 2.6217
# 5 21.2600 22.6764 16.4615 -1.4931 42.0546 -2.4001
# 6 -12.1315 -1.3799 3.3832 2.6217 -2.4001 47.8419
#
#
#
# Elastic Compliance Matrix: (Units=1/GPa)
#
#
# Indices 1 2 3 4 5 6 
#
# 1 0.013942 -0.004171 -0.003183 -0.000571 -0.003374 0.003502
# 2 -0.004171 0.006978 0.000053 -0.001991 -0.001794 -0.000841
# 3 -0.003183 0.000053 0.018996 -0.009818 -0.006314 -0.001928
# 4 -0.000571 -0.001991 -0.009818 0.039114 0.006518 -0.001324
# 5 -0.003374 -0.001794 -0.006314 0.006518 0.029191 0.000647
# 6 0.003502 -0.000841 -0.001928 -0.001324 0.000647 0.022007
#
#
# Mechanical properties :
#
#
# Convention : Reuss Voigt Hill
#
# Bulk Modulus (GPa) = 39.50317 69.19637 54.34977
# Shear Modulus (GPa) = 32.62245 40.86974 36.74610
#
# Velocity S-wave (km/s) = 3.74519 4.19196 3.97486
# Velocity P-wave (km/s) = 5.97385 7.29260 6.66592
#
# Compressibility (1/GPa) = 0.02531442
#
# Stress axis : x y z
#
# Youngs Moduli (GPa) = 71.72539 143.30278 52.64257
#
# Poissons Ratio (x) = 0.59774 0.16755
# Poissons Ratio (y) = 0.29918 -0.00279
# Poissons Ratio (z) = 0.22828 -0.00759
#
# Static dielectric constant tensor:
#      x y z
#    x 4.130120 -0.262740 -0.189930 
#    y -0.262740 4.837000 -0.157900 
#    z -0.189930 -0.157900 4.719280 
# 
# 
# High freq. dielectric constant tensor:
#      x y z
#    x 1.918530 -0.007660 -0.002440 
#    y -0.007660 1.946470 -0.000180 
#    z -0.002440 -0.000180 1.922540 
# 
# From -- ./inp_files/507313.got.cif
#   From: 2010.06.25/outbox.cif.g09.slc.cpg/sg2_254_cif.got.tgz:507313.got - 2010.06.27 13:26:56.
