data_PCOD8025173
_publ_section_title
;
Structure prediction by ZEFSAII (Michael W. Deem and Ramdas Pophale) SiO2 
 PCOD8025173
Probable space group: P -1
;
_chemical_formula_sum "Si O2"
_cell_formula_units_Z 16
_cell_length_a 9.515282
_cell_length_b 14.037721
_cell_length_c 9.432790
_cell_angle_alpha 105.277423
_cell_angle_beta 107.561514
_cell_angle_gamma 130.872945
_cell_volume 698.412505
_symmetry_space_group_name_H-M "P -1"
_symmetry_group_IT_number 2
_symmetry_cell_setting 'triclinic'
loop_
_space_group_symop_operation_xyz
x,y,z
-x,-y,-z
loop_
_atom_site_type_symbol
_atom_site_label
_atom_site_fract_x
_atom_site_fract_y
_atom_site_fract_z
Si Si1 0.937905 0.859941 0.769986
Si Si2 0.809178 0.319476 0.420409
Si Si3 0.084155 0.157984 0.572664
Si Si4 0.220320 0.827686 0.880540
Si Si5 0.445647 0.625588 0.035054
Si Si6 0.619391 0.783896 0.860409
Si Si7 0.924046 0.265987 0.701448
Si Si8 0.787825 0.314418 0.919027
O O1 0.063590 0.837458 0.884367
O O2 0.879491 0.802252 0.567096
O O3 0.688278 0.752324 0.734313
O O4 0.133505 0.052926 0.917125
O O5 0.882999 0.259886 0.337239
O O6 0.536329 0.208995 0.249665
O O7 0.000000 0.500000 0.500000
O O8 0.836226 0.306646 0.586854
O O9 0.336998 0.313347 0.793268
O O10 0.898388 0.140755 0.580659
O O11 0.000000 0.000000 0.500000
O O12 0.167060 0.709342 0.923835
O O13 0.500000 0.000000 0.000000
O O14 0.441520 0.734652 0.145038
O O15 0.472544 0.644406 0.879611
O O16 0.198622 0.431689 0.906839
O O17 0.746523 0.197831 0.755057
O O18 0.000000 0.500000 0.000000
#
# Coordination Sequence:
#
# PCOD8025173 Si02
#       8
#     2   2   2   2   2   2   2   2
#     4  11  25  43  67 104 137 183 233 289 349 420
#     4  12  22  43  71 100 136 179 233 295 352 417
#     4  12  26  44  66  94 141 181 231 288 350 415
#     4  12  23  45  74  98 137 186 239 291 344 420
#     4  11  22  46  66  95 140 185 224 288 356 416
#     4  11  23  43  70  99 141 180 228 288 362 414
#     4  11  25  43  68 101 136 184 235 284 355 420
#     4  10  23  44  70 102 137 182 231 293 357 417
#
# _framework density 22.909096000000002
#
# number of rings (size 3 to 8) (size 9 to 14) (size 15 to 20)
#    0.000    0.750    6.250    1.125    3.500    0.000 
#    0.000    2.500    0.000    0.000    0.000    0.000 
#    0.000    0.000    0.000    0.000    0.000    0.000 
#
# Total GULP energy -198242.203780 kJ/mol
# GULP energy per Si atom -12390.137736 kJ/mol
# Density = 2.285695 g / cm^3
# Si number density = 22.909096 Si / 1000 Ang^3
#
#
#
# Elastic Constant Matrix: (Units=GPa)
#
#
# Indices 1 2 3 4 5 6 
#
# 1 150.9224 31.4383 30.9812 -17.6929 -24.9975 3.1494
# 2 31.4383 72.1504 10.8918 -10.7532 -0.6573 -1.6241
# 3 30.9812 10.8918 92.4846 -13.6652 -2.3879 3.6522
# 4 -17.6929 -10.7532 -13.6652 27.1798 -4.0116 -5.4796
# 5 -24.9975 -0.6573 -2.3879 -4.0116 48.0645 -7.0194
# 6 3.1494 -1.6241 3.6522 -5.4796 -7.0194 32.8346
#
#
#
# Elastic Compliance Matrix: (Units=1/GPa)
#
#
# Indices 1 2 3 4 5 6 
#
# 1 0.008984 -0.002852 -0.001884 0.004744 0.005095 0.001088
# 2 -0.002852 0.015855 -0.000332 0.004496 -0.000659 0.001704
# 3 -0.001884 -0.000332 0.012189 0.004678 -0.000050 -0.000421
# 4 0.004744 0.004496 0.004678 0.046957 0.007963 0.008786
# 5 0.005095 -0.000659 -0.000050 0.007963 0.025008 0.006159
# 6 0.001088 0.001704 -0.000421 0.008786 0.006159 0.033266
#
#
# Mechanical properties :
#
#
# Convention : Reuss Voigt Hill
#
# Bulk Modulus (GPa) = 37.18550 51.35334 44.26942
# Shear Modulus (GPa) = 30.98661 37.76553 34.37607
#
# Velocity S-wave (km/s) = 3.68175 4.06457 3.87789
# Velocity P-wave (km/s) = 5.86009 6.67027 6.27826
#
# Compressibility (1/GPa) = 0.02689220
#
# Stress axis : x y z
#
# Youngs Moduli (GPa) = 111.30756 63.07060 82.03806
#
# Poissons Ratio (x) = 0.17990 0.15457
# Poissons Ratio (y) = 0.31749 0.02722
# Poissons Ratio (z) = 0.20972 0.02093
#
# Static dielectric constant tensor:
#      x y z
#    x 4.659490 0.069820 -0.052350 
#    y 0.069820 3.798220 -0.219420 
#    z -0.052350 -0.219420 4.204910 
# 
# 
# High freq. dielectric constant tensor:
#      x y z
#    x 1.923640 -0.003370 -0.010830 
#    y -0.003370 1.884190 -0.014750 
#    z -0.010830 -0.014750 1.902730 
# 
# From -- ./inp_files/208408.got.cif
#   From: 2010.06.25/outbox.cif.g09.slc.cpg/sg2_105_cif.got.tgz:208408.got - 2010.06.27 13:26:56.
