data_PCOD8025246
_publ_section_title
;
Structure prediction by ZEFSAII (Michael W. Deem and Ramdas Pophale) SiO2 
 PCOD8025246
Probable space group: P -1
;
_chemical_formula_sum "Si O2"
_cell_formula_units_Z 14
_cell_length_a 9.158583
_cell_length_b 15.591461
_cell_length_c 16.246452
_cell_angle_alpha 153.398766
_cell_angle_beta 139.057912
_cell_angle_gamma 58.080020
_cell_volume 589.576589
_symmetry_space_group_name_H-M "P -1"
_symmetry_group_IT_number 2
_symmetry_cell_setting 'triclinic'
loop_
_space_group_symop_operation_xyz
x,y,z
-x,-y,-z
loop_
_atom_site_type_symbol
_atom_site_label
_atom_site_fract_x
_atom_site_fract_y
_atom_site_fract_z
Si Si1 0.730747 0.491690 0.983876
Si Si2 0.548328 0.479865 0.597296
Si Si3 0.184960 0.838054 0.361322
Si Si4 0.181261 0.421600 0.712905
Si Si5 0.132023 0.051421 0.786791
Si Si6 0.999833 0.641585 0.696002
Si Si7 0.485527 0.958074 0.749105
O O1 0.706674 0.262697 0.746952
O O2 0.462908 0.489773 0.857330
O O3 0.824026 0.538262 0.157514
O O4 0.934261 0.670348 0.161787
O O5 0.500000 0.500000 0.500000
O O6 0.633867 0.298689 0.496172
O O7 0.280634 0.388295 0.451190
O O8 0.772602 0.717502 0.927573
O O9 0.413747 0.979985 0.643591
O O10 0.104715 0.997567 0.417040
O O11 0.068135 0.559462 0.738679
O O12 0.987624 0.160995 0.386370
O O13 0.374666 0.071330 0.859261
O O14 0.000000 0.500000 0.500000
O O15 0.206081 0.900221 0.991250
#
# Coordination Sequence:
#
# PCOD8025246 Si02
#       7
#     2   2   2   2   2   2   2
#     4  10  23  44  71 107 150 182 240 294 361 429
#     4  12  29  48  75 106 142 192 246 296 354 426
#     4  11  24  43  76 106 142 190 240 291 365 428
#     4  11  26  44  73 109 149 186 237 301 361 419
#     4  12  26  46  76 108 147 186 237 301 363 422
#     4  12  28  48  75 102 147 194 242 291 356 429
#     4  12  26  49  75 104 144 192 241 295 357 430
#
# _framework density 23.745854999999999
#
# number of rings (size 3 to 8) (size 9 to 14) (size 15 to 20)
#    0.000    0.571    2.857    4.286   10.000    2.857 
#    0.000    0.000    0.000    0.000    0.000    0.000 
#    0.000    0.000    0.000    0.000    0.000    0.000 
#
# Total GULP energy -173651.730762 kJ/mol
# GULP energy per Si atom -12403.695054 kJ/mol
# Density = 2.369181 g / cm^3
# Si number density = 23.745855 Si / 1000 Ang^3
#
#
#
# Elastic Constant Matrix: (Units=GPa)
#
#
# Indices 1 2 3 4 5 6 
#
# 1 82.5054 1.0284 10.8232 -4.0641 -12.8982 -2.4452
# 2 1.0284 85.2797 8.0908 -2.8121 -14.7535 1.2898
# 3 10.8232 8.0908 125.3988 0.5277 -7.1766 9.1269
# 4 -4.0641 -2.8121 0.5277 35.0260 -6.1666 1.1964
# 5 -12.8982 -14.7535 -7.1766 -6.1666 31.2420 -5.7875
# 6 -2.4452 1.2898 9.1269 1.1964 -5.7875 28.0795
#
#
#
# Elastic Compliance Matrix: (Units=1/GPa)
#
#
# Indices 1 2 3 4 5 6 
#
# 1 0.013560 0.001198 -0.001063 0.002822 0.006994 0.002792
# 2 0.001198 0.013082 -0.000624 0.002431 0.007211 0.001089
# 3 -0.001063 -0.000624 0.008337 -0.000090 0.000677 -0.002630
# 4 0.002822 0.002431 -0.000090 0.030538 0.008431 0.000600
# 5 0.006994 0.007211 0.000677 0.008431 0.041655 0.008284
# 6 0.002792 0.001089 -0.002630 0.000600 0.008284 0.038343
#
#
# Mechanical properties :
#
#
# Convention : Reuss Voigt Hill
#
# Bulk Modulus (GPa) = 29.41025 37.00761 33.20893
# Shear Modulus (GPa) = 31.68032 37.08559 34.38296
#
# Velocity S-wave (km/s) = 3.65655 3.95621 3.80933
# Velocity P-wave (km/s) = 5.49904 6.04049 5.77612
#
# Compressibility (1/GPa) = 0.03400175
#
# Stress axis : x y z
#
# Youngs Moduli (GPa) = 73.74620 76.44074 119.94585
#
# Poissons Ratio (x) = -0.09158 0.12744
# Poissons Ratio (y) = -0.08836 0.07488
# Poissons Ratio (z) = 0.07836 0.04772
#
# Static dielectric constant tensor:
#      x y z
#    x 4.447740 0.379840 -0.088190 
#    y 0.379840 4.222500 0.125160 
#    z -0.088190 0.125160 4.300360 
# 
# 
# High freq. dielectric constant tensor:
#      x y z
#    x 1.951200 -0.007990 0.001360 
#    y -0.007990 1.940100 -0.000870 
#    z 0.001360 -0.000870 1.948840 
# 
# From -- ./inp_files/352388.got.cif
#   From: 2010.06.25/outbox.cif.g09.slc.cpg/sg2_177_cif.got.tgz:352388.got - 2010.06.27 13:26:56.
