data_PCOD8025994
_publ_section_title
;
Structure prediction by ZEFSAII (Michael W. Deem and Ramdas Pophale) SiO2 
 PCOD8025994
Probable space group: P -1
;
_chemical_formula_sum "Si O2"
_cell_formula_units_Z 10
_cell_length_a 7.404678
_cell_length_b 11.789354
_cell_length_c 8.524474
_cell_angle_alpha 142.431346
_cell_angle_beta 95.612138
_cell_angle_gamma 106.898215
_cell_volume 358.920763
_symmetry_space_group_name_H-M "P -1"
_symmetry_group_IT_number 2
_symmetry_cell_setting 'triclinic'
loop_
_space_group_symop_operation_xyz
x,y,z
-x,-y,-z
loop_
_atom_site_type_symbol
_atom_site_label
_atom_site_fract_x
_atom_site_fract_y
_atom_site_fract_z
Si Si1 0.687452 0.768740 0.275286
Si Si2 0.539171 0.842332 0.646575
Si Si3 0.340073 0.708227 0.951104
Si Si4 0.799316 0.735896 0.732419
Si Si5 0.090785 0.375784 0.056016
O O1 0.724850 0.903877 0.589459
O O2 0.500000 0.500000 0.000000
O O3 0.577499 0.825614 0.190215
O O4 0.912300 0.789230 0.259506
O O5 0.575731 0.729560 0.678370
O O6 0.284922 0.655064 0.351668
O O7 0.600863 0.097728 0.965465
O O8 0.219437 0.452358 0.590284
O O9 0.151678 0.674706 0.018110
O O10 0.825883 0.681929 0.848194
O O11 0.000000 0.000000 0.000000
#
# Coordination Sequence:
#
# PCOD8025994 Si02
#       5
#     2   2   2   2   2
#     4  10  23  47  70 105 141 178 234 290 337 419
#     4  11  25  47  72 103 144 180 235 287 341 420
#     4  12  25  46  74 102 142 181 238 283 344 417
#     4  12  25  48  70 104 145 180 234 292 337 418
#     4  11  25  45  75 102 140 191 223 284 362 395
#
# _framework density 27.861302999999999
#
# number of rings (size 3 to 8) (size 9 to 14) (size 15 to 20)
#    0.000    0.800    6.000    1.800    0.000    6.400 
#    0.000    0.000    0.000    0.000    0.000    0.000 
#    0.000    0.000    0.000    0.000    0.000    0.000 
#
# Total GULP energy -123919.858553 kJ/mol
# GULP energy per Si atom -12391.985855 kJ/mol
# Density = 2.779789 g / cm^3
# Si number density = 27.861303 Si / 1000 Ang^3
#
#
#
# Elastic Constant Matrix: (Units=GPa)
#
#
# Indices 1 2 3 4 5 6 
#
# 1 133.2401 4.8209 16.8461 15.4564 -17.4061 -3.3741
# 2 4.8209 63.4094 8.7072 4.4709 -21.4873 -29.1657
# 3 16.8461 8.7072 161.2638 40.4496 -17.7778 -15.9428
# 4 15.4564 4.4709 40.4496 35.9841 -15.5724 -0.3563
# 5 -17.4061 -21.4873 -17.7778 -15.5724 28.8974 5.3773
# 6 -3.3741 -29.1657 -15.9428 -0.3563 5.3773 43.1221
#
#
#
# Elastic Compliance Matrix: (Units=1/GPa)
#
#
# Indices 1 2 3 4 5 6 
#
# 1 0.008346 0.001889 0.000166 -0.001657 0.005398 0.001305
# 2 0.001889 0.032717 0.001685 0.004303 0.025137 0.019800
# 3 0.000166 0.001685 0.009172 -0.010267 0.000648 0.004378
# 4 -0.001657 0.004303 -0.010267 0.049525 0.023225 -0.003502
# 5 0.005398 0.025137 0.000648 0.023225 0.067711 0.009412
# 6 0.001305 0.019800 0.004378 -0.003502 0.009412 0.037100
#
#
# Mechanical properties :
#
#
# Convention : Reuss Voigt Hill
#
# Bulk Modulus (GPa) = 17.32585 46.51795 31.92190
# Shear Modulus (GPa) = 23.11274 43.43665 33.27470
#
# Velocity S-wave (km/s) = 2.88334 3.95274 3.45961
# Velocity P-wave (km/s) = 4.16137 6.12901 5.23840
#
# Compressibility (1/GPa) = 0.05771721
#
# Stress axis : x y z
#
# Youngs Moduli (GPa) = 119.81164 30.56468 109.02319
#
# Poissons Ratio (x) = -0.05774 -0.01809
# Poissons Ratio (y) = -0.22635 -0.18374
# Poissons Ratio (z) = -0.01988 -0.05151
#
# Static dielectric constant tensor:
#      x y z
#    x 6.087490 0.128150 0.146380 
#    y 0.128150 5.653120 0.074180 
#    z 0.146380 0.074180 5.964030 
# 
# 
# High freq. dielectric constant tensor:
#      x y z
#    x 2.123010 0.002490 -0.004770 
#    y 0.002490 2.132210 0.029550 
#    z -0.004770 0.029550 2.142760 
# 
# From -- ./inp_files/148613.got.cif
#   From: 2010.06.25/outbox.cif.g09.slc.cpg/sg2_75_cif.got.tgz:148613.got - 2010.06.27 13:26:56.
