data_PCOD8025333
_publ_section_title
;
Structure prediction by ZEFSAII (Michael W. Deem and Ramdas Pophale) SiO2 
 PCOD8025333
Probable space group: P -1
;
_chemical_formula_sum "Si O2"
_cell_formula_units_Z 16
_cell_length_a 14.162566
_cell_length_b 11.819465
_cell_length_c 8.414114
_cell_angle_alpha 82.144268
_cell_angle_beta 149.020466
_cell_angle_gamma 88.260783
_cell_volume 687.463370
_symmetry_space_group_name_H-M "P -1"
_symmetry_group_IT_number 2
_symmetry_cell_setting 'triclinic'
loop_
_space_group_symop_operation_xyz
x,y,z
-x,-y,-z
loop_
_atom_site_type_symbol
_atom_site_label
_atom_site_fract_x
_atom_site_fract_y
_atom_site_fract_z
Si Si1 0.968639 0.912869 0.291822
Si Si2 0.308090 0.586744 0.127290
Si Si3 0.344182 0.853728 0.678580
Si Si4 0.660089 0.951711 0.607333
Si Si5 0.925677 0.167469 0.216912
Si Si6 0.712769 0.802362 0.412057
Si Si7 0.062981 0.462706 0.272872
Si Si8 0.317621 0.600508 0.764273
O O1 0.179931 0.918692 0.551873
O O2 0.983541 0.822115 0.478115
O O3 0.852296 0.050320 0.139401
O O4 0.855492 0.874995 0.991338
O O5 0.500000 0.500000 0.500000
O O6 0.255633 0.718573 0.106219
O O7 0.330551 0.609680 0.970324
O O8 0.121829 0.541972 0.892073
O O9 0.323303 0.720453 0.657475
O O10 0.310845 0.928213 0.452830
O O11 0.548356 0.859701 0.036712
O O12 0.625735 0.854939 0.449041
O O13 0.500000 0.000000 0.500000
O O14 0.095931 0.156837 0.339209
O O15 0.767627 0.660703 0.484454
O O16 0.134179 0.562766 0.447119
O O17 0.000000 0.500000 0.000000
O O18 0.500000 0.500000 0.000000
#
# Coordination Sequence:
#
# PCOD8025333 Si02
#       8
#     2   2   2   2   2   2   2   2
#     4  11  24  43  71 106 139 180 232 296 363 434
#     4  11  25  46  76 107 142 194 246 306 362 430
#     4  12  25  46  76  99 148 187 237 295 367 434
#     4  12  28  45  70 109 143 183 245 296 364 434
#     4  10  23  44  73  99 146 181 234 293 370 431
#     4  11  25  46  69 100 143 190 230 296 365 426
#     4  11  26  47  72 104 146 193 244 301 360 431
#     4  12  25  48  70 105 146 193 247 297 362 434
#
# _framework density 23.273969000000001
#
# number of rings (size 3 to 8) (size 9 to 14) (size 15 to 20)
#    0.000    0.750    3.750    2.625    5.250    2.000 
#    2.250    0.000    0.000    0.000    0.000    0.000 
#    0.000    0.000    0.000    0.000    0.000    0.000 
#
# Total GULP energy -198260.686503 kJ/mol
# GULP energy per Si atom -12391.292906 kJ/mol
# Density = 2.322100 g / cm^3
# Si number density = 23.273969 Si / 1000 Ang^3
#
#
#
# Elastic Constant Matrix: (Units=GPa)
#
#
# Indices 1 2 3 4 5 6 
#
# 1 105.6258 9.0928 9.6142 -4.1625 10.1572 -8.2065
# 2 9.0928 119.3458 23.5331 -10.3103 8.7033 -3.9184
# 3 9.6142 23.5331 100.1936 -13.2675 6.1495 -15.1074
# 4 -4.1625 -10.3103 -13.2675 30.9366 -3.9353 -0.5995
# 5 10.1572 8.7033 6.1495 -3.9353 39.0084 -6.2982
# 6 -8.2065 -3.9184 -15.1074 -0.5995 -6.2982 28.9032
#
#
#
# Elastic Compliance Matrix: (Units=1/GPa)
#
#
# Indices 1 2 3 4 5 6 
#
# 1 0.009926 -0.000406 -0.000289 0.000863 -0.002007 0.002193
# 2 -0.000406 0.009030 -0.001736 0.002025 -0.001442 -0.000071
# 3 -0.000289 -0.001736 0.011935 0.004620 0.000019 0.006021
# 4 0.000863 0.002025 0.004620 0.035546 0.002875 0.004298
# 5 -0.002007 -0.001442 0.000019 0.002875 0.027627 0.005324
# 6 0.002193 -0.000071 0.006021 0.004298 0.005324 0.039608
#
#
# Mechanical properties :
#
#
# Convention : Reuss Voigt Hill
#
# Bulk Modulus (GPa) = 38.41945 45.51615 41.96780
# Shear Modulus (GPa) = 33.96532 38.63131 36.29831
#
# Velocity S-wave (km/s) = 3.82431 4.07855 3.95347
# Velocity P-wave (km/s) = 6.00365 6.46363 6.23788
#
# Compressibility (1/GPa) = 0.02602848
#
# Stress axis : x y z
#
# Youngs Moduli (GPa) = 100.74485 110.74066 83.79052
#
# Poissons Ratio (x) = 0.04500 0.02421
# Poissons Ratio (y) = 0.04094 0.14545
# Poissons Ratio (z) = 0.02910 0.19223
#
# Static dielectric constant tensor:
#      x y z
#    x 3.954580 0.504480 -0.000370 
#    y 0.504480 2.984320 -0.080740 
#    z -0.000370 -0.080740 4.381010 
# 
# 
# High freq. dielectric constant tensor:
#      x y z
#    x 1.926540 -0.003710 0.003850 
#    y -0.003710 1.921850 -0.016760 
#    z 0.003850 -0.016760 1.927470 
# 
# From -- ./inp_files/307442.got.cif
#   From: 2010.06.25/outbox.cif.g09.slc.cpg/sg2_154_cif.got.tgz:307442.got - 2010.06.27 13:26:56.
