data_PCOD8025008
_publ_section_title
;
Structure prediction by ZEFSAII (Michael W. Deem and Ramdas Pophale) SiO2 
 PCOD8025008
Probable space group: P -1
;
_chemical_formula_sum "Si O2"
_cell_formula_units_Z 16
_cell_length_a 12.651750
_cell_length_b 10.717025
_cell_length_c 9.746723
_cell_angle_alpha 89.105181
_cell_angle_beta 101.648308
_cell_angle_gamma 35.980097
_cell_volume 722.694356
_symmetry_space_group_name_H-M "P -1"
_symmetry_group_IT_number 2
_symmetry_cell_setting 'triclinic'
loop_
_space_group_symop_operation_xyz
x,y,z
-x,-y,-z
loop_
_atom_site_type_symbol
_atom_site_label
_atom_site_fract_x
_atom_site_fract_y
_atom_site_fract_z
Si Si1 0.822111 0.924015 0.315082
Si Si2 0.379346 0.342703 0.173378
Si Si3 0.481088 0.278811 0.663860
Si Si4 0.222638 0.798234 0.859931
Si Si5 0.384634 0.610242 0.178343
Si Si6 0.209910 0.529191 0.834162
Si Si7 0.201087 0.423992 0.385604
Si Si8 0.179809 0.167565 0.391921
O O1 0.819310 0.932541 0.480840
O O2 0.974379 0.673691 0.311896
O O3 0.605377 0.098357 0.208209
O O4 0.893428 0.985149 0.260319
O O5 0.326453 0.530149 0.223108
O O6 0.297472 0.324063 0.262592
O O7 0.266331 0.431226 0.001297
O O8 0.557611 0.349376 0.686681
O O9 0.398162 0.326741 0.791701
O O10 0.309271 0.423445 0.507441
O O11 0.662851 0.019400 0.677773
O O12 0.440198 0.598353 0.868910
O O13 0.138310 0.742168 0.807124
O O14 0.223486 0.821562 0.026126
O O15 0.029989 0.621097 0.735158
O O16 0.226263 0.261761 0.459505
#
# Coordination Sequence:
#
# PCOD8025008 Si02
#       8
#     2   2   2   2   2   2   2   2
#     4  11  22  41  67  92 124 171 208 257 320 371
#     4  10  23  44  67  96 130 163 204 264 320 374
#     4  11  22  41  67  92 124 171 208 257 320 371
#     4   8  17  38  65  93 127 160 201 257 321 380
#     4   8  17  38  65  93 127 160 201 257 321 380
#     4  10  23  44  67  96 130 163 204 264 320 374
#     4  12  26  42  64  92 129 170 219 260 306 370
#     4  12  26  42  64  92 129 170 219 260 306 370
#
# _framework density 22.139374
#
# number of rings (size 3 to 8) (size 9 to 14) (size 15 to 20)
#    0.000    1.750    2.500    3.000    0.000    4.500 
#    4.500    3.750    0.000    0.000    0.000    0.000 
#    0.000    0.000    0.000    0.000    0.000    0.000 
#
# Total GULP energy -198298.857355 kJ/mol
# GULP energy per Si atom -12393.678585 kJ/mol
# Density = 2.208898 g / cm^3
# Si number density = 22.139374 Si / 1000 Ang^3
#
#
#
# Elastic Constant Matrix: (Units=GPa)
#
#
# Indices 1 2 3 4 5 6 
#
# 1 49.1322 11.1532 11.9292 -6.6590 4.9256 -0.1828
# 2 11.1532 82.0802 -4.9082 -7.1675 4.4342 -3.6392
# 3 11.9292 -4.9082 71.7131 -13.8168 9.5502 2.3273
# 4 -6.6590 -7.1675 -13.8168 18.4956 2.2608 -2.0097
# 5 4.9256 4.4342 9.5502 2.2608 28.7541 -2.6750
# 6 -0.1828 -3.6392 2.3273 -2.0097 -2.6750 28.1380
#
#
#
# Elastic Compliance Matrix: (Units=1/GPa)
#
#
# Indices 1 2 3 4 5 6 
#
# 1 0.022609 -0.002541 -0.002417 0.005745 -0.003118 0.000132
# 2 -0.002541 0.013589 0.003104 0.007235 -0.003102 0.001706
# 3 -0.002417 0.003104 0.018454 0.014944 -0.007442 -0.000781
# 4 0.005745 0.007235 0.014944 0.072018 -0.012381 0.003704
# 5 -0.003118 -0.003102 -0.007442 -0.012381 0.039520 0.003067
# 6 0.000132 0.001706 -0.000781 0.003704 0.003067 0.036381
#
#
# Mechanical properties :
#
#
# Convention : Reuss Voigt Hill
#
# Bulk Modulus (GPa) = 19.62882 26.58600 23.10741
# Shear Modulus (GPa) = 22.39536 27.39428 24.89482
#
# Velocity S-wave (km/s) = 3.18396 3.52142 3.35693
# Velocity P-wave (km/s) = 4.73308 5.34494 5.04829
#
# Compressibility (1/GPa) = 0.05094549
#
# Stress axis : x y z
#
# Youngs Moduli (GPa) = 44.23109 73.58876 54.18734
#
# Poissons Ratio (x) = 0.18696 0.13097
# Poissons Ratio (y) = 0.11238 -0.16821
# Poissons Ratio (z) = 0.10690 -0.22844
#
# Static dielectric constant tensor:
#      x y z
#    x 4.114710 0.041900 -0.188400 
#    y 0.041900 3.840760 -0.099690 
#    z -0.188400 -0.099690 3.961650 
# 
# 
# High freq. dielectric constant tensor:
#      x y z
#    x 1.866950 -0.008700 -0.006060 
#    y -0.008700 1.858110 -0.002540 
#    z -0.006060 -0.002540 1.864280 
# 
# From -- ./inp_files/307574.got.cif
#   From: 2010.06.25/outbox.cif.g09.slc.cpg/sg2_154_cif.got.tgz:307574.got - 2010.06.27 13:26:56.
