data_PCOD8025743
_publ_section_title
;
Structure prediction by ZEFSAII (Michael W. Deem and Ramdas Pophale) SiO2 
 PCOD8025743
Probable space group: P -1
;
_chemical_formula_sum "Si O2"
_cell_formula_units_Z 14
_cell_length_a 18.014672
_cell_length_b 23.790094
_cell_length_c 9.229844
_cell_angle_alpha 143.890041
_cell_angle_beta 27.326540
_cell_angle_gamma 160.772040
_cell_volume 585.346829
_symmetry_space_group_name_H-M "P -1"
_symmetry_group_IT_number 2
_symmetry_cell_setting 'triclinic'
loop_
_space_group_symop_operation_xyz
x,y,z
-x,-y,-z
loop_
_atom_site_type_symbol
_atom_site_label
_atom_site_fract_x
_atom_site_fract_y
_atom_site_fract_z
Si Si1 0.992662 0.079749 0.567583
Si Si2 0.349309 0.912052 0.731642
Si Si3 0.393883 0.219983 0.569658
Si Si4 0.368037 0.025138 0.358647
Si Si5 0.683993 0.678950 0.834583
Si Si6 0.581064 0.419109 0.385396
Si Si7 0.149894 0.475244 0.152922
O O1 0.299729 0.287078 0.488480
O O2 0.925417 0.986925 0.343727
O O3 0.719583 0.018270 0.935535
O O4 0.000000 0.000000 0.500000
O O5 0.576068 0.962654 0.541934
O O6 0.042789 0.703655 0.813240
O O7 0.500000 0.000000 0.500000
O O8 0.539120 0.206818 0.388105
O O9 0.566400 0.328714 0.345788
O O10 0.357941 0.299263 0.886616
O O11 0.020872 0.858009 0.573500
O O12 0.500000 0.000000 0.000000
O O13 0.609910 0.530771 0.656634
O O14 0.476611 0.632515 0.984040
O O15 0.844765 0.532681 0.049187
O O16 0.000000 0.500000 0.500000
#
# Coordination Sequence:
#
# PCOD8025743 Si02
#       7
#     2   2   2   2   2   2   2
#     4  10  23  45  79 107 147 199 256 294 383 450
#     4  12  28  48  77 109 151 198 258 311 374 462
#     4  11  25  46  74 112 150 202 248 311 380 453
#     4  12  26  47  74 113 156 200 251 314 383 450
#     4  12  26  48  77 115 157 197 257 323 380 439
#     4  11  25  48  80 107 153 199 254 311 379 452
#     4  12  28  49  77 113 153 205 257 311 381 454
#
# _framework density 23.917442999999999
#
# number of rings (size 3 to 8) (size 9 to 14) (size 15 to 20)
#    0.000    0.571    2.857    3.857    8.000    1.143 
#    0.000    5.000    0.000    0.000    0.000    0.000 
#    0.000    0.000    0.000    0.000    0.000    0.000 
#
# Total GULP energy -173458.176907 kJ/mol
# GULP energy per Si atom -12389.869779 kJ/mol
# Density = 2.386301 g / cm^3
# Si number density = 23.917443 Si / 1000 Ang^3
#
#
#
# Elastic Constant Matrix: (Units=GPa)
#
#
# Indices 1 2 3 4 5 6 
#
# 1 166.4365 67.3360 66.0935 -2.4021 4.5278 -18.2827
# 2 67.3360 119.9315 62.7710 17.2398 12.3796 -0.8310
# 3 66.0935 62.7710 132.1826 15.5390 9.2012 -9.4418
# 4 -2.4021 17.2398 15.5390 49.1222 1.6748 2.3600
# 5 4.5278 12.3796 9.2012 1.6748 51.7693 -1.5106
# 6 -18.2827 -0.8310 -9.4418 2.3600 -1.5106 46.0026
#
#
#
# Elastic Compliance Matrix: (Units=1/GPa)
#
#
# Indices 1 2 3 4 5 6 
#
# 1 0.009086 -0.004083 -0.002751 0.002587 0.000670 0.002862
# 2 -0.004083 0.013377 -0.003903 -0.003489 -0.002096 -0.002072
# 3 -0.002751 -0.003903 0.011207 -0.002345 -0.000706 0.001234
# 4 0.002587 -0.003489 -0.002345 0.022472 0.000279 -0.000660
# 5 0.000670 -0.002096 -0.000706 0.000279 0.019897 0.000723
# 6 0.002862 -0.002072 0.001234 -0.000660 0.000723 0.023149
#
#
# Mechanical properties :
#
#
# Convention : Reuss Voigt Hill
#
# Bulk Modulus (GPa) = 81.98784 90.10574 86.04679
# Shear Modulus (GPa) = 40.08817 44.20216 42.14517
#
# Velocity S-wave (km/s) = 4.09847 4.30363 4.20230
# Velocity P-wave (km/s) = 7.53329 7.90256 7.72014
#
# Compressibility (1/GPa) = 0.01219693
#
# Stress axis : x y z
#
# Youngs Moduli (GPa) = 110.06056 74.75750 89.23064
#
# Poissons Ratio (x) = 0.30523 0.24543
# Poissons Ratio (y) = 0.44937 0.34824
# Poissons Ratio (z) = 0.30273 0.29176
#
# Static dielectric constant tensor:
#      x y z
#    x 6.513070 1.782870 -0.714610 
#    y 1.782870 6.068520 -0.393440 
#    z -0.714610 -0.393440 4.341440 
# 
# 
# High freq. dielectric constant tensor:
#      x y z
#    x 1.969170 -0.004020 0.001820 
#    y -0.004020 1.959750 0.017200 
#    z 0.001820 0.017200 1.932610 
# 
# From -- ./inp_files/338683.got.cif
#   From: 2010.06.25/outbox.cif.g09.slc.cpg/sg2_170_cif.got.tgz:338683.got - 2010.06.27 13:26:56.
