data_PCOD8025807
_publ_section_title
;
Structure prediction by ZEFSAII (Michael W. Deem and Ramdas Pophale) SiO2 
 PCOD8025807
Probable space group: P -1
;
_chemical_formula_sum "Si O2"
_cell_formula_units_Z 16
_cell_length_a 15.025688
_cell_length_b 15.263648
_cell_length_c 8.893998
_cell_angle_alpha 99.514524
_cell_angle_beta 99.163029
_cell_angle_gamma 151.853369
_cell_volume 716.630189
_symmetry_space_group_name_H-M "P -1"
_symmetry_group_IT_number 2
_symmetry_cell_setting 'triclinic'
loop_
_space_group_symop_operation_xyz
x,y,z
-x,-y,-z
loop_
_atom_site_type_symbol
_atom_site_label
_atom_site_fract_x
_atom_site_fract_y
_atom_site_fract_z
Si Si1 0.113992 0.522113 0.128911
Si Si2 0.082022 0.841005 0.088239
Si Si3 0.966422 0.727121 0.363040
Si Si4 0.388261 0.041391 0.747167
Si Si5 0.517390 0.191651 0.150355
Si Si6 0.207490 0.250458 0.039645
Si Si7 0.747373 0.272996 0.456178
Si Si8 0.765189 0.732040 0.297461
O O1 0.334553 0.673990 0.141256
O O2 0.207731 0.641604 0.347812
O O3 0.000000 0.500000 0.000000
O O4 0.935452 0.273010 0.026766
O O5 0.105902 0.854583 0.277220
O O6 0.347766 0.113297 0.161330
O O7 0.871469 0.719151 0.953177
O O8 0.786669 0.477289 0.258488
O O9 0.799304 0.660004 0.320331
O O10 0.179532 0.920000 0.603415
O O11 0.355313 0.920432 0.609867
O O12 0.378726 0.023283 0.919061
O O13 0.546745 0.142171 0.268190
O O14 0.499611 0.513065 0.244964
O O15 0.222541 0.234246 0.866224
O O16 0.000000 0.000000 0.000000
O O17 0.000000 0.500000 0.500000
O O18 0.000000 0.000000 0.500000
#
# Coordination Sequence:
#
# PCOD8025807 Si02
#       8
#     2   2   2   2   2   2   2   2
#     4  12  24  42  67  98 137 179 226 272 334 394
#     4  11  24  43  68  98 135 180 220 274 335 403
#     4  11  24  44  66 100 133 172 225 272 335 401
#     4  12  24  42  69  91 134 181 220 276 334 389
#     4  12  24  44  66  97 136 174 227 276 328 392
#     4  10  23  46  69 101 139 174 225 282 342 404
#     4  12  23  41  62  97 134 174 228 275 324 394
#     4  10  24  43  71 101 134 176 222 279 341 413
#
# _framework density 22.326719000000001
#
# number of rings (size 3 to 8) (size 9 to 14) (size 15 to 20)
#    0.000    0.750    2.500    5.250    1.750    2.500 
#    0.000    0.000    0.000    0.000    0.000    0.000 
#    0.000    0.000    0.000    0.000    0.000    0.000 
#
# Total GULP energy -198320.598865 kJ/mol
# GULP energy per Si atom -12395.037429 kJ/mol
# Density = 2.227590 g / cm^3
# Si number density = 22.326719 Si / 1000 Ang^3
#
#
#
# Elastic Constant Matrix: (Units=GPa)
#
#
# Indices 1 2 3 4 5 6 
#
# 1 103.9688 43.9702 47.6216 -6.5356 20.5732 12.1082
# 2 43.9702 108.3837 42.0543 1.3453 11.4639 17.4252
# 3 47.6216 42.0543 135.8152 -12.9000 20.3135 8.5533
# 4 -6.5356 1.3453 -12.9000 38.3768 2.4557 3.7067
# 5 20.5732 11.4639 20.3135 2.4557 38.0989 5.7120
# 6 12.1082 17.4252 8.5533 3.7067 5.7120 45.6972
#
#
#
# Elastic Compliance Matrix: (Units=1/GPa)
#
#
# Indices 1 2 3 4 5 6 
#
# 1 0.013656 -0.003848 -0.002616 0.002005 -0.004767 -0.001228
# 2 -0.003848 0.012220 -0.002434 -0.001621 0.000266 -0.003086
# 3 -0.002616 -0.002434 0.009830 0.003161 -0.003290 -0.000064
# 4 0.002005 -0.001621 0.003161 0.027980 -0.003738 -0.002307
# 5 -0.004767 0.000266 -0.003290 -0.003738 0.031006 -0.001795
# 6 -0.001228 -0.003086 -0.000064 -0.002307 -0.001795 0.023809
#
#
# Mechanical properties :
#
#
# Convention : Reuss Voigt Hill
#
# Bulk Modulus (GPa) = 55.83431 68.38444 62.10937
# Shear Modulus (GPa) = 35.14478 38.73604 36.94041
#
# Velocity S-wave (km/s) = 3.97181 4.16981 4.07201
# Velocity P-wave (km/s) = 6.78939 7.34020 7.07016
#
# Compressibility (1/GPa) = 0.01791014
#
# Stress axis : x y z
#
# Youngs Moduli (GPa) = 73.22593 81.83089 101.72682
#
# Poissons Ratio (x) = 0.31492 0.26612
# Poissons Ratio (y) = 0.28181 0.24759
# Poissons Ratio (z) = 0.19156 0.19917
#
# Static dielectric constant tensor:
#      x y z
#    x 5.625300 -1.317060 -0.402590 
#    y -1.317060 6.543070 0.723550 
#    z -0.402590 0.723550 4.014700 
# 
# 
# High freq. dielectric constant tensor:
#      x y z
#    x 1.880370 0.015290 0.014250 
#    y 0.015290 1.896920 0.005240 
#    z 0.014250 0.005240 1.878750 
# 
# From -- ./inp_files/52370.got.cif
#   From: 2010.06.25/outbox.cif.g09.slc.cpg/sg2_27_cif.got.tgz:52370.got - 2010.06.27 13:26:56.
