data_PCOD8025215
_publ_section_title
;
Structure prediction by ZEFSAII (Michael W. Deem and Ramdas Pophale) SiO2 
 PCOD8025215
Probable space group: P -1
;
_chemical_formula_sum "Si O2"
_cell_formula_units_Z 16
_cell_length_a 24.059076
_cell_length_b 15.073925
_cell_length_c 18.305686
_cell_angle_alpha 27.489839
_cell_angle_beta 18.897473
_cell_angle_gamma 19.797014
_cell_volume 727.944241
_symmetry_space_group_name_H-M "P -1"
_symmetry_group_IT_number 2
_symmetry_cell_setting 'triclinic'
loop_
_space_group_symop_operation_xyz
x,y,z
-x,-y,-z
loop_
_atom_site_type_symbol
_atom_site_label
_atom_site_fract_x
_atom_site_fract_y
_atom_site_fract_z
Si Si1 0.909339 0.536508 0.378054
Si Si2 0.527449 0.679156 0.377116
Si Si3 0.168247 0.291699 0.378725
Si Si4 0.619546 0.593559 0.490484
Si Si5 0.907004 0.662842 0.854946
Si Si6 0.493283 0.434283 0.139632
Si Si7 0.607643 0.224741 0.865289
Si Si8 0.816383 0.032799 0.151996
O O1 0.643929 0.661487 0.610324
O O2 0.001168 0.385809 0.449704
O O3 0.074193 0.325949 0.263612
O O4 0.925983 0.753021 0.190704
O O5 0.500000 0.500000 0.500000
O O6 0.623629 0.565158 0.420346
O O7 0.294645 0.987903 0.454213
O O8 0.727751 0.631016 0.117484
O O9 0.000000 0.500000 0.500000
O O10 0.360105 0.304763 0.110810
O O11 0.619208 0.378367 0.677903
O O12 0.394126 0.868815 0.604222
O O13 0.835194 0.566787 0.264805
O O14 0.823661 0.922414 0.805169
O O15 0.354035 0.713457 0.147586
O O16 0.733609 0.220955 0.045440
O O17 0.500000 0.500000 0.000000
O O18 0.000000 0.000000 0.000000
#
# Coordination Sequence:
#
# PCOD8025215 Si02
#       8
#     2   2   2   2   2   2   2   2
#     4  12  24  43  72 101 135 184 236 288 347 427
#     4  11  28  44  68 106 139 183 236 296 349 422
#     4  11  25  47  69 101 142 185 233 290 361 419
#     4  11  23  45  69  97 137 181 232 285 359 413
#     4  11  25  45  68  98 138 186 232 282 354 426
#     4  11  24  43  70 109 137 178 236 295 348 414
#     4  10  23  44  70  99 138 189 225 282 358 424
#     4  11  25  46  72 100 141 187 234 290 358 425
#
# _framework density 21.979704999999999
#
# number of rings (size 3 to 8) (size 9 to 14) (size 15 to 20)
#    0.000    1.000    2.500    4.125    5.250    3.000 
#    2.250    0.000    0.000    0.000    0.000    0.000 
#    0.000    0.000    0.000    0.000    0.000    0.000 
#
# Total GULP energy -198297.236935 kJ/mol
# GULP energy per Si atom -12393.577308 kJ/mol
# Density = 2.192968 g / cm^3
# Si number density = 21.979705 Si / 1000 Ang^3
#
#
#
# Elastic Constant Matrix: (Units=GPa)
#
#
# Indices 1 2 3 4 5 6 
#
# 1 180.0356 62.3008 42.8793 4.1008 12.8343 0.7350
# 2 62.3008 115.0922 51.4174 1.6821 -5.2267 17.1025
# 3 42.8793 51.4174 91.6759 8.7135 0.8577 3.7114
# 4 4.1008 1.6821 8.7135 38.2220 0.9346 -3.1086
# 5 12.8343 -5.2267 0.8577 0.9346 45.1477 -4.3001
# 6 0.7350 17.1025 3.7114 -3.1086 -4.3001 35.9867
#
#
#
# Elastic Compliance Matrix: (Units=1/GPa)
#
#
# Indices 1 2 3 4 5 6 
#
# 1 0.007315 -0.003654 -0.001396 -0.000131 -0.002336 0.001441
# 2 -0.003654 0.014398 -0.006214 0.000648 0.002258 -0.005801
# 3 -0.001396 -0.006214 0.015287 -0.002962 -0.000447 0.001096
# 4 -0.000131 0.000648 -0.002962 0.027016 -0.000170 0.002314
# 5 -0.002336 0.002258 -0.000447 -0.000170 0.023257 0.001785
# 6 0.001441 -0.005801 0.001096 0.002314 0.001785 0.030816
#
#
# Mechanical properties :
#
#
# Convention : Reuss Voigt Hill
#
# Bulk Modulus (GPa) = 69.09796 77.77764 73.43780
# Shear Modulus (GPa) = 34.37799 39.21836 36.79818
#
# Velocity S-wave (km/s) = 3.95913 4.22868 4.09612
# Velocity P-wave (km/s) = 7.23913 7.70099 7.47363
#
# Compressibility (1/GPa) = 0.01447221
#
# Stress axis : x y z
#
# Youngs Moduli (GPa) = 136.70215 69.45369 65.41377
#
# Poissons Ratio (x) = 0.25382 0.09131
# Poissons Ratio (y) = 0.49958 0.40647
# Poissons Ratio (z) = 0.19081 0.43158
#
# Static dielectric constant tensor:
#      x y z
#    x 4.138940 0.164980 -0.050640 
#    y 0.164980 4.366430 0.108420 
#    z -0.050640 0.108420 4.059210 
# 
# 
# High freq. dielectric constant tensor:
#      x y z
#    x 1.882030 0.010390 -0.003080 
#    y 0.010390 1.860990 0.002560 
#    z -0.003080 0.002560 1.871770 
# 
# From -- ./inp_files/561397.got.cif
#   From: 2010.06.25/outbox.cif.g09.slc.cpg/sg2_281_cif.got.tgz:561397.got - 2010.06.27 13:26:56.
