data_PCOD8025101
_publ_section_title
;
Structure prediction by ZEFSAII (Michael W. Deem and Ramdas Pophale) SiO2 
 PCOD8025101
Probable space group: P -1
;
_chemical_formula_sum "Si O2"
_cell_formula_units_Z 16
_cell_length_a 8.236411
_cell_length_b 17.838652
_cell_length_c 8.223905
_cell_angle_alpha 81.289494
_cell_angle_beta 112.114707
_cell_angle_gamma 138.920627
_cell_volume 717.982593
_symmetry_space_group_name_H-M "P -1"
_symmetry_group_IT_number 2
_symmetry_cell_setting 'triclinic'
loop_
_space_group_symop_operation_xyz
x,y,z
-x,-y,-z
loop_
_atom_site_type_symbol
_atom_site_label
_atom_site_fract_x
_atom_site_fract_y
_atom_site_fract_z
Si Si1 0.218712 0.909873 0.010698
Si Si2 0.331842 0.557538 0.997282
Si Si3 0.146812 0.599409 0.655103
Si Si4 0.296956 0.253524 0.673903
Si Si5 0.279385 0.180766 0.340809
Si Si6 0.909632 0.023301 0.809877
Si Si7 0.798145 0.631326 0.572817
Si Si8 0.169366 0.339115 0.058702
O O1 0.281287 0.977556 0.176185
O O2 0.988910 0.870388 0.820267
O O3 0.111887 0.791361 0.064293
O O4 0.500000 0.000000 0.000000
O O5 0.131041 0.549595 0.835692
O O6 0.584681 0.617282 0.960236
O O7 0.423738 0.627798 0.176066
O O8 0.156197 0.424973 0.009280
O O9 0.462308 0.711630 0.701526
O O10 0.000000 0.500000 0.500000
O O11 0.012180 0.636832 0.611046
O O12 0.342841 0.222124 0.536807
O O13 0.147249 0.283966 0.565867
O O14 0.150771 0.150296 0.778832
O O15 0.242161 0.076790 0.350213
O O16 0.000000 0.000000 0.000000
O O17 0.500000 0.500000 0.500000
O O18 0.818827 0.677519 0.740589
#
# Coordination Sequence:
#
# PCOD8025101 Si02
#       8
#     2   2   2   2   2   2   2   2
#     4  11  23  44  73 101 141 194 239 295 361 429
#     4  11  23  43  77 108 144 194 233 301 366 434
#     4  12  27  46  72 107 150 188 238 299 367 433
#     4  12  22  45  77 102 142 192 239 295 369 432
#     4  11  24  47  68 103 143 185 238 307 357 426
#     4  10  23  44  69 100 137 185 240 298 350 420
#     4  12  25  45  71 105 145 190 233 299 366 437
#     4  11  22  43  72 103 149 181 243 292 365 427
#
# _framework density 22.284662999999998
#
# number of rings (size 3 to 8) (size 9 to 14) (size 15 to 20)
#    0.000    0.750    5.000    2.625    3.500    0.500 
#    0.000    6.250    0.000    0.000    0.000    0.000 
#    0.000    0.000    0.000    0.000    0.000    0.000 
#
# Total GULP energy -198307.032438 kJ/mol
# GULP energy per Si atom -12394.189527 kJ/mol
# Density = 2.223394 g / cm^3
# Si number density = 22.284663 Si / 1000 Ang^3
#
#
#
# Elastic Constant Matrix: (Units=GPa)
#
#
# Indices 1 2 3 4 5 6 
#
# 1 103.4202 60.2789 59.6400 20.8051 -17.1838 -9.0881
# 2 60.2789 178.5027 48.0822 0.6757 3.5332 -23.8408
# 3 59.6400 48.0822 121.6148 -0.7961 -11.7863 -25.2765
# 4 20.8051 0.6757 -0.7961 45.3495 -7.8069 -5.8770
# 5 -17.1838 3.5332 -11.7863 -7.8069 38.6198 13.0232
# 6 -9.0881 -23.8408 -25.2765 -5.8770 13.0232 42.6894
#
#
#
# Elastic Compliance Matrix: (Units=1/GPa)
#
#
# Indices 1 2 3 4 5 6 
#
# 1 0.020408 -0.005688 -0.008643 -0.009087 0.007669 -0.007540
# 2 -0.005688 0.008247 0.000191 0.002390 -0.004501 0.005210
# 3 -0.008643 0.000191 0.013868 0.004980 -0.001159 0.007517
# 4 -0.009087 0.002390 0.004980 0.027163 0.000776 0.005852
# 5 0.007669 -0.004501 -0.001159 0.000776 0.033455 -0.011666
# 6 -0.007540 0.005210 0.007517 0.005852 -0.011666 0.033545
#
#
# Mechanical properties :
#
#
# Convention : Reuss Voigt Hill
#
# Bulk Modulus (GPa) = 70.20248 82.17109 76.18679
# Shear Modulus (GPa) = 29.46111 41.03419 35.24765
#
# Velocity S-wave (km/s) = 3.63992 4.29577 3.98137
# Velocity P-wave (km/s) = 7.01686 7.84591 7.44294
#
# Compressibility (1/GPa) = 0.01424451
#
# Stress axis : x y z
#
# Youngs Moduli (GPa) = 48.99963 121.24952 72.10732
#
# Poissons Ratio (x) = 0.68968 0.62320
# Poissons Ratio (y) = 0.27872 -0.01378
# Poissons Ratio (z) = 0.42349 -0.02317
#
# Static dielectric constant tensor:
#      x y z
#    x 4.132910 -0.435400 -0.403450 
#    y -0.435400 4.504620 0.106760 
#    z -0.403450 0.106760 4.171160 
# 
# 
# High freq. dielectric constant tensor:
#      x y z
#    x 1.876640 -0.021070 -0.027630 
#    y -0.021070 1.898890 0.000180 
#    z -0.027630 0.000180 1.867670 
# 
# From -- ./inp_files/217524.got.cif
#   From: 2010.06.25/outbox.cif.g09.slc.cpg/sg2_109_cif.got.tgz:217524.got - 2010.06.27 13:26:56.
