data_PCOD8025709
_publ_section_title
;
Structure prediction by ZEFSAII (Michael W. Deem and Ramdas Pophale) SiO2 
 PCOD8025709
Probable space group: P -1
;
_chemical_formula_sum "Si O2"
_cell_formula_units_Z 16
_cell_length_a 7.892596
_cell_length_b 6.424359
_cell_length_c 24.705197
_cell_angle_alpha 87.309602
_cell_angle_beta 32.620834
_cell_angle_gamma 87.083286
_cell_volume 674.393564
_symmetry_space_group_name_H-M "P -1"
_symmetry_group_IT_number 2
_symmetry_cell_setting 'triclinic'
loop_
_space_group_symop_operation_xyz
x,y,z
-x,-y,-z
loop_
_atom_site_type_symbol
_atom_site_label
_atom_site_fract_x
_atom_site_fract_y
_atom_site_fract_z
Si Si1 0.681932 0.018466 0.504841
Si Si2 0.344664 0.848626 0.311935
Si Si3 0.764826 0.553862 0.140435
Si Si4 0.139269 0.233373 0.106612
Si Si5 0.677384 0.382157 0.574618
Si Si6 0.254697 0.879258 0.995329
Si Si7 0.431147 0.172620 0.194729
Si Si8 0.209494 0.760835 0.691551
O O1 0.756922 0.255060 0.499301
O O2 0.500000 0.000000 0.500000
O O3 0.477725 0.925517 0.608845
O O4 0.974863 0.868248 0.416171
O O5 0.450476 0.648922 0.251054
O O6 0.442322 0.790599 0.347635
O O7 0.470467 0.056288 0.244051
O O8 0.629826 0.384429 0.137788
O O9 0.009719 0.456058 0.119039
O O10 0.964972 0.735793 0.056980
O O11 0.918681 0.169339 0.216325
O O12 0.115221 0.072158 0.065058
O O13 0.495102 0.247524 0.032675
O O14 0.374002 0.532907 0.646909
O O15 0.000000 0.500000 0.500000
O O16 0.419692 0.959026 0.894446
O O17 0.064633 0.223572 0.280505
#
# Coordination Sequence:
#
# PCOD8025709 Si02
#       8
#     2   2   2   2   2   2   2   2
#     4  12  28  48  76 107 153 190 239 303 373 434
#     4  12  27  45  71 111 144 191 239 300 360 435
#     4  12  25  41  74 103 148 184 247 293 362 428
#     4  10  23  45  74 104 142 187 247 293 358 430
#     4  12  28  46  78 106 145 194 252 297 364 436
#     4  10  24  47  71 104 144 193 238 300 361 428
#     4  11  27  45  71 107 150 185 241 299 367 425
#     4  11  25  47  74 106 142 193 239 301 360 442
#
# _framework density 23.725021000000002
#
# number of rings (size 3 to 8) (size 9 to 14) (size 15 to 20)
#    0.000    0.750    3.750    1.875    7.000    3.500 
#    0.000    2.500    0.000    0.000    0.000    0.000 
#    0.000    0.000    0.000    0.000    0.000    0.000 
#
# Total GULP energy -198232.978491 kJ/mol
# GULP energy per Si atom -12389.561156 kJ/mol
# Density = 2.367102 g / cm^3
# Si number density = 23.725021 Si / 1000 Ang^3
#
#
#
# Elastic Constant Matrix: (Units=GPa)
#
#
# Indices 1 2 3 4 5 6 
#
# 1 75.0123 63.9424 42.6633 4.8939 8.1277 8.3198
# 2 63.9424 110.6501 59.6081 17.1022 -7.9507 0.7228
# 3 42.6633 59.6081 150.9831 18.2218 -6.0395 3.9973
# 4 4.8939 17.1022 18.2218 46.7012 -2.1907 -3.9542
# 5 8.1277 -7.9507 -6.0395 -2.1907 36.2315 -0.2123
# 6 8.3198 0.7228 3.9973 -3.9542 -0.2123 35.0182
#
#
#
# Elastic Compliance Matrix: (Units=1/GPa)
#
#
# Indices 1 2 3 4 5 6 
#
# 1 0.032546 -0.018784 -0.002468 0.003311 -0.011674 -0.006760
# 2 -0.018784 0.022726 -0.002884 -0.004504 0.008470 0.003866
# 3 -0.002468 -0.002884 0.008779 -0.002101 0.001254 -0.000586
# 4 0.003311 -0.004504 -0.002101 0.023693 -0.000636 0.002218
# 5 -0.011674 0.008470 0.001254 -0.000636 0.032263 0.002579
# 6 -0.006760 0.003866 -0.000586 0.002218 0.002579 0.030416
#
#
# Mechanical properties :
#
#
# Convention : Reuss Voigt Hill
#
# Bulk Modulus (GPa) = 63.38395 74.34145 68.86270
# Shear Modulus (GPa) = 24.51529 34.95228 29.73378
#
# Velocity S-wave (km/s) = 3.21800 3.84242 3.54399
# Velocity P-wave (km/s) = 6.37036 7.14761 6.77014
#
# Compressibility (1/GPa) = 0.01577686
#
# Stress axis : x y z
#
# Youngs Moduli (GPa) = 30.72600 44.00271 113.91383
#
# Poissons Ratio (x) = 0.82657 0.28114
# Poissons Ratio (y) = 0.57717 0.32855
# Poissons Ratio (z) = 0.07583 0.12691
#
# Static dielectric constant tensor:
#      x y z
#    x 4.170690 -0.135660 -0.035590 
#    y -0.135660 3.547240 0.306360 
#    z -0.035590 0.306360 4.528830 
# 
# 
# High freq. dielectric constant tensor:
#      x y z
#    x 1.941300 -0.012430 -0.003980 
#    y -0.012430 1.929060 0.015430 
#    z -0.003980 0.015430 1.964080 
# 
# From -- ./inp_files/616340.got.cif
#   From: 2010.06.25/outbox.cif.g09.slc.cpg/sg2_309_cif.got.tgz:616340.got - 2010.06.27 13:26:56.
