data_PCOD8025573
_publ_section_title
;
Structure prediction by ZEFSAII (Michael W. Deem and Ramdas Pophale) SiO2 
 PCOD8025573
Probable space group: P -1
;
_chemical_formula_sum "Si O2"
_cell_formula_units_Z 14
_cell_length_a 15.423854
_cell_length_b 9.592446
_cell_length_c 14.314050
_cell_angle_alpha 139.427893
_cell_angle_beta 150.809624
_cell_angle_gamma 36.854677
_cell_volume 605.867568
_symmetry_space_group_name_H-M "P -1"
_symmetry_group_IT_number 2
_symmetry_cell_setting 'triclinic'
loop_
_space_group_symop_operation_xyz
x,y,z
-x,-y,-z
loop_
_atom_site_type_symbol
_atom_site_label
_atom_site_fract_x
_atom_site_fract_y
_atom_site_fract_z
Si Si1 0.609829 0.925799 0.946245
Si Si2 0.980974 0.895539 0.200981
Si Si3 0.025545 0.780978 0.973871
Si Si4 0.919434 0.399674 0.456630
Si Si5 0.258923 0.308324 0.866790
Si Si6 0.380342 0.616647 0.537513
Si Si7 0.342113 0.270477 0.471072
O O1 0.465171 0.799455 0.740848
O O2 0.460616 0.208853 0.943457
O O3 0.713795 0.879541 0.121130
O O4 0.789922 0.837137 0.996888
O O5 0.067569 0.824070 0.142234
O O6 0.148043 0.752748 0.361509
O O7 0.887440 0.178647 0.274241
O O8 0.218079 0.561594 0.002642
O O9 0.836017 0.730973 0.758437
O O10 0.000000 0.000000 0.000000
O O11 0.724610 0.603892 0.425714
O O12 0.000000 0.500000 0.500000
O O13 0.080520 0.306992 0.640729
O O14 0.500000 0.500000 0.500000
O O15 0.423408 0.422078 0.560969
O O16 0.500000 0.000000 0.500000
#
# Coordination Sequence:
#
# PCOD8025573 Si02
#       7
#     2   2   2   2   2   2   2
#     4  11  25  43  77 104 139 181 245 308 357 426
#     4  12  25  46  76 109 141 188 253 293 366 429
#     4  11  25  46  71  99 147 193 234 299 360 432
#     4  11  25  46  72 104 153 195 238 305 360 435
#     4  10  23  45  69  99 142 181 236 292 368 411
#     4  12  27  46  78 109 149 188 242 316 358 431
#     4  11  28  47  73 108 147 195 243 292 379 435
#
# _framework density 23.10736
#
# number of rings (size 3 to 8) (size 9 to 14) (size 15 to 20)
#    0.000    0.857    1.429    5.143   10.000    4.000 
#    0.000    2.143    0.000    0.000    0.000    0.000 
#    0.000    0.000    0.000    0.000    0.000    0.000 
#
# Total GULP energy -173529.607729 kJ/mol
# GULP energy per Si atom -12394.971981 kJ/mol
# Density = 2.305477 g / cm^3
# Si number density = 23.107360 Si / 1000 Ang^3
#
#
#
# Elastic Constant Matrix: (Units=GPa)
#
#
# Indices 1 2 3 4 5 6 
#
# 1 146.8102 65.2391 44.1427 9.6497 5.2894 -8.6234
# 2 65.2391 165.8166 48.9351 4.7015 9.7739 -17.9604
# 3 44.1427 48.9351 101.9965 4.5093 -1.6923 -5.2478
# 4 9.6497 4.7015 4.5093 32.5055 -3.6661 1.3267
# 5 5.2894 9.7739 -1.6923 -3.6661 40.8775 -0.4512
# 6 -8.6234 -17.9604 -5.2478 1.3267 -0.4512 38.3901
#
#
#
# Elastic Compliance Matrix: (Units=1/GPa)
#
#
# Indices 1 2 3 4 5 6 
#
# 1 0.008916 -0.002609 -0.002505 -0.002034 -0.000810 0.000501
# 2 -0.002609 0.008286 -0.002709 -0.000365 -0.001756 0.002912
# 3 -0.002505 -0.002709 0.012223 -0.000392 0.001441 -0.000129
# 4 -0.002034 -0.000365 -0.000392 0.031905 0.003176 -0.001746
# 5 -0.000810 -0.001756 0.001441 0.003176 0.025326 -0.000619
# 6 0.000501 0.002912 -0.000129 -0.001746 -0.000619 0.027559
#
#
# Mechanical properties :
#
#
# Convention : Reuss Voigt Hill
#
# Bulk Modulus (GPa) = 72.57684 81.25080 76.91382
# Shear Modulus (GPa) = 37.18730 39.44171 38.31450
#
# Velocity S-wave (km/s) = 4.01599 4.13593 4.07640
# Velocity P-wave (km/s) = 7.27880 7.61883 7.45076
#
# Compressibility (1/GPa) = 0.01377850
#
# Stress axis : x y z
#
# Youngs Moduli (GPa) = 112.15233 120.68206 81.81384
#
# Poissons Ratio (x) = 0.31489 0.20493
# Poissons Ratio (y) = 0.29263 0.22167
# Poissons Ratio (z) = 0.28093 0.32698
#
# Static dielectric constant tensor:
#      x y z
#    x 4.242580 -0.313320 -0.044330 
#    y -0.313320 4.557410 0.029760 
#    z -0.044330 0.029760 4.261350 
# 
# 
# High freq. dielectric constant tensor:
#      x y z
#    x 1.915430 -0.018360 -0.007920 
#    y -0.018360 1.927820 -0.001610 
#    z -0.007920 -0.001610 1.913770 
# 
# From -- ./inp_files/530276.got.cif
#   From: 2010.06.25/outbox.cif.g09.slc.cpg/sg2_266_cif.got.tgz:530276.got - 2010.06.27 13:26:56.
