data_PCOD8025085
_publ_section_title
;
Structure prediction by ZEFSAII (Michael W. Deem and Ramdas Pophale) SiO2 
 PCOD8025085
Probable space group: P -1
;
_chemical_formula_sum "Si O2"
_cell_formula_units_Z 14
_cell_length_a 6.688629
_cell_length_b 13.106029
_cell_length_c 13.756488
_cell_angle_alpha 30.855081
_cell_angle_beta 78.246931
_cell_angle_gamma 70.249500
_cell_volume 572.690059
_symmetry_space_group_name_H-M "P -1"
_symmetry_group_IT_number 2
_symmetry_cell_setting 'triclinic'
loop_
_space_group_symop_operation_xyz
x,y,z
-x,-y,-z
loop_
_atom_site_type_symbol
_atom_site_label
_atom_site_fract_x
_atom_site_fract_y
_atom_site_fract_z
Si Si1 0.124792 0.023118 0.566961
Si Si2 0.869049 0.667995 0.146218
Si Si3 0.205911 0.743010 0.435176
Si Si4 0.977614 0.730465 0.282422
Si Si5 0.230193 0.424282 0.178322
Si Si6 0.476867 0.714056 0.900460
Si Si7 0.487180 0.027775 0.805493
O O1 0.245725 0.199242 0.405609
O O2 0.956751 0.083033 0.623068
O O3 0.306931 0.803016 0.755028
O O4 0.000000 0.000000 0.500000
O O5 0.777463 0.490804 0.344146
O O6 0.026000 0.723436 0.166813
O O7 0.996319 0.588238 0.097757
O O8 0.665285 0.870362 0.984045
O O9 0.133177 0.801485 0.281518
O O10 0.439784 0.772446 0.395897
O O11 0.000000 0.500000 0.500000
O O12 0.735580 0.888946 0.184835
O O13 0.282240 0.387181 0.087503
O O14 0.408896 0.529791 0.112726
O O15 0.460446 0.909773 0.807928
#
# Coordination Sequence:
#
# PCOD8025085 Si02
#       7
#     2   2   2   2   2   2   2
#     4  11  22  41  67  99 133 179 226 270 336 402
#     4  10  24  43  66 101 131 181 228 272 336 401
#     4  10  23  44  68  98 137 176 220 284 332 391
#     4  10  23  47  67  99 138 176 227 281 335 395
#     4  10  24  42  65  97 141 173 219 282 330 396
#     4  11  24  42  66 101 135 177 223 275 343 395
#     4  12  24  43  72  99 133 180 227 274 340 403
#
# _framework density 24.446031999999999
#
# number of rings (size 3 to 8) (size 9 to 14) (size 15 to 20)
#    0.000    1.429    1.429    2.571    0.000    9.714 
#    2.571    0.000    0.000    0.000    0.000    0.000 
#    0.000    0.000    0.000    0.000    0.000    0.000 
#
# Total GULP energy -173435.288226 kJ/mol
# GULP energy per Si atom -12388.234873 kJ/mol
# Density = 2.439039 g / cm^3
# Si number density = 24.446032 Si / 1000 Ang^3
#
#
#
# Elastic Constant Matrix: (Units=GPa)
#
#
# Indices 1 2 3 4 5 6 
#
# 1 74.6466 26.1925 28.8419 2.3292 -16.0174 21.9765
# 2 26.1925 118.1495 23.9661 -8.6758 8.6468 19.8099
# 3 28.8419 23.9661 74.5724 -2.4088 -0.3680 7.5755
# 4 2.3292 -8.6758 -2.4088 24.2359 2.6159 7.8969
# 5 -16.0174 8.6468 -0.3680 2.6159 41.1943 5.6177
# 6 21.9765 19.8099 7.5755 7.8969 5.6177 38.3422
#
#
#
# Elastic Compliance Matrix: (Units=1/GPa)
#
#
# Indices 1 2 3 4 5 6 
#
# 1 0.022785 -0.002598 -0.006766 -0.001151 0.011021 -0.011758
# 2 -0.002598 0.010805 -0.001845 0.005716 -0.003050 -0.004459
# 3 -0.006766 -0.001845 0.016484 0.001351 -0.002407 0.001649
# 4 -0.001151 0.005716 0.001351 0.047776 -0.003039 -0.011955
# 5 0.011021 -0.003050 -0.002407 -0.003039 0.030477 -0.008105
# 6 -0.011758 -0.004459 0.001649 -0.011955 -0.008105 0.038448
#
#
# Mechanical properties :
#
#
# Convention : Reuss Voigt Hill
#
# Bulk Modulus (GPa) = 36.15938 47.26326 41.71132
# Shear Modulus (GPa) = 25.20036 33.31233 29.25635
#
# Velocity S-wave (km/s) = 3.21418 3.69547 3.46319
# Velocity P-wave (km/s) = 5.34773 6.13060 5.75250
#
# Compressibility (1/GPa) = 0.02765534
#
# Stress axis : x y z
#
# Youngs Moduli (GPa) = 43.88937 92.55252 60.66621
#
# Poissons Ratio (x) = 0.24048 0.41044
# Poissons Ratio (y) = 0.11404 0.11192
# Poissons Ratio (z) = 0.29694 0.17075
#
# Static dielectric constant tensor:
#      x y z
#    x 4.541240 0.190040 -0.092800 
#    y 0.190040 4.858770 -0.011430 
#    z -0.092800 -0.011430 4.374770 
# 
# 
# High freq. dielectric constant tensor:
#      x y z
#    x 1.953240 0.006400 -0.016980 
#    y 0.006400 1.992480 -0.016000 
#    z -0.016980 -0.016000 1.969770 
# 
# From -- ./inp_files/484081.got.cif
#   From: 2010.06.25/outbox.cif.g09.slc.cpg/sg2_243_cif.got.tgz:484081.got - 2010.06.27 13:26:56.
