data_PCOD8025294
_publ_section_title
;
Structure prediction by ZEFSAII (Michael W. Deem and Ramdas Pophale) SiO2 
 PCOD8025294
Probable space group: P -1
;
_chemical_formula_sum "Si O2"
_cell_formula_units_Z 14
_cell_length_a 14.140424
_cell_length_b 24.804075
_cell_length_c 13.556706
_cell_angle_alpha 22.526392
_cell_angle_beta 150.039675
_cell_angle_gamma 159.087663
_cell_volume 649.998908
_symmetry_space_group_name_H-M "P -1"
_symmetry_group_IT_number 2
_symmetry_cell_setting 'triclinic'
loop_
_space_group_symop_operation_xyz
x,y,z
-x,-y,-z
loop_
_atom_site_type_symbol
_atom_site_label
_atom_site_fract_x
_atom_site_fract_y
_atom_site_fract_z
Si Si1 0.551212 0.152921 0.417926
Si Si2 0.247956 0.480144 0.911754
Si Si3 0.741908 0.552613 0.254813
Si Si4 0.268124 0.989896 0.047239
Si Si5 0.733222 0.302907 0.819003
Si Si6 0.022761 0.099438 0.752299
Si Si7 0.014785 0.409727 0.260547
O O1 0.671413 0.319121 0.328008
O O2 0.567125 0.006205 0.726619
O O3 0.716704 0.241010 0.317449
O O4 0.255278 0.041603 0.316151
O O5 0.220579 0.454252 0.814456
O O6 0.961556 0.303643 0.003843
O O7 0.464382 0.485427 0.141002
O O8 0.726767 0.395839 0.559498
O O9 0.983684 0.771397 0.142561
O O10 0.445791 0.083085 0.950137
O O11 0.226254 0.126816 0.816968
O O12 0.792807 0.423927 0.765857
O O13 0.126966 0.312183 0.503552
O O14 0.000000 0.000000 0.000000
O O15 0.000000 0.500000 0.000000
#
# Coordination Sequence:
#
# PCOD8025294 Si02
#       7
#     2   2   2   2   2   2   2
#     4  11  23  43  65  97 137 173 227 284 336 397
#     4  10  23  44  72  92 141 173 217 287 340 397
#     4  11  22  47  68 101 130 179 223 275 346 403
#     4  12  25  42  70 101 134 177 229 278 338 406
#     4  11  25  43  66 101 132 175 225 278 333 410
#     4  12  24  42  67  96 134 185 225 278 335 404
#     4  11  24  42  65  96 138 178 223 281 340 395
#
# _framework density 21.538497
#
# number of rings (size 3 to 8) (size 9 to 14) (size 15 to 20)
#    0.000    0.857    5.714    1.714    2.000    4.571 
#    0.000    1.429    0.000    0.000    0.000    0.000 
#    0.000    0.000    0.000    0.000    0.000    0.000 
#
# Total GULP energy -173633.993513 kJ/mol
# GULP energy per Si atom -12402.428108 kJ/mol
# Density = 2.148947 g / cm^3
# Si number density = 21.538497 Si / 1000 Ang^3
#
#
#
# Elastic Constant Matrix: (Units=GPa)
#
#
# Indices 1 2 3 4 5 6 
#
# 1 101.6864 42.1684 39.1069 9.9137 6.0950 27.3785
# 2 42.1684 91.6617 35.6599 24.3191 -8.8105 28.0622
# 3 39.1069 35.6599 105.0875 15.5948 -2.3915 13.1434
# 4 9.9137 24.3191 15.5948 28.7242 6.6964 -2.8549
# 5 6.0950 -8.8105 -2.3915 6.6964 35.9446 2.8202
# 6 27.3785 28.0622 13.1434 -2.8549 2.8202 44.1780
#
#
#
# Elastic Compliance Matrix: (Units=1/GPa)
#
#
# Indices 1 2 3 4 5 6 
#
# 1 0.014417 -0.004419 -0.003499 0.001022 -0.003575 -0.004793
# 2 -0.004419 0.025927 -0.001295 -0.024263 0.012772 -0.015728
# 3 -0.003499 -0.001295 0.012166 -0.004893 0.002082 -0.001077
# 4 0.001022 -0.024263 -0.004893 0.064517 -0.020168 0.021691
# 5 -0.003575 0.012772 0.002082 -0.020168 0.036248 -0.010134
# 6 -0.004793 -0.015728 -0.001077 0.021691 -0.010134 0.037966
#
#
# Mechanical properties :
#
#
# Convention : Reuss Voigt Hill
#
# Bulk Modulus (GPa) = 29.33970 59.14509 44.24239
# Shear Modulus (GPa) = 22.62148 33.86938 28.24543
#
# Velocity S-wave (km/s) = 3.24432 3.96978 3.62524
# Velocity P-wave (km/s) = 5.26172 6.96649 6.17324
#
# Compressibility (1/GPa) = 0.03408351
#
# Stress axis : x y z
#
# Youngs Moduli (GPa) = 69.36043 38.57047 82.19752
#
# Poissons Ratio (x) = 0.17043 0.28764
# Poissons Ratio (y) = 0.30649 0.10644
# Poissons Ratio (z) = 0.24272 0.04995
#
# Static dielectric constant tensor:
#      x y z
#    x 4.140750 0.261490 0.077050 
#    y 0.261490 4.085110 0.085270 
#    z 0.077050 0.085270 3.972130 
# 
# 
# High freq. dielectric constant tensor:
#      x y z
#    x 1.855640 0.005560 0.006730 
#    y 0.005560 1.854960 0.014040 
#    z 0.006730 0.014040 1.836570 
# 
# From -- ./inp_files/535627.got.cif
#   From: 2010.06.25/outbox.cif.g09.slc.cpg/sg2_268_cif.got.tgz:535627.got - 2010.06.27 13:26:56.
