data_PCOD8025160
_publ_section_title
;
Structure prediction by ZEFSAII (Michael W. Deem and Ramdas Pophale) SiO2 
 PCOD8025160
Probable space group: P -1
;
_chemical_formula_sum "Si O2"
_cell_formula_units_Z 14
_cell_length_a 18.088579
_cell_length_b 8.245553
_cell_length_c 12.167401
_cell_angle_alpha 70.437409
_cell_angle_beta 30.619937
_cell_angle_gamma 50.733328
_cell_volume 605.893341
_symmetry_space_group_name_H-M "P -1"
_symmetry_group_IT_number 2
_symmetry_cell_setting 'triclinic'
loop_
_space_group_symop_operation_xyz
x,y,z
-x,-y,-z
loop_
_atom_site_type_symbol
_atom_site_label
_atom_site_fract_x
_atom_site_fract_y
_atom_site_fract_z
Si Si1 0.911918 0.403565 0.024836
Si Si2 0.047428 0.780687 0.429461
Si Si3 0.602006 0.571719 0.788199
Si Si4 0.718925 0.903208 0.221140
Si Si5 0.255299 0.535731 0.998187
Si Si6 0.557186 0.562552 0.602729
Si Si7 0.647104 0.914047 0.932210
O O1 0.861213 0.652236 0.023062
O O2 0.902937 0.324927 0.934192
O O3 0.738499 0.462752 0.310820
O O4 0.145862 0.175941 0.823039
O O5 0.192201 0.549489 0.380313
O O6 0.852731 0.827271 0.640131
O O7 0.160183 0.717771 0.182980
O O8 0.000000 0.000000 0.500000
O O9 0.658314 0.471166 0.615306
O O10 0.500000 0.500000 0.000000
O O11 0.454514 0.863504 0.904582
O O12 0.500000 0.000000 0.500000
O O13 0.653476 0.139003 0.196327
O O14 0.472227 0.444795 0.708436
O O15 0.305138 0.296675 0.014099
O O16 0.500000 0.000000 0.000000
#
# Coordination Sequence:
#
# PCOD8025160 Si02
#       7
#     2   2   2   2   2   2   2
#     4  10  23  44  70 100 137 183 230 288 352 406
#     4  12  26  46  71 101 138 188 240 283 354 420
#     4  12  23  46  72 101 137 188 233 284 351 417
#     4   9  21  45  67  96 135 184 236 281 344 416
#     4  12  25  44  68 106 145 180 233 296 351 417
#     4  11  23  43  68 101 141 182 232 281 349 427
#     4  12  25  46  68 104 143 179 235 297 351 407
#
# _framework density 23.106379
#
# number of rings (size 3 to 8) (size 9 to 14) (size 15 to 20)
#    0.000    0.857    4.286    1.714    0.000    6.286 
#    5.143    0.000    0.000    0.000    0.000    0.000 
#    0.000    0.000    0.000    0.000    0.000    0.000 
#
# Total GULP energy -173576.326694 kJ/mol
# GULP energy per Si atom -12398.309050 kJ/mol
# Density = 2.305379 g / cm^3
# Si number density = 23.106379 Si / 1000 Ang^3
#
#
#
# Elastic Constant Matrix: (Units=GPa)
#
#
# Indices 1 2 3 4 5 6 
#
# 1 187.1114 37.4156 54.1187 -2.5538 -10.8424 -24.6386
# 2 37.4156 93.4733 55.4649 -10.9864 4.8678 6.4497
# 3 54.1187 55.4649 89.3161 -1.7594 -26.8621 -7.5733
# 4 -2.5538 -10.9864 -1.7594 32.4045 2.7669 -6.5199
# 5 -10.8424 4.8678 -26.8621 2.7669 47.9964 2.0669
# 6 -24.6386 6.4497 -7.5733 -6.5199 2.0669 42.1817
#
#
#
# Elastic Compliance Matrix: (Units=1/GPa)
#
#
# Indices 1 2 3 4 5 6 
#
# 1 0.007014 -0.000812 -0.003575 0.000883 -0.000546 0.003743
# 2 -0.000812 0.024150 -0.018875 0.007071 -0.013354 -0.005809
# 3 -0.003575 -0.018875 0.030939 -0.005666 0.018552 0.004568
# 4 0.000883 0.007071 -0.005666 0.034324 -0.005840 0.004009
# 5 -0.000546 -0.013354 0.018552 -0.005840 0.032676 0.002550
# 6 0.003743 -0.005809 0.004568 0.004009 0.002550 0.028096
#
#
# Mechanical properties :
#
#
# Convention : Reuss Voigt Hill
#
# Bulk Modulus (GPa) = 64.18747 73.76656 68.97702
# Shear Modulus (GPa) = 23.93308 39.37663 31.65485
#
# Velocity S-wave (km/s) = 3.22184 4.13261 3.70531
# Velocity P-wave (km/s) = 6.45599 7.40036 6.94425
#
# Compressibility (1/GPa) = 0.01557936
#
# Stress axis : x y z
#
# Youngs Moduli (GPa) = 142.57027 41.40731 32.32200
#
# Poissons Ratio (x) = 0.03363 0.11555
# Poissons Ratio (y) = 0.11580 0.61006
# Poissons Ratio (z) = 0.50970 0.78154
#
# Static dielectric constant tensor:
#      x y z
#    x 4.486160 -0.033690 -0.314080 
#    y -0.033690 4.832980 0.081230 
#    z -0.314080 0.081230 4.211200 
# 
# 
# High freq. dielectric constant tensor:
#      x y z
#    x 1.929470 0.000040 -0.019880 
#    y 0.000040 1.916130 -0.003270 
#    z -0.019880 -0.003270 1.900900 
# 
# From -- ./inp_files/462030.got.cif
#   From: 2010.06.25/outbox.cif.g09.slc.cpg/sg2_232_cif.got.tgz:462030.got - 2010.06.27 13:26:56.
