data_PCOD8025332
_publ_section_title
;
Structure prediction by ZEFSAII (Michael W. Deem and Ramdas Pophale) SiO2 
 PCOD8025332
Probable space group: P -1
;
_chemical_formula_sum "Si O2"
_cell_formula_units_Z 16
_cell_length_a 14.882397
_cell_length_b 14.022181
_cell_length_c 15.220979
_cell_angle_alpha 29.052579
_cell_angle_beta 140.220950
_cell_angle_gamma 150.940287
_cell_volume 749.086616
_symmetry_space_group_name_H-M "P -1"
_symmetry_group_IT_number 2
_symmetry_cell_setting 'triclinic'
loop_
_space_group_symop_operation_xyz
x,y,z
-x,-y,-z
loop_
_atom_site_type_symbol
_atom_site_label
_atom_site_fract_x
_atom_site_fract_y
_atom_site_fract_z
Si Si1 0.984107 0.187001 0.935053
Si Si2 0.490118 0.107193 0.770286
Si Si3 0.685328 0.824244 0.562962
Si Si4 0.945536 0.957503 0.270507
Si Si5 0.464326 0.810854 0.549369
Si Si6 0.692871 0.639946 0.081154
Si Si7 0.793728 0.399548 0.627276
Si Si8 0.437462 0.230358 0.820212
O O1 0.025222 0.103579 0.120619
O O2 0.799208 0.935703 0.950507
O O3 0.952471 0.385210 0.774184
O O4 0.167883 0.353257 0.881268
O O5 0.326909 0.029158 0.644391
O O6 0.686388 0.335076 0.689763
O O7 0.481632 0.224467 0.757805
O O8 0.478624 0.863428 0.978279
O O9 0.652073 0.902836 0.568877
O O10 0.523060 0.516693 0.678827
O O11 0.882283 0.893264 0.652220
O O12 0.881215 0.677988 0.434849
O O13 0.784600 0.955876 0.185035
O O14 0.349837 0.523375 0.732831
O O15 0.344817 0.804600 0.388094
O O16 0.500000 0.000000 0.500000
O O17 0.500000 0.500000 0.000000
#
# Coordination Sequence:
#
# PCOD8025332 Si02
#       8
#     2   2   2   2   2   2   2   2
#     4  11  24  42  64  92 130 173 219 275 332 378
#     4  10  23  44  73  99 130 178 213 273 341 392
#     4  11  25  43  68  99 135 173 222 272 331 393
#     4  12  24  42  68  97 134 176 217 274 329 396
#     4  11  23  42  63  95 130 175 221 268 323 388
#     4  11  23  42  64  91 126 174 226 276 324 386
#     4  11  23  42  67  94 136 169 219 274 329 389
#     4  11  22  47  71  96 137 170 219 274 332 402
#
# _framework density 21.359345000000001
#
# number of rings (size 3 to 8) (size 9 to 14) (size 15 to 20)
#    0.000    1.000    5.000    1.875    1.750    3.000 
#    2.250    1.250    0.000    0.000    0.000    0.000 
#    0.000    0.000    0.000    0.000    0.000    0.000 
#
# Total GULP energy -198396.099774 kJ/mol
# GULP energy per Si atom -12399.756236 kJ/mol
# Density = 2.131073 g / cm^3
# Si number density = 21.359345 Si / 1000 Ang^3
#
#
#
# Elastic Constant Matrix: (Units=GPa)
#
#
# Indices 1 2 3 4 5 6 
#
# 1 114.3862 36.1491 52.2912 13.5336 -7.1631 0.7815
# 2 36.1491 89.4876 30.4206 23.4714 -0.2157 17.4626
# 3 52.2912 30.4206 128.3845 20.9541 -4.6869 6.2174
# 4 13.5336 23.4714 20.9541 28.7581 -0.2782 7.8755
# 5 -7.1631 -0.2157 -4.6869 -0.2782 35.0982 2.6915
# 6 0.7815 17.4626 6.2174 7.8755 2.6915 27.6160
#
#
#
# Elastic Compliance Matrix: (Units=1/GPa)
#
#
# Indices 1 2 3 4 5 6 
#
# 1 0.011922 -0.003976 -0.003951 -0.000289 0.001650 0.002988
# 2 -0.003976 0.016947 -0.000481 -0.009486 -0.000251 -0.007766
# 3 -0.003951 -0.000481 0.010404 -0.005185 0.000578 -0.000504
# 4 -0.000289 -0.009486 -0.005185 0.048234 0.000078 -0.006589
# 5 0.001650 -0.000251 0.000578 0.000078 0.029125 -0.002879
# 6 0.002988 -0.007766 -0.000504 -0.006589 -0.002879 0.043310
#
#
# Mechanical properties :
#
#
# Convention : Reuss Voigt Hill
#
# Bulk Modulus (GPa) = 44.52963 63.33113 53.93038
# Shear Modulus (GPa) = 27.13773 32.52097 29.82935
#
# Velocity S-wave (km/s) = 3.56832 3.90624 3.74110
# Velocity P-wave (km/s) = 6.15388 7.07528 6.63061
#
# Compressibility (1/GPa) = 0.02245696
#
# Stress axis : x y z
#
# Youngs Moduli (GPa) = 83.87702 59.00627 96.11544
#
# Poissons Ratio (x) = 0.23463 0.37976
# Poissons Ratio (y) = 0.33352 0.04623
# Poissons Ratio (z) = 0.33141 0.02838
#
# Static dielectric constant tensor:
#      x y z
#    x 3.888060 0.199280 -0.008790 
#    y 0.199280 3.686130 0.155950 
#    z -0.008790 0.155950 4.191160 
# 
# 
# High freq. dielectric constant tensor:
#      x y z
#    x 1.843720 0.011080 -0.002010 
#    y 0.011080 1.816500 0.007910 
#    z -0.002010 0.007910 1.858150 
# 
# From -- ./inp_files/534141.got.cif
#   From: 2010.06.25/outbox.cif.g09.slc.cpg/sg2_268_cif.got.tgz:534141.got - 2010.06.27 13:26:56.
