data_PCOD8025096
_publ_section_title
;
Structure prediction by ZEFSAII (Michael W. Deem and Ramdas Pophale) SiO2 
 PCOD8025096
Probable space group: P -1
;
_chemical_formula_sum "Si O2"
_cell_formula_units_Z 16
_cell_length_a 9.316867
_cell_length_b 22.137842
_cell_length_c 13.002767
_cell_angle_alpha 26.666540
_cell_angle_beta 35.807290
_cell_angle_gamma 44.162385
_cell_volume 703.917090
_symmetry_space_group_name_H-M "P -1"
_symmetry_group_IT_number 2
_symmetry_cell_setting 'triclinic'
loop_
_space_group_symop_operation_xyz
x,y,z
-x,-y,-z
loop_
_atom_site_type_symbol
_atom_site_label
_atom_site_fract_x
_atom_site_fract_y
_atom_site_fract_z
Si Si1 0.096773 0.930001 0.704408
Si Si2 0.890208 0.785799 0.380451
Si Si3 0.423671 0.694209 0.886008
Si Si4 0.638976 0.903861 0.866653
Si Si5 0.870553 0.029420 0.880557
Si Si6 0.585638 0.610821 0.362537
Si Si7 0.114625 0.523502 0.175735
Si Si8 0.734426 0.489273 0.118980
O O1 0.215105 0.795985 0.889618
O O2 0.878157 0.884944 0.825170
O O3 0.304839 0.013886 0.394451
O O4 0.990667 0.030091 0.697913
O O5 0.598917 0.783763 0.573477
O O6 0.961029 0.634897 0.537824
O O7 0.034675 0.835070 0.323748
O O8 0.960495 0.892358 0.089471
O O9 0.314523 0.565757 0.081224
O O10 0.592516 0.631943 0.973295
O O11 0.425014 0.975348 0.946101
O O12 0.539206 0.755301 0.118921
O O13 0.500000 0.500000 0.500000
O O14 0.439782 0.604448 0.565621
O O15 0.873999 0.600826 0.229796
O O16 0.220307 0.569525 0.932346
O O17 0.000000 0.500000 0.000000
#
# Coordination Sequence:
#
# PCOD8025096 Si02
#       8
#     2   2   2   2   2   2   2   2
#     4  11  25  46  71 100 140 187 234 287 346 414
#     4  10  23  44  68  99 141 177 235 284 350 411
#     4  11  24  48  71 104 141 183 238 288 353 417
#     4  11  25  46  67 104 142 181 238 285 346 417
#     4  11  24  43  70 100 137 188 228 288 344 413
#     4  12  25  43  73 104 143 183 234 290 353 419
#     4  11  24  47  71 102 144 182 227 299 346 420
#     4  11  25  43  68 103 141 183 224 286 357 410
#
# _framework density 22.729948
#
# number of rings (size 3 to 8) (size 9 to 14) (size 15 to 20)
#    0.000    1.000    3.750    2.625    3.500    6.000 
#    0.000    0.000    0.000    0.000    0.000    0.000 
#    0.000    0.000    0.000    0.000    0.000    0.000 
#
# Total GULP energy -198337.659243 kJ/mol
# GULP energy per Si atom -12396.103703 kJ/mol
# Density = 2.267821 g / cm^3
# Si number density = 22.729948 Si / 1000 Ang^3
#
#
#
# Elastic Constant Matrix: (Units=GPa)
#
#
# Indices 1 2 3 4 5 6 
#
# 1 90.4831 39.2280 46.7935 -3.9041 2.0744 -10.8714
# 2 39.2280 130.9438 66.2570 9.2791 4.6988 -13.0782
# 3 46.7935 66.2570 109.2462 -3.9083 -5.2603 2.7026
# 4 -3.9041 9.2791 -3.9083 43.2566 -3.2031 -8.4042
# 5 2.0744 4.6988 -5.2603 -3.2031 22.3365 -4.3809
# 6 -10.8714 -13.0782 2.7026 -8.4042 -4.3809 26.2789
#
#
#
# Elastic Compliance Matrix: (Units=1/GPa)
#
#
# Indices 1 2 3 4 5 6 
#
# 1 0.015720 -0.000917 -0.006319 0.002390 -0.000981 0.007297
# 2 -0.000917 0.012652 -0.007689 -0.002760 -0.003764 0.005198
# 3 -0.006319 -0.007689 0.016998 0.001672 0.005113 -0.006802
# 4 0.002390 -0.002760 0.001672 0.026267 0.006262 0.008887
# 5 -0.000981 -0.003764 0.005113 0.006262 0.049206 0.007401
# 6 0.007297 0.005198 -0.006802 0.008887 0.007401 0.048434
#
#
# Mechanical properties :
#
#
# Convention : Reuss Voigt Hill
#
# Bulk Modulus (GPa) = 64.43775 70.58113 67.50944
# Shear Modulus (GPa) = 24.47358 30.26737 27.37048
#
# Velocity S-wave (km/s) = 3.28489 3.65308 3.47386
# Velocity P-wave (km/s) = 6.54203 6.99377 6.77166
#
# Compressibility (1/GPa) = 0.01551885
#
# Stress axis : x y z
#
# Youngs Moduli (GPa) = 63.61407 79.03863 58.83014
#
# Poissons Ratio (x) = 0.07248 0.37177
# Poissons Ratio (y) = 0.05834 0.45235
# Poissons Ratio (z) = 0.40200 0.60774
#
# Static dielectric constant tensor:
#      x y z
#    x 4.004750 -0.218920 -0.089990 
#    y -0.218920 4.113490 0.149170 
#    z -0.089990 0.149170 4.185330 
# 
# 
# High freq. dielectric constant tensor:
#      x y z
#    x 1.889440 -0.022840 -0.009270 
#    y -0.022840 1.902350 0.003890 
#    z -0.009270 0.003890 1.899220 
# 
# From -- ./inp_files/405226.got.cif
#   From: 2010.06.25/outbox.cif.g09.slc.cpg/sg2_203_cif.got.tgz:405226.got - 2010.06.27 13:26:56.
