data_PCOD8025379
_publ_section_title
;
Structure prediction by ZEFSAII (Michael W. Deem and Ramdas Pophale) SiO2 
 PCOD8025379
Probable space group: P -1
;
_chemical_formula_sum "Si O2"
_cell_formula_units_Z 14
_cell_length_a 7.162342
_cell_length_b 11.044052
_cell_length_c 12.946386
_cell_angle_alpha 51.562616
_cell_angle_beta 125.593152
_cell_angle_gamma 108.558620
_cell_volume 650.755253
_symmetry_space_group_name_H-M "P -1"
_symmetry_group_IT_number 2
_symmetry_cell_setting 'triclinic'
loop_
_space_group_symop_operation_xyz
x,y,z
-x,-y,-z
loop_
_atom_site_type_symbol
_atom_site_label
_atom_site_fract_x
_atom_site_fract_y
_atom_site_fract_z
Si Si1 0.797431 0.169983 0.688583
Si Si2 0.829455 0.605724 0.320275
Si Si3 0.677214 0.413867 0.181269
Si Si4 0.487374 0.161710 0.788213
Si Si5 0.159587 0.927958 0.877036
Si Si6 0.507018 0.185017 0.396595
Si Si7 0.010961 0.346045 0.152258
O O1 0.592045 0.179205 0.699668
O O2 0.684393 0.241312 0.509580
O O3 0.015930 0.261852 0.746657
O O4 0.901864 0.994469 0.791337
O O5 0.712319 0.522441 0.232724
O O6 0.621477 0.675595 0.288518
O O7 0.000000 0.500000 0.500000
O O8 0.590499 0.248536 0.279202
O O9 0.916848 0.381438 0.217452
O O10 0.500000 0.500000 0.000000
O O11 0.283050 0.044945 0.778695
O O12 0.695041 0.094172 0.960999
O O13 0.148359 0.768551 0.897650
O O14 0.261180 0.269357 0.294540
O O15 0.500000 0.000000 0.500000
O O16 0.000000 0.500000 0.000000
#
# Coordination Sequence:
#
# PCOD8025379 Si02
#       7
#     2   2   2   2   2   2   2
#     4  11  24  43  71  98 137 185 233 296 356 419
#     4  11  25  45  67 104 140 178 239 289 353 424
#     4  12  27  48  74 104 148 192 236 302 353 423
#     4  10  24  42  71  96 137 185 230 296 352 420
#     4  10  23  45  64 104 136 176 245 286 353 428
#     4  12  27  47  69 108 145 186 244 293 357 431
#     4  12  27  44  73 103 140 189 239 287 360 425
#
# _framework density 21.513466000000001
#
# number of rings (size 3 to 8) (size 9 to 14) (size 15 to 20)
#    0.000    0.857    4.286    1.286    6.000    1.143 
#    0.000    0.000    0.000    0.000    0.000    0.000 
#    0.000    0.000    0.000    0.000    0.000    0.000 
#
# Total GULP energy -173628.506016 kJ/mol
# GULP energy per Si atom -12402.036144 kJ/mol
# Density = 2.146450 g / cm^3
# Si number density = 21.513466 Si / 1000 Ang^3
#
#
#
# Elastic Constant Matrix: (Units=GPa)
#
#
# Indices 1 2 3 4 5 6 
#
# 1 167.7604 39.7774 65.6461 -11.5399 -2.9439 -25.4311
# 2 39.7774 112.4399 44.7063 -5.2006 -3.1038 -6.4545
# 3 65.6461 44.7063 145.1653 -8.9534 5.6707 -8.8066
# 4 -11.5399 -5.2006 -8.9534 35.6312 1.4266 4.2828
# 5 -2.9439 -3.1038 5.6707 1.4266 45.2617 -1.3307
# 6 -25.4311 -6.4545 -8.8066 4.2828 -1.3307 33.6317
#
#
#
# Elastic Compliance Matrix: (Units=1/GPa)
#
#
# Indices 1 2 3 4 5 6 
#
# 1 0.008335 -0.001384 -0.003000 0.001087 0.000940 0.005150
# 2 -0.001384 0.010475 -0.002599 0.000357 0.000951 0.000276
# 3 -0.003000 -0.002599 0.009139 0.001077 -0.001569 -0.000574
# 4 0.001087 0.000357 0.001077 0.029091 -0.001032 -0.002573
# 5 0.000940 0.000951 -0.001569 -0.001032 0.022493 0.001504
# 6 0.005150 0.000276 -0.000574 -0.002573 0.001504 0.033918
#
#
# Mechanical properties :
#
#
# Convention : Reuss Voigt Hill
#
# Bulk Modulus (GPa) = 71.51434 80.62502 76.06968
# Shear Modulus (GPa) = 37.85659 41.25398 39.55528
#
# Velocity S-wave (km/s) = 4.19939 4.38378 4.29258
# Velocity P-wave (km/s) = 7.53837 7.94866 7.74623
#
# Compressibility (1/GPa) = 0.01398321
#
# Stress axis : x y z
#
# Youngs Moduli (GPa) = 119.97527 95.46577 109.42473
#
# Poissons Ratio (x) = 0.13211 0.32831
# Poissons Ratio (y) = 0.16603 0.28435
# Poissons Ratio (z) = 0.35996 0.24808
#
# Static dielectric constant tensor:
#      x y z
#    x 4.016290 0.140940 -0.070700 
#    y 0.140940 4.000830 0.056750 
#    z -0.070700 0.056750 3.762290 
# 
# 
# High freq. dielectric constant tensor:
#      x y z
#    x 1.855050 0.003150 0.011780 
#    y 0.003150 1.847500 -0.005300 
#    z 0.011780 -0.005300 1.853070 
# 
# From -- ./inp_files/363744.got.cif
#   From: 2010.06.25/outbox.cif.g09.slc.cpg/sg2_182_cif.got.tgz:363744.got - 2010.06.27 13:26:56.
