data_PCOD8025568
_publ_section_title
;
Structure prediction by ZEFSAII (Michael W. Deem and Ramdas Pophale) SiO2 
 PCOD8025568
Probable space group: P -1
;
_chemical_formula_sum "Si O2"
_cell_formula_units_Z 14
_cell_length_a 20.297674
_cell_length_b 9.205645
_cell_length_c 11.920453
_cell_angle_alpha 38.005117
_cell_angle_beta 151.775191
_cell_angle_gamma 140.628940
_cell_volume 624.419015
_symmetry_space_group_name_H-M "P -1"
_symmetry_group_IT_number 2
_symmetry_cell_setting 'triclinic'
loop_
_space_group_symop_operation_xyz
x,y,z
-x,-y,-z
loop_
_atom_site_type_symbol
_atom_site_label
_atom_site_fract_x
_atom_site_fract_y
_atom_site_fract_z
Si Si1 0.089803 0.179494 0.116431
Si Si2 0.672056 0.667358 0.961615
Si Si3 0.608298 0.724460 0.585501
Si Si4 0.011087 0.667345 0.715825
Si Si5 0.249725 0.123817 0.820977
Si Si6 0.002410 0.757142 0.398138
Si Si7 0.511421 0.114172 0.070639
O O1 0.239381 0.314174 0.200460
O O2 0.013729 0.388746 0.915512
O O3 0.108717 0.002825 0.354300
O O4 0.000000 0.000000 0.000000
O O5 0.642690 0.777859 0.971042
O O6 0.841770 0.782067 0.129534
O O7 0.624582 0.376891 0.076593
O O8 0.591304 0.733640 0.689977
O O9 0.500000 0.500000 0.500000
O O10 0.584728 0.974015 0.354056
O O11 0.848555 0.694026 0.475142
O O12 0.058736 0.749877 0.611398
O O13 0.138646 0.864908 0.852996
O O14 0.351798 0.111354 0.876254
O O15 0.000000 0.500000 0.500000
O O16 0.500000 0.000000 0.000000
#
# Coordination Sequence:
#
# PCOD8025568 Si02
#       7
#     2   2   2   2   2   2   2
#     4  12  23  40  72 109 134 183 241 290 349 415
#     4  11  24  44  64 101 138 185 232 283 355 414
#     4  12  25  42  68 107 141 177 236 295 349 409
#     4  10  23  45  69  98 147 180 234 291 348 419
#     4  10  25  47  69 101 144 194 226 288 362 419
#     4  11  21  37  69 103 137 177 232 291 345 409
#     4  12  26  44  73  99 137 185 239 288 349 424
#
# _framework density 22.420840999999999
#
# number of rings (size 3 to 8) (size 9 to 14) (size 15 to 20)
#    0.000    0.857    4.286    2.143    6.000    0.571 
#    0.000   10.714    0.000    0.000    0.000    0.000 
#    0.000    0.000    0.000    0.000    0.000    0.000 
#
# Total GULP energy -173525.580874 kJ/mol
# GULP energy per Si atom -12394.684348 kJ/mol
# Density = 2.236981 g / cm^3
# Si number density = 22.420841 Si / 1000 Ang^3
#
#
#
# Elastic Constant Matrix: (Units=GPa)
#
#
# Indices 1 2 3 4 5 6 
#
# 1 122.0303 40.3534 43.5966 -0.5799 -3.2244 -13.0868
# 2 40.3534 139.1686 51.6421 -3.7360 -13.1767 -11.1153
# 3 43.5966 51.6421 103.4263 -18.0538 -13.3383 -8.4725
# 4 -0.5799 -3.7360 -18.0538 52.5987 -0.3278 -2.5449
# 5 -3.2244 -13.1767 -13.3383 -0.3278 49.0018 -0.0874
# 6 -13.0868 -11.1153 -8.4725 -2.5449 -0.0874 37.7855
#
#
#
# Elastic Compliance Matrix: (Units=1/GPa)
#
#
# Indices 1 2 3 4 5 6 
#
# 1 0.010218 -0.001531 -0.003660 -0.001151 -0.000739 0.002189
# 2 -0.001531 0.009255 -0.003798 -0.000592 0.001353 0.001304
# 3 -0.003660 -0.003798 0.014368 0.004694 0.002682 0.001159
# 4 -0.001151 -0.000592 0.004694 0.020667 0.001185 0.001875
# 5 -0.000739 0.001353 0.002682 0.001185 0.021462 0.000873
# 6 0.002189 0.001304 0.001159 0.001875 0.000873 0.027995
#
#
# Mechanical properties :
#
#
# Convention : Reuss Voigt Hill
#
# Bulk Modulus (GPa) = 63.03480 70.64550 66.84015
# Shear Modulus (GPa) = 39.29891 43.14608 41.22250
#
# Velocity S-wave (km/s) = 4.19117 4.39153 4.29252
# Velocity P-wave (km/s) = 7.18308 7.56910 7.37861
#
# Compressibility (1/GPa) = 0.01586425
#
# Stress axis : x y z
#
# Youngs Moduli (GPa) = 97.86526 108.04897 69.59893
#
# Poissons Ratio (x) = 0.16541 0.25471
# Poissons Ratio (y) = 0.14982 0.26433
# Poissons Ratio (z) = 0.35816 0.41036
#
# Static dielectric constant tensor:
#      x y z
#    x 4.340970 -0.459370 0.023100 
#    y -0.459370 3.899630 0.326370 
#    z 0.023100 0.326370 3.601780 
# 
# 
# High freq. dielectric constant tensor:
#      x y z
#    x 1.883270 -0.007070 -0.005210 
#    y -0.007070 1.898800 0.005410 
#    z -0.005210 0.005410 1.874610 
# 
# From -- ./inp_files/469178.got.cif
#   From: 2010.06.25/outbox.cif.g09.slc.cpg/sg2_235_cif.got.tgz:469178.got - 2010.06.27 13:26:56.
