data_PCOD8025158
_publ_section_title
;
Structure prediction by ZEFSAII (Michael W. Deem and Ramdas Pophale) SiO2 
 PCOD8025158
Probable space group: P -1
;
_chemical_formula_sum "Si O2"
_cell_formula_units_Z 12
_cell_length_a 15.978562
_cell_length_b 12.797391
_cell_length_c 6.844306
_cell_angle_alpha 50.914721
_cell_angle_beta 55.352401
_cell_angle_gamma 26.501512
_cell_volume 484.712093
_symmetry_space_group_name_H-M "P -1"
_symmetry_group_IT_number 2
_symmetry_cell_setting 'triclinic'
loop_
_space_group_symop_operation_xyz
x,y,z
-x,-y,-z
loop_
_atom_site_type_symbol
_atom_site_label
_atom_site_fract_x
_atom_site_fract_y
_atom_site_fract_z
Si Si1 0.814645 0.080868 0.484127
Si Si2 0.865000 0.105305 0.806627
Si Si3 0.475875 0.363518 0.357682
Si Si4 0.413299 0.957540 0.737117
Si Si5 0.049409 0.268085 0.995248
Si Si6 0.629748 0.731825 0.085010
O O1 0.882832 0.857943 0.731663
O O2 0.967835 0.978146 0.255485
O O3 0.804030 0.193483 0.552434
O O4 0.621003 0.284302 0.389498
O O5 0.672134 0.365601 0.863829
O O6 0.931068 0.877662 0.015684
O O7 0.584700 0.161227 0.285818
O O8 0.356638 0.389292 0.615010
O O9 0.500000 0.000000 0.500000
O O10 0.534981 0.766932 0.981579
O O11 0.194557 0.221897 0.782113
O O12 0.836657 0.556846 0.954946
O O13 0.500000 0.000000 0.000000
#
# Coordination Sequence:
#
# PCOD8025158 Si02
#       6
#     2   2   2   2   2   2
#     4   9  18  37  70 101 132 174 218 271 342 404
#     4   9  19  40  72 106 133 176 222 275 345 418
#     4  12  22  42  73 102 139 178 222 281 344 403
#     4  12  28  46  63 105 139 181 236 280 332 405
#     4  10  23  44  70 100 135 178 229 280 342 402
#     4  12  24  47  70  93 135 187 232 280 334 403
#
# _framework density 24.756965000000001
#
# number of rings (size 3 to 8) (size 9 to 14) (size 15 to 20)
#    1.000    0.333    5.000    0.500    0.000    4.667 
#    3.000    1.667    0.000    0.000    0.000    0.000 
#    0.000    0.000    0.000    0.000    0.000    0.000 
#
# Total GULP energy -148723.691480 kJ/mol
# GULP energy per Si atom -12393.640957 kJ/mol
# Density = 2.470062 g / cm^3
# Si number density = 24.756965 Si / 1000 Ang^3
#
#
#
# Elastic Constant Matrix: (Units=GPa)
#
#
# Indices 1 2 3 4 5 6 
#
# 1 50.0146 38.8755 13.4552 11.0182 -23.9164 -13.3941
# 2 38.8755 204.7005 33.2179 22.2734 -27.6951 -21.7789
# 3 13.4552 33.2179 54.3386 17.1496 -15.0146 -4.4962
# 4 11.0182 22.2734 17.1496 39.8455 -3.6980 -15.4813
# 5 -23.9164 -27.6951 -15.0146 -3.6980 27.7701 7.1709
# 6 -13.3941 -21.7789 -4.4962 -15.4813 7.1709 42.7140
#
#
#
# Elastic Compliance Matrix: (Units=1/GPa)
#
#
# Indices 1 2 3 4 5 6 
#
# 1 0.037730 -0.002538 0.002571 -0.005942 0.029611 0.003683
# 2 -0.002538 0.006311 -0.002057 -0.001182 0.002487 0.001359
# 3 0.002571 -0.002057 0.025947 -0.010922 0.013712 -0.003772
# 4 -0.005942 -0.001182 -0.010922 0.035397 -0.010314 0.010945
# 5 0.029611 0.002487 0.013712 -0.010314 0.070977 -0.003657
# 6 0.003683 0.001359 -0.003772 0.010945 -0.003657 0.029444
#
#
# Mechanical properties :
#
#
# Convention : Reuss Voigt Hill
#
# Bulk Modulus (GPa) = 15.16516 53.35012 34.25764
# Shear Modulus (GPa) = 21.56719 36.96626 29.26673
#
# Velocity S-wave (km/s) = 2.95474 3.86834 3.44199
# Velocity P-wave (km/s) = 4.21658 6.44581 5.44647
#
# Compressibility (1/GPa) = 0.06594061
#
# Stress axis : x y z
#
# Youngs Moduli (GPa) = 26.50394 158.46141 38.53942
#
# Poissons Ratio (x) = 0.40219 -0.09908
# Poissons Ratio (y) = 0.06727 0.07926
# Poissons Ratio (z) = -0.06814 0.32590
#
# Static dielectric constant tensor:
#      x y z
#    x 4.240690 -0.083540 0.115860 
#    y -0.083540 4.315140 0.279490 
#    z 0.115860 0.279490 4.394820 
# 
# 
# High freq. dielectric constant tensor:
#      x y z
#    x 1.974680 -0.013520 -0.005610 
#    y -0.013520 1.987090 0.022550 
#    z -0.005610 0.022550 1.971350 
# 
# From -- ./inp_files/334098.got.cif
#   From: 2010.06.25/outbox.cif.g09.slc.cpg/sg2_168_cif.got.tgz:334098.got - 2010.06.27 13:26:56.
