data_PCOD8025591
_publ_section_title
;
Structure prediction by ZEFSAII (Michael W. Deem and Ramdas Pophale) SiO2 
 PCOD8025591
Probable space group: P -1
;
_chemical_formula_sum "Si O2"
_cell_formula_units_Z 10
_cell_length_a 13.269729
_cell_length_b 4.960081
_cell_length_c 7.298116
_cell_angle_alpha 55.501182
_cell_angle_beta 57.029611
_cell_angle_gamma 63.485390
_cell_volume 325.421121
_symmetry_space_group_name_H-M "P -1"
_symmetry_group_IT_number 2
_symmetry_cell_setting 'triclinic'
loop_
_space_group_symop_operation_xyz
x,y,z
-x,-y,-z
loop_
_atom_site_type_symbol
_atom_site_label
_atom_site_fract_x
_atom_site_fract_y
_atom_site_fract_z
Si Si1 0.687853 0.560265 0.212798
Si Si2 0.104778 0.833344 0.624620
Si Si3 0.273622 0.717387 0.150837
Si Si4 0.957454 0.346294 0.799844
Si Si5 0.474825 0.377497 0.325384
O O1 0.825674 0.341007 0.192925
O O2 0.610349 0.488043 0.134628
O O3 0.608590 0.428377 0.503457
O O4 0.686303 0.949163 0.089814
O O5 0.193822 0.812923 0.374536
O O6 0.992278 0.651496 0.761197
O O7 0.043914 0.228089 0.574363
O O8 0.397973 0.454029 0.183648
O O9 0.190008 0.573474 0.134613
O O10 0.000000 0.000000 0.000000
O O11 0.500000 0.000000 0.500000
#
# Coordination Sequence:
#
# PCOD8025591 Si02
#       5
#     2   2   2   2   2
#     4  10  23  45  70 103 141 190 238 298 362 425
#     4  11  26  47  73 107 153 185 241 298 357 434
#     4  11  24  45  74 104 144 194 239 293 365 431
#     4  12  25  48  72 110 149 192 236 297 361 432
#     4  10  24  46  69 103 142 183 245 305 355 425
#
# _framework density 30.729413000000001
#
# number of rings (size 3 to 8) (size 9 to 14) (size 15 to 20)
#    0.000    1.200    2.000    2.400    5.600    0.800 
#   10.800    0.000    0.000    0.000    0.000    0.000 
#    0.000    0.000    0.000    0.000    0.000    0.000 
#
# Total GULP energy -124042.759773 kJ/mol
# GULP energy per Si atom -12404.275977 kJ/mol
# Density = 3.065947 g / cm^3
# Si number density = 30.729413 Si / 1000 Ang^3
#
#
#
# Elastic Constant Matrix: (Units=GPa)
#
#
# Indices 1 2 3 4 5 6 
#
# 1 349.2251 103.3068 97.7913 -4.5454 2.0665 -22.1736
# 2 103.3068 148.6815 27.7984 -30.1186 -9.8353 -6.5487
# 3 97.7913 27.7984 105.6576 8.1993 -16.3481 -6.4304
# 4 -4.5454 -30.1186 8.1993 49.0666 1.4119 -2.6873
# 5 2.0665 -9.8353 -16.3481 1.4119 71.5106 -2.1303
# 6 -22.1736 -6.5487 -6.4304 -2.6873 -2.1303 68.7462
#
#
#
# Elastic Compliance Matrix: (Units=1/GPa)
#
#
# Indices 1 2 3 4 5 6 
#
# 1 0.004823 -0.002793 -0.003846 -0.000538 -0.001366 0.000866
# 2 -0.002793 0.010018 -0.000293 0.005919 0.001284 0.000297
# 3 -0.003846 -0.000293 0.013840 -0.002943 0.003293 0.000013
# 4 -0.000538 0.005919 -0.002943 0.024523 -0.000296 0.001064
# 5 -0.001366 0.001284 0.003293 -0.000296 0.014972 0.000442
# 6 0.000866 0.000297 0.000013 0.001064 0.000442 0.014911
#
#
# Mechanical properties :
#
#
# Convention : Reuss Voigt Hill
#
# Bulk Modulus (GPa) = 67.49146 117.92858 92.71002
# Shear Modulus (GPa) = 49.07302 62.84254 55.95778
#
# Velocity S-wave (km/s) = 4.00051 4.52711 4.27193
# Velocity P-wave (km/s) = 6.58404 8.11086 7.38700
#
# Compressibility (1/GPa) = 0.01481669
#
# Stress axis : x y z
#
# Youngs Moduli (GPa) = 207.35195 99.81603 72.25545
#
# Poissons Ratio (x) = 0.27881 0.27787
# Poissons Ratio (y) = 0.57917 0.02119
# Poissons Ratio (z) = 0.79741 0.02927
#
# Static dielectric constant tensor:
#      x y z
#    x 6.842570 -0.286740 0.416130 
#    y -0.286740 6.314600 1.213840 
#    z 0.416130 1.213840 7.395340 
# 
# 
# High freq. dielectric constant tensor:
#      x y z
#    x 2.299390 -0.014630 0.021370 
#    y -0.014630 2.275340 0.050050 
#    z 0.021370 0.050050 2.324560 
# 
# From -- ./inp_files/19410.got.cif
#   From: 2010.06.25/outbox.cif.g09.slc.cpg/sg2_10_cif.got.tgz:19410.got - 2010.06.27 13:26:56.
