data_PCOD8025960
_publ_section_title
;
Structure prediction by ZEFSAII (Michael W. Deem and Ramdas Pophale) SiO2 
 PCOD8025960
Probable space group: P -1
;
_chemical_formula_sum "Si O2"
_cell_formula_units_Z 16
_cell_length_a 5.181745
_cell_length_b 15.491385
_cell_length_c 14.239916
_cell_angle_alpha 135.104815
_cell_angle_beta 125.372508
_cell_angle_gamma 60.083868
_cell_volume 650.013937
_symmetry_space_group_name_H-M "P -1"
_symmetry_group_IT_number 2
_symmetry_cell_setting 'triclinic'
loop_
_space_group_symop_operation_xyz
x,y,z
-x,-y,-z
loop_
_atom_site_type_symbol
_atom_site_label
_atom_site_fract_x
_atom_site_fract_y
_atom_site_fract_z
Si Si1 0.359043 0.007306 0.315303
Si Si2 0.205156 0.815740 0.384162
Si Si3 0.390801 0.979282 0.083164
Si Si4 0.813763 0.419251 0.465570
Si Si5 0.131778 0.326106 0.649803
Si Si6 0.213360 0.845729 0.776558
Si Si7 0.127830 0.532380 0.951132
Si Si8 0.976277 0.816443 0.145380
O O1 0.661399 0.056572 0.464550
O O2 0.057290 0.121522 0.336679
O O3 0.375726 0.971645 0.183872
O O4 0.292820 0.884804 0.260555
O O5 0.064555 0.774014 0.420760
O O6 0.911088 0.831888 0.257830
O O7 0.484937 0.719482 0.315821
O O8 0.721896 0.881798 0.066679
O O9 0.457885 0.110582 0.156571
O O10 0.122961 0.921231 0.916923
O O11 0.500000 0.500000 0.500000
O O12 0.030440 0.362281 0.551711
O O13 0.726408 0.299592 0.298983
O O14 0.000000 0.500000 0.500000
O O15 0.012803 0.447615 0.780825
O O16 0.500000 0.500000 0.000000
O O17 0.025149 0.675235 0.014476
O O18 0.000000 0.500000 0.000000
#
# Coordination Sequence:
#
# PCOD8025960 Si02
#       8
#     2   2   2   2   2   2   2   2
#     4  11  24  43  71 100 139 186 234 298 351 422
#     4  12  25  45  75 101 148 184 237 284 359 431
#     4  10  24  43  73  96 142 182 237 300 350 420
#     4  12  28  46  74 107 139 183 241 295 349 425
#     4  12  25  48  72 103 142 196 228 290 363 420
#     4  10  23  47  67 102 137 186 237 291 368 412
#     4  12  25  46  71  98 144 188 232 286 347 424
#     4  11  26  42  65 111 131 184 239 286 349 423
#
# _framework density 24.614856
#
# number of rings (size 3 to 8) (size 9 to 14) (size 15 to 20)
#    0.000    0.750    3.750    2.250    8.750    1.500 
#    0.000    0.000    0.000    0.000    0.000    0.000 
#    0.000    0.000    0.000    0.000    0.000    0.000 
#
# Total GULP energy -198267.913766 kJ/mol
# GULP energy per Si atom -12391.744610 kJ/mol
# Density = 2.455883 g / cm^3
# Si number density = 24.614856 Si / 1000 Ang^3
#
#
#
# Elastic Constant Matrix: (Units=GPa)
#
#
# Indices 1 2 3 4 5 6 
#
# 1 95.2575 10.2771 6.3397 12.2245 -2.3319 35.9747
# 2 10.2771 80.6448 26.3447 8.8053 9.3732 35.4901
# 3 6.3397 26.3447 98.6287 10.4570 8.6855 17.4560
# 4 12.2245 8.8053 10.4570 55.4122 7.5124 9.3181
# 5 -2.3319 9.3732 8.6855 7.5124 42.6521 -2.7412
# 6 35.9747 35.4901 17.4560 9.3181 -2.7412 37.2881
#
#
#
# Elastic Compliance Matrix: (Units=1/GPa)
#
#
# Indices 1 2 3 4 5 6 
#
# 1 0.021447 0.011540 0.001712 -0.000928 -0.003638 -0.032512
# 2 0.011540 0.029574 -0.000971 0.000733 -0.008346 -0.039623
# 3 0.001712 -0.000971 0.011682 -0.001096 -0.002270 -0.006089
# 4 -0.000928 0.000733 -0.001096 0.019597 -0.003727 -0.004460
# 5 -0.003638 -0.008346 -0.002270 -0.003727 0.027192 0.015447
# 6 -0.032512 -0.039623 -0.006089 -0.004460 0.015447 0.100999
#
#
# Mechanical properties :
#
#
# Convention : Reuss Voigt Hill
#
# Bulk Modulus (GPa) = 11.45933 40.05046 25.75489
# Shear Modulus (GPa) = 23.25371 42.50845 32.88108
#
# Velocity S-wave (km/s) = 3.07694 4.16016 3.65886
# Velocity P-wave (km/s) = 4.15800 6.27551 5.32311
#
# Compressibility (1/GPa) = 0.08726511
#
# Stress axis : x y z
#
# Youngs Moduli (GPa) = 46.62550 33.81316 85.59987
#
# Poissons Ratio (x) = -0.39019 -0.14655
# Poissons Ratio (y) = -0.53805 0.08314
# Poissons Ratio (z) = -0.07982 0.03284
#
# Static dielectric constant tensor:
#      x y z
#    x 5.048790 -1.074920 0.184640 
#    y -1.074920 6.910210 -0.357050 
#    z 0.184640 -0.357050 3.953280 
# 
# 
# High freq. dielectric constant tensor:
#      x y z
#    x 1.988260 0.000440 -0.008000 
#    y 0.000440 1.985820 -0.002000 
#    z -0.008000 -0.002000 1.994570 
# 
# From -- ./inp_files/81424.got.cif
#   From: 2010.06.25/outbox.cif.g09.slc.cpg/sg2_41_cif.got.tgz:81424.got - 2010.06.27 13:26:56.
