data_PCOD8025099
_publ_section_title
;
Structure prediction by ZEFSAII (Michael W. Deem and Ramdas Pophale) SiO2 
 PCOD8025099
Probable space group: P -1
;
_chemical_formula_sum "Si O2"
_cell_formula_units_Z 16
_cell_length_a 14.688758
_cell_length_b 14.668713
_cell_length_c 9.770392
_cell_angle_alpha 133.430387
_cell_angle_beta 29.946190
_cell_angle_gamma 135.701923
_cell_volume 720.114882
_symmetry_space_group_name_H-M "P -1"
_symmetry_group_IT_number 2
_symmetry_cell_setting 'triclinic'
loop_
_space_group_symop_operation_xyz
x,y,z
-x,-y,-z
loop_
_atom_site_type_symbol
_atom_site_label
_atom_site_fract_x
_atom_site_fract_y
_atom_site_fract_z
Si Si1 0.609937 0.203344 0.532916
Si Si2 0.222982 0.027729 0.938061
Si Si3 0.496150 0.460531 0.309737
Si Si4 0.809431 0.823008 0.611782
Si Si5 0.799892 0.934757 0.446043
Si Si6 0.830970 0.215148 0.745035
Si Si7 0.579375 0.285645 0.372109
Si Si8 0.179052 0.607165 0.309160
O O1 0.373870 0.152806 0.790457
O O2 0.681522 0.254266 0.340592
O O3 0.685678 0.311973 0.662884
O O4 0.704578 0.091538 0.321448
O O5 0.243931 0.069112 0.113930
O O6 0.995829 0.988139 0.152731
O O7 0.500000 0.500000 0.500000
O O8 0.375094 0.307253 0.290579
O O9 0.413307 0.564400 0.449865
O O10 0.711150 0.480326 0.000385
O O11 0.865009 0.889977 0.460304
O O12 0.977713 0.777228 0.412205
O O13 0.641014 0.812651 0.455456
O O14 0.719475 0.058953 0.695319
O O15 0.881031 0.298755 0.624958
O O16 0.694772 0.273824 0.073261
O O17 0.000000 0.500000 0.500000
#
# Coordination Sequence:
#
# PCOD8025099 Si02
#       8
#     2   2   2   2   2   2   2   2
#     4  11  26  45  70 101 141 181 231 288 352 412
#     4  10  23  44  68  99 143 176 221 292 354 402
#     4  12  25  47  70  99 145 183 235 289 344 416
#     4  11  22  45  72 103 138 179 233 293 345 412
#     4  11  23  41  74 105 138 175 238 287 348 411
#     4  11  25  45  73 102 136 186 234 290 345 418
#     4  12  26  42  73 102 136 190 234 281 352 419
#     4  12  29  49  71 103 145 187 232 293 347 417
#
# _framework density 22.218675999999999
#
# number of rings (size 3 to 8) (size 9 to 14) (size 15 to 20)
#    0.000    0.750    3.750    3.375    7.000    4.500 
#    0.000    0.000    0.000    0.000    0.000    0.000 
#    0.000    0.000    0.000    0.000    0.000    0.000 
#
# Total GULP energy -198337.594037 kJ/mol
# GULP energy per Si atom -12396.099627 kJ/mol
# Density = 2.216810 g / cm^3
# Si number density = 22.218676 Si / 1000 Ang^3
#
#
#
# Elastic Constant Matrix: (Units=GPa)
#
#
# Indices 1 2 3 4 5 6 
#
# 1 82.1683 22.8861 21.8528 -9.2752 18.8973 -12.8274
# 2 22.8861 110.9739 48.5421 -9.5966 6.6859 -11.7091
# 3 21.8528 48.5421 131.0368 -5.2820 0.5869 8.2237
# 4 -9.2752 -9.5966 -5.2820 36.0185 -0.0869 1.9601
# 5 18.8973 6.6859 0.5869 -0.0869 27.4591 1.8088
# 6 -12.8274 -11.7091 8.2237 1.9601 1.8088 32.1160
#
#
#
# Elastic Compliance Matrix: (Units=1/GPa)
#
#
# Indices 1 2 3 4 5 6 
#
# 1 0.017664 -0.000343 -0.003137 0.003519 -0.012537 0.008225
# 2 -0.000343 0.012060 -0.004655 0.002136 -0.002955 0.005488
# 3 -0.003137 -0.004655 0.010215 -0.000229 0.003452 -0.005746
# 4 0.003519 0.002136 -0.000229 0.029164 -0.002886 0.000626
# 5 -0.012537 -0.002955 0.003452 -0.002886 0.046301 -0.009400
# 6 0.008225 0.005488 -0.005746 0.000626 -0.009400 0.038386
#
#
# Mechanical properties :
#
#
# Convention : Reuss Voigt Hill
#
# Bulk Modulus (GPa) = 42.25034 56.74900 49.49967
# Shear Modulus (GPa) = 28.09747 34.51192 31.30469
#
# Velocity S-wave (km/s) = 3.55996 3.94545 3.75765
# Velocity P-wave (km/s) = 5.99623 6.80823 6.41509
#
# Compressibility (1/GPa) = 0.02366845
#
# Stress axis : x y z
#
# Youngs Moduli (GPa) = 56.61086 82.91757 97.89440
#
# Poissons Ratio (x) = 0.02847 0.30708
# Poissons Ratio (y) = 0.01944 0.45574
# Poissons Ratio (z) = 0.17758 0.38602
#
# Static dielectric constant tensor:
#      x y z
#    x 4.010720 -0.277280 -0.051640 
#    y -0.277280 3.725060 -0.146160 
#    z -0.051640 -0.146160 4.163360 
# 
# 
# High freq. dielectric constant tensor:
#      x y z
#    x 1.866920 0.000900 0.006740 
#    y 0.000900 1.883530 -0.001000 
#    z 0.006740 -0.001000 1.885300 
# 
# From -- ./inp_files/315791.got.cif
#   From: 2010.06.25/outbox.cif.g09.slc.cpg/sg2_158_cif.got.tgz:315791.got - 2010.06.27 13:26:56.
