data_PCOD8025193
_publ_section_title
;
Structure prediction by ZEFSAII (Michael W. Deem and Ramdas Pophale) SiO2 
 PCOD8025193
Probable space group: P -1
;
_chemical_formula_sum "Si O2"
_cell_formula_units_Z 14
_cell_length_a 19.357806
_cell_length_b 8.339935
_cell_length_c 8.190015
_cell_angle_alpha 65.639527
_cell_angle_beta 102.252135
_cell_angle_gamma 49.498891
_cell_volume 660.220044
_symmetry_space_group_name_H-M "P -1"
_symmetry_group_IT_number 2
_symmetry_cell_setting 'triclinic'
loop_
_space_group_symop_operation_xyz
x,y,z
-x,-y,-z
loop_
_atom_site_type_symbol
_atom_site_label
_atom_site_fract_x
_atom_site_fract_y
_atom_site_fract_z
Si Si1 0.006172 0.798040 0.506104
Si Si2 0.764088 0.322660 0.742947
Si Si3 0.171575 0.446783 0.431233
Si Si4 0.400821 0.790272 0.944413
Si Si5 0.275826 0.698134 0.931588
Si Si6 0.411249 0.347160 0.799545
Si Si7 0.975597 0.592235 0.132891
O O1 0.111881 0.611744 0.504748
O O2 0.052657 0.539396 0.747445
O O3 0.000000 0.000000 0.500000
O O4 0.873585 0.016346 0.272076
O O5 0.838864 0.354063 0.765153
O O6 0.683582 0.491018 0.802444
O O7 0.682680 0.469090 0.476319
O O8 0.860542 0.961434 0.948663
O O9 0.104729 0.415248 0.333012
O O10 0.319895 0.102547 0.674761
O O11 0.500000 0.500000 0.000000
O O12 0.305562 0.837966 0.939718
O O13 0.490111 0.696260 0.165485
O O14 0.339528 0.509412 0.871823
O O15 0.500000 0.000000 0.000000
O O16 0.000000 0.500000 0.000000
#
# Coordination Sequence:
#
# PCOD8025193 Si02
#       7
#     2   2   2   2   2   2   2
#     4  12  25  43  71 102 143 187 226 288 358 419
#     4  12  26  44  72 106 138 183 238 288 348 422
#     4  12  23  45  69 102 141 183 229 286 360 411
#     4  10  23  44  70  93 136 190 226 283 348 409
#     4  11  24  46  69 100 139 182 235 283 353 414
#     4  11  24  47  70  99 139 183 235 290 345 416
#     4  12  25  41  67 105 143 179 234 291 345 419
#
# _framework density 21.205051999999998
#
# number of rings (size 3 to 8) (size 9 to 14) (size 15 to 20)
#    0.000    0.571    4.286    4.286    4.000    1.143 
#    0.000    0.000    0.000    0.000    0.000    0.000 
#    0.000    0.000    0.000    0.000    0.000    0.000 
#
# Total GULP energy -173459.053767 kJ/mol
# GULP energy per Si atom -12389.932412 kJ/mol
# Density = 2.115679 g / cm^3
# Si number density = 21.205052 Si / 1000 Ang^3
#
#
#
# Elastic Constant Matrix: (Units=GPa)
#
#
# Indices 1 2 3 4 5 6 
#
# 1 153.6933 36.6427 50.3149 4.3496 -15.7908 9.6028
# 2 36.6427 111.2874 52.4960 8.2085 -13.4197 -7.4469
# 3 50.3149 52.4960 102.8531 -1.7388 -1.0662 -11.0799
# 4 4.3496 8.2085 -1.7388 43.6871 -0.6515 -7.9638
# 5 -15.7908 -13.4197 -1.0662 -0.6515 44.6267 3.8401
# 6 9.6028 -7.4469 -11.0799 -7.9638 3.8401 29.6577
#
#
#
# Elastic Compliance Matrix: (Units=1/GPa)
#
#
# Indices 1 2 3 4 5 6 
#
# 1 0.008940 -0.000559 -0.004707 -0.001972 0.003349 -0.005757
# 2 -0.000559 0.012705 -0.006227 -0.002543 0.003444 -0.000084
# 3 -0.004707 -0.006227 0.016021 0.003567 -0.003739 0.007388
# 4 -0.001972 -0.002543 0.003567 0.025198 -0.001726 0.008322
# 5 0.003349 0.003444 -0.003739 -0.001726 0.024972 -0.005313
# 6 -0.005757 -0.000084 0.007388 0.008322 -0.005313 0.041243
#
#
# Mechanical properties :
#
#
# Convention : Reuss Voigt Hill
#
# Bulk Modulus (GPa) = 68.12361 71.86011 69.99186
# Shear Modulus (GPa) = 31.85569 38.81966 35.33767
#
# Velocity S-wave (km/s) = 3.88012 4.28329 4.08668
# Velocity P-wave (km/s) = 7.22977 7.64355 7.43954
#
# Compressibility (1/GPa) = 0.01467920
#
# Stress axis : x y z
#
# Youngs Moduli (GPa) = 111.85287 78.71185 62.41869
#
# Poissons Ratio (x) = 0.04402 0.29379
# Poissons Ratio (y) = 0.06256 0.38869
# Poissons Ratio (z) = 0.52647 0.49015
#
# Static dielectric constant tensor:
#      x y z
#    x 3.992490 0.056940 -0.204440 
#    y 0.056940 3.834450 0.096350 
#    z -0.204440 0.096350 3.938720 
# 
# 
# High freq. dielectric constant tensor:
#      x y z
#    x 1.853710 0.009980 0.005940 
#    y 0.009980 1.837100 -0.002730 
#    z 0.005940 -0.002730 1.830140 
# 
# From -- ./inp_files/171059.got.cif
#   From: 2010.06.25/outbox.cif.g09.slc.cpg/sg2_86_cif.got.tgz:171059.got - 2010.06.27 13:26:56.
