data_PCOD8025795
_publ_section_title
;
Structure prediction by ZEFSAII (Michael W. Deem and Ramdas Pophale) SiO2 
 PCOD8025795
Probable space group: P -1
;
_chemical_formula_sum "Si O2"
_cell_formula_units_Z 14
_cell_length_a 14.304843
_cell_length_b 9.259169
_cell_length_c 11.947693
_cell_angle_alpha 124.730564
_cell_angle_beta 30.108883
_cell_angle_gamma 133.248448
_cell_volume 577.081611
_symmetry_space_group_name_H-M "P -1"
_symmetry_group_IT_number 2
_symmetry_cell_setting 'triclinic'
loop_
_space_group_symop_operation_xyz
x,y,z
-x,-y,-z
loop_
_atom_site_type_symbol
_atom_site_label
_atom_site_fract_x
_atom_site_fract_y
_atom_site_fract_z
Si Si1 0.168781 0.689276 0.469048
Si Si2 0.117862 0.357540 0.696678
Si Si3 0.356859 0.441244 0.256593
Si Si4 0.804538 0.938528 0.894524
Si Si5 0.738518 0.459267 0.140903
Si Si6 0.196757 0.311855 0.031775
Si Si7 0.471986 0.036018 0.174886
O O1 0.350816 0.639645 0.304324
O O2 0.000000 0.500000 0.500000
O O3 0.037536 0.718487 0.718273
O O4 0.245770 0.875155 0.385006
O O5 0.261831 0.397776 0.458527
O O6 0.266412 0.491571 0.702614
O O7 0.028071 0.125761 0.717435
O O8 0.932092 0.415012 0.891024
O O9 0.224461 0.250423 0.232554
O O10 0.605705 0.497856 0.026890
O O11 0.798840 0.884532 0.009332
O O12 0.629861 0.003767 0.078183
O O13 0.520012 0.263821 0.246175
O O14 0.762097 0.648084 0.125774
O O15 0.500000 0.000000 0.000000
#
# Coordination Sequence:
#
# PCOD8025795 Si02
#       7
#     2   2   2   2   2   2   2
#     4  12  23  40  68 102 138 174 213 277 345 386
#     4  10  24  44  68  97 135 183 223 274 329 401
#     4  12  23  42  69 101 138 171 221 282 329 395
#     4  11  23  39  67 103 133 167 229 276 330 393
#     4  10  23  46  68  96 137 180 226 268 337 400
#     4  12  24  41  69 100 137 174 222 279 332 397
#     4  11  24  42  70 101 135 175 221 276 334 401
#
# _framework density 24.260000000000002
#
# number of rings (size 3 to 8) (size 9 to 14) (size 15 to 20)
#    0.000    0.857    4.286    3.429    2.000    3.429 
#    0.000    2.143    0.000    0.000    0.000    0.000 
#    0.000    0.000    0.000    0.000    0.000    0.000 
#
# Total GULP energy -173503.039469 kJ/mol
# GULP energy per Si atom -12393.074248 kJ/mol
# Density = 2.420478 g / cm^3
# Si number density = 24.260000 Si / 1000 Ang^3
#
#
#
# Elastic Constant Matrix: (Units=GPa)
#
#
# Indices 1 2 3 4 5 6 
#
# 1 95.0462 45.1929 23.4622 -16.6288 21.6339 -20.3094
# 2 45.1929 106.1666 41.6022 -29.3634 30.8045 -8.6180
# 3 23.4622 41.6022 89.4638 -28.2912 21.9000 -0.6036
# 4 -16.6288 -29.3634 -28.2912 40.4151 -15.2312 1.0734
# 5 21.6339 30.8045 21.9000 -15.2312 33.5456 -10.0806
# 6 -20.3094 -8.6180 -0.6036 1.0734 -10.0806 49.2426
#
#
#
# Elastic Compliance Matrix: (Units=1/GPa)
#
#
# Indices 1 2 3 4 5 6 
#
# 1 0.014660 -0.004410 -0.000665 0.001072 -0.003099 0.004609
# 2 -0.004410 0.016005 -0.002782 0.004842 -0.008082 -0.000812
# 3 -0.000665 -0.002782 0.016078 0.007217 -0.004745 -0.001693
# 4 0.001072 0.004842 0.007217 0.036462 0.007333 0.002084
# 5 -0.003099 -0.008082 -0.004745 0.007333 0.047719 0.006858
# 6 0.004609 -0.000812 -0.001693 0.002084 0.006858 0.023404
#
#
# Mechanical properties :
#
#
# Convention : Reuss Voigt Hill
#
# Bulk Modulus (GPa) = 32.22830 56.79900 44.51365
# Shear Modulus (GPa) = 27.71852 36.66859 32.19356
#
# Velocity S-wave (km/s) = 3.38385 3.89200 3.64678
# Velocity P-wave (km/s) = 5.34608 6.60759 6.01003
#
# Compressibility (1/GPa) = 0.03102863
#
# Stress axis : x y z
#
# Youngs Moduli (GPa) = 68.21304 62.48076 62.19673
#
# Poissons Ratio (x) = 0.27555 0.04138
# Poissons Ratio (y) = 0.30083 0.17302
# Poissons Ratio (z) = 0.04538 0.17381
#
# Static dielectric constant tensor:
#      x y z
#    x 4.678770 -0.439440 -0.079130 
#    y -0.439440 4.730450 -0.642170 
#    z -0.079130 -0.642170 3.238870 
# 
# 
# High freq. dielectric constant tensor:
#      x y z
#    x 1.969340 -0.027040 -0.009820 
#    y -0.027040 1.958290 -0.029170 
#    z -0.009820 -0.029170 1.958380 
# 
# From -- ./inp_files/186496.got.cif
#   From: 2010.06.25/outbox.cif.g09.slc.cpg/sg2_94_cif.got.tgz:186496.got - 2010.06.27 13:26:56.
