data_PCOD8025684
_publ_section_title
;
Structure prediction by ZEFSAII (Michael W. Deem and Ramdas Pophale) SiO2 
 PCOD8025684
Probable space group: P -1
;
_chemical_formula_sum "Si O2"
_cell_formula_units_Z 12
_cell_length_a 5.115572
_cell_length_b 12.010015
_cell_length_c 10.424339
_cell_angle_alpha 52.320725
_cell_angle_beta 111.502518
_cell_angle_gamma 103.083741
_cell_volume 471.601365
_symmetry_space_group_name_H-M "P -1"
_symmetry_group_IT_number 2
_symmetry_cell_setting 'triclinic'
loop_
_space_group_symop_operation_xyz
x,y,z
-x,-y,-z
loop_
_atom_site_type_symbol
_atom_site_label
_atom_site_fract_x
_atom_site_fract_y
_atom_site_fract_z
Si Si1 0.559953 0.172047 0.760219
Si Si2 0.781838 0.914799 0.602539
Si Si3 0.141500 0.368283 0.282827
Si Si4 0.996151 0.655366 0.444525
Si Si5 0.350681 0.595102 0.011945
Si Si6 0.721777 0.116306 0.108888
O O1 0.758980 0.248993 0.638728
O O2 0.305733 0.274396 0.681309
O O3 0.439193 0.027277 0.779860
O O4 0.737415 0.135570 0.944775
O O5 0.686033 0.775415 0.604339
O O6 0.950221 0.887407 0.785451
O O7 0.500000 0.000000 0.500000
O O8 0.000000 0.000000 0.500000
O O9 0.957014 0.364313 0.380745
O O10 0.340037 0.507388 0.207264
O O11 0.955953 0.373311 0.118674
O O12 0.000000 0.500000 0.500000
O O13 0.500000 0.500000 0.000000
O O14 0.459412 0.753604 0.951396
#
# Coordination Sequence:
#
# PCOD8025684 Si02
#       6
#     2   2   2   2   2   2
#     4  11  27  49  75 112 150 209 247 311 384 450
#     4  11  26  45  75 111 147 196 246 321 381 440
#     4  10  25  44  67 110 140 190 255 306 377 444
#     4  12  27  47  76 109 154 200 256 312 374 460
#     4  10  23  45  73 104 141 198 247 316 374 440
#     4  10  25  49  74 110 154 197 260 312 375 465
#
# _framework density 25.445219999999999
#
# number of rings (size 3 to 8) (size 9 to 14) (size 15 to 20)
#    0.000    1.333    0.000    2.500    9.333    8.000 
#    6.000    0.833    0.000    0.000    0.000    0.000 
#    0.000    0.000    0.000    0.000    0.000    0.000 
#
# Total GULP energy -148680.133797 kJ/mol
# GULP energy per Si atom -12390.011150 kJ/mol
# Density = 2.538731 g / cm^3
# Si number density = 25.445220 Si / 1000 Ang^3
#
#
#
# Elastic Constant Matrix: (Units=GPa)
#
#
# Indices 1 2 3 4 5 6 
#
# 1 168.8688 79.0054 83.7866 -27.0723 -11.8279 -9.6555
# 2 79.0054 172.9510 87.4038 -35.4910 -8.6229 -13.5448
# 3 83.7866 87.4038 145.4832 -31.3104 -26.4469 0.9931
# 4 -27.0723 -35.4910 -31.3104 48.3100 -0.7751 5.2200
# 5 -11.8279 -8.6229 -26.4469 -0.7751 48.9975 -6.7884
# 6 -9.6555 -13.5448 0.9931 5.2200 -6.7884 32.4115
#
#
#
# Elastic Compliance Matrix: (Units=1/GPa)
#
#
# Indices 1 2 3 4 5 6 
#
# 1 0.008946 -0.001772 -0.003881 0.000992 0.000030 0.001890
# 2 -0.001772 0.009518 -0.004181 0.002958 -0.000549 0.002986
# 3 -0.003881 -0.004181 0.013419 0.003841 0.005238 -0.002836
# 4 0.000992 0.002958 0.003841 0.026202 0.002944 -0.002189
# 5 0.000030 -0.000549 0.005238 0.002944 0.023765 0.004122
# 6 0.001890 0.002986 -0.002836 -0.002189 0.004122 0.033967
#
#
# Mechanical properties :
#
#
# Convention : Reuss Voigt Hill
#
# Bulk Modulus (GPa) = 81.87515 109.74386 95.80951
# Shear Modulus (GPa) = 35.82745 41.75094 38.78919
#
# Velocity S-wave (km/s) = 3.75643 4.05509 3.90862
# Velocity P-wave (km/s) = 7.14572 8.07144 7.62264
#
# Compressibility (1/GPa) = 0.01221372
#
# Stress axis : x y z
#
# Youngs Moduli (GPa) = 111.78455 105.06346 74.51906
#
# Poissons Ratio (x) = 0.18616 0.28924
# Poissons Ratio (y) = 0.19806 0.31160
# Poissons Ratio (z) = 0.43389 0.43932
#
# Static dielectric constant tensor:
#      x y z
#    x 4.512930 0.031130 0.355260 
#    y 0.031130 5.153680 -0.674020 
#    z 0.355260 -0.674020 6.449200 
# 
# 
# High freq. dielectric constant tensor:
#      x y z
#    x 1.992430 0.001060 -0.004930 
#    y 0.001060 2.027040 -0.014450 
#    z -0.004930 -0.014450 2.049350 
# 
# From -- ./inp_files/362599.got.cif
#   From: 2010.06.25/outbox.cif.g09.slc.cpg/sg2_182_cif.got.tgz:362599.got - 2010.06.27 13:26:56.
