data_PCOD8025516
_publ_section_title
;
Structure prediction by ZEFSAII (Michael W. Deem and Ramdas Pophale) SiO2 
 PCOD8025516
Probable space group: P -1
;
_chemical_formula_sum "Si O2"
_cell_formula_units_Z 14
_cell_length_a 16.953455
_cell_length_b 11.927018
_cell_length_c 8.860223
_cell_angle_alpha 39.266456
_cell_angle_beta 147.479229
_cell_angle_gamma 130.127676
_cell_volume 609.428254
_symmetry_space_group_name_H-M "P -1"
_symmetry_group_IT_number 2
_symmetry_cell_setting 'triclinic'
loop_
_space_group_symop_operation_xyz
x,y,z
-x,-y,-z
loop_
_atom_site_type_symbol
_atom_site_label
_atom_site_fract_x
_atom_site_fract_y
_atom_site_fract_z
Si Si1 0.830284 0.523324 0.173475
Si Si2 0.898365 0.884901 0.846946
Si Si3 0.343198 0.051576 0.133296
Si Si4 0.637289 0.448959 0.674302
Si Si5 0.651126 0.556147 0.263747
Si Si6 0.640302 0.047956 0.076947
Si Si7 0.826649 0.274943 0.684708
O O1 0.753031 0.385574 0.307711
O O2 0.000000 0.500000 0.500000
O O3 0.800278 0.736258 0.930111
O O4 0.784733 0.473917 0.982201
O O5 0.788583 0.015446 0.445828
O O6 0.000869 0.768193 0.017658
O O7 0.000000 0.000000 0.000000
O O8 0.500000 0.000000 0.500000
O O9 0.236386 0.917010 0.183520
O O10 0.301286 0.249797 0.917376
O O11 0.344001 0.052446 0.951694
O O12 0.500000 0.500000 0.500000
O O13 0.629533 0.577571 0.385221
O O14 0.627037 0.252186 0.800343
O O15 0.785514 0.411720 0.610183
O O16 0.500000 0.500000 0.000000
O O17 0.500000 0.000000 0.000000
#
# Coordination Sequence:
#
# PCOD8025516 Si02
#       7
#     2   2   2   2   2   2   2
#     4  10  23  45  69 100 141 186 236 288 358 429
#     4  11  26  47  76 108 142 194 243 301 366 428
#     4  12  26  45  72 109 147 188 242 300 366 423
#     4  12  24  45  71 104 141 188 243 298 355 432
#     4  12  24  45  70 106 147 192 236 302 367 423
#     4  12  26  46  74 107 143 190 250 297 356 439
#     4  11  25  47  71 104 149 187 242 295 366 428
#
# _framework density 22.972349999999999
#
# number of rings (size 3 to 8) (size 9 to 14) (size 15 to 20)
#    0.000    0.571    2.857    5.143    6.000    0.571 
#    0.000    3.571    0.000    0.000    0.000    0.000 
#    0.000    0.000    0.000    0.000    0.000    0.000 
#
# Total GULP energy -173474.573036 kJ/mol
# GULP energy per Si atom -12391.040931 kJ/mol
# Density = 2.292006 g / cm^3
# Si number density = 22.972350 Si / 1000 Ang^3
#
#
#
# Elastic Constant Matrix: (Units=GPa)
#
#
# Indices 1 2 3 4 5 6 
#
# 1 107.4386 38.2517 42.1688 1.4091 -10.1927 6.5530
# 2 38.2517 152.4604 43.6029 -24.9881 -12.1099 9.8171
# 3 42.1688 43.6029 118.0440 5.0237 -2.4623 0.2623
# 4 1.4091 -24.9881 5.0237 61.6807 -6.1384 -10.8150
# 5 -10.1927 -12.1099 -2.4623 -6.1384 50.0653 -9.3632
# 6 6.5530 9.8171 0.2623 -10.8150 -9.3632 33.4155
#
#
#
# Elastic Compliance Matrix: (Units=1/GPa)
#
#
# Indices 1 2 3 4 5 6 
#
# 1 0.011526 -0.001871 -0.003357 -0.000898 0.001319 -0.001606
# 2 -0.001871 0.008595 -0.002629 0.003879 0.001983 -0.000326
# 3 -0.003357 -0.002629 0.010701 -0.001869 -0.000932 0.000481
# 4 -0.000898 0.003879 -0.001869 0.019536 0.004289 0.006576
# 5 0.001319 0.001983 -0.000932 0.004289 0.022484 0.006854
# 6 -0.001606 -0.000326 0.000481 0.006576 0.006854 0.034382
#
#
# Mechanical properties :
#
#
# Convention : Reuss Voigt Hill
#
# Bulk Modulus (GPa) = 66.19387 69.55442 67.87414
# Shear Modulus (GPa) = 39.07019 45.96027 42.51523
#
# Velocity S-wave (km/s) = 4.12849 4.47775 4.30666
# Velocity P-wave (km/s) = 7.18352 7.55492 7.37156
#
# Compressibility (1/GPa) = 0.01510714
#
# Stress axis : x y z
#
# Youngs Moduli (GPa) = 86.75905 116.35001 93.44971
#
# Poissons Ratio (x) = 0.21767 0.31373
# Poissons Ratio (y) = 0.16231 0.24572
# Poissons Ratio (z) = 0.29126 0.30593
#
# Static dielectric constant tensor:
#      x y z
#    x 3.713990 -0.410520 -0.130250 
#    y -0.410520 2.969600 -0.474800 
#    z -0.130250 -0.474800 4.335540 
# 
# 
# High freq. dielectric constant tensor:
#      x y z
#    x 1.904360 0.007430 -0.010510 
#    y 0.007430 1.919790 -0.022270 
#    z -0.010510 -0.022270 1.916030 
# 
# From -- ./inp_files/285115.got.cif
#   From: 2010.06.25/outbox.cif.g09.slc.cpg/sg2_143_cif.got.tgz:285115.got - 2010.06.27 13:26:56.
