data_PCOD8025054
_publ_section_title
;
Structure prediction by ZEFSAII (Michael W. Deem and Ramdas Pophale) SiO2 
 PCOD8025054
Probable space group: P -1
;
_chemical_formula_sum "Si O2"
_cell_formula_units_Z 16
_cell_length_a 12.151965
_cell_length_b 9.638334
_cell_length_c 18.515992
_cell_angle_alpha 48.411634
_cell_angle_beta 155.591021
_cell_angle_gamma 126.209814
_cell_volume 669.639101
_symmetry_space_group_name_H-M "P -1"
_symmetry_group_IT_number 2
_symmetry_cell_setting 'triclinic'
loop_
_space_group_symop_operation_xyz
x,y,z
-x,-y,-z
loop_
_atom_site_type_symbol
_atom_site_label
_atom_site_fract_x
_atom_site_fract_y
_atom_site_fract_z
Si Si1 0.087969 0.828873 0.663116
Si Si2 0.177331 0.106421 0.727244
Si Si3 0.568154 0.412780 0.864221
Si Si4 0.112773 0.422544 0.262093
Si Si5 0.614956 0.708684 0.667609
Si Si6 0.669649 0.294003 0.284717
Si Si7 0.932940 0.065806 0.744708
Si Si8 0.090464 0.180522 0.953336
O O1 0.853573 0.709232 0.600584
O O2 0.257523 0.683326 0.764356
O O3 0.259729 0.914392 0.801330
O O4 0.000000 0.000000 0.500000
O O5 0.417253 0.236711 0.805916
O O6 0.889633 0.171512 0.501499
O O7 0.145816 0.071849 0.805186
O O8 0.645617 0.540556 0.799512
O O9 0.356128 0.507006 0.761286
O O10 0.840345 0.359123 0.085391
O O11 0.098732 0.639278 0.200772
O O12 0.350748 0.372938 0.365303
O O13 0.322915 0.800510 0.470731
O O14 0.839026 0.855330 0.770365
O O15 0.386441 0.201689 0.152857
O O16 0.084841 0.142122 0.878162
O O17 0.000000 0.000000 0.000000
#
# Coordination Sequence:
#
# PCOD8025054 Si02
#       8
#     2   2   2   2   2   2   2   2
#     4  10  24  42  67  97 140 182 227 286 349 408
#     4  11  23  43  70 101 132 183 238 282 348 410
#     4  11  24  40  72 101 135 179 236 291 343 413
#     4  11  25  44  68 103 143 184 229 289 356 410
#     4  11  24  45  69 100 144 181 232 290 349 416
#     4  10  23  44  68  93 145 176 226 287 357 397
#     4  11  24  41  74  98 137 187 235 283 347 418
#     4  11  27  44  69 104 140 185 236 286 354 420
#
# _framework density 23.893467999999999
#
# number of rings (size 3 to 8) (size 9 to 14) (size 15 to 20)
#    0.000    1.250    2.500    2.250    5.250    5.000 
#    0.000    0.000    0.000    0.000    0.000    0.000 
#    0.000    0.000    0.000    0.000    0.000    0.000 
#
# Total GULP energy -198338.585327 kJ/mol
# GULP energy per Si atom -12396.161583 kJ/mol
# Density = 2.383909 g / cm^3
# Si number density = 23.893468 Si / 1000 Ang^3
#
#
#
# Elastic Constant Matrix: (Units=GPa)
#
#
# Indices 1 2 3 4 5 6 
#
# 1 158.9703 48.4950 -3.4900 -13.8476 -14.2551 -11.9588
# 2 48.4950 125.2531 8.6866 -2.4550 -15.6423 8.2063
# 3 -3.4900 8.6866 48.3674 5.1070 -11.1398 8.7302
# 4 -13.8476 -2.4550 5.1070 31.7639 0.0112 -4.3022
# 5 -14.2551 -15.6423 -11.1398 0.0112 25.1624 -0.3337
# 6 -11.9588 8.2063 8.7302 -4.3022 -0.3337 45.2567
#
#
#
# Elastic Compliance Matrix: (Units=1/GPa)
#
#
# Indices 1 2 3 4 5 6 
#
# 1 0.007990 -0.002876 0.000955 0.003486 0.003197 0.002803
# 2 -0.002876 0.009806 -0.000465 -0.000760 0.004228 -0.002489
# 3 0.000955 -0.000465 0.024694 -0.004237 0.011123 -0.004747
# 4 0.003486 -0.000760 -0.004237 0.034320 -0.000320 0.005136
# 5 0.003197 0.004228 0.011123 -0.000320 0.049083 -0.001736
# 6 0.002803 -0.002489 -0.004747 0.005136 -0.001736 0.024680
#
#
# Mechanical properties :
#
#
# Convention : Reuss Voigt Hill
#
# Bulk Modulus (GPa) = 26.51276 48.88601 37.69939
# Shear Modulus (GPa) = 29.77671 39.02989 34.40330
#
# Velocity S-wave (km/s) = 3.53403 4.04604 3.79867
# Velocity P-wave (km/s) = 5.26999 6.50628 5.92049
#
# Compressibility (1/GPa) = 0.03771768
#
# Stress axis : x y z
#
# Youngs Moduli (GPa) = 125.15615 101.98086 40.49627
#
# Poissons Ratio (x) = 0.29328 -0.03869
# Poissons Ratio (y) = 0.35993 0.01884
# Poissons Ratio (z) = -0.11956 0.04746
#
# Static dielectric constant tensor:
#      x y z
#    x 5.173150 -0.553220 -0.177880 
#    y -0.553220 4.518140 0.004980 
#    z -0.177880 0.004980 4.182540 
# 
# 
# High freq. dielectric constant tensor:
#      x y z
#    x 1.966800 -0.011680 -0.008660 
#    y -0.011680 1.957770 -0.005940 
#    z -0.008660 -0.005940 1.929670 
# 
# From -- ./inp_files/566597.got.cif
#   From: 2010.06.25/outbox.cif.g09.slc.cpg/sg2_284_cif.got.tgz:566597.got - 2010.06.27 13:26:56.
