data_PCOD8025154
_publ_section_title
;
Structure prediction by ZEFSAII (Michael W. Deem and Ramdas Pophale) SiO2 
 PCOD8025154
Probable space group: P -1
;
_chemical_formula_sum "Si O2"
_cell_formula_units_Z 10
_cell_length_a 11.821693
_cell_length_b 7.695887
_cell_length_c 5.472457
_cell_angle_alpha 120.233941
_cell_angle_beta 109.245509
_cell_angle_gamma 65.638230
_cell_volume 387.122172
_symmetry_space_group_name_H-M "P -1"
_symmetry_group_IT_number 2
_symmetry_cell_setting 'triclinic'
loop_
_space_group_symop_operation_xyz
x,y,z
-x,-y,-z
loop_
_atom_site_type_symbol
_atom_site_label
_atom_site_fract_x
_atom_site_fract_y
_atom_site_fract_z
Si Si1 0.957501 0.760102 0.895009
Si Si2 0.654323 0.415756 0.331190
Si Si3 0.932208 0.310108 0.575882
Si Si4 0.321605 0.964882 0.185175
Si Si5 0.486586 0.837514 0.644147
O O1 0.986436 0.508017 0.742351
O O2 0.027935 0.818342 0.745894
O O3 0.810220 0.866945 0.839134
O O4 0.007289 0.827646 0.237407
O O5 0.781862 0.382608 0.552865
O O6 0.583841 0.660822 0.409292
O O7 0.560542 0.300541 0.298427
O O8 0.688524 0.273933 0.008837
O O9 0.373476 0.986867 0.507611
O O10 0.421438 0.023310 0.102412
#
# Coordination Sequence:
#
# PCOD8025154 Si02
#       5
#     2   2   2   2   2
#     4  10  23  44  69  99 136 179 224 283 342 399
#     4  11  23  42  68  96 133 176 227 280 336 409
#     4  10  23  44  69  99 136 179 224 283 342 399
#     4  11  23  42  68  96 133 176 227 280 336 409
#     4  10  24  44  62 100 132 176 224 282 340 398
#
# _framework density 25.83164
#
# number of rings (size 3 to 8) (size 9 to 14) (size 15 to 20)
#    0.000    1.600    2.000    1.200    5.600    1.600 
#    0.000    0.000    0.000    0.000    0.000    0.000 
#    0.000    0.000    0.000    0.000    0.000    0.000 
#
# Total GULP energy -123911.926501 kJ/mol
# GULP energy per Si atom -12391.192650 kJ/mol
# Density = 2.577285 g / cm^3
# Si number density = 25.831640 Si / 1000 Ang^3
#
#
#
# Elastic Constant Matrix: (Units=GPa)
#
#
# Indices 1 2 3 4 5 6 
#
# 1 75.4043 30.0934 29.3094 -7.5496 4.0999 -13.0437
# 2 30.0934 85.1436 37.2766 -31.8962 6.7977 -9.9607
# 3 29.3094 37.2766 122.6938 -24.7568 2.5407 -11.7875
# 4 -7.5496 -31.8962 -24.7568 34.7199 -2.3121 13.9127
# 5 4.0999 6.7977 2.5407 -2.3121 36.6012 -5.6896
# 6 -13.0437 -9.9607 -11.7875 13.9127 -5.6896 40.5534
#
#
#
# Elastic Compliance Matrix: (Units=1/GPa)
#
#
# Indices 1 2 3 4 5 6 
#
# 1 0.017336 -0.006690 -0.002928 -0.006608 -0.000084 0.005337
# 2 -0.006690 0.021496 -0.001501 0.018686 -0.002593 -0.004083
# 3 -0.002928 -0.001501 0.010390 0.005461 0.000210 -0.000134
# 4 -0.006608 0.018686 0.005461 0.054238 -0.001989 -0.014835
# 5 -0.000084 -0.002593 0.000210 -0.001989 0.028302 0.004050
# 6 0.005337 -0.004083 -0.000134 -0.014835 0.004050 0.030991
#
#
# Mechanical properties :
#
#
# Convention : Reuss Voigt Hill
#
# Bulk Modulus (GPa) = 37.05678 52.95563 45.00621
# Shear Modulus (GPa) = 25.77518 34.81239 30.29379
#
# Velocity S-wave (km/s) = 3.16225 3.67504 3.42824
# Velocity P-wave (km/s) = 5.26400 6.20908 5.75597
#
# Compressibility (1/GPa) = 0.02698561
#
# Stress axis : x y z
#
# Youngs Moduli (GPa) = 57.68379 46.52020 96.24255
#
# Poissons Ratio (x) = 0.31122 0.28176
# Poissons Ratio (y) = 0.38590 0.14445
# Poissons Ratio (z) = 0.16887 0.06982
#
# Static dielectric constant tensor:
#      x y z
#    x 4.673570 0.007120 -0.055580 
#    y 0.007120 4.900690 0.716210 
#    z -0.055580 0.716210 5.226800 
# 
# 
# High freq. dielectric constant tensor:
#      x y z
#    x 2.035590 0.003280 0.015180 
#    y 0.003280 2.040220 0.022280 
#    z 0.015180 0.022280 2.040400 
# 
# From -- ./inp_files/18048.got.cif
#   From: 2010.06.25/outbox.cif.g09.slc.cpg/sg2_10_cif.got.tgz:18048.got - 2010.06.27 13:26:56.
