data_PCOD8025179
_publ_section_title
;
Structure prediction by ZEFSAII (Michael W. Deem and Ramdas Pophale) SiO2 
 PCOD8025179
Probable space group: P -1
;
_chemical_formula_sum "Si O2"
_cell_formula_units_Z 14
_cell_length_a 8.693344
_cell_length_b 11.888851
_cell_length_c 8.125787
_cell_angle_alpha 114.726838
_cell_angle_beta 126.776925
_cell_angle_gamma 65.864571
_cell_volume 596.336131
_symmetry_space_group_name_H-M "P -1"
_symmetry_group_IT_number 2
_symmetry_cell_setting 'triclinic'
loop_
_space_group_symop_operation_xyz
x,y,z
-x,-y,-z
loop_
_atom_site_type_symbol
_atom_site_label
_atom_site_fract_x
_atom_site_fract_y
_atom_site_fract_z
Si Si1 0.716706 0.004131 0.576583
Si Si2 0.859834 0.246415 0.913638
Si Si3 0.603977 0.097792 0.214107
Si Si4 0.423811 0.516966 0.269308
Si Si5 0.839412 0.476055 0.502124
Si Si6 0.084692 0.788128 0.699689
Si Si7 0.755813 0.680022 0.856550
O O1 0.807272 0.109488 0.790644
O O2 0.721517 0.029376 0.401999
O O3 0.500000 0.000000 0.500000
O O4 0.862294 0.869295 0.619867
O O5 0.700174 0.345258 0.769260
O O6 0.864164 0.277457 0.128840
O O7 0.069048 0.246656 0.957163
O O8 0.758962 0.130337 0.203225
O O9 0.443110 0.218352 0.252074
O O10 0.500000 0.000000 0.000000
O O11 0.500000 0.500000 0.500000
O O12 0.626960 0.497071 0.285855
O O13 0.301375 0.406905 0.083100
O O14 0.901354 0.325424 0.495323
O O15 0.833723 0.572337 0.705941
O O16 0.000000 0.500000 0.500000
#
# Coordination Sequence:
#
# PCOD8025179 Si02
#       7
#     2   2   2   2   2   2   2
#     4  12  27  48  76 103 145 193 244 302 362 424
#     4  12  25  45  74 104 144 191 240 300 361 424
#     4  12  26  51  75 105 142 190 245 303 357 434
#     4  10  23  44  70 103 140 189 237 288 358 423
#     4  11  23  45  72 103 150 185 238 293 357 428
#     4  12  26  46  70 111 144 188 245 294 360 434
#     4  11  23  46  72 106 143 188 238 295 361 427
#
# _framework density 23.476693999999998
#
# number of rings (size 3 to 8) (size 9 to 14) (size 15 to 20)
#    0.000    0.571    2.857    5.571    4.000    0.571 
#    2.571    0.000    0.000    0.000    0.000    0.000 
#    0.000    0.000    0.000    0.000    0.000    0.000 
#
# Total GULP energy -173481.647203 kJ/mol
# GULP energy per Si atom -12391.546229 kJ/mol
# Density = 2.342326 g / cm^3
# Si number density = 23.476694 Si / 1000 Ang^3
#
#
#
# Elastic Constant Matrix: (Units=GPa)
#
#
# Indices 1 2 3 4 5 6 
#
# 1 167.2303 36.1925 41.6903 -8.4386 46.1220 -2.1169
# 2 36.1925 140.5482 47.9895 -7.7153 5.4820 -19.2600
# 3 41.6903 47.9895 72.0584 3.8891 10.4791 -4.7811
# 4 -8.4386 -7.7153 3.8891 48.0226 8.4516 5.0968
# 5 46.1220 5.4820 10.4791 8.4516 48.6578 1.5472
# 6 -2.1169 -19.2600 -4.7811 5.0968 1.5472 44.2751
#
#
#
# Elastic Compliance Matrix: (Units=1/GPa)
#
#
# Indices 1 2 3 4 5 6 
#
# 1 0.009787 -0.000594 -0.004185 0.003569 -0.008918 -0.000342
# 2 -0.000594 0.009915 -0.006174 0.001555 0.000397 0.003425
# 3 -0.004185 -0.006174 0.020452 -0.003506 0.000876 -0.000304
# 4 0.003569 0.001555 -0.003506 0.023393 -0.006803 -0.001987
# 5 -0.008918 0.000397 0.000876 -0.006803 0.029966 -0.000423
# 6 -0.000342 0.003425 -0.000304 -0.001987 -0.000423 0.024270
#
#
# Mechanical properties :
#
#
# Convention : Reuss Voigt Hill
#
# Bulk Modulus (GPa) = 54.80072 70.17573 62.48822
# Shear Modulus (GPa) = 34.29990 45.12208 39.71099
#
# Velocity S-wave (km/s) = 3.82648 4.38881 4.11726
# Velocity P-wave (km/s) = 6.55102 7.45914 7.01978
#
# Compressibility (1/GPa) = 0.01824794
#
# Stress axis : x y z
#
# Youngs Moduli (GPa) = 102.17648 100.85331 48.89457
#
# Poissons Ratio (x) = 0.05995 0.20462
# Poissons Ratio (y) = 0.06073 0.30187
# Poissons Ratio (z) = 0.42760 0.62266
#
# Static dielectric constant tensor:
#      x y z
#    x 4.899630 1.392420 2.181490 
#    y 1.392420 4.542310 -0.212310 
#    z 2.181490 -0.212310 2.339550 
# 
# 
# High freq. dielectric constant tensor:
#      x y z
#    x 1.953920 0.000690 0.028240 
#    y 0.000690 1.943860 0.013490 
#    z 0.028240 0.013490 1.908510 
# 
# From -- ./inp_files/190437.got.cif
#   From: 2010.06.25/outbox.cif.g09.slc.cpg/sg2_96_cif.got.tgz:190437.got - 2010.06.27 13:26:56.
