data_PCOD8025016
_publ_section_title
;
Structure prediction by ZEFSAII (Michael W. Deem and Ramdas Pophale) SiO2 
 PCOD8025016
Probable space group: P -1
;
_chemical_formula_sum "Si O2"
_cell_formula_units_Z 16
_cell_length_a 8.013169
_cell_length_b 15.633301
_cell_length_c 16.224982
_cell_angle_alpha 152.734332
_cell_angle_beta 65.857177
_cell_angle_gamma 97.312809
_cell_volume 700.954116
_symmetry_space_group_name_H-M "P -1"
_symmetry_group_IT_number 2
_symmetry_cell_setting 'triclinic'
loop_
_space_group_symop_operation_xyz
x,y,z
-x,-y,-z
loop_
_atom_site_type_symbol
_atom_site_label
_atom_site_fract_x
_atom_site_fract_y
_atom_site_fract_z
Si Si1 0.657992 0.628382 0.655972
Si Si2 0.605689 0.661568 0.230940
Si Si3 0.876559 0.141772 0.727096
Si Si4 0.052431 0.513457 0.371040
Si Si5 0.212072 0.088238 0.882732
Si Si6 0.457814 0.930035 0.325520
Si Si7 0.155615 0.833242 0.550571
Si Si8 0.733340 0.162789 0.195497
O O1 0.722786 0.621282 0.732806
O O2 0.676221 0.402739 0.437578
O O3 0.402119 0.825838 0.850372
O O4 0.831431 0.653389 0.590075
O O5 0.528522 0.748414 0.228113
O O6 0.413874 0.678722 0.340219
O O7 0.680692 0.815103 0.389498
O O8 0.807358 0.399238 0.959546
O O9 0.671377 0.118498 0.756958
O O10 0.000000 0.000000 0.500000
O O11 0.034285 0.026575 0.673119
O O12 0.065371 0.676460 0.444055
O O13 0.035437 0.337122 0.167718
O O14 0.337457 0.108865 0.799224
O O15 0.100028 0.968155 0.763778
O O16 0.356241 0.927397 0.792761
O O17 0.000000 0.000000 0.000000
#
# Coordination Sequence:
#
# PCOD8025016 Si02
#       8
#     2   2   2   2   2   2   2   2
#     4  10  24  44  71  97 136 180 217 285 346 408
#     4  10  23  47  65  93 143 177 219 281 336 403
#     4  12  25  41  70 100 130 183 229 277 340 401
#     4  11  23  45  69 103 135 174 233 281 341 416
#     4  11  24  43  69  97 132 178 220 279 339 399
#     4  10  23  44  67  97 135 181 224 275 340 404
#     4  11  25  45  64  99 139 171 227 283 332 404
#     4  11  22  47  68  96 138 176 224 277 344 411
#
# _framework density 22.826029999999999
#
# number of rings (size 3 to 8) (size 9 to 14) (size 15 to 20)
#    0.000    1.250    3.750    1.125    3.500    2.000 
#    6.750    0.000    0.000    0.000    0.000    0.000 
#    0.000    0.000    0.000    0.000    0.000    0.000 
#
# Total GULP energy -198273.232719 kJ/mol
# GULP energy per Si atom -12392.077045 kJ/mol
# Density = 2.277408 g / cm^3
# Si number density = 22.826030 Si / 1000 Ang^3
#
#
#
# Elastic Constant Matrix: (Units=GPa)
#
#
# Indices 1 2 3 4 5 6 
#
# 1 61.8290 17.9360 25.5495 7.6435 -7.0708 -15.0811
# 2 17.9360 111.1243 44.9644 13.9559 -4.3454 7.1795
# 3 25.5495 44.9644 106.8025 15.4420 0.7161 -15.5086
# 4 7.6435 13.9559 15.4420 32.8185 -0.1826 2.5073
# 5 -7.0708 -4.3454 0.7161 -0.1826 28.7029 3.4858
# 6 -15.0811 7.1795 -15.5086 2.5073 3.4858 36.5160
#
#
#
# Elastic Compliance Matrix: (Units=1/GPa)
#
#
# Indices 1 2 3 4 5 6 
#
# 1 0.020564 -0.002305 -0.002369 -0.003269 0.003808 0.007801
# 2 -0.002305 0.012102 -0.005112 -0.001767 0.002058 -0.005578
# 3 -0.002369 -0.005112 0.013624 -0.004183 -0.002494 0.006338
# 4 -0.003269 -0.001767 -0.004183 0.034342 -0.000128 -0.005125
# 5 0.003808 0.002058 -0.002494 -0.000128 0.036560 -0.003372
# 6 0.007801 -0.005578 0.006338 -0.005125 -0.003372 0.035069
#
#
# Mechanical properties :
#
#
# Convention : Reuss Voigt Hill
#
# Bulk Modulus (GPa) = 37.42843 50.73952 44.08397
# Shear Modulus (GPa) = 27.66422 32.36122 30.01272
#
# Velocity S-wave (km/s) = 3.48510 3.76936 3.63001
# Velocity P-wave (km/s) = 5.71204 6.42037 6.07654
#
# Compressibility (1/GPa) = 0.02671766
#
# Stress axis : x y z
#
# Youngs Moduli (GPa) = 48.62973 82.63006 73.40111
#
# Poissons Ratio (x) = 0.19047 0.17388
# Poissons Ratio (y) = 0.11209 0.37522
# Poissons Ratio (z) = 0.11520 0.42240
#
# Static dielectric constant tensor:
#      x y z
#    x 4.748040 0.007360 0.056990 
#    y 0.007360 4.146360 0.259080 
#    z 0.056990 0.259080 4.091190 
# 
# 
# High freq. dielectric constant tensor:
#      x y z
#    x 1.896290 0.007360 0.023330 
#    y 0.007360 1.913050 0.006210 
#    z 0.023330 0.006210 1.892380 
# 
# From -- ./inp_files/505739.got.cif
#   From: 2010.06.25/outbox.cif.g09.slc.cpg/sg2_253_cif.got.tgz:505739.got - 2010.06.27 13:26:56.
