data_PCOD8025133
_publ_section_title
;
Structure prediction by ZEFSAII (Michael W. Deem and Ramdas Pophale) SiO2 
 PCOD8025133
Probable space group: P -1
;
_chemical_formula_sum "Si O2"
_cell_formula_units_Z 16
_cell_length_a 13.553663
_cell_length_b 18.793725
_cell_length_c 9.220900
_cell_angle_alpha 53.017740
_cell_angle_beta 137.279121
_cell_angle_gamma 152.010250
_cell_volume 739.589939
_symmetry_space_group_name_H-M "P -1"
_symmetry_group_IT_number 2
_symmetry_cell_setting 'triclinic'
loop_
_space_group_symop_operation_xyz
x,y,z
-x,-y,-z
loop_
_atom_site_type_symbol
_atom_site_label
_atom_site_fract_x
_atom_site_fract_y
_atom_site_fract_z
Si Si1 0.418814 0.054742 0.686242
Si Si2 0.251819 0.370872 0.302616
Si Si3 0.398163 0.438837 0.809005
Si Si4 0.063826 0.098742 0.568328
Si Si5 0.800831 0.241615 0.115242
Si Si6 0.044151 0.429766 0.423129
Si Si7 0.762815 0.839261 0.024356
Si Si8 0.317098 0.713472 0.537490
O O1 0.561741 0.139969 0.585037
O O2 0.325978 0.907533 0.766026
O O3 0.587910 0.171041 0.863137
O O4 0.184165 0.002457 0.486122
O O5 0.500000 0.500000 0.500000
O O6 0.343146 0.432465 0.161814
O O7 0.154354 0.225480 0.414016
O O8 0.044942 0.340409 0.160999
O O9 0.217497 0.430132 0.581857
O O10 0.234346 0.267219 0.838370
O O11 0.500000 0.500000 0.000000
O O12 0.242146 0.142464 0.829691
O O13 0.000000 0.000000 0.500000
O O14 0.875988 0.350177 0.190657
O O15 0.204162 0.598623 0.421959
O O16 0.879130 0.339528 0.500554
O O17 0.507571 0.746961 0.792242
O O18 0.000000 0.000000 0.000000
#
# Coordination Sequence:
#
# PCOD8025133 Si02
#       8
#     2   2   2   2   2   2   2   2
#     4  10  23  45  63  96 136 174 222 282 326 408
#     4  11  22  42  68  97 126 173 231 280 317 402
#     4  12  25  44  71  98 135 180 229 272 339 405
#     4  11  25  41  66  97 133 173 226 274 338 398
#     4  10  23  44  69  95 133 177 227 274 339 394
#     4  11  25  44  66 101 133 181 223 274 336 405
#     4  12  25  46  68  99 139 177 222 288 337 397
#     4  11  26  44  65 101 143 171 226 279 337 404
#
# _framework density 21.633610999999998
#
# number of rings (size 3 to 8) (size 9 to 14) (size 15 to 20)
#    0.000    1.000    5.000    0.750    7.000    1.000 
#    0.000    0.000    0.000    0.000    0.000    0.000 
#    0.000    0.000    0.000    0.000    0.000    0.000 
#
# Total GULP energy -198235.811014 kJ/mol
# GULP energy per Si atom -12389.738188 kJ/mol
# Density = 2.158437 g / cm^3
# Si number density = 21.633611 Si / 1000 Ang^3
#
#
#
# Elastic Constant Matrix: (Units=GPa)
#
#
# Indices 1 2 3 4 5 6 
#
# 1 99.5161 63.8752 22.4279 -6.3260 -23.3696 -2.0287
# 2 63.8752 106.5774 23.1260 2.2307 -7.8028 19.3163
# 3 22.4279 23.1260 74.8834 9.1636 -23.4430 -4.2482
# 4 -6.3260 2.2307 9.1636 37.4574 -3.0720 -15.1571
# 5 -23.3696 -7.8028 -23.4430 -3.0720 39.8072 8.3571
# 6 -2.0287 19.3163 -4.2482 -15.1571 8.3571 34.2481
#
#
#
# Elastic Compliance Matrix: (Units=1/GPa)
#
#
# Indices 1 2 3 4 5 6 
#
# 1 0.023212 -0.015880 0.000078 0.010825 0.008662 0.013018
# 2 -0.015880 0.022823 -0.003159 -0.010907 -0.003747 -0.018118
# 3 0.000078 -0.003159 0.017711 -0.003264 0.009562 0.000205
# 4 0.010825 -0.010907 -0.003264 0.039654 0.000347 0.023853
# 5 0.008662 -0.003747 0.009562 0.000347 0.036149 -0.004855
# 6 0.013018 -0.018118 0.000205 0.023853 -0.004855 0.051955
#
#
# Mechanical properties :
#
#
# Convention : Reuss Voigt Hill
#
# Bulk Modulus (GPa) = 38.72345 55.53723 47.13034
# Shear Modulus (GPa) = 21.00549 33.73905 27.37227
#
# Velocity S-wave (km/s) = 3.11941 3.95342 3.56092
# Velocity P-wave (km/s) = 5.55993 6.82399 6.22413
#
# Compressibility (1/GPa) = 0.02582415
#
# Stress axis : x y z
#
# Youngs Moduli (GPa) = 43.08202 43.81475 56.46312
#
# Poissons Ratio (x) = 0.69579 -0.00440
# Poissons Ratio (y) = 0.68415 0.17834
# Poissons Ratio (z) = -0.00336 0.13839
#
# Static dielectric constant tensor:
#      x y z
#    x 3.775860 0.008110 0.223060 
#    y 0.008110 4.037430 0.621940 
#    z 0.223060 0.621940 8.957550 
# 
# 
# High freq. dielectric constant tensor:
#      x y z
#    x 1.839690 0.007730 -0.016950 
#    y 0.007730 1.865350 0.008170 
#    z -0.016950 0.008170 1.859370 
# 
# From -- ./inp_files/244571.got.cif
#   From: 2010.06.25/outbox.cif.g09.slc.cpg/sg2_123_cif.got.tgz:244571.got - 2010.06.27 13:26:56.
