data_PCOD8025992
_publ_section_title
;
Structure prediction by ZEFSAII (Michael W. Deem and Ramdas Pophale) SiO2 
 PCOD8025992
Probable space group: P -1
;
_chemical_formula_sum "Si O2"
_cell_formula_units_Z 10
_cell_length_a 14.718151
_cell_length_b 5.089519
_cell_length_c 6.592247
_cell_angle_alpha 97.651283
_cell_angle_beta 70.397544
_cell_angle_gamma 59.459206
_cell_volume 371.544793
_symmetry_space_group_name_H-M "P -1"
_symmetry_group_IT_number 2
_symmetry_cell_setting 'triclinic'
loop_
_space_group_symop_operation_xyz
x,y,z
-x,-y,-z
loop_
_atom_site_type_symbol
_atom_site_label
_atom_site_fract_x
_atom_site_fract_y
_atom_site_fract_z
Si Si1 0.625918 0.835734 0.778672
Si Si2 0.958031 0.604609 0.317520
Si Si3 0.779736 0.699543 0.035835
Si Si4 0.126729 0.783670 0.781176
Si Si5 0.623269 0.290177 0.502370
O O1 0.662184 0.521967 0.578635
O O2 0.609494 0.118886 0.683316
O O3 0.727909 0.730571 0.856505
O O4 0.500000 0.000000 0.000000
O O5 0.132120 0.003496 0.627145
O O6 0.000000 0.500000 0.500000
O O7 0.865673 0.513864 0.361149
O O8 0.081968 0.414293 0.074749
O O9 0.775092 0.420028 0.130076
O O10 0.716798 0.042682 0.236798
O O11 0.000000 0.000000 0.000000
O O12 0.500000 0.500000 0.500000
#
# Coordination Sequence:
#
# PCOD8025992 Si02
#       5
#     2   2   2   2   2
#     4  12  28  50  77 112 152 198 258 310 374 454
#     4  11  25  48  74 111 149 195 254 308 369 450
#     4  11  27  49  79 109 157 202 247 314 382 443
#     4  10  23  47  70 103 150 192 243 309 368 438
#     4  12  28  50  77 110 155 201 251 313 378 447
#
# _framework density 26.914650999999999
#
# number of rings (size 3 to 8) (size 9 to 14) (size 15 to 20)
#    0.000    0.800    2.000    4.200    2.800    9.600 
#    0.000    0.000    0.000    0.000    0.000    0.000 
#    0.000    0.000    0.000    0.000    0.000    0.000 
#
# Total GULP energy -123890.225628 kJ/mol
# GULP energy per Si atom -12389.022563 kJ/mol
# Density = 2.685339 g / cm^3
# Si number density = 26.914651 Si / 1000 Ang^3
#
#
#
# Elastic Constant Matrix: (Units=GPa)
#
#
# Indices 1 2 3 4 5 6 
#
# 1 159.8124 78.8974 38.0085 -22.6198 30.0967 5.3190
# 2 78.8974 250.8519 81.4943 -48.7063 29.0349 12.1528
# 3 38.0085 81.4943 124.8741 -12.2989 21.2103 -1.3907
# 4 -22.6198 -48.7063 -12.2989 64.8250 -10.4887 -0.9161
# 5 30.0967 29.0349 21.2103 -10.4887 51.0127 -3.5231
# 6 5.3190 12.1528 -1.3907 -0.9161 -3.5231 62.2748
#
#
#
# Elastic Compliance Matrix: (Units=1/GPa)
#
#
# Indices 1 2 3 4 5 6 
#
# 1 0.008039 -0.001738 -0.000670 0.000824 -0.003343 -0.000539
# 2 -0.001738 0.006371 -0.003192 0.003455 -0.000643 -0.001152
# 3 -0.000670 -0.003192 0.010605 -0.000989 -0.002348 0.000770
# 4 0.000824 0.003455 -0.000989 0.018393 0.001713 -0.000399
# 5 -0.003343 -0.000643 -0.002348 0.001713 0.023387 0.001707
# 6 -0.000539 -0.001152 0.000770 -0.000399 0.001707 0.016437
#
#
# Mechanical properties :
#
#
# Convention : Reuss Voigt Hill
#
# Bulk Modulus (GPa) = 72.38345 103.59322 87.98833
# Shear Modulus (GPa) = 50.48650 58.09836 54.29243
#
# Velocity S-wave (km/s) = 4.33575 4.65113 4.49621
# Velocity P-wave (km/s) = 7.21228 8.21079 7.72768
#
# Compressibility (1/GPa) = 0.01381531
#
# Stress axis : x y z
#
# Youngs Moduli (GPa) = 124.39927 156.96180 94.29401
#
# Poissons Ratio (x) = 0.27275 0.06316
# Poissons Ratio (y) = 0.21617 0.30101
# Poissons Ratio (z) = 0.08332 0.50106
#
# Static dielectric constant tensor:
#      x y z
#    x 25.602440 -1.566550 14.766580 
#    y -1.566550 6.122410 -1.343410 
#    z 14.766580 -1.343410 17.077880 
# 
# 
# High freq. dielectric constant tensor:
#      x y z
#    x 2.101260 -0.010410 -0.007690 
#    y -0.010410 2.122330 -0.011030 
#    z -0.007690 -0.011030 2.096250 
# 
# From -- ./inp_files/2988.got.cif
#   From: 2010.06.25/outbox.cif.g09.slc.cpg/sg2_2_cif.got.tgz:2988.got - 2010.06.27 13:26:56.
