data_PCOD8025843
_publ_section_title
;
Structure prediction by ZEFSAII (Michael W. Deem and Ramdas Pophale) SiO2 
 PCOD8025843
Probable space group: P -1
;
_chemical_formula_sum "Si O2"
_cell_formula_units_Z 14
_cell_length_a 5.145169
_cell_length_b 9.214241
_cell_length_c 13.851517
_cell_angle_alpha 122.265537
_cell_angle_beta 80.725879
_cell_angle_gamma 95.854227
_cell_volume 547.922451
_symmetry_space_group_name_H-M "P -1"
_symmetry_group_IT_number 2
_symmetry_cell_setting 'triclinic'
loop_
_space_group_symop_operation_xyz
x,y,z
-x,-y,-z
loop_
_atom_site_type_symbol
_atom_site_label
_atom_site_fract_x
_atom_site_fract_y
_atom_site_fract_z
Si Si1 0.840398 0.203320 0.216046
Si Si2 0.300786 0.358488 0.363688
Si Si3 0.830229 0.941210 0.398185
Si Si4 0.140797 0.160904 0.838325
Si Si5 0.539733 0.418437 0.866831
Si Si6 0.504342 0.269123 0.520347
Si Si7 0.055838 0.602969 0.903488
O O1 0.543182 0.265711 0.265239
O O2 0.958254 0.244644 0.118661
O O3 0.019729 0.291705 0.318925
O O4 0.848229 0.998836 0.148516
O O5 0.303858 0.315274 0.462332
O O6 0.312765 0.562510 0.413204
O O7 0.997943 0.880887 0.272574
O O8 0.646383 0.781483 0.389260
O O9 0.670581 0.102465 0.423041
O O10 0.000000 0.000000 0.500000
O O11 0.442757 0.219245 0.811803
O O12 0.994175 0.317442 0.957184
O O13 0.337994 0.517904 0.844469
O O14 0.841067 0.455557 0.831359
O O15 0.500000 0.500000 0.000000
#
# Coordination Sequence:
#
# PCOD8025843 Si02
#       7
#     2   2   2   2   2   2   2
#     4  12  26  44  72 107 141 187 238 281 362 420
#     4  11  26  46  73 101 143 188 232 295 352 419
#     4  11  24  45  71 104 138 184 243 288 364 408
#     4  11  24  45  70 102 147 184 229 302 347 416
#     4  10  23  46  70 102 138 187 233 291 349 419
#     4  10  25  45  68 101 141 181 241 293 351 420
#     4  11  25  46  71 106 142 185 238 284 357 427
#
# _framework density 25.55106
#
# number of rings (size 3 to 8) (size 9 to 14) (size 15 to 20)
#    0.000    1.143    1.429    3.857    6.000    4.571 
#   12.857    5.000    0.000    0.000    0.000    0.000 
#    0.000    0.000    0.000    0.000    0.000    0.000 
#
# Total GULP energy -173534.626372 kJ/mol
# GULP energy per Si atom -12395.330455 kJ/mol
# Density = 2.549290 g / cm^3
# Si number density = 25.551060 Si / 1000 Ang^3
#
#
#
# Elastic Constant Matrix: (Units=GPa)
#
#
# Indices 1 2 3 4 5 6 
#
# 1 73.4495 27.2451 11.8987 1.6653 9.8973 -5.5216
# 2 27.2451 187.1261 31.3235 17.1324 12.2688 1.5229
# 3 11.8987 31.3235 78.5562 -0.4528 6.2762 0.6426
# 4 1.6653 17.1324 -0.4528 39.9537 1.3707 -1.4935
# 5 9.8973 12.2688 6.2762 1.3707 30.7864 -0.2715
# 6 -5.5216 1.5229 0.6426 -1.4935 -0.2715 24.5129
#
#
#
# Elastic Compliance Matrix: (Units=1/GPa)
#
#
# Indices 1 2 3 4 5 6 
#
# 1 0.015286 -0.001816 -0.001306 0.000394 -0.003911 0.003571
# 2 -0.001816 0.006306 -0.002136 -0.002639 -0.001384 -0.000921
# 3 -0.001306 -0.002136 0.013920 0.001166 -0.001623 -0.000473
# 4 0.000394 -0.002639 0.001166 0.026241 -0.000465 0.001816
# 5 -0.003911 -0.001384 -0.001623 -0.000465 0.034639 -0.000397
# 6 0.003571 -0.000921 -0.000473 0.001816 -0.000397 0.041775
#
#
# Mechanical properties :
#
#
# Convention : Reuss Voigt Hill
#
# Bulk Modulus (GPa) = 40.00700 53.34071 46.67385
# Shear Modulus (GPa) = 31.84403 36.96157 34.40280
#
# Velocity S-wave (km/s) = 3.53411 3.80752 3.67336
# Velocity P-wave (km/s) = 5.68726 6.34437 6.02478
#
# Compressibility (1/GPa) = 0.02499563
#
# Stress axis : x y z
#
# Youngs Moduli (GPa) = 65.41776 158.58131 71.84087
#
# Poissons Ratio (x) = 0.28796 0.09381
# Poissons Ratio (y) = 0.11879 0.15349
# Poissons Ratio (z) = 0.08543 0.33880
#
# Static dielectric constant tensor:
#      x y z
#    x 4.948110 0.101660 0.212390 
#    y 0.101660 4.623630 -0.269940 
#    z 0.212390 -0.269940 4.333940 
# 
# 
# High freq. dielectric constant tensor:
#      x y z
#    x 2.000490 0.003050 0.007910 
#    y 0.003050 2.049460 -0.004150 
#    z 0.007910 -0.004150 2.019160 
# 
# From -- ./inp_files/479389.got.cif
#   From: 2010.06.25/outbox.cif.g09.slc.cpg/sg2_240_cif.got.tgz:479389.got - 2010.06.27 13:26:56.
