data_PCOD8025466
_publ_section_title
;
Structure prediction by ZEFSAII (Michael W. Deem and Ramdas Pophale) SiO2 
 PCOD8025466
Probable space group: P -1
;
_chemical_formula_sum "Si O2"
_cell_formula_units_Z 14
_cell_length_a 6.480296
_cell_length_b 13.600868
_cell_length_c 8.490435
_cell_angle_alpha 55.855348
_cell_angle_beta 77.048773
_cell_angle_gamma 70.462720
_cell_volume 583.037574
_symmetry_space_group_name_H-M "P -1"
_symmetry_group_IT_number 2
_symmetry_cell_setting 'triclinic'
loop_
_space_group_symop_operation_xyz
x,y,z
-x,-y,-z
loop_
_atom_site_type_symbol
_atom_site_label
_atom_site_fract_x
_atom_site_fract_y
_atom_site_fract_z
Si Si1 0.573436 0.040439 0.614698
Si Si2 0.593983 0.690024 0.587429
Si Si3 0.390810 0.500162 0.685511
Si Si4 0.033527 0.163059 0.151838
Si Si5 0.764743 0.062949 0.058975
Si Si6 0.014245 0.373906 0.201451
Si Si7 0.375734 0.251743 0.820287
O O1 0.592024 0.181026 0.480217
O O2 0.816193 0.958526 0.682946
O O3 0.500000 0.000000 0.500000
O O4 0.382328 0.030130 0.782762
O O5 0.519403 0.563308 0.734383
O O6 0.687439 0.691202 0.392698
O O7 0.755464 0.690675 0.702694
O O8 0.500000 0.500000 0.500000
O O9 0.148123 0.591741 0.651865
O O10 0.385499 0.360262 0.847955
O O11 0.815621 0.135159 0.140383
O O12 0.951706 0.275733 0.184174
O O13 0.180810 0.194881 0.957553
O O14 0.615857 0.155502 0.874241
O O15 0.000000 0.000000 0.000000
O O16 0.000000 0.500000 0.000000
#
# Coordination Sequence:
#
# PCOD8025466 Si02
#       7
#     2   2   2   2   2   2   2
#     4  11  24  44  64 102 139 173 221 276 341 390
#     4  11  25  44  71  95 143 176 224 280 334 402
#     4  10  25  43  66 100 132 177 223 273 337 397
#     4  11  24  44  72 100 139 175 224 287 332 398
#     4  11  25  43  72 100 132 183 230 271 335 404
#     4  12  26  44  69 103 134 180 227 274 345 400
#     4  10  23  45  68 101 135 176 228 280 335 397
#
# _framework density 24.012174000000002
#
# number of rings (size 3 to 8) (size 9 to 14) (size 15 to 20)
#    0.000    1.143    2.857    1.714    4.000   11.429 
#    0.000    0.000    0.000    0.000    0.000    0.000 
#    0.000    0.000    0.000    0.000    0.000    0.000 
#
# Total GULP energy -173499.366305 kJ/mol
# GULP energy per Si atom -12392.811879 kJ/mol
# Density = 2.395752 g / cm^3
# Si number density = 24.012174 Si / 1000 Ang^3
#
#
#
# Elastic Constant Matrix: (Units=GPa)
#
#
# Indices 1 2 3 4 5 6 
#
# 1 72.5714 7.1297 19.0105 -9.3047 8.4340 1.9307
# 2 7.1297 116.8144 11.6529 -6.7209 2.3841 -4.0166
# 3 19.0105 11.6529 62.6663 -5.1097 21.4468 -4.2546
# 4 -9.3047 -6.7209 -5.1097 32.1396 -0.6738 -3.5310
# 5 8.4340 2.3841 21.4468 -0.6738 31.9360 6.4164
# 6 1.9307 -4.0166 -4.2546 -3.5310 6.4164 49.2914
#
#
#
# Elastic Compliance Matrix: (Units=1/GPa)
#
#
# Indices 1 2 3 4 5 6 
#
# 1 0.015478 -0.000332 -0.003952 0.003697 -0.001220 -0.000551
# 2 -0.000332 0.008837 -0.001474 0.001599 0.000315 0.000679
# 3 -0.003952 -0.001474 0.023086 0.002358 -0.015137 0.004167
# 4 0.003697 0.001599 0.002358 0.033159 -0.002562 0.002898
# 5 -0.001220 0.000315 -0.015137 -0.002562 0.043136 -0.007032
# 6 -0.000551 0.000679 0.004167 0.002898 -0.007032 0.021847
#
#
# Mechanical properties :
#
#
# Convention : Reuss Voigt Hill
#
# Bulk Modulus (GPa) = 27.86633 36.40425 32.13529
# Shear Modulus (GPa) = 29.58238 36.95732 33.26985
#
# Velocity S-wave (km/s) = 3.51376 3.92740 3.72632
# Velocity P-wave (km/s) = 5.30021 5.97994 5.65031
#
# Compressibility (1/GPa) = 0.03588560
#
# Stress axis : x y z
#
# Youngs Moduli (GPa) = 64.60840 113.16334 43.31568
#
# Poissons Ratio (x) = 0.03754 0.17119
# Poissons Ratio (y) = 0.02143 0.06384
# Poissons Ratio (z) = 0.25534 0.16679
#
# Static dielectric constant tensor:
#      x y z
#    x 4.494210 -0.039070 0.076300 
#    y -0.039070 5.453110 -0.576210 
#    z 0.076300 -0.576210 4.622630 
# 
# 
# High freq. dielectric constant tensor:
#      x y z
#    x 1.940370 0.011370 -0.008000 
#    y 0.011370 1.983610 0.002280 
#    z -0.008000 0.002280 1.942200 
# 
# From -- ./inp_files/132865.got.cif
#   From: 2010.06.25/outbox.cif.g09.slc.cpg/sg2_67_cif.got.tgz:132865.got - 2010.06.27 13:26:56.
