data_PCOD8025352
_publ_section_title
;
Structure prediction by ZEFSAII (Michael W. Deem and Ramdas Pophale) SiO2 
 PCOD8025352
Probable space group: P -1
;
_chemical_formula_sum "Si O2"
_cell_formula_units_Z 14
_cell_length_a 7.604959
_cell_length_b 9.063893
_cell_length_c 12.288019
_cell_angle_alpha 121.313402
_cell_angle_beta 75.275099
_cell_angle_gamma 127.488110
_cell_volume 571.778076
_symmetry_space_group_name_H-M "P -1"
_symmetry_group_IT_number 2
_symmetry_cell_setting 'triclinic'
loop_
_space_group_symop_operation_xyz
x,y,z
-x,-y,-z
loop_
_atom_site_type_symbol
_atom_site_label
_atom_site_fract_x
_atom_site_fract_y
_atom_site_fract_z
Si Si1 0.897121 0.752605 0.742071
Si Si2 0.823459 0.355210 0.691666
Si Si3 0.714660 0.287178 0.161681
Si Si4 0.360271 0.111077 0.763639
Si Si5 0.208365 0.021519 0.523849
Si Si6 0.578699 0.726578 0.612525
Si Si7 0.669624 0.856125 0.985926
O O1 0.779164 0.503942 0.685321
O O2 0.806109 0.810775 0.675796
O O3 0.858511 0.848479 0.892605
O O4 0.162096 0.862844 0.725870
O O5 0.615358 0.190866 0.739994
O O6 0.039530 0.493854 0.788061
O O7 0.846185 0.212565 0.545656
O O8 0.593229 0.259598 0.283848
O O9 0.570808 0.300376 0.094567
O O10 0.733498 0.093466 0.063695
O O11 0.288885 0.154070 0.674799
O O12 0.354654 0.228203 0.917819
O O13 0.395879 0.143531 0.448989
O O14 0.000000 0.000000 0.500000
O O15 0.500000 0.500000 0.500000
#
# Coordination Sequence:
#
# PCOD8025352 Si02
#       7
#     2   2   2   2   2   2   2
#     4  11  25  47  74 102 143 194 232 299 354 424
#     4  12  27  44  74 112 140 184 244 290 368 418
#     4  10  23  44  75 104 140 193 239 293 353 430
#     4  12  25  46  71 105 149 183 232 299 353 426
#     4  12  26  47  70 110 144 184 238 298 353 429
#     4  11  23  47  76 102 145 192 238 292 362 421
#     4  10  23  48  72 102 144 193 241 286 361 420
#
# _framework density 24.485023999999999
#
# number of rings (size 3 to 8) (size 9 to 14) (size 15 to 20)
#    0.000    0.857    2.857    3.429    0.000    4.000 
#    0.000    0.000    0.000    0.000    0.000    0.000 
#    0.000    0.000    0.000    0.000    0.000    0.000 
#
# Total GULP energy -173434.323708 kJ/mol
# GULP energy per Si atom -12388.165979 kJ/mol
# Density = 2.442929 g / cm^3
# Si number density = 24.485024 Si / 1000 Ang^3
#
#
#
# Elastic Constant Matrix: (Units=GPa)
#
#
# Indices 1 2 3 4 5 6 
#
# 1 110.6808 61.2570 56.8171 -1.7177 3.1598 25.7861
# 2 61.2570 108.0571 65.6927 -8.5481 -2.2101 13.0552
# 3 56.8171 65.6927 151.8068 -30.7755 23.7208 -6.4321
# 4 -1.7177 -8.5481 -30.7755 44.9827 -8.5977 1.7977
# 5 3.1598 -2.2101 23.7208 -8.5977 45.7296 9.1704
# 6 25.7861 13.0552 -6.4321 1.7977 9.1704 49.4249
#
#
#
# Elastic Compliance Matrix: (Units=1/GPa)
#
#
# Indices 1 2 3 4 5 6 
#
# 1 0.016468 -0.005408 -0.005174 -0.003169 0.002324 -0.008153
# 2 -0.005408 0.016469 -0.006036 -0.000137 0.004921 -0.003222
# 3 -0.005174 -0.006036 0.013908 0.006470 -0.007384 0.007238
# 4 -0.003169 -0.000137 0.006470 0.026773 0.001638 0.001254
# 5 0.002324 0.004921 -0.007384 0.001638 0.027827 -0.008696
# 6 -0.008153 -0.003222 0.007238 0.001254 -0.008696 0.027847
#
#
# Mechanical properties :
#
#
# Convention : Reuss Voigt Hill
#
# Bulk Modulus (GPa) = 73.48368 82.00870 77.74619
# Shear Modulus (GPa) = 29.92855 40.47930 35.20392
#
# Velocity S-wave (km/s) = 3.49996 4.07040 3.79591
# Velocity P-wave (km/s) = 6.81248 7.46036 7.14377
#
# Compressibility (1/GPa) = 0.01360846
#
# Stress axis : x y z
#
# Youngs Moduli (GPa) = 60.72301 60.72101 71.90176
#
# Poissons Ratio (x) = 0.32840 0.37203
# Poissons Ratio (y) = 0.32841 0.43398
# Poissons Ratio (z) = 0.31419 0.36649
#
# Static dielectric constant tensor:
#      x y z
#    x 4.586370 0.017910 0.394930 
#    y 0.017910 4.939400 -0.398050 
#    z 0.394930 -0.398050 4.925700 
# 
# 
# High freq. dielectric constant tensor:
#      x y z
#    x 1.985150 0.017040 0.012310 
#    y 0.017040 1.952160 -0.007620 
#    z 0.012310 -0.007620 1.989960 
# 
# From -- ./inp_files/383229.got.cif
#   From: 2010.06.25/outbox.cif.g09.slc.cpg/sg2_192_cif.got.tgz:383229.got - 2010.06.27 13:26:56.
