data_PCOD8025607
_publ_section_title
;
Structure prediction by ZEFSAII (Michael W. Deem and Ramdas Pophale) SiO2 
 PCOD8025607
Probable space group: P -1
;
_chemical_formula_sum "Si O2"
_cell_formula_units_Z 16
_cell_length_a 17.326238
_cell_length_b 29.894440
_cell_length_c 11.323383
_cell_angle_alpha 29.630063
_cell_angle_beta 19.551594
_cell_angle_gamma 19.726984
_cell_volume 654.232327
_symmetry_space_group_name_H-M "P -1"
_symmetry_group_IT_number 2
_symmetry_cell_setting 'triclinic'
loop_
_space_group_symop_operation_xyz
x,y,z
-x,-y,-z
loop_
_atom_site_type_symbol
_atom_site_label
_atom_site_fract_x
_atom_site_fract_y
_atom_site_fract_z
Si Si1 0.709502 0.853233 0.292477
Si Si2 0.446797 0.614369 0.236594
Si Si3 0.626485 0.064102 0.180627
Si Si4 0.611985 0.202019 0.262861
Si Si5 0.388223 0.912154 0.110205
Si Si6 0.454964 0.600231 0.755525
Si Si7 0.198844 0.346134 0.751083
Si Si8 0.303043 0.475350 0.670357
O O1 0.570830 0.840225 0.639680
O O2 0.629484 0.810221 0.399135
O O3 0.114494 0.749644 0.947602
O O4 0.542614 0.000253 0.180713
O O5 0.180196 0.609091 0.598712
O O6 0.476747 0.632228 0.291874
O O7 0.331951 0.738157 0.053976
O O8 0.798839 0.465443 0.023316
O O9 0.500000 0.000000 0.500000
O O10 0.542250 0.141115 0.003435
O O11 0.032321 0.947758 0.876629
O O12 0.426945 0.303461 0.406106
O O13 0.664587 0.787663 0.084351
O O14 0.000000 0.000000 0.500000
O O15 0.758211 0.584018 0.378201
O O16 0.449312 0.577251 0.677970
O O17 0.500000 0.500000 0.000000
O O18 0.000000 0.500000 0.000000
#
# Coordination Sequence:
#
# PCOD8025607 Si02
#       8
#     2   2   2   2   2   2   2   2
#     4  11  25  42  67 102 136 184 237 285 354 420
#     4  11  26  46  73 108 147 184 234 296 361 420
#     4  10  23  45  70  96 137 188 239 286 347 421
#     4  12  24  45  69 104 144 183 235 296 353 422
#     4  11  22  45  69 102 138 187 237 289 349 418
#     4  12  24  43  72 104 140 185 236 286 355 429
#     4  12  23  43  73 101 146 184 234 294 355 417
#     4  11  25  46  69 104 146 184 233 286 359 428
#
# _framework density 24.456146
#
# number of rings (size 3 to 8) (size 9 to 14) (size 15 to 20)
#    0.000    0.750    3.750    3.750    0.000    6.500 
#    0.000    0.000    0.000    0.000    0.000    0.000 
#    0.000    0.000    0.000    0.000    0.000    0.000 
#
# Total GULP energy -198316.010540 kJ/mol
# GULP energy per Si atom -12394.750659 kJ/mol
# Density = 2.440048 g / cm^3
# Si number density = 24.456146 Si / 1000 Ang^3
#
#
#
# Elastic Constant Matrix: (Units=GPa)
#
#
# Indices 1 2 3 4 5 6 
#
# 1 145.7548 24.7314 38.6322 -8.5766 12.7805 7.0874
# 2 24.7314 70.6845 10.7365 -13.4027 -2.0293 -9.5746
# 3 38.6322 10.7365 71.0726 -6.9762 -5.0307 -0.4446
# 4 -8.5766 -13.4027 -6.9762 53.3960 6.6134 5.9836
# 5 12.7805 -2.0293 -5.0307 6.6134 59.0770 -3.3659
# 6 7.0874 -9.5746 -0.4446 5.9836 -3.3659 36.4185
#
#
#
# Elastic Compliance Matrix: (Units=1/GPa)
#
#
# Indices 1 2 3 4 5 6 
#
# 1 0.008969 -0.002759 -0.004587 0.000807 -0.002682 -0.002907
# 2 -0.002759 0.016397 -0.000585 0.002970 0.001031 0.004448
# 3 -0.004587 -0.000585 0.016916 0.000920 0.002367 0.001013
# 4 0.000807 0.002970 0.000920 0.020354 -0.002440 -0.002935
# 5 -0.002682 0.001031 0.002367 -0.002440 0.018183 0.002903
# 6 -0.002907 0.004448 0.001013 -0.002935 0.002903 0.029957
#
#
# Mechanical properties :
#
#
# Convention : Reuss Voigt Hill
#
# Bulk Modulus (GPa) = 37.85091 48.41247 43.13169
# Shear Modulus (GPa) = 36.91566 44.00575 40.46070
#
# Velocity S-wave (km/s) = 3.88940 4.24650 4.07187
# Velocity P-wave (km/s) = 5.97332 6.62437 6.30725
#
# Compressibility (1/GPa) = 0.02641944
#
# Stress axis : x y z
#
# Youngs Moduli (GPa) = 111.49816 60.98739 59.11560
#
# Poissons Ratio (x) = 0.16827 0.27117
# Poissons Ratio (y) = 0.30764 0.03458
# Poissons Ratio (z) = 0.51145 0.03567
#
# Static dielectric constant tensor:
#      x y z
#    x 4.971330 0.019720 0.261810 
#    y 0.019720 3.980300 -0.026560 
#    z 0.261810 -0.026560 4.484090 
# 
# 
# High freq. dielectric constant tensor:
#      x y z
#    x 1.989730 0.002860 0.008980 
#    y 0.002860 1.948260 0.002950 
#    z 0.008980 0.002950 1.991400 
# 
# From -- ./inp_files/467683.got.cif
#   From: 2010.06.25/outbox.cif.g09.slc.cpg/sg2_234_cif.got.tgz:467683.got - 2010.06.27 13:26:56.
