data_PCOD8025670
_publ_section_title
;
Structure prediction by ZEFSAII (Michael W. Deem and Ramdas Pophale) SiO2 
 PCOD8025670
Probable space group: P -1
;
_chemical_formula_sum "Si O2"
_cell_formula_units_Z 14
_cell_length_a 12.392802
_cell_length_b 11.003768
_cell_length_c 5.751281
_cell_angle_alpha 82.787027
_cell_angle_beta 101.162816
_cell_angle_gamma 132.645628
_cell_volume 565.957920
_symmetry_space_group_name_H-M "P -1"
_symmetry_group_IT_number 2
_symmetry_cell_setting 'triclinic'
loop_
_space_group_symop_operation_xyz
x,y,z
-x,-y,-z
loop_
_atom_site_type_symbol
_atom_site_label
_atom_site_fract_x
_atom_site_fract_y
_atom_site_fract_z
Si Si1 0.705383 0.398980 0.149645
Si Si2 0.808333 0.212415 0.364982
Si Si3 0.436822 0.085770 0.933538
Si Si4 0.799973 0.030543 0.789022
Si Si5 0.582664 0.539480 0.273416
Si Si6 0.163055 0.162965 0.464991
Si Si7 0.050093 0.297278 0.125135
O O1 0.739997 0.297068 0.321880
O O2 0.647073 0.449695 0.308089
O O3 0.577248 0.283271 0.923687
O O4 0.854291 0.555059 0.052613
O O5 0.853611 0.195136 0.638540
O O6 0.952518 0.318620 0.233413
O O7 0.687308 0.014369 0.295023
O O8 0.500000 0.000000 0.000000
O O9 0.358700 0.062255 0.146431
O O10 0.771256 0.885439 0.672825
O O11 0.935932 0.115275 0.004040
O O12 0.500000 0.500000 0.500000
O O13 0.723335 0.739713 0.291757
O O14 0.500000 0.500000 0.000000
O O15 0.161088 0.297309 0.322020
O O16 0.000000 0.000000 0.500000
#
# Coordination Sequence:
#
# PCOD8025670 Si02
#       7
#     2   2   2   2   2   2   2
#     4  11  24  45  72 106 151 190 244 312 378 457
#     4  10  23  45  72 108 143 192 246 303 380 445
#     4   9  22  43  66  99 139 194 239 295 365 448
#     4  11  23  44  74 104 144 191 253 306 367 452
#     4  12  29  52  74 112 154 204 253 318 387 448
#     4  12  25  47  78 106 144 198 254 311 372 458
#     4  11  24  46  71 112 146 192 248 310 386 440
#
# _framework density 24.736823999999999
#
# number of rings (size 3 to 8) (size 9 to 14) (size 15 to 20)
#    0.000    1.143    1.429    3.429    2.000    4.000 
#   18.000    0.000    0.000    0.000    0.000    0.000 
#    0.000    0.000    0.000    0.000    0.000    0.000 
#
# Total GULP energy -173456.708660 kJ/mol
# GULP energy per Si atom -12389.764904 kJ/mol
# Density = 2.468052 g / cm^3
# Si number density = 24.736824 Si / 1000 Ang^3
#
#
#
# Elastic Constant Matrix: (Units=GPa)
#
#
# Indices 1 2 3 4 5 6 
#
# 1 164.8669 41.8086 47.1018 12.0573 -23.6463 -6.8947
# 2 41.8086 109.2962 20.7414 29.9303 -0.0561 7.4338
# 3 47.1018 20.7414 88.7363 17.7106 2.3593 -1.2286
# 4 12.0573 29.9303 17.7106 31.5813 -4.9293 4.1979
# 5 -23.6463 -0.0561 2.3593 -4.9293 27.5508 8.1459
# 6 -6.8947 7.4338 -1.2286 4.1979 8.1459 39.7177
#
#
#
# Elastic Compliance Matrix: (Units=1/GPa)
#
#
# Indices 1 2 3 4 5 6 
#
# 1 0.009614 -0.003884 -0.005359 0.004539 0.009578 -0.000214
# 2 -0.003884 0.014087 0.001620 -0.013574 -0.005677 -0.000662
# 3 -0.005359 0.001620 0.015988 -0.010031 -0.008362 0.002036
# 4 0.004539 -0.013574 -0.010031 0.051611 0.015630 -0.005642
# 5 0.009578 -0.005677 -0.008362 0.015630 0.050862 -0.009617
# 6 -0.000214 -0.000662 0.002036 -0.005642 -0.009617 0.027896
#
#
# Mechanical properties :
#
#
# Convention : Reuss Voigt Hill
#
# Bulk Modulus (GPa) = 40.91167 64.68923 52.80045
# Shear Modulus (GPa) = 25.84610 36.65315 31.24963
#
# Velocity S-wave (km/s) = 3.23591 3.85349 3.55813
# Velocity P-wave (km/s) = 5.52595 6.78284 6.18640
#
# Compressibility (1/GPa) = 0.02444290
#
# Stress axis : x y z
#
# Youngs Moduli (GPa) = 104.00978 70.98598 62.54721
#
# Poissons Ratio (x) = 0.27574 0.33520
# Poissons Ratio (y) = 0.40402 -0.10134
# Poissons Ratio (z) = 0.55740 -0.11501
#
# Static dielectric constant tensor:
#      x y z
#    x 4.761390 0.119350 0.097630 
#    y 0.119350 4.838400 0.648290 
#    z 0.097630 0.648290 4.682690 
# 
# 
# High freq. dielectric constant tensor:
#      x y z
#    x 2.008130 0.005560 0.003740 
#    y 0.005560 1.989710 0.021180 
#    z 0.003740 0.021180 1.970080 
# 
# From -- ./inp_files/70740.got.cif
#   From: 2010.06.25/outbox.cif.g09.slc.cpg/sg2_36_cif.got.tgz:70740.got - 2010.06.27 13:26:56.
