data_PCOD8025497
_publ_section_title
;
Structure prediction by ZEFSAII (Michael W. Deem and Ramdas Pophale) SiO2 
 PCOD8025497
Probable space group: P -1
;
_chemical_formula_sum "Si O2"
_cell_formula_units_Z 14
_cell_length_a 19.508793
_cell_length_b 12.168925
_cell_length_c 9.459498
_cell_angle_alpha 139.801066
_cell_angle_beta 129.601427
_cell_angle_gamma 26.772527
_cell_volume 645.224284
_symmetry_space_group_name_H-M "P -1"
_symmetry_group_IT_number 2
_symmetry_cell_setting 'triclinic'
loop_
_space_group_symop_operation_xyz
x,y,z
-x,-y,-z
loop_
_atom_site_type_symbol
_atom_site_label
_atom_site_fract_x
_atom_site_fract_y
_atom_site_fract_z
Si Si1 0.069804 0.331077 0.074964
Si Si2 0.403505 0.275231 0.508390
Si Si3 0.291204 0.148447 0.379180
Si Si4 0.590689 0.803118 0.062578
Si Si5 0.341125 0.684090 0.407663
Si Si6 0.150176 0.875286 0.603280
Si Si7 0.191850 0.236099 0.627875
O O1 0.234616 0.156580 0.163524
O O2 0.964450 0.544852 0.277937
O O3 0.000000 0.500000 0.000000
O O4 0.099047 0.085475 0.863458
O O5 0.302183 0.336076 0.553141
O O6 0.296494 0.545378 0.528008
O O7 0.537181 0.181386 0.666774
O O8 0.487598 0.994845 0.253676
O O9 0.168870 0.298222 0.490302
O O10 0.734732 0.705941 0.157205
O O11 0.641790 0.525576 0.852171
O O12 0.500000 0.000000 0.000000
O O13 0.500000 0.500000 0.500000
O O14 0.206666 0.882548 0.543832
O O15 0.293012 0.906557 0.453976
O O16 0.000000 0.000000 0.500000
#
# Coordination Sequence:
#
# PCOD8025497 Si02
#       7
#     2   2   2   2   2   2   2
#     4  12  25  42  72  98 134 181 231 289 346 412
#     4  10  23  45  68  96 143 184 224 289 346 417
#     4  10  24  47  68  95 143 183 225 285 356 413
#     4  11  21  39  69  98 140 180 229 291 346 401
#     4  12  23  39  70 104 137 183 239 288 342 414
#     4  12  25  42  69 109 140 180 236 292 348 413
#     4  11  24  46  64 103 140 181 230 289 350 415
#
# _framework density 21.697882
#
# number of rings (size 3 to 8) (size 9 to 14) (size 15 to 20)
#    0.000    0.857    4.286    3.000    4.000    0.571 
#    7.714    0.714    0.000    0.000    0.000    0.000 
#    0.000    0.000    0.000    0.000    0.000    0.000 
#
# Total GULP energy -173496.430474 kJ/mol
# GULP energy per Si atom -12392.602177 kJ/mol
# Density = 2.164850 g / cm^3
# Si number density = 21.697882 Si / 1000 Ang^3
#
#
#
# Elastic Constant Matrix: (Units=GPa)
#
#
# Indices 1 2 3 4 5 6 
#
# 1 118.2056 35.1359 34.0871 -5.3793 -3.3958 -0.3269
# 2 35.1359 106.8739 71.1109 -26.4457 2.7643 -8.9996
# 3 34.0871 71.1109 122.0132 -5.4775 24.0775 7.4318
# 4 -5.3793 -26.4457 -5.4775 49.6710 0.5743 2.7611
# 5 -3.3958 2.7643 24.0775 0.5743 39.6921 -5.2672
# 6 -0.3269 -8.9996 7.4318 2.7611 -5.2672 28.4553
#
#
#
# Elastic Compliance Matrix: (Units=1/GPa)
#
#
# Indices 1 2 3 4 5 6 
#
# 1 0.009679 -0.001822 -0.002145 -0.000216 0.002332 0.000548
# 2 -0.001822 0.023069 -0.014948 0.009676 0.008739 0.011858
# 3 -0.002145 -0.014948 0.020614 -0.005094 -0.013177 -0.012081
# 4 -0.000216 0.009676 -0.005094 0.024536 0.002367 0.002446
# 5 0.002332 0.008739 -0.013177 0.002367 0.034385 0.012367
# 6 0.000548 0.011858 -0.012081 0.002446 0.012367 0.044107
#
#
# Mechanical properties :
#
#
# Convention : Reuss Voigt Hill
#
# Bulk Modulus (GPa) = 64.38690 69.75114 67.06902
# Shear Modulus (GPa) = 25.07556 37.34759 31.21157
#
# Velocity S-wave (km/s) = 3.40320 4.15330 3.79682
# Velocity P-wave (km/s) = 6.72169 7.43076 7.08510
#
# Compressibility (1/GPa) = 0.01553111
#
# Stress axis : x y z
#
# Youngs Moduli (GPa) = 103.31865 43.34872 48.50965
#
# Poissons Ratio (x) = 0.07899 0.10406
# Poissons Ratio (y) = 0.18828 0.72512
# Poissons Ratio (z) = 0.22164 0.64797
#
# Static dielectric constant tensor:
#      x y z
#    x 4.209380 0.000690 0.021360 
#    y 0.000690 3.967460 -0.196320 
#    z 0.021360 -0.196320 3.993600 
# 
# 
# High freq. dielectric constant tensor:
#      x y z
#    x 1.867610 -0.003940 0.000520 
#    y -0.003940 1.857120 -0.016470 
#    z 0.000520 -0.016470 1.840910 
# 
# From -- ./inp_files/316056.got.cif
#   From: 2010.06.25/outbox.cif.g09.slc.cpg/sg2_159_cif.got.tgz:316056.got - 2010.06.27 13:26:56.
