data_PCOD8025276
_publ_section_title
;
Structure prediction by ZEFSAII (Michael W. Deem and Ramdas Pophale) SiO2 
 PCOD8025276
Probable space group: P -1
;
_chemical_formula_sum "Si O2"
_cell_formula_units_Z 14
_cell_length_a 15.131252
_cell_length_b 15.216681
_cell_length_c 9.609725
_cell_angle_alpha 27.668522
_cell_angle_beta 147.009667
_cell_angle_gamma 144.461947
_cell_volume 537.005807
_symmetry_space_group_name_H-M "P -1"
_symmetry_group_IT_number 2
_symmetry_cell_setting 'triclinic'
loop_
_space_group_symop_operation_xyz
x,y,z
-x,-y,-z
loop_
_atom_site_type_symbol
_atom_site_label
_atom_site_fract_x
_atom_site_fract_y
_atom_site_fract_z
Si Si1 0.641752 0.855374 0.063243
Si Si2 0.372029 0.719981 0.502840
Si Si3 0.136485 0.296402 0.227387
Si Si4 0.258181 0.751082 0.767258
Si Si5 0.145160 0.678088 0.011321
Si Si6 0.252393 0.142352 0.106390
Si Si7 0.861092 0.611502 0.190128
O O1 0.710489 0.748136 0.427943
O O2 0.442466 0.766224 0.930602
O O3 0.715734 0.802284 0.090368
O O4 0.692808 0.089572 0.819494
O O5 0.574975 0.778168 0.685062
O O6 0.311715 0.563599 0.767266
O O7 0.280873 0.623810 0.372169
O O8 0.958018 0.194990 0.213216
O O9 0.146541 0.529580 0.903593
O O10 0.143723 0.241115 0.152374
O O11 0.255496 0.801978 0.857682
O O12 0.185297 0.906112 0.367931
O O13 0.000000 0.500000 0.000000
O O14 0.115486 0.245785 0.842893
O O15 0.000000 0.500000 0.500000
#
# Coordination Sequence:
#
# PCOD8025276 Si02
#       7
#     2   2   2   2   2   2   2
#     4  11  25  44  75 108 142 188 238 296 357 423
#     4  11  24  46  73 100 154 183 241 295 353 425
#     4  11  24  44  70 101 147 187 238 293 354 416
#     4  10  23  44  72 101 146 181 241 286 358 422
#     4  10  24  42  70 101 144 186 240 291 357 411
#     4  11  26  45  74 107 141 191 240 290 364 423
#     4  12  26  45  70 105 144 189 239 294 357 429
#
# _framework density 26.070482999999999
#
# number of rings (size 3 to 8) (size 9 to 14) (size 15 to 20)
#    0.000    1.143    1.429    4.286    8.000    2.857 
#    0.000    2.143    0.000    0.000    0.000    0.000 
#    0.000    0.000    0.000    0.000    0.000    0.000 
#
# Total GULP energy -173486.878120 kJ/mol
# GULP energy per Si atom -12391.919866 kJ/mol
# Density = 2.601115 g / cm^3
# Si number density = 26.070483 Si / 1000 Ang^3
#
#
#
# Elastic Constant Matrix: (Units=GPa)
#
#
# Indices 1 2 3 4 5 6 
#
# 1 185.5636 11.9058 44.5764 -3.2032 -18.8313 -21.1892
# 2 11.9058 50.8454 11.7741 20.4091 0.4035 -9.2008
# 3 44.5764 11.7741 100.1076 2.6648 -4.6334 -12.6181
# 4 -3.2032 20.4091 2.6648 37.4435 -12.1833 -5.2028
# 5 -18.8313 0.4035 -4.6334 -12.1833 52.0791 -0.0204
# 6 -21.1892 -9.2008 -12.6181 -5.2028 -0.0204 27.7295
#
#
#
# Elastic Compliance Matrix: (Units=1/GPa)
#
#
# Indices 1 2 3 4 5 6 
#
# 1 0.006900 -0.001632 -0.002283 0.003237 0.003063 0.004302
# 2 -0.001632 0.027701 -0.001805 -0.016077 -0.004725 0.004103
# 3 -0.002283 -0.001805 0.011602 0.000493 0.000337 0.003029
# 4 0.003237 -0.016077 0.000493 0.039856 0.010665 0.004849
# 5 0.003063 -0.004725 0.000337 0.010665 0.022872 0.002945
# 6 0.004302 0.004103 0.003029 0.004849 0.002945 0.043002
#
#
# Mechanical properties :
#
#
# Convention : Reuss Voigt Hill
#
# Bulk Modulus (GPa) = 28.76561 52.55880 40.66220
# Shear Modulus (GPa) = 28.57799 41.33443 34.95621
#
# Velocity S-wave (km/s) = 3.31446 3.98614 3.66571
# Velocity P-wave (km/s) = 5.07003 6.43349 5.79202
#
# Compressibility (1/GPa) = 0.03476373
#
# Stress axis : x y z
#
# Youngs Moduli (GPa) = 144.92656 36.09999 86.19014
#
# Poissons Ratio (x) = 0.05892 0.19674
# Poissons Ratio (y) = 0.23656 0.15556
# Poissons Ratio (z) = 0.33082 0.06515
#
# Static dielectric constant tensor:
#      x y z
#    x 5.636730 -0.147620 -0.401340 
#    y -0.147620 4.551450 -0.096160 
#    z -0.401340 -0.096160 4.765750 
# 
# 
# High freq. dielectric constant tensor:
#      x y z
#    x 2.065310 0.000530 -0.009540 
#    y 0.000530 2.032570 0.000480 
#    z -0.009540 0.000480 2.038630 
# 
# From -- ./inp_files/314422.got.cif
#   From: 2010.06.25/outbox.cif.g09.slc.cpg/sg2_158_cif.got.tgz:314422.got - 2010.06.27 13:26:56.
