data_PCOD8025748
_publ_section_title
;
Structure prediction by ZEFSAII (Michael W. Deem and Ramdas Pophale) SiO2 
 PCOD8025748
Probable space group: P -1
;
_chemical_formula_sum "Si O2"
_cell_formula_units_Z 16
_cell_length_a 12.031249
_cell_length_b 11.332307
_cell_length_c 6.614581
_cell_angle_alpha 125.784154
_cell_angle_beta 81.426320
_cell_angle_gamma 89.685980
_cell_volume 718.581282
_symmetry_space_group_name_H-M "P -1"
_symmetry_group_IT_number 2
_symmetry_cell_setting 'triclinic'
loop_
_space_group_symop_operation_xyz
x,y,z
-x,-y,-z
loop_
_atom_site_type_symbol
_atom_site_label
_atom_site_fract_x
_atom_site_fract_y
_atom_site_fract_z
Si Si1 0.363753 0.656001 0.855338
Si Si2 0.951072 0.082667 0.400010
Si Si3 0.939575 0.585236 0.791800
Si Si4 0.133315 0.633157 0.091094
Si Si5 0.503064 0.647796 0.439022
Si Si6 0.851968 0.875461 0.910777
Si Si7 0.491447 0.839450 0.254868
Si Si8 0.394053 0.125989 0.115835
O O1 0.385664 0.672321 0.624888
O O2 0.456769 0.523451 0.768613
O O3 0.242176 0.609864 0.894053
O O4 0.384653 0.811603 0.110743
O O5 0.866951 0.220002 0.633547
O O6 0.054252 0.135116 0.299187
O O7 0.000000 0.000000 0.500000
O O8 0.874737 0.991574 0.191037
O O9 0.866697 0.492271 0.864869
O O10 0.854603 0.717619 0.857770
O O11 0.000000 0.500000 0.500000
O O12 0.030474 0.646669 0.975434
O O13 0.481372 0.715215 0.294583
O O14 0.599249 0.737006 0.600831
O O15 0.730813 0.925894 0.886917
O O16 0.500000 0.000000 0.500000
O O17 0.600292 0.812761 0.053468
O O18 0.500000 0.000000 0.000000
#
# Coordination Sequence:
#
# PCOD8025748 Si02
#       8
#     2   2   2   2   2   2   2   2
#     4  10  25  42  67 100 134 179 224 290 341 413
#     4  11  24  46  67 105 139 183 232 283 350 412
#     4  11  24  45  67 103 139 175 236 281 349 415
#     4  11  25  43  71 101 136 181 231 285 349 412
#     4  10  23  46  64  95 141 175 232 281 347 406
#     4  11  26  45  72 100 141 184 229 293 345 415
#     4  11  23  43  67  96 132 177 231 276 346 410
#     4  11  25  43  68 103 134 182 233 283 348 409
#
# _framework density 22.266098
#
# number of rings (size 3 to 8) (size 9 to 14) (size 15 to 20)
#    0.000    1.250    3.750    0.375    5.250    4.000 
#    0.000    0.000    0.000    0.000    0.000    0.000 
#    0.000    0.000    0.000    0.000    0.000    0.000 
#
# Total GULP energy -198262.254616 kJ/mol
# GULP energy per Si atom -12391.390914 kJ/mol
# Density = 2.221542 g / cm^3
# Si number density = 22.266098 Si / 1000 Ang^3
#
#
#
# Elastic Constant Matrix: (Units=GPa)
#
#
# Indices 1 2 3 4 5 6 
#
# 1 110.2859 35.7239 32.7414 0.4368 -13.4046 9.5834
# 2 35.7239 108.9824 35.1392 -7.8576 -5.4177 0.0963
# 3 32.7414 35.1392 105.5213 -3.4077 -3.7049 2.7011
# 4 0.4368 -7.8576 -3.4077 45.1144 6.4924 -1.0823
# 5 -13.4046 -5.4177 -3.7049 6.4924 24.5227 -1.8529
# 6 9.5834 0.0963 2.7011 -1.0823 -1.8529 30.9950
#
#
#
# Elastic Compliance Matrix: (Units=1/GPa)
#
#
# Indices 1 2 3 4 5 6 
#
# 1 0.011683 -0.002882 -0.002443 -0.001679 0.005589 -0.003115
# 2 -0.002882 0.011151 -0.002789 0.001775 0.000085 0.001167
# 3 -0.002443 -0.002789 0.011169 0.000433 -0.000395 -0.000218
# 4 -0.001679 0.001775 0.000433 0.023497 -0.006613 0.000901
# 5 0.005589 0.000085 -0.000395 -0.006613 0.045604 0.000801
# 6 -0.003115 0.001167 -0.000218 0.000901 0.000801 0.033321
#
#
# Mechanical properties :
#
#
# Convention : Reuss Voigt Hill
#
# Bulk Modulus (GPa) = 56.26005 59.11097 57.68551
# Shear Modulus (GPa) = 31.53000 34.87209 33.20104
#
# Velocity S-wave (km/s) = 3.76713 3.96176 3.86567
# Velocity P-wave (km/s) = 6.65159 6.89438 6.77408
#
# Compressibility (1/GPa) = 0.01777460
#
# Stress axis : x y z
#
# Youngs Moduli (GPa) = 85.59410 89.67918 89.53178
#
# Poissons Ratio (x) = 0.25848 0.21877
# Poissons Ratio (y) = 0.24670 0.24966
# Poissons Ratio (z) = 0.20915 0.25007
#
# Static dielectric constant tensor:
#      x y z
#    x 3.759780 0.225150 0.095690 
#    y 0.225150 4.267300 -0.171850 
#    z 0.095690 -0.171850 4.388040 
# 
# 
# High freq. dielectric constant tensor:
#      x y z
#    x 1.849710 0.019720 0.005820 
#    y 0.019720 1.891430 -0.007520 
#    z 0.005820 -0.007520 1.899340 
# 
# From -- ./inp_files/72191.got.cif
#   From: 2010.06.25/outbox.cif.g09.slc.cpg/sg2_37_cif.got.tgz:72191.got - 2010.06.27 13:26:56.
