data_PCOD8025055
_publ_section_title
;
Structure prediction by ZEFSAII (Michael W. Deem and Ramdas Pophale) SiO2 
 PCOD8025055
Probable space group: P -1
;
_chemical_formula_sum "Si O2"
_cell_formula_units_Z 16
_cell_length_a 9.559362
_cell_length_b 14.212585
_cell_length_c 12.121786
_cell_angle_alpha 61.770155
_cell_angle_beta 69.430398
_cell_angle_gamma 122.725142
_cell_volume 700.413946
_symmetry_space_group_name_H-M "P -1"
_symmetry_group_IT_number 2
_symmetry_cell_setting 'triclinic'
loop_
_space_group_symop_operation_xyz
x,y,z
-x,-y,-z
loop_
_atom_site_type_symbol
_atom_site_label
_atom_site_fract_x
_atom_site_fract_y
_atom_site_fract_z
Si Si1 0.789201 0.697333 0.738646
Si Si2 0.901126 0.202128 0.595545
Si Si3 0.340893 0.012453 0.563879
Si Si4 0.562585 0.346856 0.214149
Si Si5 0.040357 0.750063 0.986013
Si Si6 0.885855 0.424747 0.452308
Si Si7 0.775839 0.591620 0.376172
Si Si8 0.346789 0.731129 0.971351
O O1 0.751515 0.791758 0.641796
O O2 0.837455 0.647487 0.648769
O O3 0.076700 0.867968 0.635271
O O4 0.500000 0.500000 0.000000
O O5 0.735310 0.214472 0.606190
O O6 0.035187 0.278454 0.638684
O O7 0.676233 0.966633 0.778841
O O8 0.500000 0.000000 0.500000
O O9 0.558552 0.244170 0.355993
O O10 0.235849 0.955929 0.751552
O O11 0.754729 0.557596 0.097936
O O12 0.675880 0.383425 0.040806
O O13 0.972770 0.746730 0.130707
O O14 0.207945 0.742230 0.936747
O O15 0.692693 0.413040 0.485489
O O16 0.000000 0.500000 0.500000
O O17 0.172997 0.598557 0.202431
O O18 0.500000 0.500000 0.500000
#
# Coordination Sequence:
#
# PCOD8025055 Si02
#       8
#     2   2   2   2   2   2   2   2
#     4  12  24  42  70 102 138 178 223 291 342 398
#     4  11  23  45  69  96 133 175 231 277 332 409
#     4  12  25  42  66 101 135 179 226 273 339 413
#     4  12  24  42  67  99 142 172 226 275 349 394
#     4  11  24  42  66  99 136 182 217 280 339 407
#     4   9  22  41  67  94 125 175 222 274 332 399
#     4  10  23  44  68  94 131 177 224 277 337 395
#     4  11  23  40  69  99 133 176 226 277 338 405
#
# _framework density 22.843634999999999
#
# number of rings (size 3 to 8) (size 9 to 14) (size 15 to 20)
#    0.000    1.000    3.750    2.250    0.000    7.500 
#    0.000    1.250    0.000   10.500    0.000    0.000 
#    0.000    0.000    0.000    0.000    0.000    0.000 
#
# Total GULP energy -198235.349682 kJ/mol
# GULP energy per Si atom -12389.709355 kJ/mol
# Density = 2.279164 g / cm^3
# Si number density = 22.843635 Si / 1000 Ang^3
#
#
#
# Elastic Constant Matrix: (Units=GPa)
#
#
# Indices 1 2 3 4 5 6 
#
# 1 125.9726 5.6235 21.7057 20.1451 -10.6451 2.6155
# 2 5.6235 81.7097 34.9065 31.8343 0.0134 12.6790
# 3 21.7057 34.9065 86.6523 33.8636 14.0404 9.5477
# 4 20.1451 31.8343 33.8636 43.0322 5.9981 -0.7838
# 5 -10.6451 0.0134 14.0404 5.9981 40.9440 2.6619
# 6 2.6155 12.6790 9.5477 -0.7838 2.6619 30.4606
#
#
#
# Elastic Compliance Matrix: (Units=1/GPa)
#
#
# Indices 1 2 3 4 5 6 
#
# 1 0.009357 0.002478 -0.001621 -0.005517 0.003914 -0.001811
# 2 0.002478 0.020344 -0.002804 -0.014762 0.004318 -0.008559
# 3 -0.001621 -0.002804 0.018801 -0.011358 -0.004915 -0.004450
# 4 -0.005517 -0.014762 -0.011358 0.046611 -0.005132 0.011826
# 5 0.003914 0.004318 -0.004915 -0.005132 0.028083 -0.003179
# 6 -0.001811 -0.008559 -0.004450 0.011826 -0.003179 0.038524
#
#
# Mechanical properties :
#
#
# Convention : Reuss Voigt Hill
#
# Bulk Modulus (GPa) = 22.41640 46.53400 34.47520
# Shear Modulus (GPa) = 27.70313 38.36062 33.03187
#
# Velocity S-wave (km/s) = 3.48620 4.10233 3.80675
# Velocity P-wave (km/s) = 5.10285 6.54628 5.86911
#
# Compressibility (1/GPa) = 0.04461019
#
# Stress axis : x y z
#
# Youngs Moduli (GPa) = 106.86647 49.15348 53.18766
#
# Poissons Ratio (x) = -0.12181 0.08621
# Poissons Ratio (y) = -0.26484 0.14913
# Poissons Ratio (z) = 0.17322 0.13782
#
# Static dielectric constant tensor:
#      x y z
#    x 4.899350 -0.098430 0.031690 
#    y -0.098430 4.140840 0.078170 
#    z 0.031690 0.078170 4.686490 
# 
# 
# High freq. dielectric constant tensor:
#      x y z
#    x 1.918170 0.007670 0.009510 
#    y 0.007670 1.894170 0.021910 
#    z 0.009510 0.021910 1.901110 
# 
# From -- ./inp_files/398774.got.cif
#   From: 2010.06.25/outbox.cif.g09.slc.cpg/sg2_200_cif.got.tgz:398774.got - 2010.06.27 13:26:56.
