data_PCOD8025378
_publ_section_title
;
Structure prediction by ZEFSAII (Michael W. Deem and Ramdas Pophale) SiO2 
 PCOD8025378
Probable space group: P -1
;
_chemical_formula_sum "Si O2"
_cell_formula_units_Z 16
_cell_length_a 11.945894
_cell_length_b 8.556459
_cell_length_c 9.839037
_cell_angle_alpha 93.465259
_cell_angle_beta 82.002321
_cell_angle_gamma 127.367219
_cell_volume 791.144204
_symmetry_space_group_name_H-M "P -1"
_symmetry_group_IT_number 2
_symmetry_cell_setting 'triclinic'
loop_
_space_group_symop_operation_xyz
x,y,z
-x,-y,-z
loop_
_atom_site_type_symbol
_atom_site_label
_atom_site_fract_x
_atom_site_fract_y
_atom_site_fract_z
Si Si1 0.010923 0.860938 0.312315
Si Si2 0.817771 0.428096 0.224231
Si Si3 0.458525 0.112015 0.922525
Si Si4 0.140969 0.962399 0.581546
Si Si5 0.387404 0.962255 0.625949
Si Si6 0.818353 0.942638 0.973471
Si Si7 0.282785 0.487483 0.008225
Si Si8 0.008955 0.716104 0.840792
O O1 0.938884 0.638334 0.275833
O O2 0.884938 0.877683 0.367931
O O3 0.110612 0.910461 0.426383
O O4 0.114674 0.011044 0.185026
O O5 0.718836 0.273779 0.350450
O O6 0.899484 0.355809 0.129719
O O7 0.718619 0.437449 0.136673
O O8 0.568514 0.347514 0.936801
O O9 0.460536 0.067938 0.761364
O O10 0.302255 0.026984 0.994199
O O11 0.500000 0.000000 0.000000
O O12 0.302171 0.044285 0.591117
O O13 0.032880 0.768093 0.680014
O O14 0.500000 0.000000 0.500000
O O15 0.740686 0.716844 0.013959
O O16 0.942633 0.091270 0.068081
O O17 0.156324 0.455515 0.117597
#
# Coordination Sequence:
#
# PCOD8025378 Si02
#       8
#     2   2   2   2   2   2   2   2
#     4  11  24  40  72  99 130 172 223 282 331 387
#     4  11  23  39  68  99 127 167 227 275 330 384
#     4  12  26  44  65  96 137 173 226 272 322 402
#     4  10  23  45  63  96 138 166 223 276 328 393
#     4  11  26  47  65  93 137 183 213 272 338 400
#     4  12  23  42  68  98 131 175 218 277 334 384
#     4  12  23  38  68 100 131 172 221 271 333 389
#     4  11  21  40  67  98 128 170 219 280 326 387
#
# _framework density 20.223873999999999
#
# number of rings (size 3 to 8) (size 9 to 14) (size 15 to 20)
#    0.000    0.750    6.250    1.875    3.500    3.000 
#    0.000    0.625    0.000    0.000    0.000    0.000 
#    0.000    0.000    0.000    0.000    0.000    0.000 
#
# Total GULP energy -198437.390737 kJ/mol
# GULP energy per Si atom -12402.336921 kJ/mol
# Density = 2.017784 g / cm^3
# Si number density = 20.223874 Si / 1000 Ang^3
#
#
#
# Elastic Constant Matrix: (Units=GPa)
#
#
# Indices 1 2 3 4 5 6 
#
# 1 90.7172 17.0232 49.5005 -3.4670 -0.9489 -0.8905
# 2 17.0232 102.7101 24.4574 9.5455 2.4787 -3.8662
# 3 49.5005 24.4574 128.4028 5.1815 6.3734 1.2537
# 4 -3.4670 9.5455 5.1815 30.2445 3.5757 -1.2203
# 5 -0.9489 2.4787 6.3734 3.5757 36.2196 -6.1264
# 6 -0.8905 -3.8662 1.2537 -1.2203 -6.1264 35.1769
#
#
#
# Elastic Compliance Matrix: (Units=1/GPa)
#
#
# Indices 1 2 3 4 5 6 
#
# 1 0.014399 -0.001354 -0.005480 0.002896 0.001272 0.000733
# 2 -0.001354 0.010630 -0.001382 -0.003228 -0.000020 0.001068
# 3 -0.005480 -0.001382 0.010339 -0.001785 -0.001869 -0.001047
# 4 0.002896 -0.003228 -0.001785 0.035068 -0.002764 0.000517
# 5 0.001272 -0.000020 -0.001869 -0.002764 0.029103 0.005069
# 6 0.000733 0.001068 -0.001047 0.000517 0.005069 0.029502
#
#
# Mechanical properties :
#
#
# Convention : Reuss Voigt Hill
#
# Bulk Modulus (GPa) = 52.80951 55.97694 54.39322
# Shear Modulus (GPa) = 32.94134 35.71813 34.32974
#
# Velocity S-wave (km/s) = 4.04026 4.20710 4.12453
# Velocity P-wave (km/s) = 6.92344 7.16508 7.04530
#
# Compressibility (1/GPa) = 0.01893598
#
# Stress axis : x y z
#
# Youngs Moduli (GPa) = 69.45036 94.07081 96.72202
#
# Poissons Ratio (x) = 0.12735 0.53005
# Poissons Ratio (y) = 0.09402 0.13368
# Poissons Ratio (z) = 0.38060 0.13001
#
# Static dielectric constant tensor:
#      x y z
#    x 3.896590 -0.070660 0.021850 
#    y -0.070660 3.800430 0.023040 
#    z 0.021850 0.023040 3.681890 
# 
# 
# High freq. dielectric constant tensor:
#      x y z
#    x 1.802960 -0.010140 0.004020 
#    y -0.010140 1.786540 -0.002900 
#    z 0.004020 -0.002900 1.787250 
# 
# From -- ./inp_files/187712.got.cif
#   From: 2010.06.25/outbox.cif.g09.slc.cpg/sg2_94_cif.got.tgz:187712.got - 2010.06.27 13:26:56.
