data_PCOD8025225
_publ_section_title
;
Structure prediction by ZEFSAII (Michael W. Deem and Ramdas Pophale) SiO2 
 PCOD8025225
Probable space group: P -1
;
_chemical_formula_sum "Si O2"
_cell_formula_units_Z 12
_cell_length_a 14.535344
_cell_length_b 15.146696
_cell_length_c 8.918551
_cell_angle_alpha 37.882067
_cell_angle_beta 32.702709
_cell_angle_gamma 27.695386
_cell_volume 485.356847
_symmetry_space_group_name_H-M "P -1"
_symmetry_group_IT_number 2
_symmetry_cell_setting 'triclinic'
loop_
_space_group_symop_operation_xyz
x,y,z
-x,-y,-z
loop_
_atom_site_type_symbol
_atom_site_label
_atom_site_fract_x
_atom_site_fract_y
_atom_site_fract_z
Si Si1 0.151343 0.198216 0.838552
Si Si2 0.715036 0.477245 0.261088
Si Si3 0.544731 0.890211 0.934145
Si Si4 0.240677 0.672050 0.292993
Si Si5 0.830836 0.943687 0.311554
Si Si6 0.404029 0.342821 0.296437
O O1 0.122807 0.107262 0.860156
O O2 0.256990 0.290579 0.509998
O O3 0.900360 0.369539 0.019027
O O4 0.317561 0.027313 0.958370
O O5 0.500000 0.500000 0.500000
O O6 0.612288 0.690577 0.149301
O O7 0.841052 0.341909 0.417373
O O8 0.765054 0.827888 0.630059
O O9 0.500000 0.000000 0.000000
O O10 0.253072 0.529909 0.354628
O O11 0.049343 0.881218 0.191538
O O12 0.478880 0.628858 0.037163
O O13 0.615627 0.167359 0.340818
#
# Coordination Sequence:
#
# PCOD8025225 Si02
#       6
#     2   2   2   2   2   2
#     4  11  26  45  74 100 137 185 233 283 345 409
#     4  12  29  45  69 105 145 181 230 292 350 410
#     4  11  24  47  74 102 141 186 233 280 346 421
#     4  11  25  43  69 101 140 178 226 286 348 406
#     4  11  24  43  75 101 135 182 233 283 338 415
#     4  10  23  44  71 101 135 177 233 280 341 412
#
# _framework density 24.724077000000001
#
# number of rings (size 3 to 8) (size 9 to 14) (size 15 to 20)
#    0.000    1.000    0.000    6.500    9.333    4.000 
#    3.000    0.000    0.000    0.000    0.000    0.000 
#    0.000    0.000    0.000    0.000    0.000    0.000 
#
# Total GULP energy -148790.379282 kJ/mol
# GULP energy per Si atom -12399.198274 kJ/mol
# Density = 2.466780 g / cm^3
# Si number density = 24.724077 Si / 1000 Ang^3
#
#
#
# Elastic Constant Matrix: (Units=GPa)
#
#
# Indices 1 2 3 4 5 6 
#
# 1 110.8186 35.2121 34.9862 10.8123 9.5551 -7.1938
# 2 35.2121 104.0407 19.1810 13.9055 9.0221 -3.9082
# 3 34.9862 19.1810 99.2865 16.3109 0.2037 -0.5806
# 4 10.8123 13.9055 16.3109 40.2963 -7.1456 -0.3391
# 5 9.5551 9.0221 0.2037 -7.1456 41.7509 4.8630
# 6 -7.1938 -3.9082 -0.5806 -0.3391 4.8630 32.9418
#
#
#
# Elastic Compliance Matrix: (Units=1/GPa)
#
#
# Indices 1 2 3 4 5 6 
#
# 1 0.011438 -0.002799 -0.003273 -0.001199 -0.002489 0.002463
# 2 -0.002799 0.011385 -0.000651 -0.003351 -0.002514 0.001065
# 3 -0.003273 -0.000651 0.011953 -0.003692 0.000277 -0.000660
# 4 -0.001199 -0.003351 -0.003692 0.028861 0.006111 -0.001329
# 5 -0.002489 -0.002514 0.000277 0.006111 0.026657 -0.004709
# 6 0.002463 0.001065 -0.000660 -0.001329 -0.004709 0.031691
#
#
# Mechanical properties :
#
#
# Convention : Reuss Voigt Hill
#
# Bulk Modulus (GPa) = 46.88478 54.76714 50.82596
# Shear Modulus (GPa) = 35.07739 37.98223 36.52981
#
# Velocity S-wave (km/s) = 3.77072 3.92375 3.84800
# Velocity P-wave (km/s) = 6.16134 6.53660 6.35174
#
# Compressibility (1/GPa) = 0.02132888
#
# Stress axis : x y z
#
# Youngs Moduli (GPa) = 87.42772 87.83580 83.65991
#
# Poissons Ratio (x) = 0.24586 0.27384
# Poissons Ratio (y) = 0.24472 0.05448
# Poissons Ratio (z) = 0.28617 0.05720
#
# Static dielectric constant tensor:
#      x y z
#    x 4.471490 -0.251880 0.264260 
#    y -0.251880 4.511000 -0.211220 
#    z 0.264260 -0.211220 5.285600 
# 
# 
# High freq. dielectric constant tensor:
#      x y z
#    x 1.974950 -0.007430 -0.006460 
#    y -0.007430 1.997590 -0.008920 
#    z -0.006460 -0.008920 2.003760 
# 
# From -- ./inp_files/184754.got.cif
#   From: 2010.06.25/outbox.cif.g09.slc.cpg/sg2_93_cif.got.tgz:184754.got - 2010.06.27 13:26:56.
