data_PCOD8025875
_publ_section_title
;
Structure prediction by ZEFSAII (Michael W. Deem and Ramdas Pophale) SiO2 
 PCOD8025875
Probable space group: P -1
;
_chemical_formula_sum "Si O2"
_cell_formula_units_Z 14
_cell_length_a 9.591135
_cell_length_b 12.107926
_cell_length_c 17.913529
_cell_angle_alpha 132.263452
_cell_angle_beta 150.202340
_cell_angle_gamma 36.926690
_cell_volume 619.517375
_symmetry_space_group_name_H-M "P -1"
_symmetry_group_IT_number 2
_symmetry_cell_setting 'triclinic'
loop_
_space_group_symop_operation_xyz
x,y,z
-x,-y,-z
loop_
_atom_site_type_symbol
_atom_site_label
_atom_site_fract_x
_atom_site_fract_y
_atom_site_fract_z
Si Si1 0.660792 0.415924 0.616157
Si Si2 0.691206 0.352378 0.846920
Si Si3 0.596274 0.738092 0.821516
Si Si4 0.798841 0.050815 0.853524
Si Si5 0.333296 0.321974 0.538280
Si Si6 0.136623 0.779762 0.757484
Si Si7 0.258591 0.035332 0.673299
O O1 0.500000 0.500000 0.500000
O O2 0.678411 0.552896 0.739741
O O3 0.417380 0.365934 0.516954
O O4 0.050035 0.234521 0.705699
O O5 0.653718 0.254983 0.712674
O O6 0.402279 0.570538 0.814454
O O7 0.646138 0.261084 0.856966
O O8 0.067824 0.310107 0.000055
O O9 0.284000 0.820179 0.772495
O O10 0.497563 0.884687 0.777997
O O11 0.070320 0.916258 0.855038
O O12 0.489130 0.029346 0.710546
O O13 0.000000 0.000000 0.000000
O O14 0.000000 0.500000 0.500000
O O15 0.235908 0.178268 0.417877
O O16 0.000000 0.000000 0.500000
#
# Coordination Sequence:
#
# PCOD8025875 Si02
#       7
#     2   2   2   2   2   2   2
#     4  12  26  45  76 104 147 190 240 297 357 429
#     4  11  26  45  75 102 148 185 244 292 360 424
#     4  12  26  47  71 111 140 191 241 295 365 424
#     4  12  29  49  68 110 144 188 239 299 364 423
#     4  10  23  46  71 109 136 185 246 289 353 425
#     4  11  27  46  78 101 144 189 244 295 356 429
#     4  12  28  46  71 106 149 187 241 295 361 427
#
# _framework density 22.598236
#
# number of rings (size 3 to 8) (size 9 to 14) (size 15 to 20)
#    0.000    0.571    5.714    1.286   10.000    1.714 
#    0.000    0.000    0.000    0.000    0.000    0.000 
#    0.000    0.000    0.000    0.000    0.000    0.000 
#
# Total GULP energy -173651.559944 kJ/mol
# GULP energy per Si atom -12403.682853 kJ/mol
# Density = 2.254680 g / cm^3
# Si number density = 22.598236 Si / 1000 Ang^3
#
#
#
# Elastic Constant Matrix: (Units=GPa)
#
#
# Indices 1 2 3 4 5 6 
#
# 1 150.6605 26.4422 38.3396 3.5050 15.5273 2.5231
# 2 26.4422 75.1883 3.5488 -5.0818 4.2893 -6.1892
# 3 38.3396 3.5488 146.2082 6.8349 7.1055 -2.4918
# 4 3.5050 -5.0818 6.8349 29.5985 2.6648 -5.9973
# 5 15.5273 4.2893 7.1055 2.6648 40.8053 6.6576
# 6 2.5231 -6.1892 -2.4918 -5.9973 6.6576 44.9108
#
#
#
# Elastic Compliance Matrix: (Units=1/GPa)
#
#
# Indices 1 2 3 4 5 6 
#
# 1 0.007836 -0.002661 -0.001853 -0.000901 -0.002206 -0.000703
# 2 -0.002661 0.014765 0.000288 0.003478 -0.001282 0.002855
# 3 -0.001853 0.000288 0.007417 -0.001293 -0.000609 0.000473
# 4 -0.000901 0.003478 -0.001293 0.036234 -0.003103 0.005757
# 5 -0.002206 -0.001282 -0.000609 -0.003103 0.026513 -0.004431
# 6 -0.000703 0.002855 0.000473 0.005757 -0.004431 0.024151
#
#
# Mechanical properties :
#
#
# Convention : Reuss Voigt Hill
#
# Bulk Modulus (GPa) = 46.37022 56.52424 51.44723
# Shear Modulus (GPa) = 37.71971 43.31134 40.51552
#
# Velocity S-wave (km/s) = 4.08995 4.38263 4.23881
# Velocity P-wave (km/s) = 6.54733 7.11877 6.83902
#
# Compressibility (1/GPa) = 0.02156557
#
# Stress axis : x y z
#
# Youngs Moduli (GPa) = 127.61439 67.72554 134.83303
#
# Poissons Ratio (x) = 0.18024 0.24983
# Poissons Ratio (y) = 0.33962 -0.03881
# Poissons Ratio (z) = 0.23646 -0.01950
#
# Static dielectric constant tensor:
#      x y z
#    x 4.409950 0.060420 0.170820 
#    y 0.060420 4.196060 0.128090 
#    z 0.170820 0.128090 4.659490 
# 
# 
# High freq. dielectric constant tensor:
#      x y z
#    x 1.902150 0.009840 0.003260 
#    y 0.009840 1.892190 0.004010 
#    z 0.003260 0.004010 1.902180 
# 
# From -- ./inp_files/244327.got.cif
#   From: 2010.06.25/outbox.cif.g09.slc.cpg/sg2_123_cif.got.tgz:244327.got - 2010.06.27 13:26:56.
