data_PCOD8025874
_publ_section_title
;
Structure prediction by ZEFSAII (Michael W. Deem and Ramdas Pophale) SiO2 
 PCOD8025874
Probable space group: P -1
;
_chemical_formula_sum "Si O2"
_cell_formula_units_Z 14
_cell_length_a 8.691669
_cell_length_b 18.692953
_cell_length_c 15.227570
_cell_angle_alpha 20.992556
_cell_angle_beta 135.343402
_cell_angle_gamma 140.448102
_cell_volume 563.996819
_symmetry_space_group_name_H-M "P -1"
_symmetry_group_IT_number 2
_symmetry_cell_setting 'triclinic'
loop_
_space_group_symop_operation_xyz
x,y,z
-x,-y,-z
loop_
_atom_site_type_symbol
_atom_site_label
_atom_site_fract_x
_atom_site_fract_y
_atom_site_fract_z
Si Si1 0.754160 0.987111 0.955161
Si Si2 0.443307 0.051921 0.321811
Si Si3 0.084082 0.375104 0.928397
Si Si4 0.537471 0.249285 0.463962
Si Si5 0.915789 0.936447 0.263676
Si Si6 0.219865 0.468441 0.079292
Si Si7 0.358901 0.538842 0.319615
O O1 0.683050 0.187331 0.670796
O O2 0.769021 0.989255 0.064826
O O3 0.541807 0.759053 0.090833
O O4 0.000000 0.000000 0.000000
O O5 0.544611 0.311399 0.056401
O O6 0.500000 0.000000 0.500000
O O7 0.566454 0.951844 0.416682
O O8 0.156816 0.934242 0.321011
O O9 0.290509 0.524474 0.774254
O O10 0.173592 0.425038 0.007117
O O11 0.853926 0.421995 0.766638
O O12 0.996981 0.116029 0.168108
O O13 0.300874 0.281994 0.364273
O O14 0.755542 0.689744 0.521666
O O15 0.000000 0.500000 0.000000
O O16 0.500000 0.500000 0.500000
#
# Coordination Sequence:
#
# PCOD8025874 Si02
#       7
#     2   2   2   2   2   2   2
#     4  11  24  46  76 112 157 191 245 307 376 449
#     4  12  22  45  78 107 145 196 251 308 371 442
#     4  12  24  48  76 109 144 200 257 298 378 446
#     4  12  24  47  76 109 148 200 246 306 377 446
#     4  11  23  45  77 110 146 198 247 311 369 440
#     4  12  29  49  73 112 151 196 254 314 370 443
#     4  10  23  46  71 108 148 191 249 303 365 443
#
# _framework density 24.822835000000001
#
# number of rings (size 3 to 8) (size 9 to 14) (size 15 to 20)
#    0.000    0.571    5.714    2.143    2.000    3.429 
#    7.714    0.000    0.000    0.000    0.000    0.000 
#    0.000    0.000    0.000    0.000    0.000    0.000 
#
# Total GULP energy -173495.869001 kJ/mol
# GULP energy per Si atom -12392.562072 kJ/mol
# Density = 2.476634 g / cm^3
# Si number density = 24.822835 Si / 1000 Ang^3
#
#
#
# Elastic Constant Matrix: (Units=GPa)
#
#
# Indices 1 2 3 4 5 6 
#
# 1 85.6684 47.4368 57.8120 1.1612 21.5770 4.1192
# 2 47.4368 128.9307 61.9592 -21.6483 10.3314 8.8030
# 3 57.8120 61.9592 153.3900 -1.9646 31.8991 16.5007
# 4 1.1612 -21.6483 -1.9646 67.2701 8.4714 8.4805
# 5 21.5770 10.3314 31.8991 8.4714 41.5994 0.9384
# 6 4.1192 8.8030 16.5007 8.4805 0.9384 32.7724
#
#
#
# Elastic Compliance Matrix: (Units=1/GPa)
#
#
# Indices 1 2 3 4 5 6 
#
# 1 0.018242 -0.004689 -0.004171 -0.001541 -0.004822 0.001603
# 2 -0.004689 0.011554 -0.002829 0.003858 0.000994 -0.002116
# 3 -0.004171 -0.002829 0.010836 0.000698 -0.005491 -0.004195
# 4 -0.001541 0.003858 0.000698 0.017374 -0.004107 -0.005572
# 5 -0.004822 0.000994 -0.005491 -0.004107 0.031266 0.003271
# 6 0.001603 -0.002116 -0.004195 -0.005572 0.003271 0.034341
#
#
# Mechanical properties :
#
#
# Convention : Reuss Voigt Hill
#
# Bulk Modulus (GPa) = 57.95923 78.04500 68.00212
# Shear Modulus (GPa) = 32.73481 41.71378 37.22430
#
# Velocity S-wave (km/s) = 3.63538 4.10379 3.87667
# Velocity P-wave (km/s) = 6.40478 7.34601 6.89148
#
# Compressibility (1/GPa) = 0.01725351
#
# Stress axis : x y z
#
# Youngs Moduli (GPa) = 54.81772 86.55292 92.28254
#
# Poissons Ratio (x) = 0.40587 0.38489
# Poissons Ratio (y) = 0.25705 0.26109
# Poissons Ratio (z) = 0.22863 0.24488
#
# Static dielectric constant tensor:
#      x y z
#    x 3.766740 0.164090 0.538180 
#    y 0.164090 5.081730 0.007900 
#    z 0.538180 0.007900 4.585970 
# 
# 
# High freq. dielectric constant tensor:
#      x y z
#    x 1.970970 0.005810 0.010150 
#    y 0.005810 2.003120 0.001820 
#    z 0.010150 0.001820 2.006660 
# 
# From -- ./inp_files/562608.got.cif
#   From: 2010.06.25/outbox.cif.g09.slc.cpg/sg2_282_cif.got.tgz:562608.got - 2010.06.27 13:26:56.
