data_PCOD8025452
_publ_section_title
;
Structure prediction by ZEFSAII (Michael W. Deem and Ramdas Pophale) SiO2 
 PCOD8025452
Probable space group: P -1
;
_chemical_formula_sum "Si O2"
_cell_formula_units_Z 14
_cell_length_a 9.340371
_cell_length_b 15.888517
_cell_length_c 12.696742
_cell_angle_alpha 152.431641
_cell_angle_beta 117.259884
_cell_angle_gamma 50.924548
_cell_volume 649.823537
_symmetry_space_group_name_H-M "P -1"
_symmetry_group_IT_number 2
_symmetry_cell_setting 'triclinic'
loop_
_space_group_symop_operation_xyz
x,y,z
-x,-y,-z
loop_
_atom_site_type_symbol
_atom_site_label
_atom_site_fract_x
_atom_site_fract_y
_atom_site_fract_z
Si Si1 0.679056 0.523997 0.076015
Si Si2 0.919473 0.876024 0.280238
Si Si3 0.610289 0.857573 0.275081
Si Si4 0.712416 0.801666 0.570769
Si Si5 0.734739 0.021716 0.164630
Si Si6 0.292498 0.326227 0.338975
Si Si7 0.066828 0.815050 0.730190
O O1 0.660750 0.619937 0.058910
O O2 0.662899 0.674902 0.332292
O O3 0.500000 0.500000 0.000000
O O4 0.894980 0.319592 0.932221
O O5 0.813799 0.826054 0.280554
O O6 0.761696 0.016454 0.293270
O O7 0.000000 0.000000 0.500000
O O8 0.500000 0.000000 0.500000
O O9 0.473429 0.950431 0.228226
O O10 0.750875 0.692660 0.575894
O O11 0.893230 0.813937 0.615848
O O12 0.517721 0.189555 0.242553
O O13 0.846863 0.120661 0.262830
O O14 0.802862 0.779496 0.878322
O O15 0.211322 0.574722 0.559180
O O16 0.000000 0.000000 0.000000
#
# Coordination Sequence:
#
# PCOD8025452 Si02
#       7
#     2   2   2   2   2   2   2
#     4  11  26  43  71 103 141 188 236 296 362 428
#     4  12  25  45  69 102 141 183 240 296 359 426
#     4  10  23  45  67  97 134 183 232 290 356 420
#     4  11  23  45  70 100 142 180 237 295 354 430
#     4  11  26  46  72 102 146 189 239 294 361 429
#     4  11  24  49  69 104 145 187 241 292 358 431
#     4  12  26  42  72 107 139 188 234 296 362 431
#
# _framework density 21.544312000000001
#
# number of rings (size 3 to 8) (size 9 to 14) (size 15 to 20)
#    0.000    0.857    2.857    3.857    8.000    0.000 
#    2.571    0.000    0.000    0.000    0.000    0.000 
#    0.000    0.000    0.000    0.000    0.000    0.000 
#
# Total GULP energy -173499.442737 kJ/mol
# GULP energy per Si atom -12392.817338 kJ/mol
# Density = 2.149528 g / cm^3
# Si number density = 21.544312 Si / 1000 Ang^3
#
#
#
# Elastic Constant Matrix: (Units=GPa)
#
#
# Indices 1 2 3 4 5 6 
#
# 1 183.2994 35.1645 40.2915 -5.4228 25.0965 4.8529
# 2 35.1645 104.4488 49.2163 -2.5796 16.0107 6.1205
# 3 40.2915 49.2163 101.8512 -3.8197 21.6761 5.6079
# 4 -5.4228 -2.5796 -3.8197 38.0662 -4.0998 2.4381
# 5 25.0965 16.0107 21.6761 -4.0998 37.1613 1.9013
# 6 4.8529 6.1205 5.6079 2.4381 1.9013 41.6369
#
#
#
# Elastic Compliance Matrix: (Units=1/GPa)
#
#
# Indices 1 2 3 4 5 6 
#
# 1 0.006383 -0.001018 -0.001359 0.000398 -0.003020 -0.000297
# 2 -0.001018 0.012748 -0.005356 0.000068 -0.001624 -0.000964
# 3 -0.001359 -0.005356 0.014038 0.000374 -0.004884 -0.000744
# 4 0.000398 0.000068 0.000374 0.026756 0.002527 -0.001789
# 5 -0.003020 -0.001624 -0.004884 0.002527 0.032797 -0.000397
# 6 -0.000297 -0.000964 -0.000744 -0.001789 -0.000397 0.024416
#
#
# Mechanical properties :
#
#
# Convention : Reuss Voigt Hill
#
# Bulk Modulus (GPa) = 56.48982 70.99378 63.74180
# Shear Modulus (GPa) = 36.09994 41.03469 38.56731
#
# Velocity S-wave (km/s) = 4.09787 4.36898 4.23559
# Velocity P-wave (km/s) = 6.97619 7.64687 7.31922
#
# Compressibility (1/GPa) = 0.01770230
#
# Stress axis : x y z
#
# Youngs Moduli (GPa) = 156.67265 78.44584 71.23408
#
# Poissons Ratio (x) = 0.07989 0.09680
# Poissons Ratio (y) = 0.15956 0.38152
# Poissons Ratio (z) = 0.21290 0.42015
#
# Static dielectric constant tensor:
#      x y z
#    x 3.993920 0.125310 0.308490 
#    y 0.125310 4.564050 0.277090 
#    z 0.308490 0.277090 3.707050 
# 
# 
# High freq. dielectric constant tensor:
#      x y z
#    x 1.867350 -0.003380 0.005090 
#    y -0.003380 1.859460 0.007510 
#    z 0.005090 0.007510 1.835110 
# 
# From -- ./inp_files/130967.got.cif
#   From: 2010.06.25/outbox.cif.g09.slc.cpg/sg2_66_cif.got.tgz:130967.got - 2010.06.27 13:26:56.
