data_PCOD8025370
_publ_section_title
;
Structure prediction by ZEFSAII (Michael W. Deem and Ramdas Pophale) SiO2 
 PCOD8025370
Probable space group: P -1
;
_chemical_formula_sum "Si O2"
_cell_formula_units_Z 12
_cell_length_a 11.817782
_cell_length_b 7.193796
_cell_length_c 9.914521
_cell_angle_alpha 84.455326
_cell_angle_beta 142.656263
_cell_angle_gamma 110.813993
_cell_volume 451.511281
_symmetry_space_group_name_H-M "P -1"
_symmetry_group_IT_number 2
_symmetry_cell_setting 'triclinic'
loop_
_space_group_symop_operation_xyz
x,y,z
-x,-y,-z
loop_
_atom_site_type_symbol
_atom_site_label
_atom_site_fract_x
_atom_site_fract_y
_atom_site_fract_z
Si Si1 0.643109 0.778560 0.655854
Si Si2 0.538539 0.330536 0.791336
Si Si3 0.012877 0.116956 0.841699
Si Si4 0.922926 0.242638 0.206405
Si Si5 0.627483 0.378125 0.353981
Si Si6 0.215794 0.881787 0.619434
O O1 0.526152 0.632848 0.426003
O O2 0.471376 0.778292 0.599622
O O3 0.801995 0.713034 0.898774
O O4 0.793935 0.012499 0.725272
O O5 0.529340 0.525382 0.847637
O O6 0.355477 0.123913 0.699844
O O7 0.757407 0.324699 0.001107
O O8 0.975369 0.220898 0.663668
O O9 0.086318 0.938766 0.887820
O O10 0.877248 0.145102 0.319470
O O11 0.149965 0.438456 0.401445
O O12 0.646308 0.244102 0.255727
#
# Coordination Sequence:
#
# PCOD8025370 Si02
#       6
#     2   2   2   2   2   2
#     4  10  23  46  67 106 136 175 234 275 346 401
#     4  11  26  46  71 102 137 183 225 282 340 404
#     4  10  23  44  78  96 136 188 220 283 342 404
#     4  12  25  46  71 103 137 183 227 279 343 400
#     4  12  26  45  70 105 138 178 228 286 336 405
#     4  11  25  48  69 101 140 181 229 278 339 406
#
# _framework density 26.577407999999998
#
# number of rings (size 3 to 8) (size 9 to 14) (size 15 to 20)
#    0.000    1.000    3.333    3.000    2.333    8.667 
#    0.000    0.000    0.000    0.000    0.000    0.000 
#    0.000    0.000    0.000    0.000    0.000    0.000 
#
# Total GULP energy -148735.605497 kJ/mol
# GULP energy per Si atom -12394.633791 kJ/mol
# Density = 2.651692 g / cm^3
# Si number density = 26.577408 Si / 1000 Ang^3
#
#
#
# Elastic Constant Matrix: (Units=GPa)
#
#
# Indices 1 2 3 4 5 6 
#
# 1 111.1644 47.4095 28.0066 13.1045 20.9935 20.7865
# 2 47.4095 92.0907 36.6944 -21.4053 4.3762 -5.8618
# 3 28.0066 36.6944 77.6883 -14.4370 21.2697 14.6172
# 4 13.1045 -21.4053 -14.4370 40.7992 -1.0677 3.8453
# 5 20.9935 4.3762 21.2697 -1.0677 34.1180 2.6061
# 6 20.7865 -5.8618 14.6172 3.8453 2.6061 40.0206
#
#
#
# Elastic Compliance Matrix: (Units=1/GPa)
#
#
# Indices 1 2 3 4 5 6 
#
# 1 0.020584 -0.014805 0.002738 -0.012604 -0.011962 -0.011870
# 2 -0.014805 0.025954 -0.009902 0.013938 0.011395 0.013026
# 3 0.002738 -0.009902 0.022798 0.002628 -0.013739 -0.010557
# 4 -0.012604 0.013938 0.002628 0.036581 0.005186 0.003776
# 5 -0.011962 0.011395 -0.013739 0.005186 0.043204 0.009588
# 6 -0.011870 0.013026 -0.010557 0.003776 0.009588 0.035929
#
#
# Mechanical properties :
#
#
# Convention : Reuss Voigt Hill
#
# Bulk Modulus (GPa) = 39.37254 56.12939 47.75096
# Shear Modulus (GPa) = 21.05679 34.24310 27.64995
#
# Velocity S-wave (km/s) = 2.81780 3.59336 3.22895
# Velocity P-wave (km/s) = 5.04313 6.19527 5.64865
#
# Compressibility (1/GPa) = 0.02539841
#
# Stress axis : x y z
#
# Youngs Moduli (GPa) = 48.58093 38.53035 43.86355
#
# Poissons Ratio (x) = 0.57044 -0.12010
# Poissons Ratio (y) = 0.71923 0.43433
# Poissons Ratio (z) = -0.13302 0.38152
#
# Static dielectric constant tensor:
#      x y z
#    x 4.975970 0.138980 0.154870 
#    y 0.138980 4.847910 -0.103080 
#    z 0.154870 -0.103080 5.133400 
# 
# 
# High freq. dielectric constant tensor:
#      x y z
#    x 2.072820 0.017820 0.014600 
#    y 0.017820 2.063880 0.007130 
#    z 0.014600 0.007130 2.074940 
# 
# From -- ./inp_files/147089.got.cif
#   From: 2010.06.25/outbox.cif.g09.slc.cpg/sg2_74_cif.got.tgz:147089.got - 2010.06.27 13:26:56.
