data_PCOD8025226
_publ_section_title
;
Structure prediction by ZEFSAII (Michael W. Deem and Ramdas Pophale) SiO2 
 PCOD8025226
Probable space group: P -1
;
_chemical_formula_sum "Si O2"
_cell_formula_units_Z 14
_cell_length_a 12.395978
_cell_length_b 5.895266
_cell_length_c 12.354828
_cell_angle_alpha 115.010309
_cell_angle_beta 44.758380
_cell_angle_gamma 102.450687
_cell_volume 571.023607
_symmetry_space_group_name_H-M "P -1"
_symmetry_group_IT_number 2
_symmetry_cell_setting 'triclinic'
loop_
_space_group_symop_operation_xyz
x,y,z
-x,-y,-z
loop_
_atom_site_type_symbol
_atom_site_label
_atom_site_fract_x
_atom_site_fract_y
_atom_site_fract_z
Si Si1 0.138233 0.376971 0.949581
Si Si2 0.347332 0.895748 0.631228
Si Si3 0.837110 0.754653 0.861666
Si Si4 0.308419 0.520907 0.399629
Si Si5 0.872608 0.884128 0.635226
Si Si6 0.372878 0.762567 0.827801
Si Si7 0.659101 0.338271 0.823531
O O1 0.262708 0.569849 0.915385
O O2 0.212128 0.126530 0.785528
O O3 0.073276 0.302586 0.099314
O O4 0.000000 0.500000 0.000000
O O5 0.282759 0.696032 0.557890
O O6 0.381232 0.747339 0.689080
O O7 0.500000 0.000000 0.500000
O O8 0.931418 0.855982 0.713547
O O9 0.792485 0.497993 0.795383
O O10 0.685031 0.953251 0.036039
O O11 0.159609 0.377643 0.451499
O O12 0.457144 0.310756 0.261997
O O13 0.336034 0.704405 0.317510
O O14 0.706651 0.067016 0.791393
O O15 0.000000 0.000000 0.500000
O O16 0.500000 0.500000 0.000000
#
# Coordination Sequence:
#
# PCOD8025226 Si02
#       7
#     2   2   2   2   2   2   2
#     4  11  25  47  71 104 144 190 239 292 358 422
#     4  11  25  44  72 107 145 183 242 294 352 427
#     4  10  23  44  71 101 138 188 239 290 349 435
#     4  11  24  42  74 105 140 188 236 289 358 422
#     4  11  26  48  69 106 145 184 235 299 363 415
#     4  11  23  45  71 106 143 187 239 290 355 427
#     4  11  23  43  72 102 137 183 239 287 354 426
#
# _framework density 24.517377
#
# number of rings (size 3 to 8) (size 9 to 14) (size 15 to 20)
#    0.000    1.143    1.429    3.857    4.000    6.857 
#   15.429    0.000    0.000    0.000    0.000    0.000 
#    0.000    0.000    0.000    0.000    0.000    0.000 
#
# Total GULP energy -173568.259870 kJ/mol
# GULP energy per Si atom -12397.732848 kJ/mol
# Density = 2.446157 g / cm^3
# Si number density = 24.517377 Si / 1000 Ang^3
#
#
#
# Elastic Constant Matrix: (Units=GPa)
#
#
# Indices 1 2 3 4 5 6 
#
# 1 126.9232 44.8078 60.8769 -12.5344 24.2261 -22.2247
# 2 44.8078 99.0795 44.3122 -12.4376 21.0681 -13.0397
# 3 60.8769 44.3122 108.2651 -23.7847 30.2337 -8.1157
# 4 -12.5344 -12.4376 -23.7847 48.6450 -4.1409 7.9822
# 5 24.2261 21.0681 30.2337 -4.1409 47.8179 -2.0026
# 6 -22.2247 -13.0397 -8.1157 7.9822 -2.0026 47.9785
#
#
#
# Elastic Compliance Matrix: (Units=1/GPa)
#
#
# Indices 1 2 3 4 5 6 
#
# 1 0.012234 -0.002349 -0.005323 -0.000885 -0.001698 0.004205
# 2 -0.002349 0.013453 -0.003154 0.000776 -0.002601 0.001797
# 3 -0.005323 -0.003154 0.016217 0.005547 -0.005760 -0.001743
# 4 -0.000885 0.000776 0.005547 0.023647 -0.001489 -0.003257
# 5 -0.001698 -0.002601 -0.005760 -0.001489 0.026385 -0.001119
# 6 0.004205 0.001797 -0.001743 -0.003257 -0.001119 0.023479
#
#
# Mechanical properties :
#
#
# Convention : Reuss Voigt Hill
#
# Bulk Modulus (GPa) = 49.37681 70.47351 59.92516
# Shear Modulus (GPa) = 34.76656 41.17301 37.96979
#
# Velocity S-wave (km/s) = 3.76977 4.10242 3.93961
# Velocity P-wave (km/s) = 6.25551 7.15867 6.72228
#
# Compressibility (1/GPa) = 0.02025242
#
# Stress axis : x y z
#
# Youngs Moduli (GPa) = 81.73954 74.33528 61.66432
#
# Poissons Ratio (x) = 0.17460 0.32822
# Poissons Ratio (y) = 0.19199 0.19449
# Poissons Ratio (z) = 0.43508 0.23445
#
# Static dielectric constant tensor:
#      x y z
#    x 4.495830 -0.265150 0.259280 
#    y -0.265150 4.751830 0.004430 
#    z 0.259280 0.004430 4.451580 
# 
# 
# High freq. dielectric constant tensor:
#      x y z
#    x 1.973060 -0.016750 0.016480 
#    y -0.016750 1.986000 0.007980 
#    z 0.016480 0.007980 1.980120 
# 
# From -- ./inp_files/78844.got.cif
#   From: 2010.06.25/outbox.cif.g09.slc.cpg/sg2_40_cif.got.tgz:78844.got - 2010.06.27 13:26:56.
