data_PCOD8025314
_publ_section_title
;
Structure prediction by ZEFSAII (Michael W. Deem and Ramdas Pophale) SiO2 
 PCOD8025314
Probable space group: P -1
;
_chemical_formula_sum "Si O2"
_cell_formula_units_Z 16
_cell_length_a 8.416771
_cell_length_b 20.312616
_cell_length_c 5.272408
_cell_angle_alpha 106.254101
_cell_angle_beta 57.137073
_cell_angle_gamma 125.256856
_cell_volume 617.541384
_symmetry_space_group_name_H-M "P -1"
_symmetry_group_IT_number 2
_symmetry_cell_setting 'triclinic'
loop_
_space_group_symop_operation_xyz
x,y,z
-x,-y,-z
loop_
_atom_site_type_symbol
_atom_site_label
_atom_site_fract_x
_atom_site_fract_y
_atom_site_fract_z
Si Si1 0.664033 0.992892 0.538007
Si Si2 0.691682 0.336982 0.365893
Si Si3 0.573906 0.114048 0.935643
Si Si4 0.210770 0.188095 0.627206
Si Si5 0.852656 0.907455 0.928199
Si Si6 0.172492 0.564389 0.162707
Si Si7 0.033108 0.722637 0.111750
Si Si8 0.764509 0.549726 0.308042
O O1 0.902518 0.009245 0.242699
O O2 0.500000 0.000000 0.500000
O O3 0.549799 0.909229 0.706567
O O4 0.712434 0.068711 0.759423
O O5 0.467827 0.252351 0.491401
O O6 0.699151 0.392981 0.646620
O O7 0.711879 0.376451 0.115181
O O8 0.883269 0.315634 0.212948
O O9 0.369114 0.084488 0.876352
O O10 0.745905 0.209848 0.851802
O O11 0.168208 0.151792 0.341879
O O12 0.079768 0.232592 0.856801
O O13 0.132148 0.122832 0.843809
O O14 0.909977 0.536492 0.381645
O O15 0.179452 0.483048 0.033449
O O16 0.849813 0.644803 0.347153
O O17 0.500000 0.500000 0.500000
#
# Coordination Sequence:
#
# PCOD8025314 Si02
#       8
#     2   2   2   2   2   2   2   2
#     4  11  26  47  76 107 151 189 237 305 360 436
#     4  11  24  45  74 101 148 189 242 302 363 426
#     4  11  25  48  73 105 146 191 244 295 366 427
#     4  12  26  44  71 110 145 188 244 303 353 427
#     4  12  27  46  75 106 149 189 242 294 364 428
#     4  10  24  45  69 105 140 192 241 296 369 435
#     4  11  24  45  74 104 143 194 247 299 362 431
#     4  10  23  44  73 103 148 189 244 299 369 427
#
# _framework density 25.909193999999999
#
# number of rings (size 3 to 8) (size 9 to 14) (size 15 to 20)
#    0.000    1.000    2.500    2.625    5.250    9.000 
#    0.000    3.750    0.000    0.000    0.000    0.000 
#    0.000    0.000    0.000    0.000    0.000    0.000 
#
# Total GULP energy -198264.581876 kJ/mol
# GULP energy per Si atom -12391.536367 kJ/mol
# Density = 2.585022 g / cm^3
# Si number density = 25.909194 Si / 1000 Ang^3
#
#
#
# Elastic Constant Matrix: (Units=GPa)
#
#
# Indices 1 2 3 4 5 6 
#
# 1 102.6648 46.6407 48.6058 -9.7685 -28.5320 -3.8807
# 2 46.6407 177.8266 56.4785 -23.1656 -10.5466 6.6986
# 3 48.6058 56.4785 120.9721 -4.3513 -10.6804 0.3133
# 4 -9.7685 -23.1656 -4.3513 47.5360 7.5512 -13.6583
# 5 -28.5320 -10.5466 -10.6804 7.5512 48.4809 1.7180
# 6 -3.8807 6.6986 0.3133 -13.6583 1.7180 49.7325
#
#
#
# Elastic Compliance Matrix: (Units=1/GPa)
#
#
# Indices 1 2 3 4 5 6 
#
# 1 0.014855 -0.002017 -0.004366 0.000960 0.007140 0.001475
# 2 -0.002017 0.007321 -0.002555 0.002928 -0.000602 -0.000302
# 3 -0.004366 -0.002555 0.011130 -0.001152 -0.000481 -0.000367
# 4 0.000960 0.002928 -0.001152 0.024973 -0.003177 0.006656
# 5 0.007140 -0.000602 -0.000481 -0.003177 0.025126 -0.001099
# 6 0.001475 -0.000302 -0.000367 0.006656 -0.001099 0.022132
#
#
# Mechanical properties :
#
#
# Convention : Reuss Voigt Hill
#
# Bulk Modulus (GPa) = 64.80212 78.32371 71.56292
# Shear Modulus (GPa) = 38.89382 45.79913 42.34648
#
# Velocity S-wave (km/s) = 3.87868 4.20894 4.04718
# Velocity P-wave (km/s) = 6.71747 7.34275 7.03706
#
# Compressibility (1/GPa) = 0.01543159
#
# Stress axis : x y z
#
# Youngs Moduli (GPa) = 67.31682 136.59537 89.84381
#
# Poissons Ratio (x) = 0.27546 0.39227
# Poissons Ratio (y) = 0.13575 0.22953
# Poissons Ratio (z) = 0.29391 0.34897
#
# Static dielectric constant tensor:
#      x y z
#    x 5.146990 -0.538790 -0.960380 
#    y -0.538790 5.921510 0.868510 
#    z -0.960380 0.868510 5.498220 
# 
# 
# High freq. dielectric constant tensor:
#      x y z
#    x 2.030940 0.004150 -0.026120 
#    y 0.004150 2.075270 0.012580 
#    z -0.026120 0.012580 2.041530 
# 
# From -- ./inp_files/53234.got.cif
#   From: 2010.06.25/outbox.cif.g09.slc.cpg/sg2_27_cif.got.tgz:53234.got - 2010.06.27 13:26:56.
