data_PCOD8025714
_publ_section_title
;
Structure prediction by ZEFSAII (Michael W. Deem and Ramdas Pophale) SiO2 
 PCOD8025714
Probable space group: P -1
;
_chemical_formula_sum "Si O2"
_cell_formula_units_Z 14
_cell_length_a 11.457916
_cell_length_b 5.342367
_cell_length_c 14.750899
_cell_angle_alpha 105.957966
_cell_angle_beta 129.372366
_cell_angle_gamma 54.971037
_cell_volume 565.870138
_symmetry_space_group_name_H-M "P -1"
_symmetry_group_IT_number 2
_symmetry_cell_setting 'triclinic'
loop_
_space_group_symop_operation_xyz
x,y,z
-x,-y,-z
loop_
_atom_site_type_symbol
_atom_site_label
_atom_site_fract_x
_atom_site_fract_y
_atom_site_fract_z
Si Si1 0.570822 0.552248 0.307662
Si Si2 0.013132 0.323952 0.267164
Si Si3 0.476235 0.224595 0.103948
Si Si4 0.940792 0.342724 0.528844
Si Si5 0.375217 0.434377 0.860088
Si Si6 0.402972 0.813532 0.424068
Si Si7 0.943173 0.346579 0.031971
O O1 0.580357 0.241796 0.246314
O O2 0.727872 0.510482 0.444928
O O3 0.574208 0.715951 0.232212
O O4 0.399759 0.742519 0.307829
O O5 0.991091 0.626013 0.335630
O O6 0.836576 0.316353 0.203875
O O7 0.033328 0.343333 0.171422
O O8 0.192084 0.024193 0.367630
O O9 0.560127 0.871769 0.078878
O O10 0.515272 0.393624 0.056928
O O11 0.267496 0.426030 0.039311
O O12 0.000000 0.500000 0.500000
O O13 0.000000 0.000000 0.500000
O O14 0.500000 0.500000 0.500000
O O15 0.500000 0.000000 0.500000
O O16 0.000000 0.500000 0.000000
O O17 0.000000 0.000000 0.000000
#
# Coordination Sequence:
#
# PCOD8025714 Si02
#       7
#     2   2   2   2   2   2   2
#     4  10  24  43  71  97 153 193 246 302 390 443
#     4  12  28  50  78 118 155 205 269 317 392 470
#     4  10  23  45  74 105 147 198 256 304 389 444
#     4  12  25  43  73 109 150 191 247 315 384 454
#     4  10  24  43  77 109 146 199 250 317 379 460
#     4  12  29  43  68 106 153 200 251 311 383 465
#     4  12  29  51  79 113 159 207 260 328 382 460
#
# _framework density 24.740659999999998
#
# number of rings (size 3 to 8) (size 9 to 14) (size 15 to 20)
#    0.857    0.000    2.857    2.571    6.000    5.714 
#    0.000    0.000    0.000    0.000    0.000    0.000 
#    0.000    0.000    0.000    0.000    0.000    0.000 
#
# Total GULP energy -173468.426251 kJ/mol
# GULP energy per Si atom -12390.601875 kJ/mol
# Density = 2.468435 g / cm^3
# Si number density = 24.740660 Si / 1000 Ang^3
#
#
#
# Elastic Constant Matrix: (Units=GPa)
#
#
# Indices 1 2 3 4 5 6 
#
# 1 168.3808 98.8000 75.7369 -10.7797 7.9337 4.3844
# 2 98.8000 182.1189 66.0045 6.1826 11.0727 13.6641
# 3 75.7369 66.0045 134.7196 25.7149 -2.0080 8.2934
# 4 -10.7797 6.1826 25.7149 53.2604 -11.9800 5.3035
# 5 7.9337 11.0727 -2.0080 -11.9800 62.3663 -1.6929
# 6 4.3844 13.6641 8.2934 5.3035 -1.6929 46.3088
#
#
#
# Elastic Compliance Matrix: (Units=1/GPa)
#
#
# Indices 1 2 3 4 5 6 
#
# 1 0.011157 -0.004426 -0.005137 0.005245 0.000224 0.000577
# 2 -0.004426 0.008663 -0.001410 -0.001342 -0.001326 -0.001779
# 3 -0.005137 -0.001410 0.012328 -0.006779 -0.000016 -0.000530
# 4 0.005245 -0.001342 -0.006779 0.024313 0.003982 -0.001526
# 5 0.000224 -0.001326 -0.000016 0.003982 0.017020 0.000539
# 6 0.000577 -0.001779 -0.000530 -0.001526 0.000539 0.022354
#
#
# Mechanical properties :
#
#
# Convention : Reuss Voigt Hill
#
# Bulk Modulus (GPa) = 98.02722 107.36691 102.69706
# Shear Modulus (GPa) = 41.26051 48.69896 44.97974
#
# Velocity S-wave (km/s) = 4.08820 4.44145 4.26848
# Velocity P-wave (km/s) = 7.87353 8.35423 8.11744
#
# Compressibility (1/GPa) = 0.01020125
#
# Stress axis : x y z
#
# Youngs Moduli (GPa) = 89.63354 115.43773 81.11577
#
# Poissons Ratio (x) = 0.51089 0.41669
# Poissons Ratio (y) = 0.39669 0.11440
# Poissons Ratio (z) = 0.46045 0.16281
#
# Static dielectric constant tensor:
#      x y z
#    x 4.735270 -0.036620 -0.301690 
#    y -0.036620 4.718110 -0.147630 
#    z -0.301690 -0.147630 5.463430 
# 
# 
# High freq. dielectric constant tensor:
#      x y z
#    x 1.998700 -0.008160 -0.004370 
#    y -0.008160 1.983360 0.022880 
#    z -0.004370 0.022880 2.017290 
# 
# From -- ./inp_files/511179.got.cif
#   From: 2010.06.25/outbox.cif.g09.slc.cpg/sg2_256_cif.got.tgz:511179.got - 2010.06.27 13:26:56.
