data_PCOD8025820
_publ_section_title
;
Structure prediction by ZEFSAII (Michael W. Deem and Ramdas Pophale) SiO2 
 PCOD8025820
Probable space group: P -1
;
_chemical_formula_sum "Si O2"
_cell_formula_units_Z 16
_cell_length_a 8.801708
_cell_length_b 11.501193
_cell_length_c 14.656520
_cell_angle_alpha 57.687733
_cell_angle_beta 57.308694
_cell_angle_gamma 36.271843
_cell_volume 723.950501
_symmetry_space_group_name_H-M "P -1"
_symmetry_group_IT_number 2
_symmetry_cell_setting 'triclinic'
loop_
_space_group_symop_operation_xyz
x,y,z
-x,-y,-z
loop_
_atom_site_type_symbol
_atom_site_label
_atom_site_fract_x
_atom_site_fract_y
_atom_site_fract_z
Si Si1 0.479184 0.236800 0.747209
Si Si2 0.536820 0.901147 0.817857
Si Si3 0.401466 0.590315 0.892545
Si Si4 0.723901 0.364624 0.558213
Si Si5 0.950917 0.958030 0.160168
Si Si6 0.824795 0.423919 0.681111
Si Si7 0.470320 0.273227 0.944108
Si Si8 0.964004 0.608755 0.655396
O O1 0.720384 0.208962 0.660674
O O2 0.457128 0.222485 0.868018
O O3 0.203301 0.449032 0.713618
O O4 0.549696 0.057529 0.749072
O O5 0.239682 0.007990 0.866138
O O6 0.697028 0.760263 0.736822
O O7 0.645490 0.778359 0.929002
O O8 0.174386 0.829672 0.854335
O O9 0.647938 0.511237 0.791095
O O10 0.293352 0.509367 0.914896
O O11 0.500000 0.500000 0.000000
O O12 0.500000 0.500000 0.500000
O O13 0.666296 0.501782 0.604260
O O14 0.992675 0.268452 0.462278
O O15 0.981963 0.818330 0.284627
O O16 0.234174 0.840263 0.076093
O O17 0.965806 0.492320 0.623133
#
# Coordination Sequence:
#
# PCOD8025820 Si02
#       8
#     2   2   2   2   2   2   2   2
#     4  11  24  44  63  93 136 176 217 267 328 395
#     4  12  24  40  64 101 130 172 221 266 326 388
#     4  11  21  36  66 101 129 164 219 262 321 388
#     4  10  23  46  69  93 129 179 217 272 334 384
#     4  11  22  38  68  94 131 168 215 270 322 389
#     4  11  21  43  67  95 130 169 222 270 327 382
#     4  11  24  41  66  96 135 177 211 268 333 389
#     4  11  24  42  70  93 130 171 223 276 318 386
#
# _framework density 22.100960000000001
#
# number of rings (size 3 to 8) (size 9 to 14) (size 15 to 20)
#    0.000    1.000    6.250    1.125    1.750    3.000 
#    0.000    3.125    0.000    0.000    0.000    0.000 
#    0.000    0.000    0.000    0.000    0.000    0.000 
#
# Total GULP energy -198231.012277 kJ/mol
# GULP energy per Si atom -12389.438267 kJ/mol
# Density = 2.205066 g / cm^3
# Si number density = 22.100960 Si / 1000 Ang^3
#
#
#
# Elastic Constant Matrix: (Units=GPa)
#
#
# Indices 1 2 3 4 5 6 
#
# 1 109.5609 35.7809 48.1125 5.1683 6.0909 14.3032
# 2 35.7809 95.2599 24.0283 -7.0193 -0.6213 28.0096
# 3 48.1125 24.0283 97.6754 12.0960 9.8225 5.5614
# 4 5.1683 -7.0193 12.0960 19.6043 6.5172 -5.6839
# 5 6.0909 -0.6213 9.8225 6.5172 31.1969 -0.4655
# 6 14.3032 28.0096 5.5614 -5.6839 -0.4655 25.1883
#
#
#
# Elastic Compliance Matrix: (Units=1/GPa)
#
#
# Indices 1 2 3 4 5 6 
#
# 1 0.012860 -0.002567 -0.005182 -0.002017 -0.000565 -0.003769
# 2 -0.002567 0.017132 -0.002517 0.003427 0.000676 -0.016252
# 3 -0.005182 -0.002517 0.014506 -0.007589 -0.002009 0.000789
# 4 -0.002017 0.003427 -0.007589 0.064838 -0.010493 0.013447
# 5 -0.000565 0.000676 -0.002009 -0.010493 0.034977 -0.001709
# 6 -0.003769 -0.016252 0.000789 0.013447 -0.001709 0.062742
#
#
# Mechanical properties :
#
#
# Convention : Reuss Voigt Hill
#
# Bulk Modulus (GPa) = 41.72485 57.59329 49.65907
# Shear Modulus (GPa) = 21.22447 28.16952 24.69699
#
# Velocity S-wave (km/s) = 3.10230 3.57400 3.34647
# Velocity P-wave (km/s) = 5.63494 6.56864 6.11963
#
# Compressibility (1/GPa) = 0.02396654
#
# Stress axis : x y z
#
# Youngs Moduli (GPa) = 77.76085 58.36883 68.93462
#
# Poissons Ratio (x) = 0.14986 0.35719
# Poissons Ratio (y) = 0.19965 0.17351
# Poissons Ratio (z) = 0.40293 0.14692
#
# Static dielectric constant tensor:
#      x y z
#    x 4.110410 0.215780 -0.208350 
#    y 0.215780 3.981840 -0.274590 
#    z -0.208350 -0.274590 4.290460 
# 
# 
# High freq. dielectric constant tensor:
#      x y z
#    x 1.878870 0.018070 -0.006440 
#    y 0.018070 1.837790 -0.010680 
#    z -0.006440 -0.010680 1.881520 
# 
# From -- ./inp_files/314018.got.cif
#   From: 2010.06.25/outbox.cif.g09.slc.cpg/sg2_158_cif.got.tgz:314018.got - 2010.06.27 13:26:56.
