data_PCOD8025609
_publ_section_title
;
Structure prediction by ZEFSAII (Michael W. Deem and Ramdas Pophale) SiO2 
 PCOD8025609
Probable space group: P -1
;
_chemical_formula_sum "Si O2"
_cell_formula_units_Z 16
_cell_length_a 6.784909
_cell_length_b 10.988844
_cell_length_c 11.911196
_cell_angle_alpha 116.491904
_cell_angle_beta 67.706958
_cell_angle_gamma 106.445912
_cell_volume 728.430155
_symmetry_space_group_name_H-M "P -1"
_symmetry_group_IT_number 2
_symmetry_cell_setting 'triclinic'
loop_
_space_group_symop_operation_xyz
x,y,z
-x,-y,-z
loop_
_atom_site_type_symbol
_atom_site_label
_atom_site_fract_x
_atom_site_fract_y
_atom_site_fract_z
Si Si1 0.752895 0.018635 0.427006
Si Si2 0.567066 0.499785 0.170514
Si Si3 0.588722 0.119663 0.297398
Si Si4 0.006445 0.213440 0.626335
Si Si5 0.575193 0.621559 0.448387
Si Si6 0.790016 0.242128 0.078262
Si Si7 0.278209 0.327629 0.992585
Si Si8 0.351609 0.850443 0.162143
O O1 0.769424 0.057745 0.307182
O O2 0.890768 0.141733 0.513965
O O3 0.500000 0.000000 0.500000
O O4 0.846341 0.878905 0.373511
O O5 0.480776 0.579449 0.327831
O O6 0.703352 0.386062 0.140502
O O7 0.724918 0.601877 0.099740
O O8 0.362700 0.437036 0.115561
O O9 0.507520 0.241195 0.435084
O O10 0.685600 0.166588 0.177705
O O11 0.382119 0.003346 0.271951
O O12 0.163128 0.349370 0.607815
O O13 0.823001 0.248794 0.767054
O O14 0.500000 0.500000 0.500000
O O15 0.730600 0.143190 0.944443
O O16 0.042600 0.263343 0.052159
O O17 0.422716 0.206258 0.906102
#
# Coordination Sequence:
#
# PCOD8025609 Si02
#       8
#     2   2   2   2   2   2   2   2
#     4  11  22  44  69 100 140 177 227 286 338 415
#     4  10  23  45  70  96 140 180 235 282 331 409
#     4  12  25  44  68 103 144 176 226 284 350 412
#     4  11  24  43  72 101 134 182 228 282 350 397
#     4  12  25  45  70 101 144 181 220 285 347 415
#     4  11  24  46  67 100 139 184 225 286 348 401
#     4  10  24  45  73 100 130 186 238 283 333 407
#     4  11  25  44  72 103 136 179 233 289 339 407
#
# _framework density 21.965043000000001
#
# number of rings (size 3 to 8) (size 9 to 14) (size 15 to 20)
#    0.000    1.000    3.750    2.250    5.250    3.500 
#    4.500    1.250    0.000    0.000    0.000    0.000 
#    0.000    0.000    0.000    0.000    0.000    0.000 
#
# Total GULP energy -198433.426536 kJ/mol
# GULP energy per Si atom -12402.089158 kJ/mol
# Density = 2.191505 g / cm^3
# Si number density = 21.965043 Si / 1000 Ang^3
#
#
#
# Elastic Constant Matrix: (Units=GPa)
#
#
# Indices 1 2 3 4 5 6 
#
# 1 104.5490 41.0969 44.3156 -10.6095 7.4494 17.3874
# 2 41.0969 100.5943 62.7215 -8.2365 2.5616 19.8472
# 3 44.3156 62.7215 148.4264 -6.6193 25.6986 18.4737
# 4 -10.6095 -8.2365 -6.6193 46.6420 5.2962 -0.6018
# 5 7.4494 2.5616 25.6986 5.2962 28.6463 -7.8354
# 6 17.3874 19.8472 18.4737 -0.6018 -7.8354 17.7219
#
#
#
# Elastic Compliance Matrix: (Units=1/GPa)
#
#
# Indices 1 2 3 4 5 6 
#
# 1 0.013776 -0.002444 0.000358 0.003512 -0.008363 -0.014730
# 2 -0.002444 0.016076 -0.004760 0.001433 0.000348 -0.010441
# 3 0.000358 -0.004760 0.013911 0.002967 -0.017373 -0.017101
# 4 0.003512 0.001433 0.002967 0.024064 -0.011554 -0.012435
# 5 -0.008363 0.000348 -0.017373 -0.011554 0.070254 0.056596
# 6 -0.014730 -0.010441 -0.017101 -0.012435 0.056596 0.125000
#
#
# Mechanical properties :
#
#
# Convention : Reuss Voigt Hill
#
# Bulk Modulus (GPa) = 33.25642 72.20418 52.73030
# Shear Modulus (GPa) = 17.43379 32.29774 24.86577
#
# Velocity S-wave (km/s) = 2.82034 3.83876 3.36826
# Velocity P-wave (km/s) = 5.07732 7.25202 6.25983
#
# Compressibility (1/GPa) = 0.03006938
#
# Stress axis : x y z
#
# Youngs Moduli (GPa) = 72.58909 62.20370 71.88593
#
# Poissons Ratio (x) = 0.15206 -0.02573
# Poissons Ratio (y) = 0.17744 0.34220
# Poissons Ratio (z) = -0.02598 0.29611
#
# Static dielectric constant tensor:
#      x y z
#    x 4.031500 0.002000 0.237900 
#    y 0.002000 4.070920 -0.080460 
#    z 0.237900 -0.080460 4.209660 
# 
# 
# High freq. dielectric constant tensor:
#      x y z
#    x 1.861140 0.007120 0.014770 
#    y 0.007120 1.862120 0.000050 
#    z 0.014770 0.000050 1.878980 
# 
# From -- ./inp_files/364979.got.cif
#   From: 2010.06.25/outbox.cif.g09.slc.cpg/sg2_183_cif.got.tgz:364979.got - 2010.06.27 13:26:56.
