data_PCOD8025490
_publ_section_title
;
Structure prediction by ZEFSAII (Michael W. Deem and Ramdas Pophale) SiO2 
 PCOD8025490
Probable space group: P -1
;
_chemical_formula_sum "Si O2"
_cell_formula_units_Z 14
_cell_length_a 14.905991
_cell_length_b 12.512587
_cell_length_c 10.099356
_cell_angle_alpha 134.227540
_cell_angle_beta 63.126051
_cell_angle_gamma 149.929376
_cell_volume 613.087663
_symmetry_space_group_name_H-M "P -1"
_symmetry_group_IT_number 2
_symmetry_cell_setting 'triclinic'
loop_
_space_group_symop_operation_xyz
x,y,z
-x,-y,-z
loop_
_atom_site_type_symbol
_atom_site_label
_atom_site_fract_x
_atom_site_fract_y
_atom_site_fract_z
Si Si1 0.897146 0.825215 0.551855
Si Si2 0.522932 0.875785 0.803012
Si Si3 0.644689 0.748620 0.731044
Si Si4 0.677879 0.715073 0.969544
Si Si5 0.964657 0.235158 0.407424
Si Si6 0.291490 0.581011 0.307089
Si Si7 0.708130 0.154264 0.634717
O O1 0.693077 0.471399 0.371721
O O2 0.854320 0.931200 0.738596
O O3 0.050582 0.925327 0.621883
O O4 0.000000 0.000000 0.500000
O O5 0.658445 0.942814 0.864041
O O6 0.649582 0.058957 0.743507
O O7 0.500000 0.000000 0.000000
O O8 0.500000 0.500000 0.500000
O O9 0.577411 0.629285 0.822202
O O10 0.780193 0.681741 0.876142
O O11 0.500000 0.500000 0.000000
O O12 0.839767 0.042162 0.190745
O O13 0.188987 0.536712 0.462373
O O14 0.894595 0.290851 0.583498
O O15 0.526067 0.872128 0.421240
O O16 0.243091 0.610258 0.229120
#
# Coordination Sequence:
#
# PCOD8025490 Si02
#       7
#     2   2   2   2   2   2   2
#     4  11  24  43  73 100 139 188 237 292 355 417
#     4  11  25  46  70  99 142 187 241 286 347 428
#     4  10  23  45  68  94 139 186 234 281 352 420
#     4  12  25  41  72 107 136 181 239 297 341 410
#     4  12  24  44  70 103 141 173 239 293 352 418
#     4  11  23  44  67 101 139 178 226 283 358 412
#     4  11  24  44  70  96 141 188 219 288 360 418
#
# _framework density 22.835234
#
# number of rings (size 3 to 8) (size 9 to 14) (size 15 to 20)
#    0.000    0.857    4.286    2.571    6.000    0.000 
#    2.571    1.429    0.000    0.000    0.000    0.000 
#    0.000    0.000    0.000    0.000    0.000    0.000 
#
# Total GULP energy -173511.188066 kJ/mol
# GULP energy per Si atom -12393.656290 kJ/mol
# Density = 2.278326 g / cm^3
# Si number density = 22.835234 Si / 1000 Ang^3
#
#
#
# Elastic Constant Matrix: (Units=GPa)
#
#
# Indices 1 2 3 4 5 6 
#
# 1 188.1403 50.0744 54.9483 -28.4127 -18.3266 -29.3046
# 2 50.0744 117.6883 26.2339 -41.0446 -2.4678 -18.7407
# 3 54.9483 26.2339 84.8022 -25.7869 -10.5023 -11.4111
# 4 -28.4127 -41.0446 -25.7869 40.8232 1.1109 4.0544
# 5 -18.3266 -2.4678 -10.5023 1.1109 44.7027 -9.9375
# 6 -29.3046 -18.7407 -11.4111 4.0544 -9.9375 49.1114
#
#
#
# Elastic Compliance Matrix: (Units=1/GPa)
#
#
# Indices 1 2 3 4 5 6 
#
# 1 0.007766 -0.001373 -0.003233 0.001511 0.003172 0.003876
# 2 -0.001373 0.014256 0.001352 0.013804 0.001092 0.004017
# 3 -0.003233 0.001352 0.017080 0.009579 0.003053 0.002382
# 4 0.001511 0.013804 0.009579 0.044835 0.003729 0.005448
# 5 0.003172 0.001092 0.003053 0.003729 0.026134 0.007999
# 6 0.003876 0.004017 0.002382 0.005448 0.007999 0.025930
#
#
# Mechanical properties :
#
#
# Convention : Reuss Voigt Hill
#
# Bulk Modulus (GPa) = 30.67929 72.57155 51.62542
# Shear Modulus (GPa) = 32.60027 44.21907 38.40967
#
# Velocity S-wave (km/s) = 3.78250 4.40527 4.10571
# Velocity P-wave (km/s) = 5.70444 7.59768 6.71809
#
# Compressibility (1/GPa) = 0.03259528
#
# Stress axis : x y z
#
# Youngs Moduli (GPa) = 128.76971 70.14426 58.54678
#
# Poissons Ratio (x) = 0.09629 0.18930
# Poissons Ratio (y) = 0.17677 -0.07918
# Poissons Ratio (z) = 0.41636 -0.09487
#
# Static dielectric constant tensor:
#      x y z
#    x 4.792660 -0.025870 -0.290410 
#    y -0.025870 4.375220 -0.032400 
#    z -0.290410 -0.032400 3.879170 
# 
# 
# High freq. dielectric constant tensor:
#      x y z
#    x 1.927660 -0.002910 -0.009760 
#    y -0.002910 1.904890 -0.024700 
#    z -0.009760 -0.024700 1.872240 
# 
# From -- ./inp_files/244538.got.cif
#   From: 2010.06.25/outbox.cif.g09.slc.cpg/sg2_123_cif.got.tgz:244538.got - 2010.06.27 13:26:56.
