data_PCOD8025104
_publ_section_title
;
Structure prediction by ZEFSAII (Michael W. Deem and Ramdas Pophale) SiO2 
 PCOD8025104
Probable space group: P -1
;
_chemical_formula_sum "Si O2"
_cell_formula_units_Z 16
_cell_length_a 20.861579
_cell_length_b 5.521388
_cell_length_c 10.601151
_cell_angle_alpha 60.447798
_cell_angle_beta 138.918830
_cell_angle_gamma 126.464444
_cell_volume 642.954047
_symmetry_space_group_name_H-M "P -1"
_symmetry_group_IT_number 2
_symmetry_cell_setting 'triclinic'
loop_
_space_group_symop_operation_xyz
x,y,z
-x,-y,-z
loop_
_atom_site_type_symbol
_atom_site_label
_atom_site_fract_x
_atom_site_fract_y
_atom_site_fract_z
Si Si1 0.776103 0.527673 0.801597
Si Si2 0.024037 0.607656 0.865626
Si Si3 0.360946 0.858024 0.521988
Si Si4 0.359188 0.367974 0.223657
Si Si5 0.543955 0.041285 0.914183
Si Si6 0.832084 0.838180 0.166469
Si Si7 0.221263 0.873087 0.747363
Si Si8 0.178685 0.880207 0.406924
O O1 0.705303 0.400905 0.605395
O O2 0.697990 0.458598 0.821473
O O3 0.839683 0.881999 0.775322
O O4 0.866767 0.418465 0.006839
O O5 0.924831 0.428536 0.677028
O O6 0.058114 0.966779 0.796432
O O7 0.000000 0.500000 0.000000
O O8 0.284635 0.844316 0.528426
O O9 0.407174 0.179445 0.431715
O O10 0.460345 0.813925 0.747844
O O11 0.444220 0.620939 0.198058
O O12 0.267989 0.130915 0.061948
O O13 0.652223 0.989632 0.078889
O O14 0.500000 0.000000 0.000000
O O15 0.821823 0.492262 0.238122
O O16 0.834560 0.987269 0.269625
O O17 0.195192 0.994236 0.545520
#
# Coordination Sequence:
#
# PCOD8025104 Si02
#       8
#     2   2   2   2   2   2   2   2
#     4  11  23  43  70 102 142 180 238 297 356 415
#     4  12  22  42  73 103 136 183 238 296 359 410
#     4  11  22  44  67 103 138 181 240 288 359 415
#     4  10  23  44  69 100 141 180 233 301 350 427
#     4  11  23  43  71  99 139 189 237 289 361 420
#     4  11  25  47  74 102 144 188 235 293 357 425
#     4  11  27  49  70 102 149 189 234 290 357 434
#     4  11  25  42  69 102 142 186 234 294 348 427
#
# _framework density 24.885138000000001
#
# number of rings (size 3 to 8) (size 9 to 14) (size 15 to 20)
#    0.000    1.000    3.750    3.000    1.750    2.500 
#    9.000    3.125    0.000    0.000    0.000    0.000 
#    0.000    0.000    0.000    0.000    0.000    0.000 
#
# Total GULP energy -198330.355266 kJ/mol
# GULP energy per Si atom -12395.647204 kJ/mol
# Density = 2.482850 g / cm^3
# Si number density = 24.885138 Si / 1000 Ang^3
#
#
#
# Elastic Constant Matrix: (Units=GPa)
#
#
# Indices 1 2 3 4 5 6 
#
# 1 109.5056 35.0034 7.2414 -8.7683 -36.5482 6.6327
# 2 35.0034 75.3426 11.7465 8.6349 -2.3724 12.7181
# 3 7.2414 11.7465 91.9711 19.1035 -20.4780 9.1535
# 4 -8.7683 8.6349 19.1035 27.5654 -6.9699 -1.5395
# 5 -36.5482 -2.3724 -20.4780 -6.9699 34.3070 1.6352
# 6 6.6327 12.7181 9.1535 -1.5395 1.6352 42.1222
#
#
#
# Elastic Compliance Matrix: (Units=1/GPa)
#
#
# Indices 1 2 3 4 5 6 
#
# 1 0.024941 -0.012895 0.003083 0.017645 0.031164 -0.001269
# 2 -0.012895 0.021285 -0.002079 -0.013610 -0.016089 -0.003817
# 3 0.003083 -0.002079 0.015013 -0.006196 0.011023 -0.003775
# 4 0.017645 -0.013610 -0.006196 0.057127 0.025585 0.003772
# 5 0.031164 -0.016089 0.011023 0.025585 0.073221 -0.004352
# 6 -0.001269 -0.003817 -0.003775 0.003772 -0.004352 0.026220
#
#
# Mechanical properties :
#
#
# Convention : Reuss Voigt Hill
#
# Bulk Modulus (GPa) = 26.69619 42.75578 34.72598
# Shear Modulus (GPa) = 19.67934 35.65412 27.66673
#
# Velocity S-wave (km/s) = 2.81518 3.78927 3.33795
# Velocity P-wave (km/s) = 4.61715 6.03020 5.37035
#
# Compressibility (1/GPa) = 0.03745853
#
# Stress axis : x y z
#
# Youngs Moduli (GPa) = 40.09484 46.98114 66.61008
#
# Poissons Ratio (x) = 0.60581 -0.20538
# Poissons Ratio (y) = 0.51701 0.13846
# Poissons Ratio (z) = -0.12363 0.09766
#
# Static dielectric constant tensor:
#      x y z
#    x 4.432170 0.227760 -0.247660 
#    y 0.227760 4.619560 0.135170 
#    z -0.247660 0.135170 4.546990 
# 
# 
# High freq. dielectric constant tensor:
#      x y z
#    x 1.983750 0.020010 -0.022680 
#    y 0.020010 1.996520 0.009760 
#    z -0.022680 0.009760 1.993000 
# 
# From -- ./inp_files/468297.got.cif
#   From: 2010.06.25/outbox.cif.g09.slc.cpg/sg2_235_cif.got.tgz:468297.got - 2010.06.27 13:26:56.
