data_PCOD8025509
_publ_section_title
;
Structure prediction by ZEFSAII (Michael W. Deem and Ramdas Pophale) SiO2 
 PCOD8025509
Probable space group: P -1
;
_chemical_formula_sum "Si O2"
_cell_formula_units_Z 16
_cell_length_a 16.437618
_cell_length_b 11.909408
_cell_length_c 8.588497
_cell_angle_alpha 84.262133
_cell_angle_beta 54.403763
_cell_angle_gamma 42.262094
_cell_volume 732.134879
_symmetry_space_group_name_H-M "P -1"
_symmetry_group_IT_number 2
_symmetry_cell_setting 'triclinic'
loop_
_space_group_symop_operation_xyz
x,y,z
-x,-y,-z
loop_
_atom_site_type_symbol
_atom_site_label
_atom_site_fract_x
_atom_site_fract_y
_atom_site_fract_z
Si Si1 0.022967 0.848167 0.952921
Si Si2 0.756784 0.756108 0.568123
Si Si3 0.136134 0.284563 0.216654
Si Si4 0.707903 0.307496 0.856036
Si Si5 0.395956 0.511181 0.724194
Si Si6 0.459050 0.943813 0.676576
Si Si7 0.985209 0.849242 0.630226
Si Si8 0.327562 0.935370 0.557493
O O1 0.228428 0.611391 0.803424
O O2 0.001153 0.844277 0.797136
O O3 0.000000 0.000000 0.000000
O O4 0.876987 0.917653 0.208100
O O5 0.744572 0.775460 0.766121
O O6 0.622622 0.783737 0.646656
O O7 0.968302 0.526163 0.320243
O O8 0.689627 0.936465 0.542957
O O9 0.058476 0.236469 0.361670
O O10 0.263151 0.157438 0.942968
O O11 0.821927 0.299512 0.646780
O O12 0.500000 0.500000 0.000000
O O13 0.697366 0.336600 0.047970
O O14 0.814536 0.089598 0.729498
O O15 0.500000 0.500000 0.500000
O O16 0.543897 0.276422 0.648137
O O17 0.430194 0.856668 0.622079
O O18 0.500000 0.000000 0.500000
#
# Coordination Sequence:
#
# PCOD8025509 Si02
#       8
#     2   2   2   2   2   2   2   2
#     4  12  23  43  68  96 139 174 221 272 328 402
#     4  10  26  45  69  97 132 175 227 282 335 396
#     4  11  24  46  70  96 136 176 226 276 343 395
#     4  11  26  43  67 101 140 175 226 277 331 403
#     4  12  25  42  69 100 134 178 222 269 335 400
#     4  10  23  45  68  99 129 172 227 280 333 395
#     4  11  25  44  68 100 134 183 223 275 336 398
#     4  11  25  42  69 100 133 176 222 276 334 397
#
# _framework density 21.853897
#
# number of rings (size 3 to 8) (size 9 to 14) (size 15 to 20)
#    0.000    1.000    3.750    1.125    5.250    5.000 
#    4.500    0.000    0.000    0.000    0.000    0.000 
#    0.000    0.000    0.000    0.000    0.000    0.000 
#
# Total GULP energy -198421.295417 kJ/mol
# GULP energy per Si atom -12401.330964 kJ/mol
# Density = 2.180416 g / cm^3
# Si number density = 21.853897 Si / 1000 Ang^3
#
#
#
# Elastic Constant Matrix: (Units=GPa)
#
#
# Indices 1 2 3 4 5 6 
#
# 1 85.8828 17.0846 8.5511 11.6849 -13.5350 -10.4174
# 2 17.0846 92.9227 24.2198 19.5951 -11.5870 -2.2215
# 3 8.5511 24.2198 113.3409 6.8622 -12.4344 2.2117
# 4 11.6849 19.5951 6.8622 29.1450 -2.5442 -5.8591
# 5 -13.5350 -11.5870 -12.4344 -2.5442 40.8854 4.5048
# 6 -10.4174 -2.2215 2.2117 -5.8591 4.5048 32.8686
#
#
#
# Elastic Compliance Matrix: (Units=1/GPa)
#
#
# Indices 1 2 3 4 5 6 
#
# 1 0.013293 -0.001120 -0.000225 -0.003611 0.003456 0.003035
# 2 -0.001120 0.013492 -0.002014 -0.008154 0.002454 -0.001097
# 3 -0.000225 -0.002014 0.009610 -0.000880 0.002370 -0.001336
# 4 -0.003611 -0.008154 -0.000880 0.042536 -0.001810 0.006194
# 5 0.003456 0.002454 0.002370 -0.001810 0.027231 -0.002953
# 6 0.003035 -0.001097 -0.001336 0.006194 -0.002953 0.032911
#
#
# Mechanical properties :
#
#
# Convention : Reuss Voigt Hill
#
# Bulk Modulus (GPa) = 33.69798 43.53974 38.61886
# Shear Modulus (GPa) = 32.11648 36.73253 34.42450
#
# Velocity S-wave (km/s) = 3.83769 4.10423 3.97320
# Velocity P-wave (km/s) = 5.92371 6.51352 6.22561
#
# Compressibility (1/GPa) = 0.02967537
#
# Stress axis : x y z
#
# Youngs Moduli (GPa) = 75.22658 74.11905 104.06213
#
# Poissons Ratio (x) = 0.08304 0.02341
# Poissons Ratio (y) = 0.08428 0.20961
# Poissons Ratio (z) = 0.01692 0.14930
#
# Static dielectric constant tensor:
#      x y z
#    x 5.010190 -0.257030 0.199220 
#    y -0.257030 3.918670 0.106110 
#    z 0.199220 0.106110 4.320710 
# 
# 
# High freq. dielectric constant tensor:
#      x y z
#    x 1.873940 -0.008540 -0.002370 
#    y -0.008540 1.848420 0.008400 
#    z -0.002370 0.008400 1.870630 
# 
# From -- ./inp_files/333218.got.cif
#   From: 2010.06.25/outbox.cif.g09.slc.cpg/sg2_167_cif.got.tgz:333218.got - 2010.06.27 13:26:56.
