data_PCOD8025266
_publ_section_title
;
Structure prediction by ZEFSAII (Michael W. Deem and Ramdas Pophale) SiO2 
 PCOD8025266
Probable space group: P -1
;
_chemical_formula_sum "Si O2"
_cell_formula_units_Z 12
_cell_length_a 15.701387
_cell_length_b 7.945090
_cell_length_c 15.114509
_cell_angle_alpha 128.238950
_cell_angle_beta 19.223610
_cell_angle_gamma 122.238067
_cell_volume 478.039911
_symmetry_space_group_name_H-M "P -1"
_symmetry_group_IT_number 2
_symmetry_cell_setting 'triclinic'
loop_
_space_group_symop_operation_xyz
x,y,z
-x,-y,-z
loop_
_atom_site_type_symbol
_atom_site_label
_atom_site_fract_x
_atom_site_fract_y
_atom_site_fract_z
Si Si1 0.221566 0.090615 0.262948
Si Si2 0.987342 0.728433 0.043148
Si Si3 0.516215 0.800644 0.233946
Si Si4 0.496801 0.342196 0.601541
Si Si5 0.074436 0.570251 0.544391
Si Si6 0.288645 0.856844 0.937011
O O1 0.182815 0.341762 0.411312
O O2 0.000000 0.000000 0.500000
O O3 0.500000 0.000000 0.000000
O O4 0.209773 0.029068 0.150416
O O5 0.224569 0.719937 0.739150
O O6 0.031062 0.884714 0.133433
O O7 0.000000 0.500000 0.000000
O O8 0.709740 0.791151 0.284265
O O9 0.447995 0.754802 0.386714
O O10 0.311978 0.699969 0.342622
O O11 0.488052 0.055817 0.313235
O O12 0.822407 0.694786 0.884875
O O13 0.391658 0.606986 0.786849
O O14 0.000000 0.500000 0.500000
#
# Coordination Sequence:
#
# PCOD8025266 Si02
#       6
#     2   2   2   2   2   2
#     4  12  27  44  71 102 136 182 235 285 340 417
#     4  10  23  44  71  99 139 181 224 292 345 404
#     4  12  27  44  73 103 138 188 228 285 349 415
#     4  11  24  46  68 103 141 174 232 291 340 408
#     4  12  25  47  66 100 145 178 229 289 343 403
#     4  11  25  44  72  99 135 186 233 274 354 414
#
# _framework density 25.102506999999999
#
# number of rings (size 3 to 8) (size 9 to 14) (size 15 to 20)
#    0.000    0.667    1.667    6.500    2.333   10.667 
#    0.000    0.000    0.000    0.000    0.000    0.000 
#    0.000    0.000    0.000    0.000    0.000    0.000 
#
# Total GULP energy -148713.270305 kJ/mol
# GULP energy per Si atom -12392.772525 kJ/mol
# Density = 2.504537 g / cm^3
# Si number density = 25.102507 Si / 1000 Ang^3
#
#
#
# Elastic Constant Matrix: (Units=GPa)
#
#
# Indices 1 2 3 4 5 6 
#
# 1 143.8870 37.5092 33.1478 -33.8546 10.0402 13.9983
# 2 37.5092 135.6802 42.0333 -31.4231 -0.3421 3.7083
# 3 33.1478 42.0333 138.6244 -31.3518 0.5573 1.3314
# 4 -33.8546 -31.4231 -31.3518 56.5824 7.1546 -1.9649
# 5 10.0402 -0.3421 0.5573 7.1546 44.4060 -12.3177
# 6 13.9983 3.7083 1.3314 -1.9649 -12.3177 44.1271
#
#
#
# Elastic Compliance Matrix: (Units=1/GPa)
#
#
# Indices 1 2 3 4 5 6 
#
# 1 0.009165 -0.001102 -0.000712 0.004839 -0.003866 -0.003657
# 2 -0.001102 0.008999 -0.001685 0.003431 -0.000292 -0.000284
# 3 -0.000712 -0.001685 0.008692 0.003521 -0.000494 0.000124
# 4 0.004839 0.003431 0.003521 0.025077 -0.005829 -0.002440
# 5 -0.003866 -0.000292 -0.000494 -0.005829 0.026682 0.008454
# 6 -0.003657 -0.000284 0.000124 -0.002440 0.008454 0.026093
#
#
# Mechanical properties :
#
#
# Convention : Reuss Voigt Hill
#
# Bulk Modulus (GPa) = 50.36024 71.50802 60.93413
# Shear Modulus (GPa) = 42.25573 49.38986 45.82279
#
# Velocity S-wave (km/s) = 4.10729 4.44049 4.27714
# Velocity P-wave (km/s) = 6.52675 7.40533 6.97988
#
# Compressibility (1/GPa) = 0.01985694
#
# Stress axis : x y z
#
# Youngs Moduli (GPa) = 109.10593 111.12672 115.04676
#
# Poissons Ratio (x) = 0.12249 0.08196
# Poissons Ratio (y) = 0.12026 0.19386
# Poissons Ratio (z) = 0.07772 0.18725
#
# Static dielectric constant tensor:
#      x y z
#    x 1.051330 -9.291070 -3.824650 
#    y -9.291070 -18.695810 -7.793510 
#    z -3.824650 -7.793510 1.965620 
# 
# 
# High freq. dielectric constant tensor:
#      x y z
#    x 2.011790 0.001040 -0.003240 
#    y 0.001040 2.028420 -0.011260 
#    z -0.003240 -0.011260 2.010660 
# 
# From -- ./inp_files/75751.got.cif
#   From: 2010.06.25/outbox.cif.g09.slc.cpg/sg2_38_cif.got.tgz:75751.got - 2010.06.27 13:26:56.
