data_PCOD8025323
_publ_section_title
;
Structure prediction by ZEFSAII (Michael W. Deem and Ramdas Pophale) SiO2 
 PCOD8025323
Probable space group: P -1
;
_chemical_formula_sum "Si O2"
_cell_formula_units_Z 16
_cell_length_a 15.867248
_cell_length_b 8.969925
_cell_length_c 5.232655
_cell_angle_alpha 84.494165
_cell_angle_beta 121.878495
_cell_angle_gamma 83.899710
_cell_volume 618.558437
_symmetry_space_group_name_H-M "P -1"
_symmetry_group_IT_number 2
_symmetry_cell_setting 'triclinic'
loop_
_space_group_symop_operation_xyz
x,y,z
-x,-y,-z
loop_
_atom_site_type_symbol
_atom_site_label
_atom_site_fract_x
_atom_site_fract_y
_atom_site_fract_z
Si Si1 0.522812 0.703097 0.093643
Si Si2 0.640313 0.408457 0.464459
Si Si3 0.070207 0.573653 0.795427
Si Si4 0.809760 0.703260 0.738199
Si Si5 0.689557 0.794987 0.016316
Si Si6 0.348021 0.856375 0.061170
Si Si7 0.806691 0.305875 0.393881
Si Si8 0.992730 0.827423 0.009150
O O1 0.596098 0.587678 0.425232
O O2 0.581901 0.756944 0.938216
O O3 0.460038 0.849110 0.119187
O O4 0.430740 0.622562 0.876191
O O5 0.640708 0.283761 0.700712
O O6 0.752480 0.405021 0.528570
O O7 0.180738 0.589191 0.847500
O O8 0.000000 0.500000 0.500000
O O9 0.106956 0.454873 0.105402
O O10 0.014650 0.738027 0.787439
O O11 0.765174 0.741287 0.379949
O O12 0.725220 0.709074 0.823492
O O13 0.877875 0.826834 0.908700
O O14 0.681187 0.973923 0.905100
O O15 0.256658 0.829621 0.732707
O O16 0.924460 0.247101 0.643056
O O17 0.000000 0.000000 0.000000
#
# Coordination Sequence:
#
# PCOD8025323 Si02
#       8
#     2   2   2   2   2   2   2   2
#     4  10  24  45  72 106 147 199 253 324 394 473
#     4  10  23  44  73 107 146 193 262 315 399 463
#     4  12  26  49  77 110 151 212 266 325 389 470
#     4  12  29  49  75 112 158 203 267 319 391 475
#     4  12  29  47  77 111 156 202 264 319 400 463
#     4  11  25  45  74 109 149 201 253 329 392 476
#     4  11  25  43  75 108 150 196 260 316 393 458
#     4  12  28  47  76 108 160 205 259 324 400 465
#
# _framework density 25.866593999999999
#
# number of rings (size 3 to 8) (size 9 to 14) (size 15 to 20)
#    0.000    0.750    1.250    4.125   14.000    1.000 
#    0.000    0.000    0.000    0.000    0.000    0.000 
#    0.000    0.000    0.000    0.000    0.000    0.000 
#
# Total GULP energy -198233.763664 kJ/mol
# GULP energy per Si atom -12389.610229 kJ/mol
# Density = 2.580772 g / cm^3
# Si number density = 25.866594 Si / 1000 Ang^3
#
#
#
# Elastic Constant Matrix: (Units=GPa)
#
#
# Indices 1 2 3 4 5 6 
#
# 1 133.3292 21.3430 12.4356 -0.0454 6.1384 7.0079
# 2 21.3430 111.7088 22.7025 4.9067 4.8534 -2.8196
# 3 12.4356 22.7025 76.2808 -4.2861 -7.7880 -2.5097
# 4 -0.0454 4.9067 -4.2861 21.7579 0.9889 -0.0852
# 5 6.1384 4.8534 -7.7880 0.9889 32.8488 5.9365
# 6 7.0079 -2.8196 -2.5097 -0.0852 5.9365 43.4139
#
#
#
# Elastic Compliance Matrix: (Units=1/GPa)
#
#
# Indices 1 2 3 4 5 6 
#
# 1 0.007932 -0.001276 -0.001082 0.000147 -0.001330 -0.001244
# 2 -0.001276 0.010068 -0.003126 -0.002791 -0.002079 0.000958
# 3 -0.001082 -0.003126 0.014830 0.003442 0.004025 0.000285
# 4 0.000147 -0.002791 0.003442 0.047280 -0.000244 0.000120
# 5 -0.001330 -0.002079 0.004025 -0.000244 0.032712 -0.004161
# 6 -0.001244 0.000958 0.000285 0.000120 -0.004161 0.023883
#
#
# Mechanical properties :
#
#
# Convention : Reuss Voigt Hill
#
# Bulk Modulus (GPa) = 45.74000 48.25344 46.99672
# Shear Modulus (GPa) = 32.26660 37.25996 34.76328
#
# Velocity S-wave (km/s) = 3.53572 3.79946 3.66996
# Velocity P-wave (km/s) = 5.86429 6.15980 6.01386
#
# Compressibility (1/GPa) = 0.02186270
#
# Stress axis : x y z
#
# Youngs Moduli (GPa) = 126.07170 99.32489 67.43128
#
# Poissons Ratio (x) = 0.12670 0.07295
# Poissons Ratio (y) = 0.16082 0.21079
# Poissons Ratio (z) = 0.13640 0.31049
#
# Static dielectric constant tensor:
#      x y z
#    x 5.039080 0.281420 0.147320 
#    y 0.281420 6.371750 -1.751760 
#    z 0.147320 -1.751760 6.424380 
# 
# 
# High freq. dielectric constant tensor:
#      x y z
#    x 2.049890 0.009230 0.021630 
#    y 0.009230 2.032520 0.000660 
#    z 0.021630 0.000660 2.035970 
# 
# From -- ./inp_files/107033.got.cif
#   From: 2010.06.25/outbox.cif.g09.slc.cpg/sg2_54_cif.got.tgz:107033.got - 2010.06.27 13:26:56.
