data_PCOD8025148
_publ_section_title
;
Structure prediction by ZEFSAII (Michael W. Deem and Ramdas Pophale) SiO2 
 PCOD8025148
Probable space group: P -1
;
_chemical_formula_sum "Si O2"
_cell_formula_units_Z 16
_cell_length_a 12.536250
_cell_length_b 8.890997
_cell_length_c 8.439337
_cell_angle_alpha 109.443682
_cell_angle_beta 64.415041
_cell_angle_gamma 128.880653
_cell_volume 657.886873
_symmetry_space_group_name_H-M "P -1"
_symmetry_group_IT_number 2
_symmetry_cell_setting 'triclinic'
loop_
_space_group_symop_operation_xyz
x,y,z
-x,-y,-z
loop_
_atom_site_type_symbol
_atom_site_label
_atom_site_fract_x
_atom_site_fract_y
_atom_site_fract_z
Si Si1 0.774647 0.012931 0.418973
Si Si2 0.986835 0.588102 0.198525
Si Si3 0.172479 0.007801 0.261777
Si Si4 0.768839 0.420583 0.843343
Si Si5 0.281754 0.673335 0.500237
Si Si6 0.465095 0.345889 0.724663
Si Si7 0.938463 0.836245 0.853155
Si Si8 0.470364 0.270707 0.061637
O O1 0.692015 0.120250 0.492190
O O2 0.927770 0.165270 0.294354
O O3 0.813774 0.972203 0.551618
O O4 0.688517 0.805913 0.311928
O O5 0.125851 0.648365 0.235930
O O6 0.833241 0.440142 0.325261
O O7 0.028167 0.804122 0.223462
O O8 0.000000 0.500000 0.000000
O O9 0.149444 0.157120 0.237312
O O10 0.329315 0.060108 0.124587
O O11 0.764815 0.455445 0.671973
O O12 0.835104 0.635234 0.945668
O O13 0.615189 0.273220 0.975757
O O14 0.429551 0.694287 0.454987
O O15 0.513689 0.569251 0.766454
O O16 0.449288 0.302907 0.905335
O O17 0.000000 0.000000 0.000000
#
# Coordination Sequence:
#
# PCOD8025148 Si02
#       8
#     2   2   2   2   2   2   2   2
#     4  12  24  42  68 101 140 179 226 282 341 405
#     4  12  26  43  68 101 136 175 226 287 340 399
#     4  12  26  42  65 107 135 173 228 286 341 392
#     4  11  22  46  71  93 137 186 220 272 347 402
#     4  11  23  45  69  96 137 184 225 272 342 417
#     4  10  23  44  72  99 133 187 228 269 345 405
#     4  12  24  42  72  97 135 183 232 279 334 409
#     4  10  23  44  69  98 137 177 231 277 327 412
#
# _framework density 24.320291000000001
#
# number of rings (size 3 to 8) (size 9 to 14) (size 15 to 20)
#    0.000    0.750    2.500    6.375    1.750    3.000 
#    0.000    0.000    0.000    0.000    0.000    0.000 
#    0.000    0.000    0.000    0.000    0.000    0.000 
#
# Total GULP energy -198234.776509 kJ/mol
# GULP energy per Si atom -12389.673532 kJ/mol
# Density = 2.426494 g / cm^3
# Si number density = 24.320291 Si / 1000 Ang^3
#
#
#
# Elastic Constant Matrix: (Units=GPa)
#
#
# Indices 1 2 3 4 5 6 
#
# 1 68.3590 5.0145 22.7193 -1.8173 -14.5533 12.3077
# 2 5.0145 69.5398 24.7282 1.1575 2.7975 20.6189
# 3 22.7193 24.7282 113.6268 -4.8137 -17.9123 16.7544
# 4 -1.8173 1.1575 -4.8137 36.1024 6.7491 -4.1689
# 5 -14.5533 2.7975 -17.9123 6.7491 25.6445 3.2978
# 6 12.3077 20.6189 16.7544 -4.1689 3.2978 36.7642
#
#
#
# Elastic Compliance Matrix: (Units=1/GPa)
#
#
# Indices 1 2 3 4 5 6 
#
# 1 0.018613 0.000856 -0.001135 -0.002198 0.011213 -0.007449
# 2 0.000856 0.018261 -0.003221 -0.001611 -0.002169 -0.009048
# 3 -0.001135 -0.003221 0.011618 -0.000435 0.008440 -0.003915
# 4 -0.002198 -0.001611 -0.000435 0.030185 -0.010112 0.006168
# 5 0.011213 -0.002169 0.008440 -0.010112 0.055763 -0.012533
# 6 -0.007449 -0.009048 -0.003915 0.006168 -0.012533 0.038376
#
#
# Mechanical properties :
#
#
# Convention : Reuss Voigt Hill
#
# Bulk Modulus (GPa) = 24.10165 39.60551 31.85358
# Shear Modulus (GPa) = 25.82014 32.97313 29.39664
#
# Velocity S-wave (km/s) = 3.26186 3.68610 3.48045
# Velocity P-wave (km/s) = 4.91100 5.86828 5.41085
#
# Compressibility (1/GPa) = 0.04149094
#
# Stress axis : x y z
#
# Youngs Moduli (GPa) = 53.72564 54.76196 86.07382
#
# Poissons Ratio (x) = -0.04685 0.09768
# Poissons Ratio (y) = -0.04596 0.27725
# Poissons Ratio (z) = 0.06097 0.17639
#
# Static dielectric constant tensor:
#      x y z
#    x 4.876270 0.161690 -0.324200 
#    y 0.161690 4.304300 -0.100480 
#    z -0.324200 -0.100480 4.375210 
# 
# 
# High freq. dielectric constant tensor:
#      x y z
#    x 1.966030 0.014800 -0.011660 
#    y 0.014800 1.966540 0.002270 
#    z -0.011660 0.002270 1.962690 
# 
# From -- ./inp_files/244459.got.cif
#   From: 2010.06.25/outbox.cif.g09.slc.cpg/sg2_123_cif.got.tgz:244459.got - 2010.06.27 13:26:56.
