data_PCOD8025213
_publ_section_title
;
Structure prediction by ZEFSAII (Michael W. Deem and Ramdas Pophale) SiO2 
 PCOD8025213
Probable space group: P -1
;
_chemical_formula_sum "Si O2"
_cell_formula_units_Z 14
_cell_length_a 14.531558
_cell_length_b 6.525343
_cell_length_c 14.518940
_cell_angle_alpha 110.647536
_cell_angle_beta 149.869885
_cell_angle_gamma 79.519355
_cell_volume 624.092277
_symmetry_space_group_name_H-M "P -1"
_symmetry_group_IT_number 2
_symmetry_cell_setting 'triclinic'
loop_
_space_group_symop_operation_xyz
x,y,z
-x,-y,-z
loop_
_atom_site_type_symbol
_atom_site_label
_atom_site_fract_x
_atom_site_fract_y
_atom_site_fract_z
Si Si1 0.588129 0.200916 0.778058
Si Si2 0.667408 0.477259 0.707385
Si Si3 0.025240 0.820537 0.389536
Si Si4 0.085996 0.030144 0.979099
Si Si5 0.885790 0.240637 0.351619
Si Si6 0.650758 0.436426 0.054409
Si Si7 0.206592 0.840361 0.365486
O O1 0.579923 0.333321 0.697844
O O2 0.792219 0.149908 0.960871
O O3 0.424119 0.969348 0.592463
O O4 0.551113 0.341819 0.856863
O O5 0.500000 0.500000 0.500000
O O6 0.784646 0.717542 0.884090
O O7 0.804666 0.357964 0.750103
O O8 0.171893 0.840788 0.605820
O O9 0.112811 0.727900 0.361821
O O10 0.822662 0.655267 0.215666
O O11 0.004951 0.072609 0.388264
O O12 0.912757 0.989813 0.750076
O O13 0.000000 0.000000 0.000000
O O14 0.714410 0.235338 0.132045
O O15 0.000000 0.500000 0.500000
O O16 0.500000 0.500000 0.000000
#
# Coordination Sequence:
#
# PCOD8025213 Si02
#       7
#     2   2   2   2   2   2   2
#     4  12  27  47  68 105 141 183 237 286 345 414
#     4  12  25  47  70 105 145 182 228 285 350 417
#     4  10  23  44  70  99 134 179 232 283 350 408
#     4  12  25  45  74  99 142 187 229 286 344 413
#     4   9  21  44  69  94 132 173 232 283 341 406
#     4  11  26  45  69 100 141 181 230 289 346 409
#     4  12  25  45  73 102 141 184 230 286 348 417
#
# _framework density 22.432580000000002
#
# number of rings (size 3 to 8) (size 9 to 14) (size 15 to 20)
#    0.000    0.857    2.857    3.429    8.000    1.714 
#    5.143    0.000    0.000    0.000    0.000    0.000 
#    0.000    0.000    0.000    0.000    0.000    0.000 
#
# Total GULP energy -173602.275721 kJ/mol
# GULP energy per Si atom -12400.162551 kJ/mol
# Density = 2.238152 g / cm^3
# Si number density = 22.432580 Si / 1000 Ang^3
#
#
#
# Elastic Constant Matrix: (Units=GPa)
#
#
# Indices 1 2 3 4 5 6 
#
# 1 176.9624 39.9207 29.4282 -9.7048 -14.2472 7.0858
# 2 39.9207 107.3700 23.2110 -15.8020 -3.4380 3.4754
# 3 29.4282 23.2110 69.4734 -17.9683 -6.9525 2.0084
# 4 -9.7048 -15.8020 -17.9683 47.7580 4.6608 -5.7946
# 5 -14.2472 -3.4380 -6.9525 4.6608 41.1543 2.2794
# 6 7.0858 3.4754 2.0084 -5.7946 2.2794 29.6642
#
#
#
# Elastic Compliance Matrix: (Units=1/GPa)
#
#
# Indices 1 2 3 4 5 6 
#
# 1 0.006622 -0.001981 -0.002022 -0.000432 0.001914 -0.001444
# 2 -0.001981 0.010871 -0.002213 0.002383 -0.000413 -0.000153
# 3 -0.002022 -0.002213 0.017507 0.005363 0.001438 0.000494
# 4 -0.000432 0.002383 0.005363 0.024389 -0.002049 0.004383
# 5 0.001914 -0.000413 0.001438 -0.002049 0.025561 -0.002871
# 6 -0.001444 -0.000153 0.000494 0.004383 -0.002871 0.035117
#
#
# Mechanical properties :
#
#
# Convention : Reuss Voigt Hill
#
# Bulk Modulus (GPa) = 44.31075 59.88061 52.09568
# Shear Modulus (GPa) = 35.70873 41.13169 38.42021
#
# Velocity S-wave (km/s) = 3.99410 4.28667 4.14296
# Velocity P-wave (km/s) = 6.40829 7.15906 6.79405
#
# Compressibility (1/GPa) = 0.02256789
#
# Stress axis : x y z
#
# Youngs Moduli (GPa) = 151.00675 91.98757 57.12116
#
# Poissons Ratio (x) = 0.18220 0.11549
# Poissons Ratio (y) = 0.29910 0.12644
# Poissons Ratio (z) = 0.30531 0.20361
#
# Static dielectric constant tensor:
#      x y z
#    x 4.155060 0.109420 -0.228460 
#    y 0.109420 4.263280 -0.344990 
#    z -0.228460 -0.344990 4.155470 
# 
# 
# High freq. dielectric constant tensor:
#      x y z
#    x 1.892100 0.005460 -0.016940 
#    y 0.005460 1.888330 -0.010250 
#    z -0.016940 -0.010250 1.882070 
# 
# From -- ./inp_files/37137.got.cif
#   From: 2010.06.25/outbox.cif.g09.slc.cpg/sg2_19_cif.got.tgz:37137.got - 2010.06.27 13:26:56.
