data_PCOD8025130
_publ_section_title
;
Structure prediction by ZEFSAII (Michael W. Deem and Ramdas Pophale) SiO2 
 PCOD8025130
Probable space group: P -1
;
_chemical_formula_sum "Si O2"
_cell_formula_units_Z 12
_cell_length_a 6.745541
_cell_length_b 8.849476
_cell_length_c 12.855525
_cell_angle_alpha 103.332996
_cell_angle_beta 55.592969
_cell_angle_gamma 75.481897
_cell_volume 542.278130
_symmetry_space_group_name_H-M "P -1"
_symmetry_group_IT_number 2
_symmetry_cell_setting 'triclinic'
loop_
_space_group_symop_operation_xyz
x,y,z
-x,-y,-z
loop_
_atom_site_type_symbol
_atom_site_label
_atom_site_fract_x
_atom_site_fract_y
_atom_site_fract_z
Si Si1 0.393536 0.054005 0.822720
Si Si2 0.555775 0.697402 0.011283
Si Si3 0.684684 0.667496 0.729574
Si Si4 0.495317 0.854247 0.404059
Si Si5 0.951005 0.331388 0.873187
Si Si6 0.278806 0.602430 0.493910
O O1 0.587939 0.062517 0.674155
O O2 0.077593 0.190404 0.908445
O O3 0.448084 0.855254 0.787722
O O4 0.456804 0.118953 0.923760
O O5 0.625082 0.645765 0.862585
O O6 0.788896 0.538507 0.987061
O O7 0.265018 0.712518 0.128266
O O8 0.664650 0.517472 0.644339
O O9 0.977155 0.661207 0.634645
O O10 0.294376 0.780185 0.489372
O O11 0.808150 0.694452 0.282681
O O12 0.500000 0.000000 0.500000
O O13 0.500000 0.500000 0.500000
#
# Coordination Sequence:
#
# PCOD8025130 Si02
#       6
#     2   2   2   2   2   2
#     4  10  24  42  65 102 130 174 223 273 334 389
#     4  11  22  42  69  97 138 171 223 274 331 403
#     4  11  26  42  68 104 132 179 221 274 340 391
#     4  10  23  44  69  94 130 176 224 275 323 393
#     4   9  24  40  65  98 131 174 226 265 339 384
#     4  11  25  45  68  95 141 178 221 274 336 401
#
# _framework density 22.128865999999999
#
# number of rings (size 3 to 8) (size 9 to 14) (size 15 to 20)
#    1.000    0.667    0.000    3.000    7.000    4.000 
#    0.000    0.000    0.000    0.000    0.000    0.000 
#    0.000    0.000    0.000    0.000    0.000    0.000 
#
# Total GULP energy -148713.485430 kJ/mol
# GULP energy per Si atom -12392.790453 kJ/mol
# Density = 2.207850 g / cm^3
# Si number density = 22.128866 Si / 1000 Ang^3
#
#
#
# Elastic Constant Matrix: (Units=GPa)
#
#
# Indices 1 2 3 4 5 6 
#
# 1 89.4105 34.5565 37.2129 0.0153 7.7951 8.6975
# 2 34.5565 101.5366 17.6319 12.4216 3.1903 5.4981
# 3 37.2129 17.6319 66.9608 0.7204 12.9278 8.8099
# 4 0.0153 12.4216 0.7204 37.2728 0.8358 2.4595
# 5 7.7951 3.1903 12.9278 0.8358 41.1157 4.2208
# 6 8.6975 5.4981 8.8099 2.4595 4.2208 43.7976
#
#
#
# Elastic Compliance Matrix: (Units=1/GPa)
#
#
# Indices 1 2 3 4 5 6 
#
# 1 0.016178 -0.004304 -0.007673 0.001661 -0.000231 -0.001200
# 2 -0.004304 0.011929 -0.000710 -0.003945 0.000225 -0.000300
# 3 -0.007673 -0.000710 0.020574 0.000086 -0.004748 -0.002073
# 4 0.001661 -0.003945 0.000086 0.028244 -0.000467 -0.001393
# 5 -0.000231 0.000225 -0.004748 -0.000467 0.026005 -0.001507
# 6 -0.001200 -0.000300 -0.002073 -0.001393 -0.001507 0.023749
#
#
# Mechanical properties :
#
#
# Convention : Reuss Voigt Hill
#
# Bulk Modulus (GPa) = 42.90854 48.52340 45.71597
# Shear Modulus (GPa) = 31.28482 35.67100 33.47791
#
# Velocity S-wave (km/s) = 3.76407 4.01929 3.89377
# Velocity P-wave (km/s) = 6.19059 6.59658 6.39680
#
# Compressibility (1/GPa) = 0.02330538
#
# Stress axis : x y z
#
# Youngs Moduli (GPa) = 61.81224 83.83070 48.60570
#
# Poissons Ratio (x) = 0.36085 0.37294
# Poissons Ratio (y) = 0.26607 0.03453
# Poissons Ratio (z) = 0.47427 0.05955
#
# Static dielectric constant tensor:
#      x y z
#    x 3.865330 -0.046640 -0.086500 
#    y -0.046640 3.857340 0.111370 
#    z -0.086500 0.111370 3.950650 
# 
# 
# High freq. dielectric constant tensor:
#      x y z
#    x 1.868970 -0.000930 -0.000920 
#    y -0.000930 1.868770 0.010110 
#    z -0.000920 0.010110 1.869670 
# 
# From -- ./inp_files/65071.got.cif
#   From: 2010.06.25/outbox.cif.g09.slc.cpg/sg2_33_cif.got.tgz:65071.got - 2010.06.27 13:26:56.
