data_PCOD8025621
_publ_section_title
;
Structure prediction by ZEFSAII (Michael W. Deem and Ramdas Pophale) SiO2 
 PCOD8025621
Probable space group: P -1
;
_chemical_formula_sum "Si O2"
_cell_formula_units_Z 16
_cell_length_a 15.205499
_cell_length_b 16.847778
_cell_length_c 11.492251
_cell_angle_alpha 33.861287
_cell_angle_beta 50.946556
_cell_angle_gamma 27.808459
_cell_volume 700.776751
_symmetry_space_group_name_H-M "P -1"
_symmetry_group_IT_number 2
_symmetry_cell_setting 'triclinic'
loop_
_space_group_symop_operation_xyz
x,y,z
-x,-y,-z
loop_
_atom_site_type_symbol
_atom_site_label
_atom_site_fract_x
_atom_site_fract_y
_atom_site_fract_z
Si Si1 0.694803 0.817126 0.329995
Si Si2 0.769151 0.316781 0.408277
Si Si3 0.227697 0.002529 0.640909
Si Si4 0.079099 0.444370 0.311972
Si Si5 0.797401 0.302682 0.657493
Si Si6 0.378444 0.791451 0.017956
Si Si7 0.551489 0.174165 0.555071
Si Si8 0.079730 0.143580 0.214820
O O1 0.750002 0.704354 0.550705
O O2 0.495798 0.938575 0.306032
O O3 0.878561 0.591347 0.362952
O O4 0.651273 0.031255 0.102414
O O5 0.689137 0.438392 0.456019
O O6 0.590247 0.496616 0.242090
O O7 0.932782 0.265937 0.298129
O O8 0.874453 0.051681 0.651217
O O9 0.155263 0.243095 0.404916
O O10 0.032456 0.105134 0.695344
O O11 0.350535 0.840768 0.616597
O O12 0.382691 0.815786 0.847092
O O13 0.039813 0.629885 0.050032
O O14 0.803447 0.128476 0.897238
O O15 0.661395 0.527804 0.592436
O O16 0.713143 0.997932 0.740550
#
# Coordination Sequence:
#
# PCOD8025621 Si02
#       8
#     2   2   2   2   2   2   2   2
#     4  10  24  44  70 108 136 185 237 282 355 417
#     4  11  25  46  69 105 140 186 241 281 352 421
#     4  11  26  47  69 111 139 180 239 289 349 416
#     4  10  23  45  70  99 145 187 228 289 350 415
#     4  12  24  49  71 102 148 181 234 292 346 417
#     4  11  25  44  77 100 139 192 228 289 358 410
#     4  12  26  45  71 106 143 183 234 288 348 414
#     4  11  25  45  69 104 141 189 233 290 348 417
#
# _framework density 22.831807000000001
#
# number of rings (size 3 to 8) (size 9 to 14) (size 15 to 20)
#    0.000    1.000    3.750    1.500    5.250    3.500 
#    2.250    0.000    0.000    0.000    0.000    0.000 
#    0.000    0.000    0.000    0.000    0.000    0.000 
#
# Total GULP energy -198470.456319 kJ/mol
# GULP energy per Si atom -12404.403520 kJ/mol
# Density = 2.277984 g / cm^3
# Si number density = 22.831807 Si / 1000 Ang^3
#
#
#
# Elastic Constant Matrix: (Units=GPa)
#
#
# Indices 1 2 3 4 5 6 
#
# 1 101.4749 40.1981 44.7242 14.2245 -13.8270 -8.7717
# 2 40.1981 114.3222 27.9778 12.3926 -10.7122 12.5497
# 3 44.7242 27.9778 139.8611 7.1975 -11.3497 1.1927
# 4 14.2245 12.3926 7.1975 20.7259 -4.0251 1.6269
# 5 -13.8270 -10.7122 -11.3497 -4.0251 30.8557 10.7687
# 6 -8.7717 12.5497 1.1927 1.6269 10.7687 35.3505
#
#
#
# Elastic Compliance Matrix: (Units=1/GPa)
#
#
# Indices 1 2 3 4 5 6 
#
# 1 0.014460 -0.003976 -0.003437 -0.006511 0.001226 0.005042
# 2 -0.003976 0.011613 -0.000545 -0.002802 0.003822 -0.006126
# 3 -0.003437 -0.000545 0.008520 0.000233 0.001980 -0.001561
# 4 -0.006511 -0.002802 0.000233 0.055678 0.005116 -0.004749
# 5 0.001226 0.003822 0.001980 0.005116 0.040454 -0.013678
# 6 0.005042 -0.006126 -0.001561 -0.004749 -0.013678 0.036152
#
#
# Mechanical properties :
#
#
# Convention : Reuss Voigt Hill
#
# Bulk Modulus (GPa) = 53.54193 64.60647 59.07420
# Shear Modulus (GPa) = 26.45221 33.57031 30.01126
#
# Velocity S-wave (km/s) = 3.40747 3.83865 3.62947
# Velocity P-wave (km/s) = 6.24361 6.92857 6.59499
#
# Compressibility (1/GPa) = 0.01867695
#
# Stress axis : x y z
#
# Youngs Moduli (GPa) = 69.15540 86.10966 117.37067
#
# Poissons Ratio (x) = 0.34238 0.40341
# Poissons Ratio (y) = 0.27497 0.06397
# Poissons Ratio (z) = 0.23769 0.04693
#
# Static dielectric constant tensor:
#      x y z
#    x 4.130110 -0.007230 0.029950 
#    y -0.007230 4.092560 0.123750 
#    z 0.029950 0.123750 3.941100 
# 
# 
# High freq. dielectric constant tensor:
#      x y z
#    x 1.909470 -0.002780 0.000570 
#    y -0.002780 1.902710 0.011150 
#    z 0.000570 0.011150 1.893560 
# 
# From -- ./inp_files/456898.got.cif
#   From: 2010.06.25/outbox.cif.g09.slc.cpg/sg2_229_cif.got.tgz:456898.got - 2010.06.27 13:26:56.
