data_PCOD8025233
_publ_section_title
;
Structure prediction by ZEFSAII (Michael W. Deem and Ramdas Pophale) SiO2 
 PCOD8025233
Probable space group: P -1
;
_chemical_formula_sum "Si O2"
_cell_formula_units_Z 12
_cell_length_a 8.789784
_cell_length_b 9.613205
_cell_length_c 11.447517
_cell_angle_alpha 36.539228
_cell_angle_beta 117.743229
_cell_angle_gamma 98.993999
_cell_volume 464.169291
_symmetry_space_group_name_H-M "P -1"
_symmetry_group_IT_number 2
_symmetry_cell_setting 'triclinic'
loop_
_space_group_symop_operation_xyz
x,y,z
-x,-y,-z
loop_
_atom_site_type_symbol
_atom_site_label
_atom_site_fract_x
_atom_site_fract_y
_atom_site_fract_z
Si Si1 0.183019 0.507234 0.000144
Si Si2 0.707021 0.666843 0.093779
Si Si3 0.269187 0.952474 0.745914
Si Si4 0.756392 0.150485 0.801828
Si Si5 0.020779 0.746597 0.382805
Si Si6 0.352988 0.387999 0.380182
O O1 0.249684 0.323422 0.035801
O O2 0.161258 0.790414 0.758964
O O3 0.345434 0.423001 0.214535
O O4 0.000000 0.500000 0.000000
O O5 0.810741 0.378241 0.376363
O O6 0.486093 0.762573 0.972767
O O7 0.775755 0.871657 0.043151
O O8 0.246904 0.201598 0.495059
O O9 0.172516 0.048574 0.771446
O O10 0.928178 0.106700 0.803753
O O11 0.566954 0.267416 0.578918
O O12 0.755633 0.340706 0.776538
O O13 0.000000 0.500000 0.500000
#
# Coordination Sequence:
#
# PCOD8025233 Si02
#       6
#     2   2   2   2   2   2
#     4  12  26  44  71 104 142 188 232 286 350 419
#     4  11  27  46  71 105 140 187 232 286 354 414
#     4  11  25  46  71 102 141 183 231 290 344 417
#     4  10  23  44  72 102 140 179 233 292 343 416
#     4  12  25  42  70 106 136 180 234 287 348 408
#     4  10  23  44  71 103 137 186 232 283 354 410
#
# _framework density 25.852637000000001
#
# number of rings (size 3 to 8) (size 9 to 14) (size 15 to 20)
#    0.000    1.000    1.667    3.500    2.333    8.000 
#    0.000    0.000    0.000    0.000    0.000    0.000 
#    0.000    0.000    0.000    0.000    0.000    0.000 
#
# Total GULP energy -148798.274385 kJ/mol
# GULP energy per Si atom -12399.856199 kJ/mol
# Density = 2.579380 g / cm^3
# Si number density = 25.852637 Si / 1000 Ang^3
#
#
#
# Elastic Constant Matrix: (Units=GPa)
#
#
# Indices 1 2 3 4 5 6 
#
# 1 155.7200 37.7935 41.1943 -26.6542 6.2676 -7.6254
# 2 37.7935 109.8374 28.6891 -20.2705 -7.3824 2.8689
# 3 41.1943 28.6891 112.8977 -0.5497 -12.7585 -10.7444
# 4 -26.6542 -20.2705 -0.5497 37.7349 -2.5136 -12.7432
# 5 6.2676 -7.3824 -12.7585 -2.5136 50.3496 -15.0193
# 6 -7.6254 2.8689 -10.7444 -12.7432 -15.0193 50.6845
#
#
#
# Elastic Compliance Matrix: (Units=1/GPa)
#
#
# Indices 1 2 3 4 5 6 
#
# 1 0.008609 -0.001276 -0.002720 0.005951 -0.001063 0.001972
# 2 -0.001276 0.011187 -0.002101 0.005391 0.001713 0.000592
# 3 -0.002720 -0.002101 0.011026 -0.001760 0.003527 0.002650
# 4 0.005951 0.005391 -0.001760 0.037643 0.004795 0.011102
# 5 -0.001063 0.001713 0.003527 0.004795 0.024006 0.008810
# 6 0.001972 0.000592 0.002650 0.011102 0.008810 0.025957
#
#
# Mechanical properties :
#
#
# Convention : Reuss Voigt Hill
#
# Bulk Modulus (GPa) = 53.68555 65.97876 59.83215
# Shear Modulus (GPa) = 36.54093 45.80568 41.17331
#
# Velocity S-wave (km/s) = 3.76364 4.21384 3.99509
# Velocity P-wave (km/s) = 6.30061 7.01796 6.66894
#
# Compressibility (1/GPa) = 0.01862699
#
# Stress axis : x y z
#
# Youngs Moduli (GPa) = 116.15474 89.39022 90.69218
#
# Poissons Ratio (x) = 0.11410 0.24672
# Poissons Ratio (y) = 0.14826 0.19053
# Poissons Ratio (z) = 0.31599 0.18780
#
# Static dielectric constant tensor:
#      x y z
#    x 4.694660 0.254070 -0.291930 
#    y 0.254070 4.696290 0.169430 
#    z -0.291930 0.169430 5.316520 
# 
# 
# High freq. dielectric constant tensor:
#      x y z
#    x 2.045560 0.010230 -0.000390 
#    y 0.010230 2.036910 0.001010 
#    z -0.000390 0.001010 2.055610 
# 
# From -- ./inp_files/175074.got.cif
#   From: 2010.06.25/outbox.cif.g09.slc.cpg/sg2_88_cif.got.tgz:175074.got - 2010.06.27 13:26:56.
