data_PCOD8025110
_publ_section_title
;
Structure prediction by ZEFSAII (Michael W. Deem and Ramdas Pophale) SiO2 
 PCOD8025110
Probable space group: P -1
;
_chemical_formula_sum "Si O2"
_cell_formula_units_Z 16
_cell_length_a 11.166051
_cell_length_b 9.394494
_cell_length_c 8.301315
_cell_angle_alpha 92.737601
_cell_angle_beta 80.222223
_cell_angle_gamma 129.510398
_cell_volume 659.988753
_symmetry_space_group_name_H-M "P -1"
_symmetry_group_IT_number 2
_symmetry_cell_setting 'triclinic'
loop_
_space_group_symop_operation_xyz
x,y,z
-x,-y,-z
loop_
_atom_site_type_symbol
_atom_site_label
_atom_site_fract_x
_atom_site_fract_y
_atom_site_fract_z
Si Si1 0.157793 0.687990 0.044515
Si Si2 0.485323 0.227717 0.570428
Si Si3 0.898201 0.211901 0.426129
Si Si4 0.226448 0.515903 0.271857
Si Si5 0.646211 0.160400 0.300195
Si Si6 0.181079 0.118325 0.735029
Si Si7 0.133561 0.951817 0.244322
Si Si8 0.685122 0.677163 0.948081
O O1 0.216448 0.661267 0.195988
O O2 0.129534 0.832324 0.096935
O O3 0.299327 0.774171 0.890347
O O4 0.000000 0.500000 0.000000
O O5 0.624446 0.405702 0.646964
O O6 0.537685 0.214069 0.379787
O O7 0.340757 0.232987 0.593183
O O8 0.442961 0.056539 0.677142
O O9 0.792618 0.268678 0.400769
O O10 0.825044 0.085990 0.595158
O O11 0.077212 0.392566 0.418424
O O12 0.887171 0.093754 0.270078
O O13 0.224008 0.398314 0.123453
O O14 0.043686 0.117463 0.700666
O O15 0.233720 0.202268 0.904074
O O16 0.271237 0.170372 0.187736
O O17 0.500000 0.500000 0.000000
#
# Coordination Sequence:
#
# PCOD8025110 Si02
#       8
#     2   2   2   2   2   2   2   2
#     4  12  26  44  75 112 139 192 245 303 366 431
#     4  10  23  44  69 101 146 194 233 303 362 425
#     4  11  24  45  75 106 142 193 246 301 361 429
#     4  12  25  45  72 108 148 185 249 302 359 440
#     4  10  23  47  69 101 150 192 241 298 369 430
#     4  11  23  46  72 101 145 193 236 296 359 438
#     4  12  26  46  78 109 145 195 246 295 369 439
#     4  12  26  49  73 110 149 190 241 303 371 435
#
# _framework density 24.242839
#
# number of rings (size 3 to 8) (size 9 to 14) (size 15 to 20)
#    0.000    0.750    3.750    3.750    1.750    1.500 
#    6.750    1.250    0.000    0.000    0.000    0.000 
#    0.000    0.000    0.000    0.000    0.000    0.000 
#
# Total GULP energy -198327.465071 kJ/mol
# GULP energy per Si atom -12395.466567 kJ/mol
# Density = 2.418766 g / cm^3
# Si number density = 24.242839 Si / 1000 Ang^3
#
#
#
# Elastic Constant Matrix: (Units=GPa)
#
#
# Indices 1 2 3 4 5 6 
#
# 1 106.7610 31.3308 25.2407 -11.2905 -28.7190 7.5495
# 2 31.3308 105.3245 37.5573 -6.4240 -14.1693 15.0175
# 3 25.2407 37.5573 99.8608 -14.1635 -21.3435 2.9250
# 4 -11.2905 -6.4240 -14.1635 35.7869 0.9705 -6.7486
# 5 -28.7190 -14.1693 -21.3435 0.9705 40.5025 2.5210
# 6 7.5495 15.0175 2.9250 -6.7486 2.5210 42.1954
#
#
#
# Elastic Compliance Matrix: (Units=1/GPa)
#
#
# Indices 1 2 3 4 5 6 
#
# 1 0.012672 -0.002226 -0.000151 0.003042 0.008146 -0.001465
# 2 -0.002226 0.012136 -0.003803 -0.000777 0.000921 -0.003837
# 3 -0.000151 -0.003803 0.013250 0.004531 0.005383 0.000865
# 4 0.003042 -0.000777 0.004531 0.031265 0.003260 0.004224
# 5 0.008146 0.000921 0.005383 0.003260 0.033774 -0.003655
# 6 -0.001465 -0.003837 0.000865 0.004224 -0.003655 0.026161
#
#
# Mechanical properties :
#
#
# Convention : Reuss Voigt Hill
#
# Bulk Modulus (GPa) = 38.91048 55.57820 47.24434
# Shear Modulus (GPa) = 33.29297 38.21813 35.75555
#
# Velocity S-wave (km/s) = 3.70984 3.97479 3.84460
# Velocity P-wave (km/s) = 5.86819 6.63631 6.26404
#
# Compressibility (1/GPa) = 0.02570002
#
# Stress axis : x y z
#
# Youngs Moduli (GPa) = 78.91482 82.39876 75.47162
#
# Poissons Ratio (x) = 0.18339 0.01137
# Poissons Ratio (y) = 0.17563 0.28700
# Poissons Ratio (z) = 0.01189 0.31335
#
# Static dielectric constant tensor:
#      x y z
#    x 4.551120 0.101970 -0.458070 
#    y 0.101970 4.468300 0.028010 
#    z -0.458070 0.028010 4.260040 
# 
# 
# High freq. dielectric constant tensor:
#      x y z
#    x 1.964510 0.010220 -0.025690 
#    y 0.010220 1.966270 0.013610 
#    z -0.025690 0.013610 1.959600 
# 
# From -- ./inp_files/243977.got.cif
#   From: 2010.06.25/outbox.cif.g09.slc.cpg/sg2_122_cif.got.tgz:243977.got - 2010.06.27 13:26:56.
