data_PCOD8025996
_publ_section_title
;
Structure prediction by ZEFSAII (Michael W. Deem and Ramdas Pophale) SiO2 
 PCOD8025996
Probable space group: P -1
;
_chemical_formula_sum "Si O2"
_cell_formula_units_Z 14
_cell_length_a 8.837309
_cell_length_b 14.458072
_cell_length_c 8.716865
_cell_angle_alpha 43.885690
_cell_angle_beta 103.195945
_cell_angle_gamma 125.118518
_cell_volume 596.463855
_symmetry_space_group_name_H-M "P -1"
_symmetry_group_IT_number 2
_symmetry_cell_setting 'triclinic'
loop_
_space_group_symop_operation_xyz
x,y,z
-x,-y,-z
loop_
_atom_site_type_symbol
_atom_site_label
_atom_site_fract_x
_atom_site_fract_y
_atom_site_fract_z
Si Si1 0.095714 0.244542 0.612543
Si Si2 0.456636 0.156726 0.007273
Si Si3 0.835489 0.235057 0.070190
Si Si4 0.719771 0.468186 0.155629
Si Si5 0.463536 0.531963 0.199381
Si Si6 0.742014 0.183338 0.458342
Si Si7 0.129091 0.968299 0.909598
O O1 0.322283 0.403883 0.455543
O O2 0.963293 0.285154 0.449964
O O3 0.052756 0.077129 0.725147
O O4 0.034192 0.198896 0.831206
O O5 0.420327 0.278873 0.937422
O O6 0.335273 0.087985 0.904575
O O7 0.689530 0.254858 0.913249
O O8 0.391664 0.003505 0.285685
O O9 0.742461 0.173445 0.288598
O O10 0.840347 0.090042 0.173062
O O11 0.047781 0.410907 0.913349
O O12 0.618050 0.497593 0.233414
O O13 0.652603 0.279223 0.374432
O O14 0.667801 0.503560 0.936781
#
# Coordination Sequence:
#
# PCOD8025996 Si02
#       7
#     2   2   2   2   2   2   2
#     4  10  23  47  70  95 142 181 227 281 337 406
#     4  11  25  45  71 101 141 181 225 280 341 411
#     4  12  23  43  72 100 138 178 224 289 331 405
#     4  11  25  42  70 110 133 174 230 287 343 401
#     4  11  24  44  71 102 141 174 227 285 345 398
#     4  11  23  44  73 104 134 175 233 285 341 395
#     4  10  26  44  69 103 140 180 233 269 345 411
#
# _framework density 23.471665000000002
#
# number of rings (size 3 to 8) (size 9 to 14) (size 15 to 20)
#    0.000    1.143    2.857    2.143    8.000    2.286 
#    0.000    3.571    0.000    0.000    0.000    0.000 
#    0.000    0.000    0.000    0.000    0.000    0.000 
#
# Total GULP energy -173643.216534 kJ/mol
# GULP energy per Si atom -12403.086895 kJ/mol
# Density = 2.341824 g / cm^3
# Si number density = 23.471665 Si / 1000 Ang^3
#
#
#
# Elastic Constant Matrix: (Units=GPa)
#
#
# Indices 1 2 3 4 5 6 
#
# 1 118.3460 38.5148 34.7293 -8.5492 14.3815 -15.8368
# 2 38.5148 97.4332 31.4921 -24.5989 -0.3417 -18.6820
# 3 34.7293 31.4921 73.2595 -22.6015 11.6299 -3.2407
# 4 -8.5492 -24.5989 -22.6015 17.0082 2.5270 7.8694
# 5 14.3815 -0.3417 11.6299 2.5270 32.0750 -15.9679
# 6 -15.8368 -18.6820 -3.2407 7.8694 -15.9679 50.9135
#
#
#
# Elastic Compliance Matrix: (Units=1/GPa)
#
#
# Indices 1 2 3 4 5 6 
#
# 1 0.011599 -0.004649 -0.006799 -0.011316 -0.000345 0.003110
# 2 -0.004649 0.018338 0.003023 0.027804 -0.000498 0.001021
# 3 -0.006799 0.003023 0.037363 0.061051 -0.022860 -0.015233
# 4 -0.011316 0.027804 0.061051 0.198518 -0.050269 -0.035881
# 5 -0.000345 -0.000498 -0.022860 -0.050269 0.055192 0.023334
# 6 0.003110 0.001021 -0.015233 -0.035881 0.023334 0.032878
#
#
# Mechanical properties :
#
#
# Convention : Reuss Voigt Hill
#
# Bulk Modulus (GPa) = 19.82131 55.39013 37.60572
# Shear Modulus (GPa) = 12.90145 32.28619 22.59382
#
# Velocity S-wave (km/s) = 2.34703 3.71285 3.10595
# Velocity P-wave (km/s) = 3.97591 6.48308 5.37764
#
# Compressibility (1/GPa) = 0.05045074
#
# Stress axis : x y z
#
# Youngs Moduli (GPa) = 86.21714 54.53200 26.76410
#
# Poissons Ratio (x) = 0.25354 0.18196
# Poissons Ratio (y) = 0.40086 -0.08092
# Poissons Ratio (z) = 0.58616 -0.16487
#
# Static dielectric constant tensor:
#      x y z
#    x 4.603390 0.071880 0.130800 
#    y 0.071880 4.111410 -0.051800 
#    z 0.130800 -0.051800 4.004510 
# 
# 
# High freq. dielectric constant tensor:
#      x y z
#    x 1.948080 0.006860 0.007600 
#    y 0.006860 1.927770 -0.009660 
#    z 0.007600 -0.009660 1.914620 
# 
# From -- ./inp_files/160079.got.cif
#   From: 2010.06.25/outbox.cif.g09.slc.cpg/sg2_81_cif.got.tgz:160079.got - 2010.06.27 13:26:56.
