data_PCOD8025126
_publ_section_title
;
Structure prediction by ZEFSAII (Michael W. Deem and Ramdas Pophale) SiO2 
 PCOD8025126
Probable space group: P -1
;
_chemical_formula_sum "Si O2"
_cell_formula_units_Z 14
_cell_length_a 8.014760
_cell_length_b 7.362901
_cell_length_c 13.032981
_cell_angle_alpha 103.768237
_cell_angle_beta 60.854746
_cell_angle_gamma 117.516681
_cell_volume 595.651745
_symmetry_space_group_name_H-M "P -1"
_symmetry_group_IT_number 2
_symmetry_cell_setting 'triclinic'
loop_
_space_group_symop_operation_xyz
x,y,z
-x,-y,-z
loop_
_atom_site_type_symbol
_atom_site_label
_atom_site_fract_x
_atom_site_fract_y
_atom_site_fract_z
Si Si1 0.911948 0.065674 0.196858
Si Si2 0.216155 0.486059 0.079688
Si Si3 0.032979 0.226782 0.509050
Si Si4 0.694064 0.202399 0.446308
Si Si5 0.458040 0.521517 0.368794
Si Si6 0.588919 0.699493 0.142366
Si Si7 0.923923 0.680639 0.261099
O O1 0.790953 0.184456 0.306838
O O2 0.126065 0.252857 0.122603
O O3 0.763880 0.936002 0.129384
O O4 0.952523 0.903939 0.238865
O O5 0.416288 0.656705 0.100153
O O6 0.047750 0.584434 0.139054
O O7 0.290344 0.449551 0.939006
O O8 0.261032 0.306625 0.396969
O O9 0.007342 0.311806 0.640053
O O10 0.870419 0.266452 0.490202
O O11 0.000000 0.000000 0.500000
O O12 0.594682 0.369659 0.501235
O O13 0.500000 0.000000 0.500000
O O14 0.464950 0.644866 0.278888
O O15 0.683508 0.516506 0.310326
#
# Coordination Sequence:
#
# PCOD8025126 Si02
#       7
#     2   2   2   2   2   2   2
#     4  11  23  43  67  95 134 170 215 274 323 389
#     4  11  24  45  68  94 129 174 221 276 322 376
#     4  12  23  38  63  96 130 166 211 266 322 394
#     4  12  21  40  64  92 132 170 207 263 328 384
#     4  11  23  42  63  93 131 170 212 267 328 384
#     4  10  23  44  69  93 127 173 224 267 328 390
#     4  11  24  42  65  98 130 169 223 261 324 399
#
# _framework density 23.503668999999999
#
# number of rings (size 3 to 8) (size 9 to 14) (size 15 to 20)
#    0.000    0.857    4.286    3.857    0.000    3.429 
#    0.000    2.857    0.000    0.000    0.000    0.000 
#    0.000    0.000    0.000    0.000    0.000    0.000 
#
# Total GULP energy -173438.167930 kJ/mol
# GULP energy per Si atom -12388.440566 kJ/mol
# Density = 2.345017 g / cm^3
# Si number density = 23.503669 Si / 1000 Ang^3
#
#
#
# Elastic Constant Matrix: (Units=GPa)
#
#
# Indices 1 2 3 4 5 6 
#
# 1 81.1909 34.1075 26.2611 11.4622 -24.1970 26.6166
# 2 34.1075 100.9211 18.5793 -2.1836 -10.0415 29.1445
# 3 26.2611 18.5793 105.3869 26.1892 -29.4372 0.8190
# 4 11.4622 -2.1836 26.1892 41.0136 -2.7128 0.3558
# 5 -24.1970 -10.0415 -29.4372 -2.7128 43.8090 6.6938
# 6 26.6166 29.1445 0.8190 0.3558 6.6938 36.8929
#
#
#
# Elastic Compliance Matrix: (Units=1/GPa)
#
#
# Indices 1 2 3 4 5 6 
#
# 1 0.025051 -0.001212 0.000169 -0.005917 0.016367 -0.020032
# 2 -0.001212 0.014173 -0.001881 0.002596 0.003138 -0.010875
# 3 0.000169 -0.001881 0.014452 -0.008782 0.008903 -0.000488
# 4 -0.005917 0.002596 -0.008782 0.031279 -0.007159 0.003410
# 5 0.016367 0.003138 0.008903 -0.007159 0.041477 -0.021941
# 6 -0.020032 -0.010875 -0.000488 0.003410 -0.021941 0.054107
#
#
# Mechanical properties :
#
#
# Convention : Reuss Voigt Hill
#
# Bulk Modulus (GPa) = 20.90809 49.48829 35.19819
# Shear Modulus (GPa) = 24.71199 38.24649 31.47924
#
# Velocity S-wave (km/s) = 3.24606 4.03830 3.66366
# Velocity P-wave (km/s) = 4.79210 6.54562 5.73626
#
# Compressibility (1/GPa) = 0.04782838
#
# Stress axis : x y z
#
# Youngs Moduli (GPa) = 39.91794 70.55423 69.19687
#
# Poissons Ratio (x) = 0.08552 -0.01169
# Poissons Ratio (y) = 0.04838 0.13015
# Poissons Ratio (z) = -0.00675 0.13271
#
# Static dielectric constant tensor:
#      x y z
#    x 5.870810 0.874550 2.372570 
#    y 0.874550 4.473260 0.623380 
#    z 2.372570 0.623380 7.651800 
# 
# 
# High freq. dielectric constant tensor:
#      x y z
#    x 1.911430 0.021540 -0.009650 
#    y 0.021540 1.938570 0.001610 
#    z -0.009650 0.001610 1.948250 
# 
# From -- ./inp_files/175518.got.cif
#   From: 2010.06.25/outbox.cif.g09.slc.cpg/sg2_88_cif.got.tgz:175518.got - 2010.06.27 13:26:56.
