data_PCOD8025527
_publ_section_title
;
Structure prediction by ZEFSAII (Michael W. Deem and Ramdas Pophale) SiO2 
 PCOD8025527
Probable space group: P -1
;
_chemical_formula_sum "Si O2"
_cell_formula_units_Z 16
_cell_length_a 24.651715
_cell_length_b 11.742690
_cell_length_c 5.840343
_cell_angle_alpha 122.475107
_cell_angle_beta 53.676179
_cell_angle_gamma 149.946881
_cell_volume 680.925566
_symmetry_space_group_name_H-M "P -1"
_symmetry_group_IT_number 2
_symmetry_cell_setting 'triclinic'
loop_
_space_group_symop_operation_xyz
x,y,z
-x,-y,-z
loop_
_atom_site_type_symbol
_atom_site_label
_atom_site_fract_x
_atom_site_fract_y
_atom_site_fract_z
Si Si1 0.789309 0.213789 0.274894
Si Si2 0.871210 0.778824 0.648934
Si Si3 0.184340 0.047904 0.232180
Si Si4 0.427263 0.189094 0.339244
Si Si5 0.584561 0.579913 0.687137
Si Si6 0.451957 0.967986 0.835488
Si Si7 0.057471 0.336379 0.370720
Si Si8 0.214081 0.576998 0.853384
O O1 0.900099 0.469162 0.371838
O O2 0.751743 0.231813 0.161007
O O3 0.686838 0.059992 0.542170
O O4 0.815501 0.100211 0.034114
O O5 0.820439 0.849469 0.853750
O O6 0.874939 0.696193 0.781997
O O7 0.799392 0.576692 0.430779
O O8 0.000000 0.000000 0.500000
O O9 0.295592 0.263023 0.332009
O O10 0.077472 0.893612 0.505172
O O11 0.523770 0.353905 0.474704
O O12 0.394734 0.280237 0.416107
O O13 0.471497 0.161517 0.999164
O O14 0.500000 0.500000 0.000000
O O15 0.500000 0.000000 0.500000
O O16 0.318883 0.715264 0.908660
O O17 0.500000 0.000000 0.000000
O O18 0.093890 0.418728 0.106860
#
# Coordination Sequence:
#
# PCOD8025527 Si02
#       8
#     2   2   2   2   2   2   2   2
#     4  11  22  45  72 103 144 189 244 302 377 441
#     4   9  23  45  65  99 145 187 237 307 371 443
#     4  11  23  43  71 105 141 191 249 300 365 463
#     4  11  25  48  69 101 148 192 235 319 379 434
#     4  11  25  45  70 101 146 191 240 307 376 444
#     4  12  28  45  74 109 141 195 258 309 370 456
#     4  10  23  45  69 102 143 190 238 306 375 435
#     4  11  24  46  70 100 146 193 237 313 379 436
#
# _framework density 23.497430999999999
#
# number of rings (size 3 to 8) (size 9 to 14) (size 15 to 20)
#    0.000    1.250    2.500    1.875    5.250    2.500 
#    9.000    0.000    0.000    0.000    0.000    0.000 
#    0.000    0.000    0.000    0.000    0.000    0.000 
#
# Total GULP energy -198236.295877 kJ/mol
# GULP energy per Si atom -12389.768492 kJ/mol
# Density = 2.344395 g / cm^3
# Si number density = 23.497431 Si / 1000 Ang^3
#
#
#
# Elastic Constant Matrix: (Units=GPa)
#
#
# Indices 1 2 3 4 5 6 
#
# 1 118.3129 47.8544 39.4046 7.2629 -10.1547 2.1040
# 2 47.8544 121.6964 35.5936 -3.6494 -5.2948 13.7919
# 3 39.4046 35.5936 113.1683 -10.8849 -6.1445 -5.9296
# 4 7.2629 -3.6494 -10.8849 38.2733 -9.2355 -3.0513
# 5 -10.1547 -5.2948 -6.1445 -9.2355 35.3670 5.3199
# 6 2.1040 13.7919 -5.9296 -3.0513 5.3199 41.0754
#
#
#
# Elastic Compliance Matrix: (Units=1/GPa)
#
#
# Indices 1 2 3 4 5 6 
#
# 1 0.011189 -0.003521 -0.003011 -0.002992 0.001416 -0.000231
# 2 -0.003521 0.010753 -0.002201 0.001019 0.001056 -0.003809
# 3 -0.003011 -0.002201 0.011186 0.004096 0.001424 0.002628
# 4 -0.002992 0.001019 0.004096 0.029915 0.007570 0.001644
# 5 0.001416 0.001056 0.001424 0.007570 0.031628 -0.003755
# 6 -0.000231 -0.003809 0.002628 0.001644 -0.003755 0.026624
#
#
# Mechanical properties :
#
#
# Convention : Reuss Voigt Hill
#
# Bulk Modulus (GPa) = 63.84717 66.54252 65.19484
# Shear Modulus (GPa) = 34.72652 38.29815 36.51233
#
# Velocity S-wave (km/s) = 3.84850 4.04157 3.94621
# Velocity P-wave (km/s) = 6.85411 7.08234 6.96916
#
# Compressibility (1/GPa) = 0.01566240
#
# Stress axis : x y z
#
# Youngs Moduli (GPa) = 89.37745 92.99388 89.39715
#
# Poissons Ratio (x) = 0.32741 0.26922
# Poissons Ratio (y) = 0.31468 0.19672
# Poissons Ratio (z) = 0.26916 0.20463
#
# Static dielectric constant tensor:
#      x y z
#    x 4.701050 -0.252380 0.026190 
#    y -0.252380 4.671860 0.125680 
#    z 0.026190 0.125680 4.103020 
# 
# 
# High freq. dielectric constant tensor:
#      x y z
#    x 1.928700 -0.005650 0.002370 
#    y -0.005650 1.952280 0.011730 
#    z 0.002370 0.011730 1.920380 
# 
# From -- ./inp_files/123766.got.cif
#   From: 2010.06.25/outbox.cif.g09.slc.cpg/sg2_62_cif.got.tgz:123766.got - 2010.06.27 13:26:56.
