data_PCOD8025175
_publ_section_title
;
Structure prediction by ZEFSAII (Michael W. Deem and Ramdas Pophale) SiO2 
 PCOD8025175
Probable space group: P -1
;
_chemical_formula_sum "Si O2"
_cell_formula_units_Z 16
_cell_length_a 22.463828
_cell_length_b 8.565590
_cell_length_c 5.612648
_cell_angle_alpha 59.722280
_cell_angle_beta 126.674621
_cell_angle_gamma 130.001451
_cell_volume 650.677805
_symmetry_space_group_name_H-M "P -1"
_symmetry_group_IT_number 2
_symmetry_cell_setting 'triclinic'
loop_
_space_group_symop_operation_xyz
x,y,z
-x,-y,-z
loop_
_atom_site_type_symbol
_atom_site_label
_atom_site_fract_x
_atom_site_fract_y
_atom_site_fract_z
Si Si1 0.168547 0.012298 0.904546
Si Si2 0.919324 0.832858 0.083296
Si Si3 0.765192 0.616541 0.569437
Si Si4 0.370292 0.738607 0.776463
Si Si5 0.490352 0.194069 0.254871
Si Si6 0.625567 0.530677 0.629195
Si Si7 0.349841 0.098220 0.307035
Si Si8 0.989502 0.377646 0.321709
O O1 0.119872 0.030051 0.006428
O O2 0.204333 0.232309 0.696460
O O3 0.105105 0.817544 0.743775
O O4 0.247813 0.975657 0.170963
O O5 0.945529 0.715912 0.437128
O O6 0.849337 0.650745 0.886024
O O7 0.000000 0.000000 0.000000
O O8 0.703425 0.381792 0.508288
O O9 0.706741 0.676985 0.546072
O O10 0.461490 0.745671 0.930782
O O11 0.381944 0.968135 0.645805
O O12 0.344441 0.620856 0.055086
O O13 0.539394 0.395490 0.384428
O O14 0.390417 0.128124 0.109363
O O15 0.500000 0.000000 0.500000
O O16 0.610097 0.673679 0.663627
O O17 0.000000 0.500000 0.500000
O O18 0.000000 0.500000 0.000000
#
# Coordination Sequence:
#
# PCOD8025175 Si02
#       8
#     2   2   2   2   2   2   2   2
#     4  12  26  48  73 104 148 193 250 307 387 450
#     4  12  25  48  78 100 144 198 248 312 386 466
#     4  11  23  45  70 102 143 189 247 301 378 444
#     4  10  23  44  70 102 146 189 240 306 368 439
#     4   9  22  43  66 103 143 190 244 297 370 440
#     4  11  22  45  67 102 142 192 245 303 369 446
#     4  11  23  44  69 104 143 188 246 303 368 454
#     4  12  30  49  77 116 151 194 258 321 389 468
#
# _framework density 24.589742000000001
#
# number of rings (size 3 to 8) (size 9 to 14) (size 15 to 20)
#    0.000    1.000    3.750    1.500    3.500    3.500 
#    9.000    0.000    0.000    0.000    0.000    0.000 
#    0.000    0.000    0.000    0.000    0.000    0.000 
#
# Total GULP energy -198218.449963 kJ/mol
# GULP energy per Si atom -12388.653123 kJ/mol
# Density = 2.453377 g / cm^3
# Si number density = 24.589742 Si / 1000 Ang^3
#
#
#
# Elastic Constant Matrix: (Units=GPa)
#
#
# Indices 1 2 3 4 5 6 
#
# 1 148.8700 35.9276 34.0001 8.2637 13.2826 21.0024
# 2 35.9276 77.1931 8.3104 -4.8117 2.9548 10.3327
# 3 34.0001 8.3104 92.9386 -7.3869 8.3432 4.6370
# 4 8.2637 -4.8117 -7.3869 30.7651 0.1014 1.2453
# 5 13.2826 2.9548 8.3432 0.1014 34.4888 -1.5040
# 6 21.0024 10.3327 4.6370 1.2453 -1.5040 33.9320
#
#
#
# Elastic Compliance Matrix: (Units=1/GPa)
#
#
# Indices 1 2 3 4 5 6 
#
# 1 0.009281 -0.003555 -0.002902 -0.003564 -0.002743 -0.004256
# 2 -0.003555 0.015141 0.000368 0.003517 -0.000141 -0.002596
# 3 -0.002902 0.000368 0.012272 0.003799 -0.001903 -0.000217
# 4 -0.003564 0.003517 0.003799 0.034951 0.000021 -0.000666
# 5 -0.002743 -0.000141 -0.001903 0.000021 0.030670 0.003359
# 6 -0.004256 -0.002596 -0.000217 -0.000666 0.003359 0.033099
#
#
# Mechanical properties :
#
#
# Convention : Reuss Voigt Hill
#
# Bulk Modulus (GPa) = 40.78740 52.83090 46.80915
# Shear Modulus (GPa) = 32.09987 35.88810 33.99399
#
# Velocity S-wave (km/s) = 3.61698 3.82445 3.72216
# Velocity P-wave (km/s) = 5.83665 6.40574 6.12781
#
# Compressibility (1/GPa) = 0.02451738
#
# Stress axis : x y z
#
# Youngs Moduli (GPa) = 107.74708 66.04398 81.48510
#
# Poissons Ratio (x) = 0.23476 0.23648
# Poissons Ratio (y) = 0.38300 -0.03000
# Poissons Ratio (z) = 0.31270 -0.02432
#
# Static dielectric constant tensor:
#      x y z
#    x 4.831580 0.257870 0.061990 
#    y 0.257870 4.618500 0.077070 
#    z 0.061990 0.077070 4.405640 
# 
# 
# High freq. dielectric constant tensor:
#      x y z
#    x 1.988320 0.010910 -0.001700 
#    y 0.010910 1.991610 0.000640 
#    z -0.001700 0.000640 1.957950 
# 
# From -- ./inp_files/116731.got.cif
#   From: 2010.06.25/outbox.cif.g09.slc.cpg/sg2_59_cif.got.tgz:116731.got - 2010.06.27 13:26:56.
