data_PCOD8025916
_publ_section_title
;
Structure prediction by ZEFSAII (Michael W. Deem and Ramdas Pophale) SiO2 
 PCOD8025916
Probable space group: P -1
;
_chemical_formula_sum "Si O2"
_cell_formula_units_Z 14
_cell_length_a 11.857593
_cell_length_b 5.306280
_cell_length_c 21.800593
_cell_angle_alpha 95.347466
_cell_angle_beta 32.813987
_cell_angle_gamma 73.037621
_cell_volume 538.583900
_symmetry_space_group_name_H-M "P -1"
_symmetry_group_IT_number 2
_symmetry_cell_setting 'triclinic'
loop_
_space_group_symop_operation_xyz
x,y,z
-x,-y,-z
loop_
_atom_site_type_symbol
_atom_site_label
_atom_site_fract_x
_atom_site_fract_y
_atom_site_fract_z
Si Si1 0.630583 0.252111 0.197788
Si Si2 0.933735 0.149410 0.909816
Si Si3 0.117386 0.230475 0.613029
Si Si4 0.906867 0.184762 0.480866
Si Si5 0.519747 0.824353 0.177365
Si Si6 0.576745 0.194806 0.419070
Si Si7 0.489385 0.269091 0.045357
O O1 0.376807 0.412842 0.367180
O O2 0.572535 0.567683 0.199131
O O3 0.629898 0.010497 0.148031
O O4 0.940525 0.012444 0.083710
O O5 0.706249 0.574503 0.027567
O O6 0.759993 0.053174 0.961962
O O7 0.192203 0.977752 0.743028
O O8 0.285914 0.346274 0.518711
O O9 0.778754 0.516088 0.781331
O O10 0.194126 0.946441 0.523874
O O11 0.262827 0.109870 0.611118
O O12 0.000000 0.000000 0.500000
O O13 0.175132 0.122068 0.328479
O O14 0.500000 0.500000 0.500000
O O15 0.500000 0.500000 0.000000
O O16 0.500000 0.000000 0.000000
#
# Coordination Sequence:
#
# PCOD8025916 Si02
#       7
#     2   2   2   2   2   2   2
#     4  11  26  46  74 108 154 189 252 301 374 446
#     4  12  25  47  77 109 148 199 247 313 373 441
#     4  11  24  48  72 106 151 194 251 304 371 454
#     4  10  23  46  73 108 147 197 246 302 376 442
#     4  11  25  49  71 113 146 197 241 314 369 440
#     4  11  25  46  74 108 146 198 249 308 374 440
#     4  12  27  49  74 109 148 192 246 307 374 440
#
# _framework density 25.99409
#
# number of rings (size 3 to 8) (size 9 to 14) (size 15 to 20)
#    0.000    0.857    2.857    3.000    4.000    3.429 
#   10.286    0.000    0.000    0.000    0.000    0.000 
#    0.000    0.000    0.000    0.000    0.000    0.000 
#
# Total GULP energy -173476.385549 kJ/mol
# GULP energy per Si atom -12391.170396 kJ/mol
# Density = 2.593493 g / cm^3
# Si number density = 25.994090 Si / 1000 Ang^3
#
#
#
# Elastic Constant Matrix: (Units=GPa)
#
#
# Indices 1 2 3 4 5 6 
#
# 1 151.8684 26.7075 38.0677 -17.8563 -20.8922 34.3465
# 2 26.7075 70.3874 15.4456 -5.6211 -0.0370 36.6610
# 3 38.0677 15.4456 172.4369 -3.7178 -8.5314 16.5793
# 4 -17.8563 -5.6211 -3.7178 36.7468 9.0825 -0.1877
# 5 -20.8922 -0.0370 -8.5314 9.0825 61.9833 -2.7407
# 6 34.3465 36.6610 16.5793 -0.1877 -2.7407 40.3085
#
#
#
# Elastic Compliance Matrix: (Units=1/GPa)
#
#
# Indices 1 2 3 4 5 6 
#
# 1 0.009344 0.001631 -0.001174 0.004134 0.001994 -0.008807
# 2 0.001631 0.028068 -0.000246 0.005277 -0.001430 -0.026889
# 3 -0.001174 -0.000246 0.006225 -0.000088 0.000416 -0.001308
# 4 0.004134 0.005277 -0.000088 0.030844 -0.003506 -0.008380
# 5 0.001994 -0.001430 0.000416 -0.003506 0.017402 0.000597
# 6 -0.008807 -0.026889 -0.001308 -0.008380 0.000597 0.057309
#
#
# Mechanical properties :
#
#
# Convention : Reuss Voigt Hill
#
# Bulk Modulus (GPa) = 22.69712 61.68161 42.18937
# Shear Modulus (GPa) = 30.58894 48.77253 39.68074
#
# Velocity S-wave (km/s) = 3.43412 4.33632 3.91132
# Velocity P-wave (km/s) = 4.94721 6.98943 6.05504
#
# Compressibility (1/GPa) = 0.04405846
#
# Stress axis : x y z
#
# Youngs Moduli (GPa) = 107.01523 35.62758 160.64336
#
# Poissons Ratio (x) = -0.05809 0.18866
# Poissons Ratio (y) = -0.17450 0.03948
# Poissons Ratio (z) = 0.12568 0.00876
#
# Static dielectric constant tensor:
#      x y z
#    x 2.689930 1.256070 0.352160 
#    y 1.256070 3.953310 0.212650 
#    z 0.352160 0.212650 6.589710 
# 
# 
# High freq. dielectric constant tensor:
#      x y z
#    x 2.066020 0.000990 -0.002000 
#    y 0.000990 2.018700 -0.005980 
#    z -0.002000 -0.005980 2.078990 
# 
# From -- ./inp_files/609199.got.cif
#   From: 2010.06.25/outbox.cif.g09.slc.cpg/sg2_305_cif.got.tgz:609199.got - 2010.06.27 13:26:56.
