data_PCOD8025122
_publ_section_title
;
Structure prediction by ZEFSAII (Michael W. Deem and Ramdas Pophale) SiO2 
 PCOD8025122
Probable space group: P -1
;
_chemical_formula_sum "Si O2"
_cell_formula_units_Z 16
_cell_length_a 11.804207
_cell_length_b 9.118992
_cell_length_c 16.140638
_cell_angle_alpha 142.112126
_cell_angle_beta 122.455886
_cell_angle_gamma 59.200585
_cell_volume 887.095070
_symmetry_space_group_name_H-M "P -1"
_symmetry_group_IT_number 2
_symmetry_cell_setting 'triclinic'
loop_
_space_group_symop_operation_xyz
x,y,z
-x,-y,-z
loop_
_atom_site_type_symbol
_atom_site_label
_atom_site_fract_x
_atom_site_fract_y
_atom_site_fract_z
Si Si1 0.336182 0.540189 0.301041
Si Si2 0.865285 0.031543 0.785905
Si Si3 0.366497 0.499108 0.635056
Si Si4 0.857792 0.049467 0.226863
Si Si5 0.838906 0.540578 0.957617
Si Si6 0.994040 0.179890 0.503122
Si Si7 0.765681 0.614628 0.636787
Si Si8 0.265006 0.085661 0.487610
O O1 0.484982 0.424721 0.273461
O O2 0.220567 0.485467 0.168856
O O3 0.314063 0.417193 0.324770
O O4 0.333555 0.829387 0.439850
O O5 0.806980 0.319195 0.904487
O O6 0.808879 0.881707 0.770902
O O7 0.803760 0.944806 0.639946
O O8 0.030485 0.971105 0.812981
O O9 0.258220 0.717832 0.727921
O O10 0.329983 0.433879 0.498225
O O11 0.372328 0.267513 0.595696
O O12 0.930241 0.058242 0.346917
O O13 0.785570 0.809005 0.091861
O O14 0.000000 0.500000 0.000000
O O15 0.908376 0.434892 0.608437
O O16 0.146995 0.219145 0.561239
O O17 0.000000 0.000000 0.500000
#
# Coordination Sequence:
#
# PCOD8025122 Si02
#       8
#     2   2   2   2   2   2   2   2
#     4  11  20  32  51  74 103 136 164 198 244 300
#     4   8  16  32  53  74  96 129 162 211 247 282
#     4  10  20  32  50  75 104 135 161 199 246 300
#     4   9  18  33  52  72  98 131 169 199 246 294
#     4   9  19  35  55  70  94 133 175 206 240 285
#     4  10  17  29  53  78 100 124 158 212 256 283
#     4  10  19  31  51  78 106 124 159 208 257 289
#     4   9  17  31  50  76 100 127 169 201 244 295
#
# _framework density 18.036398999999999
#
# number of rings (size 3 to 8) (size 9 to 14) (size 15 to 20)
#    0.000    2.500    1.250    2.250    0.000    3.500 
#    0.000    2.500    2.750    0.750    0.000    0.000 
#    0.000    0.000    0.000    0.000    0.000    0.000 
#
# Total GULP energy -198295.896419 kJ/mol
# GULP energy per Si atom -12393.493526 kJ/mol
# Density = 1.799535 g / cm^3
# Si number density = 18.036399 Si / 1000 Ang^3
#
#
#
# Elastic Constant Matrix: (Units=GPa)
#
#
# Indices 1 2 3 4 5 6 
#
# 1 103.9866 40.6265 23.6233 7.3944 10.1660 16.3842
# 2 40.6265 90.1306 27.8507 16.6384 10.7776 23.9566
# 3 23.6233 27.8507 58.7307 21.1276 11.3257 10.7347
# 4 7.3944 16.6384 21.1276 27.0966 0.8979 9.0960
# 5 10.1660 10.7776 11.3257 0.8979 15.1047 1.9639
# 6 16.3842 23.9566 10.7347 9.0960 1.9639 34.3795
#
#
#
# Elastic Compliance Matrix: (Units=1/GPa)
#
#
# Indices 1 2 3 4 5 6 
#
# 1 0.012401 -0.004076 -0.002790 0.002278 -0.003141 -0.002622
# 2 -0.004076 0.017396 -0.002010 -0.005159 -0.006842 -0.007796
# 3 -0.002790 -0.002010 0.030086 -0.020825 -0.017993 -0.000127
# 4 0.002278 -0.005159 -0.020825 0.057562 0.015262 -0.007090
# 5 -0.003141 -0.006842 -0.017993 0.015262 0.085399 0.002966
# 6 -0.002622 -0.007796 -0.000127 -0.007090 0.002966 0.037515
#
#
# Mechanical properties :
#
#
# Convention : Reuss Voigt Hill
#
# Bulk Modulus (GPa) = 23.73465 48.56098 36.14781
# Shear Modulus (GPa) = 18.37189 26.03266 22.20227
#
# Velocity S-wave (km/s) = 3.19501 3.80325 3.51233
# Velocity P-wave (km/s) = 5.17675 6.80211 6.04431
#
# Compressibility (1/GPa) = 0.04213249
#
# Stress axis : x y z
#
# Youngs Moduli (GPa) = 80.63897 57.48481 33.23763
#
# Poissons Ratio (x) = 0.23429 0.09273
# Poissons Ratio (y) = 0.32866 0.06680
# Poissons Ratio (z) = 0.22498 0.11553
#
# Static dielectric constant tensor:
#      x y z
#    x 3.359210 0.121010 0.191020 
#    y 0.121010 3.420830 0.299220 
#    z 0.191020 0.299220 3.336870 
# 
# 
# High freq. dielectric constant tensor:
#      x y z
#    x 1.689270 0.002500 0.013800 
#    y 0.002500 1.705070 0.018950 
#    z 0.013800 0.018950 1.665420 
# 
# From -- ./inp_files/186935.got.cif
#   From: 2010.06.25/outbox.cif.g09.slc.cpg/sg2_94_cif.got.tgz:186935.got - 2010.06.27 13:26:56.
