data_PCOD8025580
_publ_section_title
;
Structure prediction by ZEFSAII (Michael W. Deem and Ramdas Pophale) SiO2 
 PCOD8025580
Probable space group: P -1
;
_chemical_formula_sum "Si O2"
_cell_formula_units_Z 14
_cell_length_a 7.922911
_cell_length_b 12.032224
_cell_length_c 7.867030
_cell_angle_alpha 104.060140
_cell_angle_beta 51.176958
_cell_angle_gamma 104.171573
_cell_volume 562.519751
_symmetry_space_group_name_H-M "P -1"
_symmetry_group_IT_number 2
_symmetry_cell_setting 'triclinic'
loop_
_space_group_symop_operation_xyz
x,y,z
-x,-y,-z
loop_
_atom_site_type_symbol
_atom_site_label
_atom_site_fract_x
_atom_site_fract_y
_atom_site_fract_z
Si Si1 0.717795 0.169813 0.857844
Si Si2 0.933757 0.637641 0.250070
Si Si3 0.518607 0.731062 0.462674
Si Si4 0.090066 0.003388 0.129612
Si Si5 0.675368 0.756174 0.989972
Si Si6 0.639078 0.973290 0.563376
Si Si7 0.043752 0.613129 0.784854
O O1 0.751906 0.097699 0.982755
O O2 0.541190 0.263729 0.001552
O O3 0.616423 0.068856 0.755245
O O4 0.945227 0.247444 0.691772
O O5 0.673446 0.639703 0.401522
O O6 0.972296 0.523848 0.288997
O O7 0.044673 0.638321 0.994082
O O8 0.605074 0.772575 0.236157
O O9 0.268093 0.676114 0.588563
O O10 0.546964 0.840331 0.614825
O O11 0.896778 0.977809 0.375500
O O12 0.205273 0.130313 0.132567
O O13 0.000000 0.000000 0.000000
O O14 0.834301 0.656497 0.839360
O O15 0.500000 0.000000 0.500000
#
# Coordination Sequence:
#
# PCOD8025580 Si02
#       7
#     2   2   2   2   2   2   2
#     4  12  25  43  66 107 144 178 235 287 347 428
#     4  10  23  45  70 101 136 182 244 288 340 412
#     4  11  21  44  69 102 138 182 232 288 346 414
#     4  12  22  42  67  98 143 182 227 289 347 418
#     4  11  24  40  66  99 141 179 230 284 344 414
#     4  12  23  41  68 102 143 184 223 281 358 416
#     4  10  23  45  73  97 133 192 236 288 348 400
#
# _framework density 24.888014999999999
#
# number of rings (size 3 to 8) (size 9 to 14) (size 15 to 20)
#    0.000    0.857    4.286    3.000    0.000    2.857 
#    0.000    0.714    0.000    0.000    0.000    0.000 
#    0.000    0.000    0.000    0.000    0.000    0.000 
#
# Total GULP energy -173461.107687 kJ/mol
# GULP energy per Si atom -12390.079120 kJ/mol
# Density = 2.483137 g / cm^3
# Si number density = 24.888015 Si / 1000 Ang^3
#
#
#
# Elastic Constant Matrix: (Units=GPa)
#
#
# Indices 1 2 3 4 5 6 
#
# 1 164.4488 67.6328 33.1825 3.6585 -23.0357 -42.4475
# 2 67.6328 175.6552 35.0309 -4.2291 -14.0605 -26.4136
# 3 33.1825 35.0309 48.7555 3.2890 -21.7779 -12.7711
# 4 3.6585 -4.2291 3.2890 28.5662 1.3263 -8.6700
# 5 -23.0357 -14.0605 -21.7779 1.3263 31.7150 16.3497
# 6 -42.4475 -26.4136 -12.7711 -8.6700 16.3497 50.5735
#
#
#
# Elastic Compliance Matrix: (Units=1/GPa)
#
#
# Indices 1 2 3 4 5 6 
#
# 1 0.009042 -0.001961 -0.002986 0.000590 0.000690 0.005689
# 2 -0.001961 0.007659 -0.004982 0.002854 -0.002864 0.002511
# 3 -0.002986 -0.004982 0.035505 -0.006913 0.022697 -0.004665
# 4 0.000590 0.002854 -0.006913 0.039738 -0.010021 0.010292
# 5 0.000690 -0.002864 0.022697 -0.010021 0.054204 -0.014426
# 6 0.005689 0.002511 -0.004665 0.010292 -0.014426 0.031110
#
#
# Mechanical properties :
#
#
# Convention : Reuss Voigt Hill
#
# Bulk Modulus (GPa) = 30.91494 73.39463 52.15479
# Shear Modulus (GPa) = 24.05026 39.03851 31.54439
#
# Velocity S-wave (km/s) = 3.11197 3.96481 3.56399
# Velocity P-wave (km/s) = 5.03598 7.10729 6.15933
#
# Compressibility (1/GPa) = 0.03234682
#
# Stress axis : x y z
#
# Youngs Moduli (GPa) = 110.59584 130.57133 28.16503
#
# Poissons Ratio (x) = 0.25605 0.08411
# Poissons Ratio (y) = 0.21688 0.14032
# Poissons Ratio (z) = 0.33027 0.65052
#
# Static dielectric constant tensor:
#      x y z
#    x 4.613230 -0.090300 0.061640 
#    y -0.090300 3.306200 -1.562450 
#    z 0.061640 -1.562450 1.956880 
# 
# 
# High freq. dielectric constant tensor:
#      x y z
#    x 2.004250 -0.018210 -0.029470 
#    y -0.018210 1.991640 -0.006140 
#    z -0.029470 -0.006140 1.971330 
# 
# From -- ./inp_files/188194.got.cif
#   From: 2010.06.25/outbox.cif.g09.slc.cpg/sg2_95_cif.got.tgz:188194.got - 2010.06.27 13:26:56.
