data_PCOD8025362
_publ_section_title
;
Structure prediction by ZEFSAII (Michael W. Deem and Ramdas Pophale) SiO2 
 PCOD8025362
Probable space group: P -1
;
_chemical_formula_sum "Si O2"
_cell_formula_units_Z 16
_cell_length_a 8.817315
_cell_length_b 20.819995
_cell_length_c 12.673065
_cell_angle_alpha 149.751728
_cell_angle_beta 34.932585
_cell_angle_gamma 133.709040
_cell_volume 669.881614
_symmetry_space_group_name_H-M "P -1"
_symmetry_group_IT_number 2
_symmetry_cell_setting 'triclinic'
loop_
_space_group_symop_operation_xyz
x,y,z
-x,-y,-z
loop_
_atom_site_type_symbol
_atom_site_label
_atom_site_fract_x
_atom_site_fract_y
_atom_site_fract_z
Si Si1 0.653010 0.677213 0.619212
Si Si2 0.063954 0.151984 0.948557
Si Si3 0.655860 0.962037 0.964134
Si Si4 0.827990 0.402810 0.351335
Si Si5 0.758167 0.924816 0.490887
Si Si6 0.250162 0.599963 0.156490
Si Si7 0.330625 0.347130 0.844584
Si Si8 0.408894 0.331534 0.118428
O O1 0.709667 0.810894 0.722017
O O2 0.441520 0.600142 0.567239
O O3 0.530269 0.685802 0.818288
O O4 0.936553 0.600440 0.354163
O O5 0.215867 0.098402 0.681458
O O6 0.283261 0.200510 0.970474
O O7 0.926571 0.034608 0.914306
O O8 0.848320 0.272338 0.223726
O O9 0.500000 0.000000 0.000000
O O10 0.503063 0.996029 0.208560
O O11 0.789056 0.544653 0.627838
O O12 0.096831 0.403469 0.133068
O O13 0.747883 0.784644 0.351152
O O14 0.000000 0.000000 0.500000
O O15 0.399132 0.674447 0.270661
O O16 0.365792 0.451463 0.881387
O O17 0.315898 0.657862 0.087065
#
# Coordination Sequence:
#
# PCOD8025362 Si02
#       8
#     2   2   2   2   2   2   2   2
#     4  12  28  48  70 111 152 180 246 308 360 426
#     4  11  25  45  74 106 136 195 250 284 360 435
#     4  12  25  47  75 101 139 199 247 291 358 435
#     4  11  22  47  74 104 150 188 239 298 354 439
#     4  11  22  43  72 104 138 180 247 301 333 422
#     4  11  25  45  70 111 147 185 238 301 366 420
#     4  10  23  44  76 106 146 189 244 289 354 440
#     4  12  26  44  74 107 150 192 229 305 376 418
#
# _framework density 23.884817999999999
#
# number of rings (size 3 to 8) (size 9 to 14) (size 15 to 20)
#    0.000    0.750    6.250    1.500    3.500    2.000 
#    4.500    1.250    0.000    0.000    0.000    0.000 
#    0.000    0.000    0.000    0.000    0.000    0.000 
#
# Total GULP energy -198351.940254 kJ/mol
# GULP energy per Si atom -12396.996266 kJ/mol
# Density = 2.383045 g / cm^3
# Si number density = 23.884818 Si / 1000 Ang^3
#
#
#
# Elastic Constant Matrix: (Units=GPa)
#
#
# Indices 1 2 3 4 5 6 
#
# 1 43.9617 16.0083 4.9489 -14.7795 -4.9367 5.1242
# 2 16.0083 109.1156 -3.8672 -1.4262 7.7059 9.0095
# 3 4.9489 -3.8672 62.6693 -4.0738 8.5788 9.4239
# 4 -14.7795 -1.4262 -4.0738 42.0993 5.6708 -4.1219
# 5 -4.9367 7.7059 8.5788 5.6708 27.9402 3.4256
# 6 5.1242 9.0095 9.4239 -4.1219 3.4256 43.4641
#
#
#
# Elastic Compliance Matrix: (Units=1/GPa)
#
#
# Indices 1 2 3 4 5 6 
#
# 1 0.028319 -0.004385 -0.002455 0.008683 0.005388 -0.001499
# 2 -0.004385 0.010271 0.001716 -0.000688 -0.003780 -0.001752
# 3 -0.002455 0.001716 0.017695 0.001427 -0.006228 -0.003277
# 4 0.008683 -0.000688 0.001427 0.027706 -0.004558 0.001796
# 5 0.005388 -0.003780 -0.006228 -0.004558 0.040887 -0.002156
# 6 -0.001499 -0.001752 -0.003277 0.001796 -0.002156 0.024598
#
#
# Mechanical properties :
#
#
# Convention : Reuss Voigt Hill
#
# Bulk Modulus (GPa) = 21.72107 27.76961 24.74534
# Shear Modulus (GPa) = 28.56017 35.94449 32.25233
#
# Velocity S-wave (km/s) = 3.46171 3.88352 3.67867
# Velocity P-wave (km/s) = 5.00916 5.63567 5.33163
#
# Compressibility (1/GPa) = 0.04603825
#
# Stress axis : x y z
#
# Youngs Moduli (GPa) = 35.31185 97.35832 56.51465
#
# Poissons Ratio (x) = 0.42691 0.13873
# Poissons Ratio (y) = 0.15484 -0.09699
# Poissons Ratio (z) = 0.08668 -0.16709
#
# Static dielectric constant tensor:
#      x y z
#    x 3.913340 -0.501620 -0.300090 
#    y -0.501620 1.260960 -2.731280 
#    z -0.300090 -2.731280 2.199930 
# 
# 
# High freq. dielectric constant tensor:
#      x y z
#    x 1.923830 0.012860 0.011110 
#    y 0.012860 1.975850 0.005850 
#    z 0.011110 0.005850 1.937620 
# 
# From -- ./inp_files/405644.got.cif
#   From: 2010.06.25/outbox.cif.g09.slc.cpg/sg2_203_cif.got.tgz:405644.got - 2010.06.27 13:26:56.
