data_PCOD8025353
_publ_section_title
;
Structure prediction by ZEFSAII (Michael W. Deem and Ramdas Pophale) SiO2 
 PCOD8025353
Probable space group: P -1
;
_chemical_formula_sum "Si O2"
_cell_formula_units_Z 12
_cell_length_a 8.920586
_cell_length_b 8.511153
_cell_length_c 12.022715
_cell_angle_alpha 51.954512
_cell_angle_beta 99.642595
_cell_angle_gamma 129.580254
_cell_volume 514.516566
_symmetry_space_group_name_H-M "P -1"
_symmetry_group_IT_number 2
_symmetry_cell_setting 'triclinic'
loop_
_space_group_symop_operation_xyz
x,y,z
-x,-y,-z
loop_
_atom_site_type_symbol
_atom_site_label
_atom_site_fract_x
_atom_site_fract_y
_atom_site_fract_z
Si Si1 0.706285 0.217110 0.270427
Si Si2 0.746525 0.000677 0.979348
Si Si3 0.287862 0.647540 0.024827
Si Si4 0.367907 0.583470 0.452758
Si Si5 0.173201 0.345023 0.758529
Si Si6 0.074746 0.280929 0.349075
O O1 0.804833 0.395603 0.090388
O O2 0.660514 0.364207 0.280825
O O3 0.875557 0.242796 0.347296
O O4 0.506027 0.902540 0.355853
O O5 0.764201 0.825220 0.136839
O O6 0.749541 0.192876 0.974891
O O7 0.529545 0.802454 0.971225
O O8 0.935842 0.179071 0.837271
O O9 0.165388 0.358394 0.199915
O O10 0.500000 0.500000 0.500000
O O11 0.192704 0.402193 0.604926
O O12 0.256591 0.525211 0.346862
O O13 0.000000 0.000000 0.500000
#
# Coordination Sequence:
#
# PCOD8025353 Si02
#       6
#     2   2   2   2   2   2
#     4  12  26  45  75 108 141 193 236 296 356 425
#     4  10  23  44  75 105 143 196 233 295 355 422
#     4  11  23  48  73 104 143 188 246 283 353 434
#     4  12  25  48  72 102 148 189 238 297 351 429
#     4  11  25  44  70 113 147 183 242 295 363 415
#     4  12  26  44  75 109 138 192 242 290 358 425
#
# _framework density 23.322863999999999
#
# number of rings (size 3 to 8) (size 9 to 14) (size 15 to 20)
#    0.000    0.667    3.333    5.000    0.000    2.667 
#    3.000    0.000    0.000    0.000    0.000    0.000 
#    0.000    0.000    0.000    0.000    0.000    0.000 
#
# Total GULP energy -148836.824019 kJ/mol
# GULP energy per Si atom -12403.068668 kJ/mol
# Density = 2.326978 g / cm^3
# Si number density = 23.322864 Si / 1000 Ang^3
#
#
#
# Elastic Constant Matrix: (Units=GPa)
#
#
# Indices 1 2 3 4 5 6 
#
# 1 97.5737 19.0269 47.4422 3.0692 -2.3390 13.8985
# 2 19.0269 68.9899 38.6576 -5.1690 4.5468 17.8195
# 3 47.4422 38.6576 163.0191 2.7928 7.0607 -3.1474
# 4 3.0692 -5.1690 2.7928 47.5454 -2.1251 1.3684
# 5 -2.3390 4.5468 7.0607 -2.1251 32.4326 5.9464
# 6 13.8985 17.8195 -3.1474 1.3684 5.9464 30.2012
#
#
#
# Elastic Compliance Matrix: (Units=1/GPa)
#
#
# Indices 1 2 3 4 5 6 
#
# 1 0.013394 0.000402 -0.004272 -0.000212 0.003195 -0.007466
# 2 0.000402 0.021114 -0.005478 0.003023 0.000941 -0.013536
# 3 -0.004272 -0.005478 0.008948 -0.001164 -0.002799 0.006734
# 4 -0.000212 0.003023 -0.001164 0.021614 0.001807 -0.003142
# 5 0.003195 0.000941 -0.002799 0.001807 0.033301 -0.008956
# 6 -0.007466 -0.013536 0.006734 -0.003142 -0.008956 0.047141
#
#
# Mechanical properties :
#
#
# Convention : Reuss Voigt Hill
#
# Bulk Modulus (GPa) = 40.38823 59.98180 50.18501
# Shear Modulus (GPa) = 28.99179 36.99955 32.99567
#
# Velocity S-wave (km/s) = 3.52953 3.98729 3.76538
# Velocity P-wave (km/s) = 5.82793 6.85360 6.36147
#
# Compressibility (1/GPa) = 0.02475969
#
# Stress axis : x y z
#
# Youngs Moduli (GPa) = 74.65923 47.36162 111.76078
#
# Poissons Ratio (x) = -0.01902 0.47745
# Poissons Ratio (y) = -0.02999 0.61219
# Poissons Ratio (z) = 0.31895 0.25943
#
# Static dielectric constant tensor:
#      x y z
#    x 4.306200 0.037890 0.048830 
#    y 0.037890 4.362560 -0.138770 
#    z 0.048830 -0.138770 4.740590 
# 
# 
# High freq. dielectric constant tensor:
#      x y z
#    x 1.921580 0.006270 0.009350 
#    y 0.006270 1.917100 -0.005390 
#    z 0.009350 -0.005390 1.944980 
# 
# From -- ./inp_files/151797.got.cif
#   From: 2010.06.25/outbox.cif.g09.slc.cpg/sg2_76_cif.got.tgz:151797.got - 2010.06.27 13:26:56.
