data_PCOD8025196
_publ_section_title
;
Structure prediction by ZEFSAII (Michael W. Deem and Ramdas Pophale) SiO2 
 PCOD8025196
Probable space group: P -1
;
_chemical_formula_sum "Si O2"
_cell_formula_units_Z 14
_cell_length_a 8.577735
_cell_length_b 16.032461
_cell_length_c 18.088160
_cell_angle_alpha 28.302436
_cell_angle_beta 43.872794
_cell_angle_gamma 63.720668
_cell_volume 663.422712
_symmetry_space_group_name_H-M "P -1"
_symmetry_group_IT_number 2
_symmetry_cell_setting 'triclinic'
loop_
_space_group_symop_operation_xyz
x,y,z
-x,-y,-z
loop_
_atom_site_type_symbol
_atom_site_label
_atom_site_fract_x
_atom_site_fract_y
_atom_site_fract_z
Si Si1 0.277623 0.879480 0.323295
Si Si2 0.240858 0.620197 0.883707
Si Si3 0.115068 0.873420 0.094898
Si Si4 0.846523 0.950800 0.902459
Si Si5 0.929524 0.169330 0.406837
Si Si6 0.645501 0.425541 0.558593
Si Si7 0.370287 0.007142 0.636446
O O1 0.101301 0.806745 0.514671
O O2 0.251907 0.683565 0.443371
O O3 0.159568 0.975199 0.235189
O O4 0.599429 0.053370 0.098580
O O5 0.535488 0.788788 0.609983
O O6 0.223374 0.778181 0.822254
O O7 0.000000 0.500000 0.000000
O O8 0.195070 0.412836 0.103106
O O9 0.914497 0.620114 0.353620
O O10 0.164363 0.910856 0.136639
O O11 0.000000 0.000000 0.000000
O O12 0.568060 0.711770 0.195226
O O13 0.128926 0.968060 0.802916
O O14 0.642423 0.076818 0.534699
O O15 0.000000 0.000000 0.500000
O O16 0.500000 0.500000 0.500000
#
# Coordination Sequence:
#
# PCOD8025196 Si02
#       7
#     2   2   2   2   2   2   2
#     4  11  26  42  63 101 137 169 221 274 328 392
#     4   9  22  43  68  92 129 169 232 272 329 386
#     4  11  21  42  67  97 130 170 216 266 328 393
#     4  11  25  41  67 100 137 167 219 272 330 399
#     4  11  26  45  68  97 136 175 228 278 328 395
#     4  11  23  41  70  96 131 174 219 266 329 398
#     4  10  23  44  70  95 129 179 223 273 337 392
#
# _framework density 21.102685000000001
#
# number of rings (size 3 to 8) (size 9 to 14) (size 15 to 20)
#    0.000    1.429    2.857    2.571    8.000    4.000 
#    2.571    0.000    0.000    0.000    0.000    0.000 
#    0.000    0.000    0.000    0.000    0.000    0.000 
#
# Total GULP energy -173485.556568 kJ/mol
# GULP energy per Si atom -12391.825469 kJ/mol
# Density = 2.105465 g / cm^3
# Si number density = 21.102685 Si / 1000 Ang^3
#
#
#
# Elastic Constant Matrix: (Units=GPa)
#
#
# Indices 1 2 3 4 5 6 
#
# 1 91.9969 21.6081 42.1680 -2.7718 10.6374 1.8002
# 2 21.6081 84.8594 72.4544 5.6997 12.4845 -7.5626
# 3 42.1680 72.4544 165.5268 -22.8469 4.9282 3.7131
# 4 -2.7718 5.6997 -22.8469 37.0954 6.8087 -0.9633
# 5 10.6374 12.4845 4.9282 6.8087 39.9556 2.8694
# 6 1.8002 -7.5626 3.7131 -0.9633 2.8694 34.7019
#
#
#
# Elastic Compliance Matrix: (Units=1/GPa)
#
#
# Indices 1 2 3 4 5 6 
#
# 1 0.012660 -0.000072 -0.003171 -0.000472 -0.002868 -0.000109
# 2 -0.000072 0.023794 -0.011764 -0.009863 -0.004755 0.006567
# 3 -0.003171 -0.011764 0.013333 0.009404 0.001538 -0.003692
# 4 -0.000472 -0.009863 0.009404 0.034872 -0.003762 -0.001852
# 5 -0.002868 -0.004755 0.001538 -0.003762 0.027978 -0.003470
# 6 -0.000109 0.006567 -0.003692 -0.001852 -0.003470 0.030884
#
#
# Mechanical properties :
#
#
# Convention : Reuss Voigt Hill
#
# Bulk Modulus (GPa) = 50.57292 68.31602 59.44447
# Shear Modulus (GPa) = 27.75818 36.09407 31.92613
#
# Velocity S-wave (km/s) = 3.63076 4.14019 3.89381
# Velocity P-wave (km/s) = 6.44932 7.43628 6.96032
#
# Compressibility (1/GPa) = 0.01977343
#
# Stress axis : x y z
#
# Youngs Moduli (GPa) = 78.98976 42.02709 74.99963
#
# Poissons Ratio (x) = 0.00305 0.23780
# Poissons Ratio (y) = 0.00572 0.88228
# Poissons Ratio (z) = 0.25045 0.49440
#
# Static dielectric constant tensor:
#      x y z
#    x 3.831930 0.109750 0.027190 
#    y 0.109750 3.648240 0.001740 
#    z 0.027190 0.001740 4.378970 
# 
# 
# High freq. dielectric constant tensor:
#      x y z
#    x 1.829510 0.011130 -0.000510 
#    y 0.011130 1.819490 -0.000610 
#    z -0.000510 -0.000610 1.843350 
# 
# From -- ./inp_files/560699.got.cif
#   From: 2010.06.25/outbox.cif.g09.slc.cpg/sg2_281_cif.got.tgz:560699.got - 2010.06.27 13:26:56.
