data_PCOD8025792
_publ_section_title
;
Structure prediction by ZEFSAII (Michael W. Deem and Ramdas Pophale) SiO2 
 PCOD8025792
Probable space group: P -1
;
_chemical_formula_sum "Si O2"
_cell_formula_units_Z 12
_cell_length_a 14.858575
_cell_length_b 20.747449
_cell_length_c 17.252173
_cell_angle_alpha 18.959995
_cell_angle_beta 156.826359
_cell_angle_gamma 161.756201
_cell_volume 529.192825
_symmetry_space_group_name_H-M "P -1"
_symmetry_group_IT_number 2
_symmetry_cell_setting 'triclinic'
loop_
_space_group_symop_operation_xyz
x,y,z
-x,-y,-z
loop_
_atom_site_type_symbol
_atom_site_label
_atom_site_fract_x
_atom_site_fract_y
_atom_site_fract_z
Si Si1 0.824447 0.195587 0.388586
Si Si2 0.551629 0.586732 0.315803
Si Si3 0.333315 0.680571 0.533442
Si Si4 0.670058 0.539905 0.887521
Si Si5 0.260240 0.024354 0.753026
Si Si6 0.348895 0.897443 0.808287
O O1 0.876947 0.257085 0.266931
O O2 0.101508 0.243851 0.591419
O O3 0.536195 0.899970 0.509270
O O4 0.767937 0.376244 0.179835
O O5 0.497195 0.571162 0.199434
O O6 0.381544 0.311835 0.533714
O O7 0.451839 0.739760 0.101953
O O8 0.447545 0.517215 0.798699
O O9 0.000000 0.500000 0.500000
O O10 0.372858 0.820999 0.322979
O O11 0.956605 0.838760 0.770444
O O12 0.191192 0.934676 0.709798
O O13 0.500000 0.000000 0.000000
#
# Coordination Sequence:
#
# PCOD8025792 Si02
#       6
#     2   2   2   2   2   2
#     4   9  22  41  64  95 122 166 213 257 313 367
#     4  11  21  41  64  93 133 163 207 257 308 380
#     4  10  23  46  68  86 125 170 212 265 315 363
#     4  11  23  42  63  92 131 164 209 258 311 375
#     4  12  24  39  65  96 132 173 200 249 319 381
#     4   9  24  41  61  92 130 159 212 254 317 363
#
# _framework density 22.676044000000001
#
# number of rings (size 3 to 8) (size 9 to 14) (size 15 to 20)
#    1.000    0.667    3.333    0.500    2.333    5.333 
#    0.000    1.667    0.000    0.000    0.000    0.000 
#    0.000    0.000    0.000    0.000    0.000    0.000 
#
# Total GULP energy -148782.508228 kJ/mol
# GULP energy per Si atom -12398.542352 kJ/mol
# Density = 2.262443 g / cm^3
# Si number density = 22.676044 Si / 1000 Ang^3
#
#
#
# Elastic Constant Matrix: (Units=GPa)
#
#
# Indices 1 2 3 4 5 6 
#
# 1 49.8816 21.6761 12.9139 -1.1337 26.0311 20.3481
# 2 21.6761 130.1774 25.1283 11.7957 17.8774 14.9315
# 3 12.9139 25.1283 97.9238 -3.9488 23.2732 -1.0474
# 4 -1.1337 11.7957 -3.9488 43.5176 -9.4387 7.3360
# 5 26.0311 17.8774 23.2732 -9.4387 37.2065 7.6717
# 6 20.3481 14.9315 -1.0474 7.3360 7.6717 24.7234
#
#
#
# Elastic Compliance Matrix: (Units=1/GPa)
#
#
# Indices 1 2 3 4 5 6 
#
# 1 0.045609 -0.000820 -0.000112 0.000929 -0.025121 -0.029527
# 2 -0.000820 0.009150 -0.001730 -0.002705 -0.002753 -0.003267
# 3 -0.000112 -0.001730 0.012614 -0.000905 -0.008131 0.004463
# 4 0.000929 -0.002705 -0.000905 0.027710 0.010438 -0.010631
# 5 -0.025121 -0.002753 -0.008131 0.010438 0.053005 0.002450
# 6 -0.029527 -0.003267 0.004463 -0.010631 0.002450 0.069306
#
#
# Mechanical properties :
#
#
# Convention : Reuss Voigt Hill
#
# Bulk Modulus (GPa) = 16.11609 44.15772 30.13691
# Shear Modulus (GPa) = 20.54219 35.64047 28.09133
#
# Velocity S-wave (km/s) = 3.01308 3.96880 3.52349
# Velocity P-wave (km/s) = 4.38491 6.36533 5.46556
#
# Compressibility (1/GPa) = 0.06204979
#
# Stress axis : x y z
#
# Youngs Moduli (GPa) = 21.92555 109.28652 79.27524
#
# Poissons Ratio (x) = 0.08963 0.00889
# Poissons Ratio (y) = 0.01798 0.13711
# Poissons Ratio (z) = 0.00246 0.18901
#
# Static dielectric constant tensor:
#      x y z
#    x 3.616310 -0.281790 0.220590 
#    y -0.281790 3.981580 -0.117150 
#    z 0.220590 -0.117150 4.346430 
# 
# 
# High freq. dielectric constant tensor:
#      x y z
#    x 1.847920 -0.019050 0.026760 
#    y -0.019050 1.890100 0.000530 
#    z 0.026760 0.000530 1.915580 
# 
# From -- ./inp_files/526468.got.cif
#   From: 2010.06.25/outbox.cif.g09.slc.cpg/sg2_264_cif.got.tgz:526468.got - 2010.06.27 13:26:56.
