data_PCOD8025429
_publ_section_title
;
Structure prediction by ZEFSAII (Michael W. Deem and Ramdas Pophale) SiO2 
 PCOD8025429
Probable space group: P -1
;
_chemical_formula_sum "Si O2"
_cell_formula_units_Z 14
_cell_length_a 18.225177
_cell_length_b 11.609320
_cell_length_c 8.067418
_cell_angle_alpha 128.763204
_cell_angle_beta 128.594521
_cell_angle_gamma 29.644079
_cell_volume 644.112062
_symmetry_space_group_name_H-M "P -1"
_symmetry_group_IT_number 2
_symmetry_cell_setting 'triclinic'
loop_
_space_group_symop_operation_xyz
x,y,z
-x,-y,-z
loop_
_atom_site_type_symbol
_atom_site_label
_atom_site_fract_x
_atom_site_fract_y
_atom_site_fract_z
Si Si1 0.541281 0.609888 0.101285
Si Si2 0.024100 0.355591 0.254086
Si Si3 0.081638 0.022299 0.238443
Si Si4 0.757266 0.581544 0.860181
Si Si5 0.606168 0.498333 0.716563
Si Si6 0.715749 0.842564 0.758906
Si Si7 0.814921 0.422534 0.455066
O O1 0.706122 0.425149 0.248568
O O2 0.418032 0.882205 0.234982
O O3 0.500000 0.500000 0.000000
O O4 0.548982 0.610985 0.917401
O O5 0.000000 0.500000 0.500000
O O6 0.124299 0.100545 0.243759
O O7 0.118129 0.293730 0.170528
O O8 0.862260 0.491012 0.084196
O O9 0.975178 0.219534 0.408917
O O10 0.227875 0.775205 0.306693
O O11 0.000000 0.000000 0.000000
O O12 0.617406 0.643478 0.767744
O O13 0.700976 0.806953 0.899760
O O14 0.849435 0.379988 0.663157
O O15 0.500000 0.500000 0.500000
O O16 0.717613 0.691445 0.512132
#
# Coordination Sequence:
#
# PCOD8025429 Si02
#       7
#     2   2   2   2   2   2   2
#     4  12  24  44  70 100 139 183 234 286 350 417
#     4  12  22  43  71 102 136 180 236 284 345 421
#     4  12  23  46  74  99 138 185 236 292 341 413
#     4  10  24  44  66 100 140 179 237 282 349 416
#     4  12  27  45  68 105 142 182 235 287 356 409
#     4  10  25  42  69 100 138 179 228 286 353 409
#     4  10  23  45  67 100 135 184 233 282 348 411
#
# _framework density 21.735348999999999
#
# number of rings (size 3 to 8) (size 9 to 14) (size 15 to 20)
#    0.857    0.000    4.286    2.571    0.000    3.429 
#    0.000    0.000    0.000    0.000    0.000    0.000 
#    0.000    0.000    0.000    0.000    0.000    0.000 
#
# Total GULP energy -173434.156672 kJ/mol
# GULP energy per Si atom -12388.154048 kJ/mol
# Density = 2.168588 g / cm^3
# Si number density = 21.735349 Si / 1000 Ang^3
#
#
#
# Elastic Constant Matrix: (Units=GPa)
#
#
# Indices 1 2 3 4 5 6 
#
# 1 158.5016 30.2135 37.0257 5.5390 14.4386 4.0040
# 2 30.2135 92.1298 20.7141 8.6089 6.0768 -5.5763
# 3 37.0257 20.7141 122.6580 -9.0996 2.5596 -11.3721
# 4 5.5390 8.6089 -9.0996 37.8366 -6.7277 3.3986
# 5 14.4386 6.0768 2.5596 -6.7277 41.4317 1.6097
# 6 4.0040 -5.5763 -11.3721 3.3986 1.6097 33.3559
#
#
#
# Elastic Compliance Matrix: (Units=1/GPa)
#
#
# Indices 1 2 3 4 5 6 
#
# 1 0.007464 -0.001764 -0.002170 -0.001488 -0.002385 -0.001664
# 2 -0.001764 0.012354 -0.001570 -0.003435 -0.001742 0.002176
# 3 -0.002170 -0.001570 0.009539 0.002839 0.000745 0.002925
# 4 -0.001488 -0.003435 0.002839 0.029371 0.005721 -0.002697
# 5 -0.002385 -0.001742 0.000745 0.005721 0.026168 -0.001597
# 6 -0.001664 0.002176 0.002925 -0.002697 -0.001597 0.031892
#
#
# Mechanical properties :
#
#
# Convention : Reuss Voigt Hill
#
# Bulk Modulus (GPa) = 54.50404 61.02176 57.76290
# Shear Modulus (GPa) = 37.33786 41.54724 39.44255
#
# Velocity S-wave (km/s) = 4.14918 4.37682 4.26452
# Velocity P-wave (km/s) = 6.93433 7.32652 7.13312
#
# Compressibility (1/GPa) = 0.01834726
#
# Stress axis : x y z
#
# Youngs Moduli (GPa) = 133.98468 80.94848 104.83021
#
# Poissons Ratio (x) = 0.14280 0.22747
# Poissons Ratio (y) = 0.23637 0.16463
# Poissons Ratio (z) = 0.29073 0.12713
#
# Static dielectric constant tensor:
#      x y z
#    x 3.702360 0.168580 0.012690 
#    y 0.168580 3.563900 0.191160 
#    z 0.012690 0.191160 3.876170 
# 
# 
# High freq. dielectric constant tensor:
#      x y z
#    x 1.875460 0.001720 0.010810 
#    y 0.001720 1.829890 0.012180 
#    z 0.010810 0.012180 1.855750 
# 
# From -- ./inp_files/333808.got.cif
#   From: 2010.06.25/outbox.cif.g09.slc.cpg/sg2_167_cif.got.tgz:333808.got - 2010.06.27 13:26:56.
