data_PCOD8025037
_publ_section_title
;
Structure prediction by ZEFSAII (Michael W. Deem and Ramdas Pophale) SiO2 
 PCOD8025037
Probable space group: P -1
;
_chemical_formula_sum "Si O2"
_cell_formula_units_Z 12
_cell_length_a 14.795725
_cell_length_b 8.284005
_cell_length_c 5.317162
_cell_angle_alpha 57.566974
_cell_angle_beta 66.740909
_cell_angle_gamma 58.417852
_cell_volume 462.660736
_symmetry_space_group_name_H-M "P -1"
_symmetry_group_IT_number 2
_symmetry_cell_setting 'triclinic'
loop_
_space_group_symop_operation_xyz
x,y,z
-x,-y,-z
loop_
_atom_site_type_symbol
_atom_site_label
_atom_site_fract_x
_atom_site_fract_y
_atom_site_fract_z
Si Si1 0.211818 0.591410 0.604731
Si Si2 0.425345 0.856650 0.896057
Si Si3 0.612132 0.322140 0.436266
Si Si4 0.347768 0.270673 0.369817
Si Si5 0.028511 0.794122 0.306996
Si Si6 0.142583 0.362822 0.242249
O O1 0.279804 0.629770 0.728433
O O2 0.297621 0.496140 0.367216
O O3 0.111284 0.793901 0.438558
O O4 0.163183 0.422740 0.885690
O O5 0.395259 0.760292 0.761581
O O6 0.554280 0.732454 0.911153
O O7 0.398648 0.098716 0.675591
O O8 0.361542 0.849265 0.223997
O O9 0.500000 0.500000 0.500000
O O10 0.257341 0.225413 0.355861
O O11 0.083180 0.585805 0.257080
O O12 0.922971 0.783735 0.560323
O O13 0.000000 0.000000 0.000000
#
# Coordination Sequence:
#
# PCOD8025037 Si02
#       6
#     2   2   2   2   2   2
#     4  11  24  42  71  99 140 188 231 301 361 418
#     4  11  26  43  67 106 142 195 239 287 347 440
#     4  12  25  42  69 102 146 185 241 290 353 420
#     4  10  24  42  68  96 144 185 236 290 358 414
#     4  10  24  45  70  99 137 182 239 299 367 432
#     4  10  23  44  68 100 140 179 238 304 358 428
#
# _framework density 25.936928000000002
#
# number of rings (size 3 to 8) (size 9 to 14) (size 15 to 20)
#    0.000    1.333    1.667    2.000    9.333    2.000 
#    0.000    0.000    0.000    0.000    0.000    0.000 
#    0.000    0.000    0.000    0.000    0.000    0.000 
#
# Total GULP energy -148764.921791 kJ/mol
# GULP energy per Si atom -12397.076816 kJ/mol
# Density = 2.587789 g / cm^3
# Si number density = 25.936928 Si / 1000 Ang^3
#
#
#
# Elastic Constant Matrix: (Units=GPa)
#
#
# Indices 1 2 3 4 5 6 
#
# 1 205.1765 39.2312 47.5024 -9.6601 -4.9299 -23.0828
# 2 39.2312 32.3362 14.7663 -3.2419 -3.3031 -4.9790
# 3 47.5024 14.7663 138.8842 -7.5067 -16.5722 -16.0727
# 4 -9.6601 -3.2419 -7.5067 30.5001 1.2186 3.0564
# 5 -4.9299 -3.3031 -16.5722 1.2186 43.3421 -1.7513
# 6 -23.0828 -4.9790 -16.0727 3.0564 -1.7513 30.6561
#
#
#
# Elastic Compliance Matrix: (Units=1/GPa)
#
#
# Indices 1 2 3 4 5 6 
#
# 1 0.006959 -0.007317 -0.001184 0.000804 -0.000106 0.003344
# 2 -0.007317 0.040867 -0.001529 0.001557 0.001665 0.000266
# 3 -0.001184 -0.001529 0.008601 0.001109 0.003145 0.003438
# 4 0.000804 0.001557 0.001109 0.033690 -0.000392 -0.001942
# 5 -0.000106 0.001665 0.003145 -0.000392 0.024533 0.003280
# 6 0.003344 0.000266 0.003438 -0.001942 0.003280 0.037365
#
#
# Mechanical properties :
#
#
# Convention : Reuss Voigt Hill
#
# Bulk Modulus (GPa) = 27.49757 64.37739 45.93748
# Shear Modulus (GPa) = 27.14474 39.22611 33.18543
#
# Velocity S-wave (km/s) = 3.23858 3.89313 3.58084
# Velocity P-wave (km/s) = 4.96077 6.71441 5.90307
#
# Compressibility (1/GPa) = 0.03636686
#
# Stress axis : x y z
#
# Youngs Moduli (GPa) = 143.70705 24.46934 116.26498
#
# Poissons Ratio (x) = 0.17904 0.13770
# Poissons Ratio (y) = 1.05149 0.17775
# Poissons Ratio (z) = 0.17020 0.03741
#
# Static dielectric constant tensor:
#      x y z
#    x 4.968950 -0.353220 -0.099230 
#    y -0.353220 4.330460 0.016890 
#    z -0.099230 0.016890 4.954160 
# 
# 
# High freq. dielectric constant tensor:
#      x y z
#    x 2.047310 -0.021550 0.001050 
#    y -0.021550 2.011030 -0.000500 
#    z 0.001050 -0.000500 2.054990 
# 
# From -- ./inp_files/19085.got.cif
#   From: 2010.06.25/outbox.cif.g09.slc.cpg/sg2_10_cif.got.tgz:19085.got - 2010.06.27 13:26:56.
