data_PCOD8025382
_publ_section_title
;
Structure prediction by ZEFSAII (Michael W. Deem and Ramdas Pophale) SiO2 
 PCOD8025382
Probable space group: P -1
;
_chemical_formula_sum "Si O2"
_cell_formula_units_Z 16
_cell_length_a 12.880627
_cell_length_b 9.098797
_cell_length_c 18.833344
_cell_angle_alpha 43.761119
_cell_angle_beta 27.590605
_cell_angle_gamma 55.602734
_cell_volume 687.322290
_symmetry_space_group_name_H-M "P -1"
_symmetry_group_IT_number 2
_symmetry_cell_setting 'triclinic'
loop_
_space_group_symop_operation_xyz
x,y,z
-x,-y,-z
loop_
_atom_site_type_symbol
_atom_site_label
_atom_site_fract_x
_atom_site_fract_y
_atom_site_fract_z
Si Si1 0.860338 0.763896 0.646855
Si Si2 0.356564 0.264022 0.544213
Si Si3 0.028882 0.788316 0.098004
Si Si4 0.566621 0.158223 0.051130
Si Si5 0.197250 0.820592 0.734572
Si Si6 0.196971 0.526670 0.969124
Si Si7 0.678501 0.467003 0.746183
Si Si8 0.286650 0.663824 0.378859
O O1 0.629084 0.709728 0.853016
O O2 0.782904 0.711978 0.629284
O O3 0.060898 0.628098 0.580717
O O4 0.000000 0.000000 0.500000
O O5 0.595360 0.194124 0.440435
O O6 0.431293 0.493315 0.376554
O O7 0.219127 0.300857 0.684331
O O8 0.193449 0.073356 0.661513
O O9 0.061911 0.599620 0.091100
O O10 0.245114 0.841321 0.002320
O O11 0.000000 0.000000 0.000000
O O12 0.445542 0.907199 0.196008
O O13 0.687942 0.286676 0.864315
O O14 0.954719 0.695103 0.895127
O O15 0.253556 0.722613 0.810106
O O16 0.418090 0.452001 0.887248
O O17 0.808565 0.406255 0.618734
#
# Coordination Sequence:
#
# PCOD8025382 Si02
#       8
#     2   2   2   2   2   2   2   2
#     4  10  23  45  64  96 142 178 224 289 348 406
#     4  11  24  44  70  99 145 179 233 296 346 408
#     4  12  26  44  71 103 136 189 230 288 350 425
#     4  11  26  46  69  99 145 181 236 288 346 418
#     4  10  24  48  68 103 142 184 230 298 344 413
#     4  11  24  45  74 101 140 184 236 281 354 419
#     4  12  23  45  72 102 136 189 233 281 348 419
#     4  11  25  44  69 104 136 185 233 292 351 409
#
# _framework density 23.278742999999999
#
# number of rings (size 3 to 8) (size 9 to 14) (size 15 to 20)
#    0.000    1.000    3.750    1.875    5.250    0.500 
#    6.750    0.000    0.000    0.000    0.000    0.000 
#    0.000    0.000    0.000    0.000    0.000    0.000 
#
# Total GULP energy -198242.598611 kJ/mol
# GULP energy per Si atom -12390.162413 kJ/mol
# Density = 2.322576 g / cm^3
# Si number density = 23.278743 Si / 1000 Ang^3
#
#
#
# Elastic Constant Matrix: (Units=GPa)
#
#
# Indices 1 2 3 4 5 6 
#
# 1 97.1024 30.1319 20.0811 -12.4844 -3.5483 -3.0000
# 2 30.1319 113.8924 30.7234 -6.5023 5.6050 9.3627
# 3 20.0811 30.7234 66.5109 -8.1918 0.4247 5.5063
# 4 -12.4844 -6.5023 -8.1918 43.2348 8.4762 -4.1704
# 5 -3.5483 5.6050 0.4247 8.4762 36.3144 0.5215
# 6 -3.0000 9.3627 5.5063 -4.1704 0.5215 33.9851
#
#
#
# Elastic Compliance Matrix: (Units=1/GPa)
#
#
# Indices 1 2 3 4 5 6 
#
# 1 0.012059 -0.002671 -0.002287 0.002701 0.000951 0.002488
# 2 -0.002671 0.010872 -0.003964 0.000244 -0.001913 -0.002529
# 3 -0.002287 -0.003964 0.017954 0.002028 -0.000270 -0.001766
# 4 0.002701 0.000244 0.002028 0.025778 -0.005859 0.003096
# 5 0.000951 -0.001913 -0.000270 -0.005859 0.029304 -0.000514
# 6 0.002488 -0.002529 -0.001766 0.003096 -0.000514 0.031015
#
#
# Mechanical properties :
#
#
# Convention : Reuss Voigt Hill
#
# Bulk Modulus (GPa) = 43.39796 48.81985 46.10890
# Shear Modulus (GPa) = 32.78581 35.81147 34.29864
#
# Velocity S-wave (km/s) = 3.75694 3.92647 3.84264
# Velocity P-wave (km/s) = 6.12394 6.44776 6.28794
#
# Compressibility (1/GPa) = 0.02304256
#
# Stress axis : x y z
#
# Youngs Moduli (GPa) = 82.92676 91.97805 55.69689
#
# Poissons Ratio (x) = 0.24564 0.12735
# Poissons Ratio (y) = 0.22147 0.22079
# Poissons Ratio (z) = 0.18962 0.36462
#
# Static dielectric constant tensor:
#      x y z
#    x 4.197780 0.287770 0.013860 
#    y 0.287770 4.658740 0.396060 
#    z 0.013860 0.396060 4.385060 
# 
# 
# High freq. dielectric constant tensor:
#      x y z
#    x 1.901170 0.012620 -0.013140 
#    y 0.012620 1.941490 0.014990 
#    z -0.013140 0.014990 1.932150 
# 
# From -- ./inp_files/566498.got.cif
#   From: 2010.06.25/outbox.cif.g09.slc.cpg/sg2_284_cif.got.tgz:566498.got - 2010.06.27 13:26:56.
