data_PCOD8025067
_publ_section_title
;
Structure prediction by ZEFSAII (Michael W. Deem and Ramdas Pophale) SiO2 
 PCOD8025067
Probable space group: P -1
;
_chemical_formula_sum "Si O2"
_cell_formula_units_Z 12
_cell_length_a 11.763600
_cell_length_b 8.825127
_cell_length_c 12.318525
_cell_angle_alpha 55.791416
_cell_angle_beta 139.314717
_cell_angle_gamma 140.388536
_cell_volume 530.797387
_symmetry_space_group_name_H-M "P -1"
_symmetry_group_IT_number 2
_symmetry_cell_setting 'triclinic'
loop_
_space_group_symop_operation_xyz
x,y,z
-x,-y,-z
loop_
_atom_site_type_symbol
_atom_site_label
_atom_site_fract_x
_atom_site_fract_y
_atom_site_fract_z
Si Si1 0.319801 0.527798 0.320265
Si Si2 0.581718 0.937820 0.186442
Si Si3 0.526475 0.808611 0.865287
Si Si4 0.098381 0.003056 0.761495
Si Si5 0.936216 0.637593 0.333566
Si Si6 0.294315 0.852290 0.327732
O O1 0.500000 0.500000 0.500000
O O2 0.394916 0.668880 0.203684
O O3 0.287844 0.654787 0.340670
O O4 0.083074 0.271141 0.226528
O O5 0.622984 0.110719 0.243172
O O6 0.807276 0.977450 0.299290
O O7 0.500000 0.000000 0.000000
O O8 0.335624 0.529087 0.814370
O O9 0.677374 0.957862 0.809677
O O10 0.693282 0.859024 0.059945
O O11 0.990496 0.134133 0.635118
O O12 0.000000 0.500000 0.500000
O O13 0.058729 0.721861 0.272173
O O14 0.500000 0.000000 0.500000
#
# Coordination Sequence:
#
# PCOD8025067 Si02
#       6
#     2   2   2   2   2   2
#     4  11  25  41  69 102 132 174 225 277 332 392
#     4   9  22  43  69  96 133 169 220 273 334 392
#     4  10  23  44  68  96 129 175 224 269 333 393
#     4  11  25  43  68  99 134 173 225 277 331 394
#     4  12  25  40  66  94 134 177 218 269 333 394
#     4  11  23  43  66  95 136 174 215 274 330 397
#
# _framework density 22.607498
#
# number of rings (size 3 to 8) (size 9 to 14) (size 15 to 20)
#    0.000    1.333    1.667    2.500    4.667   11.333 
#    0.000    0.000    0.000    0.000    0.000    0.000 
#    0.000    0.000    0.000    0.000    0.000    0.000 
#
# Total GULP energy -148786.405110 kJ/mol
# GULP energy per Si atom -12398.867093 kJ/mol
# Density = 2.255604 g / cm^3
# Si number density = 22.607498 Si / 1000 Ang^3
#
#
#
# Elastic Constant Matrix: (Units=GPa)
#
#
# Indices 1 2 3 4 5 6 
#
# 1 150.9884 70.8669 13.7361 -26.0174 0.4765 16.0555
# 2 70.8669 167.7435 27.9711 -0.1157 -0.7759 13.2518
# 3 13.7361 27.9711 61.3859 1.9298 1.5261 2.7692
# 4 -26.0174 -0.1157 1.9298 34.3719 3.5694 0.7003
# 5 0.4765 -0.7759 1.5261 3.5694 26.9656 -4.7222
# 6 16.0555 13.2518 2.7692 0.7003 -4.7222 43.2029
#
#
#
# Elastic Compliance Matrix: (Units=1/GPa)
#
#
# Indices 1 2 3 4 5 6 
#
# 1 0.010252 -0.004017 -0.000541 0.008026 -0.001832 -0.002873
# 2 -0.004017 0.008169 -0.002718 -0.002921 0.000722 -0.000713
# 3 -0.000541 -0.002718 0.017722 -0.001313 -0.000930 -0.000182
# 4 0.008026 -0.002921 -0.001313 0.035864 -0.005456 -0.003180
# 5 -0.001832 0.000722 -0.000930 -0.005456 0.038760 0.004844
# 6 -0.002873 -0.000713 -0.000182 -0.003180 0.004844 0.025026
#
#
# Mechanical properties :
#
#
# Convention : Reuss Voigt Hill
#
# Bulk Modulus (GPa) = 46.31157 67.25176 56.78166
# Shear Modulus (GPa) = 31.73777 38.74434 35.24105
#
# Velocity S-wave (km/s) = 3.75088 4.14428 3.95247
# Velocity P-wave (km/s) = 6.26804 7.26031 6.78235
#
# Compressibility (1/GPa) = 0.02159288
#
# Stress axis : x y z
#
# Youngs Moduli (GPa) = 97.54404 122.41025 56.42618
#
# Poissons Ratio (x) = 0.49170 0.03052
# Poissons Ratio (y) = 0.39182 0.15334
# Poissons Ratio (z) = 0.05276 0.33265
#
# Static dielectric constant tensor:
#      x y z
#    x 4.929620 0.043400 0.016520 
#    y 0.043400 4.523970 -0.067030 
#    z 0.016520 -0.067030 3.705550 
# 
# 
# High freq. dielectric constant tensor:
#      x y z
#    x 1.905810 0.001310 -0.000430 
#    y 0.001310 1.908350 -0.004320 
#    z -0.000430 -0.004320 1.875170 
# 
# From -- ./inp_files/164969.got.cif
#   From: 2010.06.25/outbox.cif.g09.slc.cpg/sg2_83_cif.got.tgz:164969.got - 2010.06.27 13:26:56.
