data_PCOD8025674
_publ_section_title
;
Structure prediction by ZEFSAII (Michael W. Deem and Ramdas Pophale) SiO2 
 PCOD8025674
Probable space group: P -1
;
_chemical_formula_sum "Si O2"
_cell_formula_units_Z 16
_cell_length_a 22.221459
_cell_length_b 19.102677
_cell_length_c 7.962877
_cell_angle_alpha 34.624533
_cell_angle_beta 149.478999
_cell_angle_gamma 156.592589
_cell_volume 673.137887
_symmetry_space_group_name_H-M "P -1"
_symmetry_group_IT_number 2
_symmetry_cell_setting 'triclinic'
loop_
_space_group_symop_operation_xyz
x,y,z
-x,-y,-z
loop_
_atom_site_type_symbol
_atom_site_label
_atom_site_fract_x
_atom_site_fract_y
_atom_site_fract_z
Si Si1 0.809031 0.779319 0.291710
Si Si2 0.423996 0.232426 0.015204
Si Si3 0.573223 0.922484 0.358742
Si Si4 0.215221 0.461485 0.870367
Si Si5 0.085203 0.908497 0.262991
Si Si6 0.861953 0.094009 0.220371
Si Si7 0.028125 0.560308 0.259068
Si Si8 0.301234 0.556803 0.279152
O O1 0.701336 0.578009 0.366163
O O2 0.992764 0.861826 0.636864
O O3 0.698357 0.757330 0.216408
O O4 0.848490 0.903964 0.989829
O O5 0.459414 0.145101 0.396826
O O6 0.605114 0.424777 0.016727
O O7 0.324601 0.104724 0.866041
O O8 0.486413 0.758388 0.346763
O O9 0.775200 0.082349 0.491597
O O10 0.500000 0.000000 0.000000
O O11 0.095410 0.255764 0.938528
O O12 0.118046 0.513656 0.471050
O O13 0.252734 0.495569 0.090415
O O14 0.070889 0.880508 0.481624
O O15 0.847510 0.227762 0.877697
O O16 0.000000 0.500000 0.500000
O O17 0.839521 0.459029 0.937870
#
# Coordination Sequence:
#
# PCOD8025674 Si02
#       8
#     2   2   2   2   2   2   2   2
#     4  10  25  47  72  94 139 180 237 271 345 401
#     4  11  27  42  69 101 136 182 223 287 336 407
#     4  11  26  45  71 102 140 178 228 276 347 407
#     4  11  25  43  67 106 136 174 233 278 346 399
#     4  11  26  44  69 102 135 185 227 283 333 408
#     4  11  24  45  70  97 135 184 230 281 342 396
#     4   9  22  39  71  97 134 175 225 283 342 403
#     4  10  23  45  72  98 134 185 222 285 335 400
#
# _framework density 23.769276000000001
#
# number of rings (size 3 to 8) (size 9 to 14) (size 15 to 20)
#    0.000    1.500    0.000    2.250   21.000    3.500 
#    2.250    0.000    0.000    0.000    0.000    0.000 
#    0.000    0.000    0.000    0.000    0.000    0.000 
#
# Total GULP energy -198344.329182 kJ/mol
# GULP energy per Si atom -12396.520574 kJ/mol
# Density = 2.371518 g / cm^3
# Si number density = 23.769276 Si / 1000 Ang^3
#
#
#
# Elastic Constant Matrix: (Units=GPa)
#
#
# Indices 1 2 3 4 5 6 
#
# 1 76.4101 53.8689 36.8951 -5.2723 -10.3117 6.1198
# 2 53.8689 164.1200 37.8113 -0.6917 -7.1792 3.7735
# 3 36.8951 37.8113 108.2378 -20.2224 13.2869 -2.2041
# 4 -5.2723 -0.6917 -20.2224 33.8627 -10.0879 -1.7166
# 5 -10.3117 -7.1792 13.2869 -10.0879 28.9870 8.2957
# 6 6.1198 3.7735 -2.2041 -1.7166 8.2957 38.2644
#
#
#
# Elastic Compliance Matrix: (Units=1/GPa)
#
#
# Indices 1 2 3 4 5 6 
#
# 1 0.022422 -0.005025 -0.007074 0.002618 0.012637 -0.006120
# 2 -0.005025 0.008092 -0.001427 -0.001341 0.000472 -0.000239
# 3 -0.007074 -0.001427 0.014251 0.004945 -0.008896 0.004244
# 4 0.002618 -0.001341 0.004945 0.036142 0.011138 -0.000795
# 5 0.012637 0.000472 -0.008896 0.011138 0.050813 -0.013097
# 6 -0.006120 -0.000239 0.004244 -0.000795 -0.013097 0.030185
#
#
# Mechanical properties :
#
#
# Convention : Reuss Voigt Hill
#
# Bulk Modulus (GPa) = 56.45954 67.32427 61.89190
# Shear Modulus (GPa) = 25.65914 34.90234 30.28074
#
# Velocity S-wave (km/s) = 3.28915 3.83610 3.57311
# Velocity P-wave (km/s) = 6.18299 6.92867 6.56643
#
# Compressibility (1/GPa) = 0.01771180
#
# Stress axis : x y z
#
# Youngs Moduli (GPa) = 44.59869 123.58137 70.16912
#
# Poissons Ratio (x) = 0.62102 0.49640
# Poissons Ratio (y) = 0.22412 0.10014
# Poissons Ratio (z) = 0.31551 0.17637
#
# Static dielectric constant tensor:
#      x y z
#    x 4.139330 0.241300 0.301130 
#    y 0.241300 4.409160 -0.008180 
#    z 0.301130 -0.008180 4.621100 
# 
# 
# High freq. dielectric constant tensor:
#      x y z
#    x 1.921340 0.012590 0.011320 
#    y 0.012590 1.948760 -0.004920 
#    z 0.011320 -0.004920 1.953820 
# 
# From -- ./inp_files/225860.got.cif
#   From: 2010.06.25/outbox.cif.g09.slc.cpg/sg2_113_cif.got.tgz:225860.got - 2010.06.27 13:26:56.
