data_PCOD8025696
_publ_section_title
;
Structure prediction by ZEFSAII (Michael W. Deem and Ramdas Pophale) SiO2 
 PCOD8025696
Probable space group: P -1
;
_chemical_formula_sum "Si O2"
_cell_formula_units_Z 16
_cell_length_a 16.604584
_cell_length_b 8.085814
_cell_length_c 9.091142
_cell_angle_alpha 111.667912
_cell_angle_beta 49.717288
_cell_angle_gamma 128.142342
_cell_volume 731.403101
_symmetry_space_group_name_H-M "P -1"
_symmetry_group_IT_number 2
_symmetry_cell_setting 'triclinic'
loop_
_space_group_symop_operation_xyz
x,y,z
-x,-y,-z
loop_
_atom_site_type_symbol
_atom_site_label
_atom_site_fract_x
_atom_site_fract_y
_atom_site_fract_z
Si Si1 0.448649 0.652489 0.616311
Si Si2 0.748824 0.699236 0.432953
Si Si3 0.375902 0.835339 0.004517
Si Si4 0.025522 0.208982 0.615589
Si Si5 0.358685 0.389038 0.172647
Si Si6 0.285527 0.002286 0.631753
Si Si7 0.222715 0.618193 0.383403
Si Si8 0.238004 0.981926 0.018476
O O1 0.500000 0.500000 0.500000
O O2 0.329258 0.543899 0.612883
O O3 0.563383 0.880787 0.504946
O O4 0.402993 0.671797 0.838373
O O5 0.882281 0.743790 0.340200
O O6 0.674210 0.725228 0.666212
O O7 0.762333 0.859815 0.343928
O O8 0.254139 0.711235 0.212012
O O9 0.342907 0.951023 0.957848
O O10 0.500000 0.000000 0.000000
O O11 0.087670 0.401218 0.487472
O O12 0.000000 0.000000 0.500000
O O13 0.899748 0.186238 0.814551
O O14 0.328680 0.569913 0.281725
O O15 0.500000 0.500000 0.000000
O O16 0.274068 0.217728 0.092673
O O17 0.226363 0.784124 0.545414
O O18 0.234280 0.953512 0.840228
#
# Coordination Sequence:
#
# PCOD8025696 Si02
#       8
#     2   2   2   2   2   2   2   2
#     4  10  24  41  73 103 145 176 230 287 362 425
#     4  10  23  45  73  98 144 186 231 290 356 419
#     4  12  26  46  73 109 144 179 235 295 363 425
#     4  11  25  49  71  99 142 189 251 284 341 426
#     4  11  23  40  71 102 135 184 237 287 364 424
#     4  11  25  45  69 108 141 179 235 297 363 410
#     4  11  25  43  72 101 141 187 234 292 354 413
#     4  12  27  45  70 100 145 189 234 296 346 422
#
# _framework density 21.875762000000002
#
# number of rings (size 3 to 8) (size 9 to 14) (size 15 to 20)
#    0.000    1.000    3.750    2.250   12.250    3.000 
#    0.000    0.000    0.000    0.000    0.000    0.000 
#    0.000    0.000    0.000    0.000    0.000    0.000 
#
# Total GULP energy -198383.991586 kJ/mol
# GULP energy per Si atom -12398.999474 kJ/mol
# Density = 2.182597 g / cm^3
# Si number density = 21.875762 Si / 1000 Ang^3
#
#
#
# Elastic Constant Matrix: (Units=GPa)
#
#
# Indices 1 2 3 4 5 6 
#
# 1 85.4320 8.5701 23.2579 -2.1151 -1.3813 5.7014
# 2 8.5701 109.2621 42.0580 4.1630 2.6669 16.3852
# 3 23.2579 42.0580 158.1243 0.6404 10.1996 9.1069
# 4 -2.1151 4.1630 0.6404 46.3068 7.5608 3.3490
# 5 -1.3813 2.6669 10.1996 7.5608 35.2754 -7.7009
# 6 5.7014 16.3852 9.1069 3.3490 -7.7009 39.2249
#
#
#
# Elastic Compliance Matrix: (Units=1/GPa)
#
#
# Indices 1 2 3 4 5 6 
#
# 1 0.012301 -0.000144 -0.001739 0.000593 0.000594 -0.001258
# 2 -0.000144 0.010792 -0.002561 -0.000513 -0.000848 -0.004015
# 3 -0.001739 -0.002561 0.007462 0.000495 -0.002337 -0.000911
# 4 0.000593 -0.000513 0.000495 0.022801 -0.005632 -0.003039
# 5 0.000594 -0.000848 -0.002337 -0.005632 0.031971 0.007568
# 6 -0.001258 -0.004015 -0.000911 -0.003039 0.007568 0.029311
#
#
# Mechanical properties :
#
#
# Convention : Reuss Voigt Hill
#
# Bulk Modulus (GPa) = 46.15336 55.62114 50.88725
# Shear Modulus (GPa) = 38.24120 42.75693 40.49907
#
# Velocity S-wave (km/s) = 4.18557 4.42581 4.30737
# Velocity P-wave (km/s) = 6.67102 7.18319 6.93183
#
# Compressibility (1/GPa) = 0.02166690
#
# Stress axis : x y z
#
# Youngs Moduli (GPa) = 81.29151 92.66279 134.00438
#
# Poissons Ratio (x) = 0.01332 0.23308
# Poissons Ratio (y) = 0.01168 0.34322
# Poissons Ratio (z) = 0.14140 0.23734
#
# Static dielectric constant tensor:
#      x y z
#    x 3.978110 0.264950 0.072180 
#    y 0.264950 4.325930 -0.037460 
#    z 0.072180 -0.037460 4.171080 
# 
# 
# High freq. dielectric constant tensor:
#      x y z
#    x 1.846080 0.006070 0.003810 
#    y 0.006070 1.868920 0.003540 
#    z 0.003810 0.003540 1.866950 
# 
# From -- ./inp_files/327710.got.cif
#   From: 2010.06.25/outbox.cif.g09.slc.cpg/sg2_164_cif.got.tgz:327710.got - 2010.06.27 13:26:56.
