data_PCOD8025860
_publ_section_title
;
Structure prediction by ZEFSAII (Michael W. Deem and Ramdas Pophale) SiO2 
 PCOD8025860
Probable space group: P -1
;
_chemical_formula_sum "Si O2"
_cell_formula_units_Z 16
_cell_length_a 9.121879
_cell_length_b 8.110247
_cell_length_c 12.624801
_cell_angle_alpha 87.126444
_cell_angle_beta 79.414621
_cell_angle_gamma 51.231762
_cell_volume 713.255931
_symmetry_space_group_name_H-M "P -1"
_symmetry_group_IT_number 2
_symmetry_cell_setting 'triclinic'
loop_
_space_group_symop_operation_xyz
x,y,z
-x,-y,-z
loop_
_atom_site_type_symbol
_atom_site_label
_atom_site_fract_x
_atom_site_fract_y
_atom_site_fract_z
Si Si1 0.774550 0.757930 0.899765
Si Si2 0.991266 0.817646 0.279311
Si Si3 0.991520 0.815703 0.027886
Si Si4 0.548688 0.133941 0.766663
Si Si5 0.241675 0.702919 0.627604
Si Si6 0.861673 0.581464 0.260599
Si Si7 0.331201 0.666763 0.380309
Si Si8 0.398348 0.417595 0.964436
O O1 0.975513 0.533707 0.848805
O O2 0.692078 0.897358 0.799426
O O3 0.810166 0.860766 0.989059
O O4 0.612458 0.739077 0.956339
O O5 0.990832 0.793154 0.154194
O O6 0.908723 0.696886 0.334902
O O7 0.204389 0.679987 0.302364
O O8 0.871474 0.063652 0.316809
O O9 0.180717 0.608282 0.954559
O O10 0.000000 0.000000 0.000000
O O11 0.336158 0.215075 0.770709
O O12 0.639197 0.157034 0.649568
O O13 0.527501 0.295873 0.849108
O O14 0.154826 0.588155 0.679830
O O15 0.220354 0.723486 0.503370
O O16 0.463200 0.567917 0.637122
O O17 0.500000 0.500000 0.000000
#
# Coordination Sequence:
#
# PCOD8025860 Si02
#       8
#     2   2   2   2   2   2   2   2
#     4  12  24  46  63  95 145 178 224 282 327 399
#     4  12  24  42  70  99 133 176 229 272 339 405
#     4  12  24  41  66  98 138 180 226 275 334 402
#     4  11  24  43  68  93 133 183 220 270 342 391
#     4  10  24  47  71  97 137 174 220 288 346 393
#     4  11  24  44  69 101 135 177 227 280 334 405
#     4  10  23  46  70  99 134 173 224 283 336 405
#     4  12  24  40  62  95 134 175 225 270 329 402
#
# _framework density 22.432341000000001
#
# number of rings (size 3 to 8) (size 9 to 14) (size 15 to 20)
#    0.000    0.750    2.500    5.625    1.750    2.500 
#    2.250    5.625    0.000    0.000    0.000    0.000 
#    0.000    0.000    0.000    0.000    0.000    0.000 
#
# Total GULP energy -198334.990690 kJ/mol
# GULP energy per Si atom -12395.936918 kJ/mol
# Density = 2.238128 g / cm^3
# Si number density = 22.432341 Si / 1000 Ang^3
#
#
#
# Elastic Constant Matrix: (Units=GPa)
#
#
# Indices 1 2 3 4 5 6 
#
# 1 160.2271 55.8151 41.8906 -5.4675 5.3677 13.4880
# 2 55.8151 107.3901 28.0921 -5.8394 8.2610 12.1471
# 3 41.8906 28.0921 83.1133 -16.3536 -6.1234 3.2739
# 4 -5.4675 -5.8394 -16.3536 25.7935 -2.1016 3.7924
# 5 5.3677 8.2610 -6.1234 -2.1016 18.7652 -5.8279
# 6 13.4880 12.1471 3.2739 3.7924 -5.8279 45.7940
#
#
#
# Elastic Compliance Matrix: (Units=1/GPa)
#
#
# Indices 1 2 3 4 5 6 
#
# 1 0.008461 -0.003111 -0.003590 -0.001174 -0.002875 -0.001679
# 2 -0.003111 0.012576 -0.003006 0.000197 -0.006554 -0.003055
# 3 -0.003590 -0.003006 0.017553 0.010323 0.009532 0.000958
# 4 -0.001174 0.000197 0.010323 0.046226 0.007775 -0.003283
# 5 -0.002875 -0.006554 0.009532 0.007775 0.063895 0.009391
# 6 -0.001679 -0.003055 0.000958 -0.003283 0.009391 0.024540
#
#
# Mechanical properties :
#
#
# Convention : Reuss Voigt Hill
#
# Bulk Modulus (GPa) = 52.15060 66.92511 59.53785
# Shear Modulus (GPa) = 25.11834 33.06606 29.09220
#
# Velocity S-wave (km/s) = 3.34988 3.84348 3.60514
# Velocity P-wave (km/s) = 6.18552 7.04240 6.62782
#
# Compressibility (1/GPa) = 0.01917523
#
# Stress axis : x y z
#
# Youngs Moduli (GPa) = 118.18900 79.51818 56.97092
#
# Poissons Ratio (x) = 0.24741 0.20450
# Poissons Ratio (y) = 0.36773 0.17127
# Poissons Ratio (z) = 0.42425 0.23905
#
# Static dielectric constant tensor:
#      x y z
#    x 4.388660 0.120920 -0.201910 
#    y 0.120920 4.287100 -0.211970 
#    z -0.201910 -0.211970 4.079140 
# 
# 
# High freq. dielectric constant tensor:
#      x y z
#    x 1.900120 -0.000730 -0.010330 
#    y -0.000730 1.895030 -0.010490 
#    z -0.010330 -0.010490 1.866310 
# 
# From -- ./inp_files/350062.got.cif
#   From: 2010.06.25/outbox.cif.g09.slc.cpg/sg2_176_cif.got.tgz:350062.got - 2010.06.27 13:26:56.
