data_PCOD8025500
_publ_section_title
;
Structure prediction by ZEFSAII (Michael W. Deem and Ramdas Pophale) SiO2 
 PCOD8025500
Probable space group: P -1
;
_chemical_formula_sum "Si O2"
_cell_formula_units_Z 10
_cell_length_a 7.310491
_cell_length_b 13.346203
_cell_length_c 11.240550
_cell_angle_alpha 157.862016
_cell_angle_beta 96.176685
_cell_angle_gamma 86.918732
_cell_volume 407.786625
_symmetry_space_group_name_H-M "P -1"
_symmetry_group_IT_number 2
_symmetry_cell_setting 'triclinic'
loop_
_space_group_symop_operation_xyz
x,y,z
-x,-y,-z
loop_
_atom_site_type_symbol
_atom_site_label
_atom_site_fract_x
_atom_site_fract_y
_atom_site_fract_z
Si Si1 0.593430 0.937914 0.318687
Si Si2 0.318610 0.486766 0.758764
Si Si3 0.217103 0.502456 0.038120
Si Si4 0.556243 0.288914 0.369182
Si Si5 0.971866 0.290620 0.370852
O O1 0.500000 0.000000 0.500000
O O2 0.702223 0.214911 0.582628
O O3 0.421892 0.787639 0.061850
O O4 0.744606 0.730372 0.124122
O O5 0.448522 0.293829 0.491885
O O6 0.111582 0.406462 0.611098
O O7 0.319829 0.454918 0.866781
O O8 0.000000 0.500000 0.000000
O O9 0.500000 0.500000 0.500000
O O10 0.226596 0.688352 0.562968
O O11 0.500000 0.000000 0.000000
O O12 0.000000 0.500000 0.500000
O O13 0.000000 0.000000 0.000000
#
# Coordination Sequence:
#
# PCOD8025500 Si02
#       5
#     2   2   2   2   2
#     4  10  23  45  68  97 137 174 226 282 335 406
#     4  11  25  45  74  96 143 183 222 279 355 384
#     4  11  25  46  70 105 135 174 234 283 332 413
#     4  12  25  46  68  99 140 181 227 281 333 405
#     4  12  25  46  67 102 137 178 234 279 327 411
#
# _framework density 24.522628999999998
#
# number of rings (size 3 to 8) (size 9 to 14) (size 15 to 20)
#    0.000    0.800    4.000    3.000    2.800    9.600 
#    3.600    0.000    0.000    0.000    0.000    0.000 
#    0.000    0.000    0.000    0.000    0.000    0.000 
#
# Total GULP energy -123884.135176 kJ/mol
# GULP energy per Si atom -12388.413518 kJ/mol
# Density = 2.446681 g / cm^3
# Si number density = 24.522629 Si / 1000 Ang^3
#
#
#
# Elastic Constant Matrix: (Units=GPa)
#
#
# Indices 1 2 3 4 5 6 
#
# 1 192.5882 26.9426 60.1545 -8.3205 9.4404 -25.5465
# 2 26.9426 80.4092 43.4535 14.6684 3.6412 -13.5160
# 3 60.1545 43.4535 180.7034 10.0770 23.9362 -10.3867
# 4 -8.3205 14.6684 10.0770 45.6798 -6.9288 0.9122
# 5 9.4404 3.6412 23.9362 -6.9288 54.9546 -12.9403
# 6 -25.5465 -13.5160 -10.3867 0.9122 -12.9403 46.0333
#
#
#
# Elastic Compliance Matrix: (Units=1/GPa)
#
#
# Indices 1 2 3 4 5 6 
#
# 1 0.006375 -0.000986 -0.001923 0.001957 0.000758 0.002989
# 2 -0.000986 0.015874 -0.003126 -0.004543 0.000782 0.003718
# 3 -0.001923 -0.003126 0.007350 -0.001418 -0.003120 -0.001175
# 4 0.001957 -0.004543 -0.001418 0.024578 0.003676 -0.000021
# 5 0.000758 0.000782 -0.003120 0.003676 0.021211 0.005836
# 6 0.002989 0.003718 -0.001175 -0.000021 0.005836 0.025850
#
#
# Mechanical properties :
#
#
# Convention : Reuss Voigt Hill
#
# Bulk Modulus (GPa) = 57.04229 79.42243 68.23236
# Shear Modulus (GPa) = 41.96387 50.87689 46.42038
#
# Velocity S-wave (km/s) = 4.14119 4.55982 4.35554
# Velocity P-wave (km/s) = 6.79540 7.75760 7.29239
#
# Compressibility (1/GPa) = 0.01753085
#
# Stress axis : x y z
#
# Youngs Moduli (GPa) = 156.86790 62.99552 136.04781
#
# Poissons Ratio (x) = 0.06211 0.26160
# Poissons Ratio (y) = 0.15465 0.42522
# Poissons Ratio (z) = 0.30163 0.19689
#
# Static dielectric constant tensor:
#      x y z
#    x 4.610080 0.057600 0.208050 
#    y 0.057600 3.997270 0.575650 
#    z 0.208050 0.575650 5.209590 
# 
# 
# High freq. dielectric constant tensor:
#      x y z
#    x 1.992520 -0.009000 0.009320 
#    y -0.009000 1.958180 -0.002750 
#    z 0.009320 -0.002750 2.002770 
# 
# From -- ./inp_files/400216.got.cif
#   From: 2010.06.25/outbox.cif.g09.slc.cpg/sg2_201_cif.got.tgz:400216.got - 2010.06.27 13:26:56.
