data_PCOD8025036
_publ_section_title
;
Structure prediction by ZEFSAII (Michael W. Deem and Ramdas Pophale) SiO2 
 PCOD8025036
Probable space group: P -1
;
_chemical_formula_sum "Si O2"
_cell_formula_units_Z 16
_cell_length_a 18.810495
_cell_length_b 21.358490
_cell_length_c 12.527439
_cell_angle_alpha 139.129237
_cell_angle_beta 28.326542
_cell_angle_gamma 160.187399
_cell_volume 723.901265
_symmetry_space_group_name_H-M "P -1"
_symmetry_group_IT_number 2
_symmetry_cell_setting 'triclinic'
loop_
_space_group_symop_operation_xyz
x,y,z
-x,-y,-z
loop_
_atom_site_type_symbol
_atom_site_label
_atom_site_fract_x
_atom_site_fract_y
_atom_site_fract_z
Si Si1 0.743244 0.934274 0.271671
Si Si2 0.804398 0.736170 0.380823
Si Si3 0.865012 0.184270 0.539252
Si Si4 0.294926 0.919710 0.825786
Si Si5 0.722702 0.266649 0.539885
Si Si6 0.811538 0.450580 0.343500
Si Si7 0.733061 0.041616 0.746172
Si Si8 0.369990 0.653770 0.776107
O O1 0.548507 0.826048 0.280223
O O2 0.510228 0.779469 0.480448
O O3 0.933924 0.143884 0.304449
O O4 0.000000 0.000000 0.000000
O O5 0.500000 0.500000 0.500000
O O6 0.660759 0.762064 0.590507
O O7 0.039155 0.852651 0.319158
O O8 0.987677 0.809512 0.124232
O O9 0.941823 0.171679 0.531125
O O10 0.077863 0.401329 0.531648
O O11 0.481645 0.992439 0.781096
O O12 0.163608 0.756184 0.717790
O O13 0.566291 0.135185 0.683687
O O14 0.000000 0.500000 0.500000
O O15 0.768019 0.476524 0.316620
O O16 0.090032 0.525096 0.064672
O O17 0.493527 0.818069 0.766462
O O18 0.500000 0.000000 0.000000
#
# Coordination Sequence:
#
# PCOD8025036 Si02
#       8
#     2   2   2   2   2   2   2   2
#     4  11  26  44  68 100 134 173 234 294 341 407
#     4  12  27  42  67 110 146 179 234 291 346 418
#     4  11  22  43  72  95 137 185 222 282 346 416
#     4  10  23  44  68 100 139 176 232 290 341 413
#     4  10  23  46  73  93 130 187 233 281 351 408
#     4  11  23  42  70  99 137 187 230 275 353 420
#     4  12  22  44  69 102 142 188 225 277 354 416
#     4  11  25  41  69 103 142 185 235 279 344 420
#
# _framework density 22.102459
#
# number of rings (size 3 to 8) (size 9 to 14) (size 15 to 20)
#    0.000    1.000    3.750    1.875    7.000    0.500 
#    6.750    0.000    0.000    0.000    0.000    0.000 
#    0.000    0.000    0.000    0.000    0.000    0.000 
#
# Total GULP energy -198248.697528 kJ/mol
# GULP energy per Si atom -12390.543596 kJ/mol
# Density = 2.205215 g / cm^3
# Si number density = 22.102459 Si / 1000 Ang^3
#
#
#
# Elastic Constant Matrix: (Units=GPa)
#
#
# Indices 1 2 3 4 5 6 
#
# 1 123.2314 30.5635 57.7894 4.7090 -19.5077 8.9503
# 2 30.5635 131.0744 45.5259 19.6191 1.4994 3.1171
# 3 57.7894 45.5259 148.5486 1.4024 -23.6745 0.3505
# 4 4.7090 19.6191 1.4024 21.8675 -6.9223 1.4841
# 5 -19.5077 1.4994 -23.6745 -6.9223 39.5685 -2.6115
# 6 8.9503 3.1171 0.3505 1.4841 -2.6115 36.3622
#
#
#
# Elastic Compliance Matrix: (Units=1/GPa)
#
#
# Indices 1 2 3 4 5 6 
#
# 1 0.010626 -0.001421 -0.003168 0.000392 0.003318 -0.002241
# 2 -0.001421 0.010859 -0.003488 -0.010801 -0.005120 -0.000474
# 3 -0.003168 -0.003488 0.009842 0.004803 0.005377 0.001174
# 4 0.000392 -0.010801 0.004803 0.059451 0.013834 -0.000650
# 5 0.003318 -0.005120 0.005377 0.013834 0.032829 0.001364
# 6 -0.002241 -0.000474 0.001174 -0.000650 0.001364 0.028206
#
#
# Mechanical properties :
#
#
# Convention : Reuss Voigt Hill
#
# Bulk Modulus (GPa) = 65.90666 74.51244 70.20955
# Shear Modulus (GPa) = 28.89768 37.49135 33.19451
#
# Velocity S-wave (km/s) = 3.61978 4.12303 3.87957
# Velocity P-wave (km/s) = 6.88141 7.51341 7.20434
#
# Compressibility (1/GPa) = 0.01517297
#
# Stress axis : x y z
#
# Youngs Moduli (GPa) = 94.11092 92.09360 101.60551
#
# Poissons Ratio (x) = 0.13083 0.32188
# Poissons Ratio (y) = 0.13370 0.35440
# Poissons Ratio (z) = 0.29814 0.32122
#
# Static dielectric constant tensor:
#      x y z
#    x 4.089220 -0.028290 0.107840 
#    y -0.028290 3.834680 0.188850 
#    z 0.107840 0.188850 3.717740 
# 
# 
# High freq. dielectric constant tensor:
#      x y z
#    x 1.880530 0.003630 -0.002940 
#    y 0.003630 1.881380 0.012650 
#    z -0.002940 0.012650 1.849120 
# 
# From -- ./inp_files/467129.got.cif
#   From: 2010.06.25/outbox.cif.g09.slc.cpg/sg2_234_cif.got.tgz:467129.got - 2010.06.27 13:26:56.
