data_PCOD8025465
_publ_section_title
;
Structure prediction by ZEFSAII (Michael W. Deem and Ramdas Pophale) SiO2 
 PCOD8025465
Probable space group: P -1
;
_chemical_formula_sum "Si O2"
_cell_formula_units_Z 16
_cell_length_a 8.530058
_cell_length_b 6.661479
_cell_length_c 14.242564
_cell_angle_alpha 109.835841
_cell_angle_beta 97.618272
_cell_angle_gamma 75.769913
_cell_volume 736.853135
_symmetry_space_group_name_H-M "P -1"
_symmetry_group_IT_number 2
_symmetry_cell_setting 'triclinic'
loop_
_space_group_symop_operation_xyz
x,y,z
-x,-y,-z
loop_
_atom_site_type_symbol
_atom_site_label
_atom_site_fract_x
_atom_site_fract_y
_atom_site_fract_z
Si Si1 0.086100 0.305702 0.407965
Si Si2 0.160998 0.505904 0.960127
Si Si3 0.897320 0.505552 0.255148
Si Si4 0.423141 0.604100 0.769091
Si Si5 0.872258 0.176148 0.664832
Si Si6 0.579491 0.942877 0.097200
Si Si7 0.374521 0.473194 0.407518
Si Si8 0.660352 0.263493 0.847114
O O1 0.275933 0.303127 0.415027
O O2 0.000000 0.500000 0.500000
O O3 0.013478 0.330507 0.301291
O O4 0.068712 0.070708 0.407843
O O5 0.109104 0.590901 0.864947
O O6 0.276010 0.267332 0.927669
O O7 0.245790 0.679887 0.044956
O O8 0.000000 0.500000 0.000000
O O9 0.714485 0.534752 0.286117
O O10 0.965896 0.727255 0.294874
O O11 0.527682 0.626084 0.690505
O O12 0.537866 0.486490 0.842465
O O13 0.345493 0.852318 0.832332
O O14 0.753013 0.304696 0.596290
O O15 0.781312 0.174054 0.757077
O O16 0.441486 0.912708 0.156530
O O17 0.500000 0.000000 0.000000
O O18 0.500000 0.500000 0.500000
#
# Coordination Sequence:
#
# PCOD8025465 Si02
#       8
#     2   2   2   2   2   2   2   2
#     4  11  25  46  68  98 136 171 218 277 338 407
#     4  12  24  42  63  98 138 178 223 276 329 398
#     4  11  24  42  66  96 135 172 223 273 330 401
#     4  11  23  42  67  95 135 173 226 277 326 397
#     4  10  24  44  69  96 132 177 215 272 345 393
#     4  12  24  40  67  96 130 185 225 273 339 387
#     4  10  23  45  68 101 128 166 223 279 329 402
#     4  11  22  43  65  93 138 174 226 278 323 397
#
# _framework density 21.713961000000001
#
# number of rings (size 3 to 8) (size 9 to 14) (size 15 to 20)
#    0.000    1.000    3.750    2.625    1.750    3.500 
#    2.250    1.875    0.000    0.000    0.000    0.000 
#    0.000    0.000    0.000    0.000    0.000    0.000 
#
# Total GULP energy -198387.991261 kJ/mol
# GULP energy per Si atom -12399.249454 kJ/mol
# Density = 2.166454 g / cm^3
# Si number density = 21.713961 Si / 1000 Ang^3
#
#
#
# Elastic Constant Matrix: (Units=GPa)
#
#
# Indices 1 2 3 4 5 6 
#
# 1 149.8276 37.9716 40.0978 10.7245 8.1812 26.1744
# 2 37.9716 96.4294 51.2397 15.7284 2.0406 14.0276
# 3 40.0978 51.2397 97.6033 -6.0803 26.8729 -1.4905
# 4 10.7245 15.7284 -6.0803 37.1796 -3.2069 0.7359
# 5 8.1812 2.0406 26.8729 -3.2069 39.5056 -4.2669
# 6 26.1744 14.0276 -1.4905 0.7359 -4.2669 35.7673
#
#
#
# Elastic Compliance Matrix: (Units=1/GPa)
#
#
# Indices 1 2 3 4 5 6 
#
# 1 0.009187 0.000085 -0.004089 -0.003230 -0.000130 -0.006876
# 2 0.000085 0.019630 -0.012722 -0.009743 0.006035 -0.007371
# 3 -0.004089 -0.012722 0.022698 0.009059 -0.012416 0.007260
# 4 -0.003230 -0.009743 0.009059 0.033174 -0.001684 0.005679
# 5 -0.000130 0.006035 -0.012416 -0.001684 0.033471 0.001238
# 6 -0.006876 -0.007371 0.007260 0.005679 0.001238 0.036214
#
#
# Mechanical properties :
#
#
# Convention : Reuss Voigt Hill
#
# Bulk Modulus (GPa) = 55.36043 66.94206 61.15124
# Shear Modulus (GPa) = 25.79365 36.79390 31.29378
#
# Velocity S-wave (km/s) = 3.45031 4.12087 3.80041
# Velocity P-wave (km/s) = 6.43611 7.31697 6.89063
#
# Compressibility (1/GPa) = 0.01806344
#
# Stress axis : x y z
#
# Youngs Moduli (GPa) = 108.85483 50.94157 44.05711
#
# Poissons Ratio (x) = -0.00434 0.18016
# Poissons Ratio (y) = -0.00927 0.56048
# Poissons Ratio (z) = 0.44512 0.64806
#
# Static dielectric constant tensor:
#      x y z
#    x 4.185950 0.173900 0.206890 
#    y 0.173900 3.916150 -0.044170 
#    z 0.206890 -0.044170 3.390150 
# 
# 
# High freq. dielectric constant tensor:
#      x y z
#    x 1.867990 0.015930 0.003360 
#    y 0.015930 1.845760 -0.014910 
#    z 0.003360 -0.014910 1.855320 
# 
# From -- ./inp_files/37236.got.cif
#   From: 2010.06.25/outbox.cif.g09.slc.cpg/sg2_19_cif.got.tgz:37236.got - 2010.06.27 13:26:56.
