data_PCOD8025978
_publ_section_title
;
Structure prediction by ZEFSAII (Michael W. Deem and Ramdas Pophale) SiO2 
 PCOD8025978
Probable space group: P -1
;
_chemical_formula_sum "Si O2"
_cell_formula_units_Z 10
_cell_length_a 10.833833
_cell_length_b 8.937115
_cell_length_c 7.670289
_cell_angle_alpha 48.856707
_cell_angle_beta 122.570304
_cell_angle_gamma 125.559526
_cell_volume 440.035089
_symmetry_space_group_name_H-M "P -1"
_symmetry_group_IT_number 2
_symmetry_cell_setting 'triclinic'
loop_
_space_group_symop_operation_xyz
x,y,z
-x,-y,-z
loop_
_atom_site_type_symbol
_atom_site_label
_atom_site_fract_x
_atom_site_fract_y
_atom_site_fract_z
Si Si1 0.523896 0.717156 0.951288
Si Si2 0.739258 0.379538 0.932441
Si Si3 0.253575 0.833105 0.564815
Si Si4 0.817940 0.113866 0.900055
Si Si5 0.900229 0.860135 0.685634
O O1 0.435192 0.851908 0.675112
O O2 0.705426 0.865357 0.988779
O O3 0.500000 0.500000 0.000000
O O4 0.442380 0.660360 0.124951
O O5 0.743209 0.220744 0.905630
O O6 0.828352 0.618105 0.752892
O O7 0.825428 0.334739 0.208755
O O8 0.169597 0.760848 0.369523
O O9 0.240272 0.060542 0.427814
O O10 0.989192 0.119672 0.077885
O O11 0.000000 0.000000 0.500000
#
# Coordination Sequence:
#
# PCOD8025978 Si02
#       5
#     2   2   2   2   2
#     4  10  23  47  69 100 136 175 228 279 331 404
#     4  10  25  44  68  99 140 172 227 272 336 398
#     4  10  25  44  69  97 141 169 230 275 332 399
#     4  12  23  44  74 100 134 182 222 273 347 391
#     4  12  24  46  69 101 140 176 225 280 330 404
#
# _framework density 22.725459000000001
#
# number of rings (size 3 to 8) (size 9 to 14) (size 15 to 20)
#    1.200    0.000    2.000    3.600    0.000    2.400 
#    0.000    3.000    0.000    0.000    0.000    0.000 
#    0.000    0.000    0.000    0.000    0.000    0.000 
#
# Total GULP energy -123920.635634 kJ/mol
# GULP energy per Si atom -12392.063563 kJ/mol
# Density = 2.267373 g / cm^3
# Si number density = 22.725459 Si / 1000 Ang^3
#
#
#
# Elastic Constant Matrix: (Units=GPa)
#
#
# Indices 1 2 3 4 5 6 
#
# 1 60.3744 30.7969 22.7456 -17.4517 3.1969 -24.5297
# 2 30.7969 104.3102 38.5492 -23.4922 5.2611 -13.3495
# 3 22.7456 38.5492 82.5464 -10.1748 -12.6814 -10.0773
# 4 -17.4517 -23.4922 -10.1748 38.3067 -5.7015 -2.7648
# 5 3.1969 5.2611 -12.6814 -5.7015 58.1323 3.5957
# 6 -24.5297 -13.3495 -10.0773 -2.7648 3.5957 41.5504
#
#
#
# Elastic Compliance Matrix: (Units=1/GPa)
#
#
# Indices 1 2 3 4 5 6 
#
# 1 0.029577 -0.002383 -0.003856 0.011881 -0.002122 0.016735
# 2 -0.002383 0.013919 -0.005088 0.006003 -0.001797 0.002386
# 3 -0.003856 -0.005088 0.016160 0.000018 0.004222 -0.000356
# 4 0.011881 0.006003 0.000018 0.036263 0.001670 0.011216
# 5 -0.002122 -0.001797 0.004222 0.001670 0.018709 -0.002314
# 6 0.016735 0.002386 -0.000356 0.011216 -0.002314 0.035574
#
#
# Mechanical properties :
#
#
# Convention : Reuss Voigt Hill
#
# Bulk Modulus (GPa) = 27.02501 47.93494 37.47997
# Shear Modulus (GPa) = 26.99922 37.94052 32.46987
#
# Velocity S-wave (km/s) = 3.45056 4.09040 3.78403
# Velocity P-wave (km/s) = 5.27190 6.59146 5.96826
#
# Compressibility (1/GPa) = 0.03700277
#
# Stress axis : x y z
#
# Youngs Moduli (GPa) = 33.80957 71.84466 61.87957
#
# Poissons Ratio (x) = 0.17121 0.23858
# Poissons Ratio (y) = 0.08057 0.31486
# Poissons Ratio (z) = 0.13036 0.36557
#
# Static dielectric constant tensor:
#      x y z
#    x 4.217640 -0.192950 0.043670 
#    y -0.192950 3.691090 0.035950 
#    z 0.043670 0.035950 4.236110 
# 
# 
# High freq. dielectric constant tensor:
#      x y z
#    x 1.910520 -0.017080 -0.002390 
#    y -0.017080 1.872080 -0.008530 
#    z -0.002390 -0.008530 1.897250 
# 
# From -- ./inp_files/16488.got.cif
#   From: 2010.06.25/outbox.cif.g09.slc.cpg/sg2_9_cif.got.tgz:16488.got - 2010.06.27 13:26:56.
