data_PCOD8025764
_publ_section_title
;
Structure prediction by ZEFSAII (Michael W. Deem and Ramdas Pophale) SiO2 
 PCOD8025764
Probable space group: P -1
;
_chemical_formula_sum "Si O2"
_cell_formula_units_Z 16
_cell_length_a 8.878935
_cell_length_b 11.368024
_cell_length_c 18.083393
_cell_angle_alpha 41.990921
_cell_angle_beta 52.486577
_cell_angle_gamma 83.920539
_cell_volume 733.321797
_symmetry_space_group_name_H-M "P -1"
_symmetry_group_IT_number 2
_symmetry_cell_setting 'triclinic'
loop_
_space_group_symop_operation_xyz
x,y,z
-x,-y,-z
loop_
_atom_site_type_symbol
_atom_site_label
_atom_site_fract_x
_atom_site_fract_y
_atom_site_fract_z
Si Si1 0.892437 0.692039 0.471165
Si Si2 0.599179 0.712250 0.422488
Si Si3 0.735020 0.197187 0.458927
Si Si4 0.022965 0.485171 0.883819
Si Si5 0.382320 0.649549 0.829972
Si Si6 0.165952 0.952149 0.935073
Si Si7 0.133166 0.233241 0.395341
Si Si8 0.615864 0.160284 0.815660
O O1 0.743422 0.714777 0.446037
O O2 0.911833 0.822380 0.477846
O O3 0.742272 0.426966 0.667282
O O4 0.166507 0.826466 0.291781
O O5 0.500000 0.500000 0.500000
O O6 0.369169 0.684161 0.534484
O O7 0.768721 0.943864 0.215277
O O8 0.807765 0.260951 0.321534
O O9 0.991858 0.324502 0.369760
O O10 0.535646 0.921571 0.648436
O O11 0.172023 0.491580 0.904530
O O12 0.762004 0.419256 0.017014
O O13 0.982441 0.317130 0.909638
O O14 0.570542 0.595922 0.794557
O O15 0.402742 0.054546 0.867630
O O16 0.000000 0.000000 0.000000
O O17 0.000000 0.000000 0.500000
O O18 0.500000 0.000000 0.000000
#
# Coordination Sequence:
#
# PCOD8025764 Si02
#       8
#     2   2   2   2   2   2   2   2
#     4  11  25  45  72  99 139 185 227 284 349 406
#     4  12  23  43  69 102 138 181 225 280 345 416
#     4  11  23  43  70  96 136 178 226 278 345 401
#     4  11  24  41  68  99 132 180 223 286 337 406
#     4  10  23  46  66  96 138 173 235 277 338 406
#     4  12  25  43  68 103 140 178 229 284 343 414
#     4  10  24  44  70  99 135 182 233 282 338 405
#     4  11  26  46  70 102 141 178 229 284 347 415
#
# _framework density 21.818524
#
# number of rings (size 3 to 8) (size 9 to 14) (size 15 to 20)
#    0.000    1.000    2.500    3.375    7.000    1.500 
#    0.000    0.000    0.000    0.000    0.000    0.000 
#    0.000    0.000    0.000    0.000    0.000    0.000 
#
# Total GULP energy -198341.232351 kJ/mol
# GULP energy per Si atom -12396.327022 kJ/mol
# Density = 2.176886 g / cm^3
# Si number density = 21.818524 Si / 1000 Ang^3
#
#
#
# Elastic Constant Matrix: (Units=GPa)
#
#
# Indices 1 2 3 4 5 6 
#
# 1 158.6715 72.2724 43.0374 25.3147 -14.9947 -15.9393
# 2 72.2724 128.6855 50.1785 30.1686 -14.7230 0.9805
# 3 43.0374 50.1785 136.5792 30.7555 2.2160 -10.6965
# 4 25.3147 30.1686 30.7555 38.4903 -2.7597 -10.8073
# 5 -14.9947 -14.7230 2.2160 -2.7597 44.2898 10.4211
# 6 -15.9393 0.9805 -10.6965 -10.8073 10.4211 40.6313
#
#
#
# Elastic Compliance Matrix: (Units=1/GPa)
#
#
# Indices 1 2 3 4 5 6 
#
# 1 0.009101 -0.004518 -0.000780 -0.000914 0.000853 0.003012
# 2 -0.004518 0.013350 -0.002444 -0.006818 0.003913 -0.005555
# 3 -0.000780 -0.002444 0.009773 -0.005108 -0.002247 0.001543
# 4 -0.000914 -0.006818 -0.005108 0.038448 -0.002095 0.009225
# 5 0.000853 0.003913 -0.002247 -0.002095 0.025928 -0.007559
# 6 0.003012 -0.005555 0.001543 0.009225 -0.007559 0.030726
#
#
# Mechanical properties :
#
#
# Convention : Reuss Voigt Hill
#
# Bulk Modulus (GPa) = 59.73934 83.87922 71.80928
# Shear Modulus (GPa) = 33.69501 41.91215 37.80358
#
# Velocity S-wave (km/s) = 3.93406 4.38761 4.16701
# Velocity P-wave (km/s) = 6.93364 8.01222 7.49236
#
# Compressibility (1/GPa) = 0.01673939
#
# Stress axis : x y z
#
# Youngs Moduli (GPa) = 109.88016 74.90700 102.32173
#
# Poissons Ratio (x) = 0.33845 0.07980
# Poissons Ratio (y) = 0.49646 0.25009
# Poissons Ratio (z) = 0.08569 0.18308
#
# Static dielectric constant tensor:
#      x y z
#    x 4.417650 -0.334440 -0.036180 
#    y -0.334440 4.092040 0.375600 
#    z -0.036180 0.375600 4.366730 
# 
# 
# High freq. dielectric constant tensor:
#      x y z
#    x 1.868710 0.000210 -0.009460 
#    y 0.000210 1.866970 0.016030 
#    z -0.009460 0.016030 1.862550 
# 
# From -- ./inp_files/519510.got.cif
#   From: 2010.06.25/outbox.cif.g09.slc.cpg/sg2_260_cif.got.tgz:519510.got - 2010.06.27 13:26:56.
