data_PCOD8025605
_publ_section_title
;
Structure prediction by ZEFSAII (Michael W. Deem and Ramdas Pophale) SiO2 
 PCOD8025605
Probable space group: P -1
;
_chemical_formula_sum "Si O2"
_cell_formula_units_Z 14
_cell_length_a 9.414285
_cell_length_b 12.291620
_cell_length_c 8.862012
_cell_angle_alpha 132.453549
_cell_angle_beta 124.036426
_cell_angle_gamma 55.170608
_cell_volume 594.834666
_symmetry_space_group_name_H-M "P -1"
_symmetry_group_IT_number 2
_symmetry_cell_setting 'triclinic'
loop_
_space_group_symop_operation_xyz
x,y,z
-x,-y,-z
loop_
_atom_site_type_symbol
_atom_site_label
_atom_site_fract_x
_atom_site_fract_y
_atom_site_fract_z
Si Si1 0.890310 0.075461 0.653440
Si Si2 0.261793 0.127807 0.408254
Si Si3 0.590487 0.352094 0.583575
Si Si4 0.335883 0.351145 0.186549
Si Si5 0.343186 0.563602 0.849286
Si Si6 0.489724 0.183243 0.839223
Si Si7 0.959979 0.717948 0.859877
O O1 0.711293 0.214408 0.630151
O O2 0.831025 0.948142 0.590879
O O3 0.000000 0.000000 0.500000
O O4 0.014165 0.138688 0.897053
O O5 0.366411 0.229948 0.656903
O O6 0.115730 0.232159 0.305498
O O7 0.409761 0.001183 0.276621
O O8 0.526711 0.290209 0.334209
O O9 0.700325 0.473223 0.731428
O O10 0.394959 0.446375 0.629393
O O11 0.164718 0.355940 0.188381
O O12 0.356728 0.230723 0.948345
O O13 0.147690 0.580256 0.815652
O O14 0.500000 0.500000 0.000000
O O15 0.354623 0.735023 0.977234
#
# Coordination Sequence:
#
# PCOD8025605 Si02
#       7
#     2   2   2   2   2   2   2
#     4  12  26  45  71 103 142 181 230 292 344 414
#     4  11  25  43  69 105 141 187 231 276 354 413
#     4  10  24  48  71  97 141 189 227 281 357 408
#     4  10  25  45  71 106 134 184 236 288 342 410
#     4  11  22  45  70  95 139 185 232 284 345 405
#     4  10  23  45  70  95 144 191 225 280 346 423
#     4  12  26  42  72 108 137 178 239 293 338 409
#
# _framework density 23.535952000000002
#
# number of rings (size 3 to 8) (size 9 to 14) (size 15 to 20)
#    0.000    1.143    2.857    1.286    8.000    4.000 
#    2.571    0.000    0.000    0.000    0.000    0.000 
#    0.000    0.000    0.000    0.000    0.000    0.000 
#
# Total GULP energy -173606.548535 kJ/mol
# GULP energy per Si atom -12400.467753 kJ/mol
# Density = 2.348238 g / cm^3
# Si number density = 23.535952 Si / 1000 Ang^3
#
#
#
# Elastic Constant Matrix: (Units=GPa)
#
#
# Indices 1 2 3 4 5 6 
#
# 1 190.7340 61.0927 44.6435 3.9723 -16.5555 -0.9594
# 2 61.0927 78.7559 24.2262 -16.8215 -16.4873 -12.4220
# 3 44.6435 24.2262 121.5021 -9.0057 -23.8607 -20.1261
# 4 3.9723 -16.8215 -9.0057 30.8836 -1.7837 0.6203
# 5 -16.5555 -16.4873 -23.8607 -1.7837 30.0975 -1.4432
# 6 -0.9594 -12.4220 -20.1261 0.6203 -1.4432 34.0029
#
#
#
# Elastic Compliance Matrix: (Units=1/GPa)
#
#
# Indices 1 2 3 4 5 6 
#
# 1 0.008625 -0.008577 -0.003441 -0.006877 -0.003326 -0.004942
# 2 -0.008577 0.026903 0.004040 0.017545 0.014851 0.012287
# 3 -0.003441 0.004040 0.013028 0.006917 0.011512 0.009452
# 4 -0.006877 0.017545 0.006917 0.045472 0.014491 0.010095
# 5 -0.003326 0.014851 0.011512 0.014491 0.050188 0.014011
# 6 -0.004942 0.012287 0.009452 0.010095 0.014011 0.039764
#
#
# Mechanical properties :
#
#
# Convention : Reuss Voigt Hill
#
# Bulk Modulus (GPa) = 30.67502 72.32409 51.49956
# Shear Modulus (GPa) = 23.71890 36.39879 30.05885
#
# Velocity S-wave (km/s) = 3.17799 3.93685 3.57759
# Velocity P-wave (km/s) = 5.15050 7.17363 6.24454
#
# Compressibility (1/GPa) = 0.03259982
#
# Stress axis : x y z
#
# Youngs Moduli (GPa) = 115.94027 37.17084 76.75692
#
# Poissons Ratio (x) = 0.31882 0.26409
# Poissons Ratio (y) = 0.99443 -0.31006
# Poissons Ratio (z) = 0.39890 -0.15015
#
# Static dielectric constant tensor:
#      x y z
#    x 6.874710 0.276720 -0.660070 
#    y 0.276720 4.028440 -0.024440 
#    z -0.660070 -0.024440 4.957140 
# 
# 
# High freq. dielectric constant tensor:
#      x y z
#    x 1.935980 0.009100 -0.006200 
#    y 0.009100 1.915410 -0.003810 
#    z -0.006200 -0.003810 1.953030 
# 
# From -- ./inp_files/184774.got.cif
#   From: 2010.06.25/outbox.cif.g09.slc.cpg/sg2_93_cif.got.tgz:184774.got - 2010.06.27 13:26:56.
