data_PCOD8025403
_publ_section_title
;
Structure prediction by ZEFSAII (Michael W. Deem and Ramdas Pophale) SiO2 
 PCOD8025403
Probable space group: P -1
;
_chemical_formula_sum "Si O2"
_cell_formula_units_Z 16
_cell_length_a 11.569149
_cell_length_b 11.646476
_cell_length_c 6.875945
_cell_angle_alpha 66.925997
_cell_angle_beta 64.337257
_cell_angle_gamma 67.409472
_cell_volume 742.144174
_symmetry_space_group_name_H-M "P -1"
_symmetry_group_IT_number 2
_symmetry_cell_setting 'triclinic'
loop_
_space_group_symop_operation_xyz
x,y,z
-x,-y,-z
loop_
_atom_site_type_symbol
_atom_site_label
_atom_site_fract_x
_atom_site_fract_y
_atom_site_fract_z
Si Si1 0.090934 0.459681 0.276142
Si Si2 0.517158 0.962367 0.732228
Si Si3 0.450066 0.549969 0.713201
Si Si4 0.721778 0.979361 0.862928
Si Si5 0.037339 0.217619 0.326826
Si Si6 0.079686 0.891502 0.162919
Si Si7 0.395041 0.340402 0.174730
Si Si8 0.160026 0.699275 0.899254
O O1 0.021933 0.368751 0.262990
O O2 0.237102 0.379368 0.287926
O O3 0.000000 0.500000 0.500000
O O4 0.094139 0.581747 0.062078
O O5 0.629866 0.022380 0.709241
O O6 0.552907 0.807793 0.831048
O O7 0.500000 0.000000 0.500000
O O8 0.375942 0.031804 0.883768
O O9 0.500000 0.500000 0.500000
O O10 0.547863 0.629152 0.679703
O O11 0.306632 0.649971 0.741012
O O12 0.446901 0.423843 0.921354
O O13 0.819806 0.841310 0.834339
O O14 0.811799 0.072727 0.799728
O O15 0.023825 0.148504 0.588243
O O16 0.924934 0.203434 0.263871
O O17 0.160910 0.771369 0.055991
O O18 0.000000 0.000000 0.000000
#
# Coordination Sequence:
#
# PCOD8025403 Si02
#       8
#     2   2   2   2   2   2   2   2
#     4  11  23  44  70  98 136 178 223 283 340 395
#     4  11  26  46  70  98 138 184 222 282 337 400
#     4  10  24  43  69  97 130 175 223 276 338 391
#     4  11  26  44  68 104 132 178 235 269 338 411
#     4  12  25  45  72  98 139 174 228 284 339 409
#     4  12  26  44  69 100 140 178 221 282 343 407
#     4  10  23  45  65  97 135 170 225 278 327 405
#     4  11  25  43  70 103 132 181 225 277 345 407
#
# _framework density 21.559152999999998
#
# number of rings (size 3 to 8) (size 9 to 14) (size 15 to 20)
#    0.000    1.000    3.750    1.500    3.500    6.000 
#    0.000    0.000    0.000    0.000    0.000    0.000 
#    0.000    0.000    0.000    0.000    0.000    0.000 
#
# Total GULP energy -198405.721323 kJ/mol
# GULP energy per Si atom -12400.357583 kJ/mol
# Density = 2.151008 g / cm^3
# Si number density = 21.559153 Si / 1000 Ang^3
#
#
#
# Elastic Constant Matrix: (Units=GPa)
#
#
# Indices 1 2 3 4 5 6 
#
# 1 118.9395 39.7101 59.9018 15.3413 4.2850 2.8860
# 2 39.7101 115.8247 58.5620 25.7693 -5.3962 0.3411
# 3 59.9018 58.5620 123.0180 27.4013 11.4079 -10.9489
# 4 15.3413 25.7693 27.4013 44.8756 -2.7218 -2.6200
# 5 4.2850 -5.3962 11.4079 -2.7218 29.1277 7.6408
# 6 2.8860 0.3411 -10.9489 -2.6200 7.6408 46.9973
#
#
#
# Elastic Compliance Matrix: (Units=1/GPa)
#
#
# Indices 1 2 3 4 5 6 
#
# 1 0.011491 -0.001240 -0.005221 -0.000107 0.000646 -0.002024
# 2 -0.001240 0.012779 -0.005363 -0.003473 0.004918 -0.002259
# 3 -0.005221 -0.005363 0.015482 -0.004785 -0.008050 0.005009
# 4 -0.000107 -0.003473 -0.004785 0.027460 0.003859 -0.000179
# 5 0.000646 0.004918 -0.008050 0.003859 0.040859 -0.008378
# 6 -0.002024 -0.002259 0.005009 -0.000179 -0.008378 0.023937
#
#
# Mechanical properties :
#
#
# Convention : Reuss Voigt Hill
#
# Bulk Modulus (GPa) = 62.09713 74.90334 68.50023
# Shear Modulus (GPa) = 31.05099 37.50736 34.27917
#
# Velocity S-wave (km/s) = 3.79921 4.17555 3.99181
# Velocity P-wave (km/s) = 6.93621 7.62007 7.28617
#
# Compressibility (1/GPa) = 0.01610380
#
# Stress axis : x y z
#
# Youngs Moduli (GPa) = 87.02597 78.25317 64.58909
#
# Poissons Ratio (x) = 0.09702 0.33723
# Poissons Ratio (y) = 0.10789 0.34641
# Poissons Ratio (z) = 0.45438 0.41969
#
# Static dielectric constant tensor:
#      x y z
#    x 4.104310 0.146530 -0.001000 
#    y 0.146530 3.788250 0.241590 
#    z -0.001000 0.241590 3.771420 
# 
# 
# High freq. dielectric constant tensor:
#      x y z
#    x 1.860140 0.004140 0.002380 
#    y 0.004140 1.858410 0.019310 
#    z 0.002380 0.019310 1.841890 
# 
# From -- ./inp_files/68975.got.cif
#   From: 2010.06.25/outbox.cif.g09.slc.cpg/sg2_35_cif.got.tgz:68975.got - 2010.06.27 13:26:56.
