data_PCOD8025971
_publ_section_title
;
Structure prediction by ZEFSAII (Michael W. Deem and Ramdas Pophale) SiO2 
 PCOD8025971
Probable space group: P -1
;
_chemical_formula_sum "Si O2"
_cell_formula_units_Z 14
_cell_length_a 6.360192
_cell_length_b 11.608583
_cell_length_c 14.584628
_cell_angle_alpha 133.080949
_cell_angle_beta 130.531641
_cell_angle_gamma 65.906351
_cell_volume 596.543908
_symmetry_space_group_name_H-M "P -1"
_symmetry_group_IT_number 2
_symmetry_cell_setting 'triclinic'
loop_
_space_group_symop_operation_xyz
x,y,z
-x,-y,-z
loop_
_atom_site_type_symbol
_atom_site_label
_atom_site_fract_x
_atom_site_fract_y
_atom_site_fract_z
Si Si1 0.684205 0.034315 0.158592
Si Si2 0.981766 0.362051 0.577670
Si Si3 0.430535 0.160987 0.521486
Si Si4 0.745070 0.701473 0.008714
Si Si5 0.144834 0.693628 0.762651
Si Si6 0.067060 0.581396 0.197761
Si Si7 0.415644 0.187653 0.320763
O O1 0.837450 0.207554 0.275032
O O2 0.500051 0.043330 0.202762
O O3 0.500000 0.000000 0.000000
O O4 0.877936 0.884539 0.142196
O O5 0.144322 0.209024 0.513130
O O6 0.088709 0.508101 0.622543
O O7 0.049911 0.410403 0.728681
O O8 0.652797 0.329533 0.458081
O O9 0.669617 0.297642 0.681146
O O10 0.386647 0.126681 0.383090
O O11 0.500000 0.000000 0.500000
O O12 0.413382 0.717714 0.916639
O O13 0.847687 0.596708 0.896497
O O14 0.817314 0.622271 0.082012
O O15 0.870504 0.751155 0.766891
#
# Coordination Sequence:
#
# PCOD8025971 Si02
#       7
#     2   2   2   2   2   2   2
#     4  10  25  44  68 100 144 178 229 280 339 417
#     4  11  25  45  71 104 137 179 235 287 345 413
#     4  11  26  46  73 103 135 181 235 287 353 406
#     4  10  23  47  68 100 142 183 234 283 340 413
#     4  11  24  45  68 102 139 183 230 277 349 407
#     4  10  24  46  71 100 139 183 230 295 339 404
#     4  11  26  43  72 103 137 186 223 295 342 406
#
# _framework density 23.468513000000002
#
# number of rings (size 3 to 8) (size 9 to 14) (size 15 to 20)
#    0.000    1.429    1.429    1.286   10.000    6.286 
#    0.000    0.000    0.000    0.000    0.000    0.000 
#    0.000    0.000    0.000    0.000    0.000    0.000 
#
# Total GULP energy -173551.086882 kJ/mol
# GULP energy per Si atom -12396.506206 kJ/mol
# Density = 2.341510 g / cm^3
# Si number density = 23.468513 Si / 1000 Ang^3
#
#
#
# Elastic Constant Matrix: (Units=GPa)
#
#
# Indices 1 2 3 4 5 6 
#
# 1 131.7629 74.5089 56.6197 -0.6282 -18.3695 -12.0951
# 2 74.5089 180.8916 56.7307 22.1336 -2.9175 -14.0491
# 3 56.6197 56.7307 80.3456 -14.9018 -25.0711 -9.2283
# 4 -0.6282 22.1336 -14.9018 39.7736 -9.9885 4.2452
# 5 -18.3695 -2.9175 -25.0711 -9.9885 49.0903 1.4034
# 6 -12.0951 -14.0491 -9.2283 4.2452 1.4034 33.7319
#
#
#
# Elastic Compliance Matrix: (Units=1/GPa)
#
#
# Indices 1 2 3 4 5 6 
#
# 1 0.012126 -0.002976 -0.005926 -0.000215 0.001248 0.001462
# 2 -0.002976 0.012136 -0.011544 -0.013742 -0.009168 0.002940
# 3 -0.005926 -0.011544 0.035626 0.024926 0.020396 -0.001172
# 4 -0.000215 -0.013742 0.024926 0.048241 0.021819 -0.005960
# 5 0.001248 -0.009168 0.020396 0.021819 0.035206 -0.002001
# 6 0.001462 0.002940 -0.001172 -0.005960 -0.002001 0.031907
#
#
# Mechanical properties :
#
#
# Convention : Reuss Voigt Hill
#
# Bulk Modulus (GPa) = 52.64216 85.41319 69.02767
# Shear Modulus (GPa) = 22.47515 38.19522 30.33518
#
# Velocity S-wave (km/s) = 3.09799 4.03862 3.59916
# Velocity P-wave (km/s) = 5.93939 7.63027 6.83730
#
# Compressibility (1/GPa) = 0.01899618
#
# Stress axis : x y z
#
# Youngs Moduli (GPa) = 82.46619 82.39719 28.06906
#
# Poissons Ratio (x) = 0.24522 0.16635
# Poissons Ratio (y) = 0.24543 0.32403
# Poissons Ratio (z) = 0.48873 0.95119
#
# Static dielectric constant tensor:
#      x y z
#    x 4.298310 0.163670 0.185450 
#    y 0.163670 4.754720 0.332260 
#    z 0.185450 0.332260 4.466840 
# 
# 
# High freq. dielectric constant tensor:
#      x y z
#    x 1.916400 -0.003960 0.000400 
#    y -0.003960 1.937550 0.002500 
#    z 0.000400 0.002500 1.941000 
# 
# From -- ./inp_files/70025.got.cif
#   From: 2010.06.25/outbox.cif.g09.slc.cpg/sg2_36_cif.got.tgz:70025.got - 2010.06.27 13:26:56.
