data_PCOD8025170
_publ_section_title
;
Structure prediction by ZEFSAII (Michael W. Deem and Ramdas Pophale) SiO2 
 PCOD8025170
Probable space group: P -1
;
_chemical_formula_sum "Si O2"
_cell_formula_units_Z 14
_cell_length_a 18.761680
_cell_length_b 12.060557
_cell_length_c 12.417657
_cell_angle_alpha 142.998537
_cell_angle_beta 26.463398
_cell_angle_gamma 154.413998
_cell_volume 540.184285
_symmetry_space_group_name_H-M "P -1"
_symmetry_group_IT_number 2
_symmetry_cell_setting 'triclinic'
loop_
_space_group_symop_operation_xyz
x,y,z
-x,-y,-z
loop_
_atom_site_type_symbol
_atom_site_label
_atom_site_fract_x
_atom_site_fract_y
_atom_site_fract_z
Si Si1 0.044711 0.935766 0.277216
Si Si2 0.726608 0.373704 0.321491
Si Si3 0.156288 0.699325 0.669700
Si Si4 0.705776 0.224707 0.825238
Si Si5 0.508499 0.162648 0.839920
Si Si6 0.935353 0.051659 0.299953
Si Si7 0.703277 0.787135 0.197468
O O1 0.950781 0.648439 0.184251
O O2 0.929938 0.949510 0.344372
O O3 0.310724 0.142996 0.060294
O O4 0.000000 0.000000 0.500000
O O5 0.775324 0.287199 0.291345
O O6 0.594090 0.128703 0.231692
O O7 0.565650 0.421580 0.602785
O O8 0.891247 0.462316 0.834622
O O9 0.295696 0.669939 0.383550
O O10 0.211755 0.950368 0.760718
O O11 0.611084 0.295545 0.921375
O O12 0.822949 0.158816 0.546199
O O13 0.500000 0.000000 0.000000
O O14 0.793168 0.823509 0.225655
O O15 0.188389 0.272893 0.080102
#
# Coordination Sequence:
#
# PCOD8025170 Si02
#       7
#     2   2   2   2   2   2   2
#     4  12  26  43  64 102 142 178 217 279 345 399
#     4  11  22  43  70  98 132 177 228 274 331 399
#     4  11  22  43  73  98 130 176 230 278 328 398
#     4  12  25  44  66 101 138 174 220 276 341 401
#     4  11  23  44  67  95 130 178 232 266 326 404
#     4  11  23  45  66  97 142 168 228 274 339 398
#     4  10  23  44  70 102 128 178 232 281 329 394
#
# _framework density 25.917082000000001
#
# number of rings (size 3 to 8) (size 9 to 14) (size 15 to 20)
#    0.000    0.857    2.857    6.857    0.000    2.857 
#    7.714    2.857    0.000    0.000    0.000    0.000 
#    0.000    0.000    0.000    0.000    0.000    0.000 
#
# Total GULP energy -173595.154470 kJ/mol
# GULP energy per Si atom -12399.653891 kJ/mol
# Density = 2.585809 g / cm^3
# Si number density = 25.917082 Si / 1000 Ang^3
#
#
#
# Elastic Constant Matrix: (Units=GPa)
#
#
# Indices 1 2 3 4 5 6 
#
# 1 173.0562 16.5235 21.0225 -12.0751 -1.0887 0.9444
# 2 16.5235 42.0737 3.8173 -26.1189 -3.6790 0.2892
# 3 21.0225 3.8173 101.6142 -27.0846 -0.9437 10.6043
# 4 -12.0751 -26.1189 -27.0846 43.7651 8.1154 -4.7271
# 5 -1.0887 -3.6790 -0.9437 8.1154 41.2168 -6.0044
# 6 0.9444 0.2892 10.6043 -4.7271 -6.0044 30.4867
#
#
#
# Elastic Compliance Matrix: (Units=1/GPa)
#
#
# Indices 1 2 3 4 5 6 
#
# 1 0.006159 -0.002809 -0.001415 -0.000844 0.000077 0.000212
# 2 -0.002809 0.041993 0.006494 0.028774 -0.001614 0.001574
# 3 -0.001415 0.006494 0.013340 0.011752 -0.001935 -0.003217
# 4 -0.000844 0.028774 0.011752 0.048464 -0.006449 0.001910
# 5 0.000077 -0.001614 -0.001935 -0.006449 0.026047 0.004816
# 6 0.000212 0.001574 -0.003217 0.001910 0.004816 0.035143
#
#
# Mechanical properties :
#
#
# Convention : Reuss Voigt Hill
#
# Bulk Modulus (GPa) = 15.14446 44.38563 29.76505
# Shear Modulus (GPa) = 26.50874 41.45243 33.98059
#
# Velocity S-wave (km/s) = 3.20164 4.00362 3.62488
# Velocity P-wave (km/s) = 4.41853 6.20767 5.38788
#
# Compressibility (1/GPa) = 0.06603076
#
# Stress axis : x y z
#
# Youngs Moduli (GPa) = 162.36330 23.81372 74.96147
#
# Poissons Ratio (x) = 0.06690 0.10608
# Poissons Ratio (y) = 0.45614 -0.48680
# Poissons Ratio (z) = 0.22977 -0.15465
#
# Static dielectric constant tensor:
#      x y z
#    x 4.776370 0.319800 -0.244400 
#    y 0.319800 4.481330 -0.348150 
#    z -0.244400 -0.348150 5.262650 
# 
# 
# High freq. dielectric constant tensor:
#      x y z
#    x 2.045830 0.013610 -0.010160 
#    y 0.013610 2.019640 -0.013070 
#    z -0.010160 -0.013070 2.056080 
# 
# From -- ./inp_files/465132.got.cif
#   From: 2010.06.25/outbox.cif.g09.slc.cpg/sg2_233_cif.got.tgz:465132.got - 2010.06.27 13:26:56.
