data_PCOD8025794
_publ_section_title
;
Structure prediction by ZEFSAII (Michael W. Deem and Ramdas Pophale) SiO2 
 PCOD8025794
Probable space group: P -1
;
_chemical_formula_sum "Si O2"
_cell_formula_units_Z 16
_cell_length_a 16.285131
_cell_length_b 11.749722
_cell_length_c 13.514477
_cell_angle_alpha 131.367633
_cell_angle_beta 154.677088
_cell_angle_gamma 63.623841
_cell_volume 729.548987
_symmetry_space_group_name_H-M "P -1"
_symmetry_group_IT_number 2
_symmetry_cell_setting 'triclinic'
loop_
_space_group_symop_operation_xyz
x,y,z
-x,-y,-z
loop_
_atom_site_type_symbol
_atom_site_label
_atom_site_fract_x
_atom_site_fract_y
_atom_site_fract_z
Si Si1 0.210143 0.548364 0.689874
Si Si2 0.329529 0.342162 0.433747
Si Si3 0.137379 0.110147 0.804663
Si Si4 0.810552 0.395847 0.517161
Si Si5 0.904568 0.071235 0.717783
Si Si6 0.669899 0.742605 0.401032
Si Si7 0.249754 0.508170 0.150272
Si Si8 0.376564 0.786929 0.604227
O O1 0.197043 0.647438 0.632696
O O2 0.218476 0.374973 0.571288
O O3 0.000000 0.500000 0.500000
O O4 0.426936 0.673630 0.056300
O O5 0.351471 0.523064 0.597807
O O6 0.340451 0.237152 0.480703
O O7 0.525257 0.374948 0.593158
O O8 0.102097 0.243670 0.073623
O O9 0.993385 0.010554 0.685651
O O10 0.184790 0.307929 0.970252
O O11 0.363565 0.105172 0.051060
O O12 0.000000 0.000000 0.500000
O O13 0.714202 0.231089 0.391992
O O14 0.061059 0.524311 0.893721
O O15 0.707477 0.105912 0.490994
O O16 0.824061 0.928713 0.632108
O O17 0.283208 0.592468 0.344804
#
# Coordination Sequence:
#
# PCOD8025794 Si02
#       8
#     2   2   2   2   2   2   2   2
#     4  10  23  46  68  96 130 185 228 272 337 402
#     4  11  22  43  70  98 127 176 231 284 330 392
#     4  12  28  41  65 101 140 181 218 279 344 403
#     4  11  22  37  72  97 127 171 230 276 325 407
#     4  12  25  44  66 100 142 173 224 283 340 402
#     4  10  25  43  68  96 135 177 227 280 336 399
#     4  12  22  43  70  99 135 178 232 276 331 409
#     4  12  24  43  68 102 133 180 224 272 347 401
#
# _framework density 21.931356999999998
#
# number of rings (size 3 to 8) (size 9 to 14) (size 15 to 20)
#    0.000    0.750    5.000    2.625    1.750    4.500 
#    0.000    0.625    0.000    0.000    0.000    0.000 
#    0.000    0.000    0.000    0.000    0.000    0.000 
#
# Total GULP energy -198429.142103 kJ/mol
# GULP energy per Si atom -12401.821381 kJ/mol
# Density = 2.188144 g / cm^3
# Si number density = 21.931357 Si / 1000 Ang^3
#
#
#
# Elastic Constant Matrix: (Units=GPa)
#
#
# Indices 1 2 3 4 5 6 
#
# 1 100.8672 24.6733 28.0147 -15.5352 10.2969 21.2820
# 2 24.6733 75.7907 25.2477 -7.2836 9.0636 22.0498
# 3 28.0147 25.2477 104.0140 -30.8566 10.9187 -3.8788
# 4 -15.5352 -7.2836 -30.8566 39.9469 2.3890 -0.4915
# 5 10.2969 9.0636 10.9187 2.3890 41.0932 -6.3526
# 6 21.2820 22.0498 -3.8788 -0.4915 -6.3526 33.0295
#
#
#
# Elastic Compliance Matrix: (Units=1/GPa)
#
#
# Indices 1 2 3 4 5 6 
#
# 1 0.013727 0.000232 -0.002610 0.003514 -0.004568 -0.010133
# 2 0.000232 0.019723 -0.004798 0.000122 -0.005448 -0.014926
# 3 -0.002610 -0.004798 0.014794 0.009724 -0.001791 0.006422
# 4 0.003514 0.000122 0.009724 0.034255 -0.005761 -0.001802
# 5 -0.004568 -0.005448 -0.001791 -0.005761 0.029336 0.011927
# 6 -0.010133 -0.014926 0.006422 -0.001802 0.011927 0.049790
#
#
# Mechanical properties :
#
#
# Convention : Reuss Voigt Hill
#
# Bulk Modulus (GPa) = 29.50499 48.50480 39.00490
# Shear Modulus (GPa) = 26.69885 36.32968 31.51426
#
# Velocity S-wave (km/s) = 3.49289 4.07445 3.79482
# Velocity P-wave (km/s) = 5.45431 6.65579 6.08478
#
# Compressibility (1/GPa) = 0.03389257
#
# Stress axis : x y z
#
# Youngs Moduli (GPa) = 72.84662 50.70337 67.59580
#
# Poissons Ratio (x) = -0.01179 0.17640
# Poissons Ratio (y) = -0.01693 0.32435
# Poissons Ratio (z) = 0.19011 0.24330
#
# Static dielectric constant tensor:
#      x y z
#    x 4.200700 0.137210 0.057240 
#    y 0.137210 3.842830 -0.316930 
#    z 0.057240 -0.316930 4.003860 
# 
# 
# High freq. dielectric constant tensor:
#      x y z
#    x 1.873430 0.011430 0.006840 
#    y 0.011430 1.851430 -0.022960 
#    z 0.006840 -0.022960 1.869500 
# 
# From -- ./inp_files/428652.got.cif
#   From: 2010.06.25/outbox.cif.g09.slc.cpg/sg2_215_cif.got.tgz:428652.got - 2010.06.27 13:26:56.
