data_PCOD8025338
_publ_section_title
;
Structure prediction by ZEFSAII (Michael W. Deem and Ramdas Pophale) SiO2 
 PCOD8025338
Probable space group: P -1
;
_chemical_formula_sum "Si O2"
_cell_formula_units_Z 16
_cell_length_a 15.234702
_cell_length_b 8.704642
_cell_length_c 8.044397
_cell_angle_alpha 87.615845
_cell_angle_beta 86.811719
_cell_angle_gamma 141.543553
_cell_volume 656.171796
_symmetry_space_group_name_H-M "P -1"
_symmetry_group_IT_number 2
_symmetry_cell_setting 'triclinic'
loop_
_space_group_symop_operation_xyz
x,y,z
-x,-y,-z
loop_
_atom_site_type_symbol
_atom_site_label
_atom_site_fract_x
_atom_site_fract_y
_atom_site_fract_z
Si Si1 0.138265 0.530489 0.373390
Si Si2 0.463051 0.770998 0.033364
Si Si3 0.765279 0.653601 0.699346
Si Si4 0.933563 0.082441 0.903649
Si Si5 0.834258 0.235033 0.324612
Si Si6 0.664984 0.715583 0.444054
Si Si7 0.222691 0.830593 0.042540
Si Si8 0.218130 0.326823 0.834245
O O1 0.150895 0.364910 0.406994
O O2 0.199947 0.685445 0.532923
O O3 0.221114 0.691361 0.185812
O O4 0.976227 0.348053 0.364804
O O5 0.389632 0.630097 0.223099
O O6 0.352807 0.562379 0.917614
O O7 0.500000 0.000000 0.000000
O O8 0.613644 0.886603 0.002253
O O9 0.862765 0.837369 0.833383
O O10 0.744937 0.789106 0.604371
O O11 0.876670 0.173822 0.863204
O O12 0.875217 0.956952 0.098437
O O13 0.103910 0.311382 0.841147
O O14 0.710314 0.938355 0.349996
O O15 0.839116 0.304511 0.128213
O O16 0.500000 0.500000 0.500000
O O17 0.705570 0.615826 0.345519
#
# Coordination Sequence:
#
# PCOD8025338 Si02
#       8
#     2   2   2   2   2   2   2   2
#     4  11  26  46  72 107 147 193 238 310 362 447
#     4  11  25  44  67 104 146 185 235 298 365 443
#     4  11  25  44  72 103 147 185 244 297 377 426
#     4  10  23  44  74 103 135 191 247 303 347 434
#     4  11  26  47  71 108 148 187 253 297 371 430
#     4  12  26  45  72 104 146 192 241 307 364 442
#     4  12  24  45  77 107 146 194 244 301 370 437
#     4  10  24  43  70 101 141 184 247 296 361 427
#
# _framework density 24.383856000000002
#
# number of rings (size 3 to 8) (size 9 to 14) (size 15 to 20)
#    0.000    1.000    2.500    2.625    7.000    7.000 
#    0.000    1.875    0.000    0.000    0.000    0.000 
#    0.000    0.000    0.000    0.000    0.000    0.000 
#
# Total GULP energy -198244.810610 kJ/mol
# GULP energy per Si atom -12390.300663 kJ/mol
# Density = 2.432836 g / cm^3
# Si number density = 24.383856 Si / 1000 Ang^3
#
#
#
# Elastic Constant Matrix: (Units=GPa)
#
#
# Indices 1 2 3 4 5 6 
#
# 1 115.6535 24.8289 29.1165 12.0731 -16.2938 16.5481
# 2 24.8289 84.8412 26.4566 13.8950 -12.2113 15.6341
# 3 29.1165 26.4566 109.0352 12.4655 -11.2087 -0.6643
# 4 12.0731 13.8950 12.4655 30.0171 -1.3548 -1.4658
# 5 -16.2938 -12.2113 -11.2087 -1.3548 34.2282 -9.1867
# 6 16.5481 15.6341 -0.6643 -1.4658 -9.1867 43.8799
#
#
#
# Elastic Compliance Matrix: (Units=1/GPa)
#
#
# Indices 1 2 3 4 5 6 
#
# 1 0.010535 -0.000972 -0.001937 -0.002996 0.003080 -0.003111
# 2 -0.000972 0.015005 -0.002499 -0.005628 0.002598 -0.004662
# 3 -0.001937 -0.002499 0.010804 -0.002345 0.002214 0.002170
# 4 -0.002996 -0.005628 -0.002345 0.038223 -0.001604 0.004040
# 5 0.003080 0.002598 0.002214 -0.001604 0.033592 0.004925
# 6 -0.003111 -0.004662 0.002170 0.004040 0.004925 0.026823
#
#
# Mechanical properties :
#
#
# Convention : Reuss Voigt Hill
#
# Bulk Modulus (GPa) = 39.17355 52.25932 45.71644
# Shear Modulus (GPa) = 32.40290 36.90022 34.65156
#
# Velocity S-wave (km/s) = 3.64932 3.89434 3.77382
# Velocity P-wave (km/s) = 5.81867 6.45753 6.14641
#
# Compressibility (1/GPa) = 0.02552743
#
# Stress axis : x y z
#
# Youngs Moduli (GPa) = 94.92470 66.64390 92.55873
#
# Poissons Ratio (x) = 0.06475 0.17931
# Poissons Ratio (y) = 0.09223 0.23134
# Poissons Ratio (z) = 0.18389 0.16657
#
# Static dielectric constant tensor:
#      x y z
#    x 4.348300 0.175050 -0.134120 
#    y 0.175050 4.357950 -0.167160 
#    z -0.134120 -0.167160 4.718520 
# 
# 
# High freq. dielectric constant tensor:
#      x y z
#    x 1.972570 0.004930 -0.006400 
#    y 0.004930 1.967660 -0.004440 
#    z -0.006400 -0.004440 1.972930 
# 
# From -- ./inp_files/298542.got.cif
#   From: 2010.06.25/outbox.cif.g09.slc.cpg/sg2_150_cif.got.tgz:298542.got - 2010.06.27 13:26:56.
