data_PCOD8025833
_publ_section_title
;
Structure prediction by ZEFSAII (Michael W. Deem and Ramdas Pophale) SiO2 
 PCOD8025833
Probable space group: P -1
;
_chemical_formula_sum "Si O2"
_cell_formula_units_Z 16
_cell_length_a 7.259340
_cell_length_b 14.451879
_cell_length_c 22.772510
_cell_angle_alpha 161.518539
_cell_angle_beta 100.559519
_cell_angle_gamma 77.863654
_cell_volume 739.404922
_symmetry_space_group_name_H-M "P -1"
_symmetry_group_IT_number 2
_symmetry_cell_setting 'triclinic'
loop_
_space_group_symop_operation_xyz
x,y,z
-x,-y,-z
loop_
_atom_site_type_symbol
_atom_site_label
_atom_site_fract_x
_atom_site_fract_y
_atom_site_fract_z
Si Si1 0.909239 0.962397 0.327372
Si Si2 0.064134 0.852809 0.776209
Si Si3 0.536194 0.795576 0.147076
Si Si4 0.233433 0.916575 0.003029
Si Si5 0.935252 0.297505 0.709288
Si Si6 0.937282 0.563970 0.753547
Si Si7 0.383345 0.270394 0.023961
Si Si8 0.154785 0.172544 0.371320
O O1 0.885947 0.264591 0.543697
O O2 0.079716 0.974513 0.299497
O O3 0.723284 0.912219 0.252279
O O4 0.956974 0.700942 0.220887
O O5 0.136485 0.515035 0.593079
O O6 0.965115 0.879107 0.723569
O O7 0.243416 0.033112 0.889627
O O8 0.906188 0.964512 0.881226
O O9 0.551970 0.745785 0.048944
O O10 0.372668 0.058058 0.306669
O O11 0.500000 0.500000 0.000000
O O12 0.436782 0.784164 0.956395
O O13 0.240997 0.194264 0.126567
O O14 0.136266 0.676079 0.813003
O O15 0.977624 0.549064 0.817577
O O16 0.712509 0.391530 0.766916
O O17 0.000000 0.000000 0.500000
#
# Coordination Sequence:
#
# PCOD8025833 Si02
#       8
#     2   2   2   2   2   2   2   2
#     4  11  24  46  68  97 147 180 225 285 338 400
#     4  11  23  42  72 100 143 181 217 291 349 409
#     4  12  28  42  71 107 136 184 233 277 340 423
#     4  11  23  44  72 101 137 176 238 278 345 412
#     4  10  24  46  67  94 134 184 230 275 333 393
#     4  10  23  46  69  98 137 185 225 290 332 401
#     4  12  25  43  75 101 136 180 225 291 347 406
#     4  11  24  43  68 106 142 178 225 278 356 409
#
# _framework density 21.639023000000002
#
# number of rings (size 3 to 8) (size 9 to 14) (size 15 to 20)
#    0.000    1.000    5.000    0.750    5.250    2.000 
#    4.500    1.250    0.000    0.000    0.000    0.000 
#    0.000    0.000    0.000    0.000    0.000    0.000 
#
# Total GULP energy -198209.848663 kJ/mol
# GULP energy per Si atom -12388.115541 kJ/mol
# Density = 2.158977 g / cm^3
# Si number density = 21.639023 Si / 1000 Ang^3
#
#
#
# Elastic Constant Matrix: (Units=GPa)
#
#
# Indices 1 2 3 4 5 6 
#
# 1 111.3500 37.9069 40.4918 6.9000 -20.8491 -18.2309
# 2 37.9069 125.4497 32.7266 10.4923 -7.1171 -14.9424
# 3 40.4918 32.7266 83.5388 10.3597 -8.4975 -10.3136
# 4 6.9000 10.4923 10.3597 22.6920 -4.8007 0.4986
# 5 -20.8491 -7.1171 -8.4975 -4.8007 36.4741 3.6417
# 6 -18.2309 -14.9424 -10.3136 0.4986 3.6417 46.6339
#
#
#
# Elastic Compliance Matrix: (Units=1/GPa)
#
#
# Indices 1 2 3 4 5 6 
#
# 1 0.012839 -0.002054 -0.004514 0.000233 0.005625 0.002921
# 2 -0.002054 0.009614 -0.002218 -0.002930 -0.000385 0.001848
# 3 -0.004514 -0.002218 0.015750 -0.004834 -0.000087 0.001066
# 4 0.000233 -0.002930 -0.004834 0.048707 0.005129 -0.002838
# 5 0.005625 -0.000385 -0.000087 0.005129 0.031256 -0.000439
# 6 0.002921 0.001848 0.001066 -0.002838 -0.000439 0.023478
#
#
# Mechanical properties :
#
#
# Convention : Reuss Voigt Hill
#
# Bulk Modulus (GPa) = 48.47555 60.28768 54.38161
# Shear Modulus (GPa) = 30.10355 35.10752 32.60553
#
# Velocity S-wave (km/s) = 3.73388 4.03229 3.88595
# Velocity P-wave (km/s) = 6.40623 7.04275 6.73201
#
# Compressibility (1/GPa) = 0.02062896
#
# Stress axis : x y z
#
# Youngs Moduli (GPa) = 77.88984 104.01385 63.49252
#
# Poissons Ratio (x) = 0.21367 0.28663
# Poissons Ratio (y) = 0.16000 0.14085
# Poissons Ratio (z) = 0.35162 0.23073
#
# Static dielectric constant tensor:
#      x y z
#    x 3.827860 0.106860 -0.134960 
#    y 0.106860 4.701780 0.161050 
#    z -0.134960 0.161050 4.100640 
# 
# 
# High freq. dielectric constant tensor:
#      x y z
#    x 1.834600 0.002880 -0.010080 
#    y 0.002880 1.886690 0.003790 
#    z -0.010080 0.003790 1.853690 
# 
# From -- ./inp_files/364610.got.cif
#   From: 2010.06.25/outbox.cif.g09.slc.cpg/sg2_183_cif.got.tgz:364610.got - 2010.06.27 13:26:56.
