data_PCOD8025535
_publ_section_title
;
Structure prediction by ZEFSAII (Michael W. Deem and Ramdas Pophale) SiO2 
 PCOD8025535
Probable space group: P -1
;
_chemical_formula_sum "Si O2"
_cell_formula_units_Z 16
_cell_length_a 6.557246
_cell_length_b 15.716137
_cell_length_c 14.272995
_cell_angle_alpha 142.944047
_cell_angle_beta 69.528571
_cell_angle_gamma 125.635848
_cell_volume 700.150750
_symmetry_space_group_name_H-M "P -1"
_symmetry_group_IT_number 2
_symmetry_cell_setting 'triclinic'
loop_
_space_group_symop_operation_xyz
x,y,z
-x,-y,-z
loop_
_atom_site_type_symbol
_atom_site_label
_atom_site_fract_x
_atom_site_fract_y
_atom_site_fract_z
Si Si1 0.973158 0.206322 0.857844
Si Si2 0.121559 0.781210 0.327387
Si Si3 0.705886 0.721116 0.845306
Si Si4 0.871323 0.448259 0.185029
Si Si5 0.685474 0.928573 0.317601
Si Si6 0.848490 0.460617 0.584819
Si Si7 0.600521 0.081087 0.285745
Si Si8 0.247699 0.983162 0.987253
O O1 0.003416 0.239062 0.771035
O O2 0.200862 0.181064 0.829966
O O3 0.703287 0.045855 0.793999
O O4 0.021718 0.373175 0.045538
O O5 0.398601 0.802530 0.291337
O O6 0.944872 0.621138 0.278787
O O7 0.143922 0.942170 0.513890
O O8 0.437355 0.678568 0.897829
O O9 0.681961 0.546585 0.676722
O O10 0.984829 0.841486 0.959844
O O11 0.735095 0.839601 0.855731
O O12 0.945526 0.470518 0.302414
O O13 0.689460 0.036001 0.325254
O O14 0.645676 0.263425 0.453670
O O15 0.000000 0.500000 0.500000
O O16 0.770486 0.077930 0.170999
O O17 0.500000 0.000000 0.000000
#
# Coordination Sequence:
#
# PCOD8025535 Si02
#       8
#     2   2   2   2   2   2   2   2
#     4  11  25  42  75 102 136 183 238 284 355 418
#     4  10  23  45  69 104 143 174 238 286 352 423
#     4  11  26  43  71  99 138 184 234 285 352 401
#     4  12  26  46  69 107 143 180 234 299 344 415
#     4  10  23  45  71 103 138 186 226 291 351 420
#     4  12  27  46  65 101 144 188 235 286 346 415
#     4  11  24  44  67 102 138 181 238 278 350 422
#     4  11  24  48  70 101 139 186 234 290 340 421
#
# _framework density 22.852222999999999
#
# number of rings (size 3 to 8) (size 9 to 14) (size 15 to 20)
#    0.000    1.000    3.750    1.500    3.500    3.000 
#    0.000    0.000    0.000    0.000    0.000    0.000 
#    0.000    0.000    0.000    0.000    0.000    0.000 
#
# Total GULP energy -198332.711007 kJ/mol
# GULP energy per Si atom -12395.794438 kJ/mol
# Density = 2.280021 g / cm^3
# Si number density = 22.852223 Si / 1000 Ang^3
#
#
#
# Elastic Constant Matrix: (Units=GPa)
#
#
# Indices 1 2 3 4 5 6 
#
# 1 102.8953 28.3847 31.7346 11.9786 -19.0823 6.0192
# 2 28.3847 93.5653 25.8385 10.4275 0.7440 0.8872
# 3 31.7346 25.8385 69.6168 3.8245 -11.9360 -9.8835
# 4 11.9786 10.4275 3.8245 37.8959 -5.7199 -6.4144
# 5 -19.0823 0.7440 -11.9360 -5.7199 43.9629 0.3000
# 6 6.0192 0.8872 -9.8835 -6.4144 0.3000 24.1388
#
#
#
# Elastic Compliance Matrix: (Units=1/GPa)
#
#
# Indices 1 2 3 4 5 6 
#
# 1 0.013534 -0.002181 -0.005397 -0.003630 0.004018 -0.006519
# 2 -0.002181 0.013009 -0.004505 -0.003302 -0.002802 -0.002622
# 3 -0.005397 -0.004505 0.020462 0.003242 0.003638 0.010706
# 4 -0.003630 -0.003302 0.003242 0.030363 0.003240 0.010382
# 5 0.004018 -0.002802 0.003638 0.003240 0.025940 0.001129
# 6 -0.006519 -0.002622 0.010706 0.010382 0.001129 0.050277
#
#
# Mechanical properties :
#
#
# Convention : Reuss Voigt Hill
#
# Bulk Modulus (GPa) = 43.78578 48.66586 46.22582
# Shear Modulus (GPa) = 26.97400 33.20751 30.09075
#
# Velocity S-wave (km/s) = 3.43937 3.81614 3.63265
# Velocity P-wave (km/s) = 5.91391 6.38431 6.15361
#
# Compressibility (1/GPa) = 0.02283846
#
# Stress axis : x y z
#
# Youngs Moduli (GPa) = 73.88831 76.87228 48.87056
#
# Poissons Ratio (x) = 0.16765 0.26376
# Poissons Ratio (y) = 0.16114 0.22017
# Poissons Ratio (z) = 0.39878 0.34632
#
# Static dielectric constant tensor:
#      x y z
#    x 4.188920 0.117770 -0.097630 
#    y 0.117770 4.528640 0.052860 
#    z -0.097630 0.052860 4.436180 
# 
# 
# High freq. dielectric constant tensor:
#      x y z
#    x 1.904110 -0.002910 -0.012580 
#    y -0.002910 1.909350 0.009450 
#    z -0.012580 0.009450 1.899820 
# 
# From -- ./inp_files/484458.got.cif
#   From: 2010.06.25/outbox.cif.g09.slc.cpg/sg2_243_cif.got.tgz:484458.got - 2010.06.27 13:26:56.
