data_PCOD8025649
_publ_section_title
;
Structure prediction by ZEFSAII (Michael W. Deem and Ramdas Pophale) SiO2 
 PCOD8025649
Probable space group: P -1
;
_chemical_formula_sum "Si O2"
_cell_formula_units_Z 16
_cell_length_a 9.351435
_cell_length_b 11.309072
_cell_length_c 9.063316
_cell_angle_alpha 81.291098
_cell_angle_beta 130.971091
_cell_angle_gamma 97.849020
_cell_volume 714.469450
_symmetry_space_group_name_H-M "P -1"
_symmetry_group_IT_number 2
_symmetry_cell_setting 'triclinic'
loop_
_space_group_symop_operation_xyz
x,y,z
-x,-y,-z
loop_
_atom_site_type_symbol
_atom_site_label
_atom_site_fract_x
_atom_site_fract_y
_atom_site_fract_z
Si Si1 0.481842 0.060910 0.320487
Si Si2 0.131134 0.885586 0.606472
Si Si3 0.386386 0.905406 0.037423
Si Si4 0.309898 0.290859 0.265453
Si Si5 0.908271 0.379833 0.384941
Si Si6 0.508226 0.314920 0.706260
Si Si7 0.537248 0.462094 0.197133
Si Si8 0.071683 0.618438 0.945635
O O1 0.690829 0.084489 0.386060
O O2 0.364775 0.178579 0.228796
O O3 0.500000 0.000000 0.500000
O O4 0.341648 0.971856 0.147050
O O5 0.019183 0.756493 0.511569
O O6 0.201439 0.859783 0.827644
O O7 0.000000 0.000000 0.500000
O O8 0.528593 0.801051 0.193463
O O9 0.500000 0.000000 0.000000
O O10 0.438385 0.298099 0.496747
O O11 0.353183 0.406206 0.167794
O O12 0.089085 0.284169 0.160685
O O13 0.699227 0.367012 0.318957
O O14 0.897193 0.409263 0.199595
O O15 0.000000 0.500000 0.500000
O O16 0.394851 0.420564 0.684386
O O17 0.736163 0.334140 0.854704
O O18 0.500000 0.500000 0.000000
O O19 0.000000 0.500000 0.000000
#
# Coordination Sequence:
#
# PCOD8025649 Si02
#       8
#     2   2   2   2   2   2   2   2
#     4  11  24  45  72 102 132 185 244 292 357 435
#     4  11  25  48  71 102 145 187 239 297 363 433
#     4  10  23  45  71  97 139 188 239 290 359 430
#     4  12  26  46  71 102 147 185 234 298 364 426
#     4  12  26  44  70 105 143 184 245 300 353 432
#     4  12  24  45  74 100 146 190 233 298 369 423
#     4  12  23  45  71  99 138 188 235 296 357 423
#     4  12  26  45  67 105 143 186 237 289 366 439
#
# _framework density 22.39424
#
# number of rings (size 3 to 8) (size 9 to 14) (size 15 to 20)
#    0.000    0.500    6.250    1.125    5.250    2.000 
#    4.500    1.250    0.000    0.000    0.000    0.000 
#    0.000    0.000    0.000    0.000    0.000    0.000 
#
# Total GULP energy -198253.386388 kJ/mol
# GULP energy per Si atom -12390.836649 kJ/mol
# Density = 2.234327 g / cm^3
# Si number density = 22.394240 Si / 1000 Ang^3
#
#
#
# Elastic Constant Matrix: (Units=GPa)
#
#
# Indices 1 2 3 4 5 6 
#
# 1 121.3749 39.4680 38.1059 -6.5209 2.8642 -17.9934
# 2 39.4680 152.8380 30.5164 -7.3247 -6.9941 -19.0774
# 3 38.1059 30.5164 97.4771 -6.6230 -10.4224 -5.3173
# 4 -6.5209 -7.3247 -6.6230 35.3349 -0.6234 -1.3012
# 5 2.8642 -6.9941 -10.4224 -0.6234 37.9876 -8.8209
# 6 -17.9934 -19.0774 -5.3173 -1.3012 -8.8209 46.4366
#
#
#
# Elastic Compliance Matrix: (Units=1/GPa)
#
#
# Indices 1 2 3 4 5 6 
#
# 1 0.010352 -0.001662 -0.003461 0.000992 -0.001394 0.002695
# 2 -0.001662 0.007725 -0.001342 0.001177 0.001839 0.002758
# 3 -0.003461 -0.001342 0.012526 0.001503 0.003535 0.000256
# 4 0.000992 0.001177 0.001503 0.029115 0.001530 0.002147
# 5 -0.001394 0.001839 0.003535 0.001530 0.029205 0.006211
# 6 0.002695 0.002758 0.000256 0.002147 0.006211 0.024981
#
#
# Mechanical properties :
#
#
# Convention : Reuss Voigt Hill
#
# Bulk Modulus (GPa) = 56.58310 65.31895 60.95103
# Shear Modulus (GPa) = 37.67209 41.52515 39.59862
#
# Velocity S-wave (km/s) = 4.10594 4.31080 4.20962
# Velocity P-wave (km/s) = 6.91375 7.34904 7.13472
#
# Compressibility (1/GPa) = 0.01767312
#
# Stress axis : x y z
#
# Youngs Moduli (GPa) = 96.60269 129.45334 79.83545
#
# Poissons Ratio (x) = 0.21515 0.27631
# Poissons Ratio (y) = 0.16055 0.10710
# Poissons Ratio (z) = 0.33435 0.17367
#
# Static dielectric constant tensor:
#      x y z
#    x 4.457140 -0.209240 0.144430 
#    y -0.209240 4.649440 0.043720 
#    z 0.144430 0.043720 3.835670 
# 
# 
# High freq. dielectric constant tensor:
#      x y z
#    x 1.886980 -0.006090 -0.014370 
#    y -0.006090 1.907130 -0.008170 
#    z -0.014370 -0.008170 1.872070 
# 
# From -- ./inp_files/187085.got.cif
#   From: 2010.06.25/outbox.cif.g09.slc.cpg/sg2_94_cif.got.tgz:187085.got - 2010.06.27 13:26:56.
