data_PCOD8025082
_publ_section_title
;
Structure prediction by ZEFSAII (Michael W. Deem and Ramdas Pophale) SiO2 
 PCOD8025082
Probable space group: P -1
;
_chemical_formula_sum "Si O2"
_cell_formula_units_Z 14
_cell_length_a 14.536580
_cell_length_b 14.747174
_cell_length_c 6.767293
_cell_angle_alpha 104.574555
_cell_angle_beta 68.781760
_cell_angle_gamma 150.952089
_cell_volume 649.881194
_symmetry_space_group_name_H-M "P -1"
_symmetry_group_IT_number 2
_symmetry_cell_setting 'triclinic'
loop_
_space_group_symop_operation_xyz
x,y,z
-x,-y,-z
loop_
_atom_site_type_symbol
_atom_site_label
_atom_site_fract_x
_atom_site_fract_y
_atom_site_fract_z
Si Si1 0.549659 0.949118 0.313068
Si Si2 0.221470 0.489733 0.900264
Si Si3 0.397069 0.125332 0.400575
Si Si4 0.577720 0.530737 0.166909
Si Si5 0.779845 0.820848 0.478389
Si Si6 0.160912 0.799380 0.124592
Si Si7 0.864039 0.407288 0.743930
O O1 0.592514 0.896367 0.392227
O O2 0.365938 0.771756 0.224348
O O3 0.500000 0.000000 0.500000
O O4 0.736182 0.121569 0.124536
O O5 0.384634 0.676374 0.744320
O O6 0.316704 0.483244 0.945561
O O7 0.043981 0.308647 0.793177
O O8 0.095635 0.457802 0.118666
O O9 0.261708 0.104780 0.481377
O O10 0.302070 0.962073 0.264710
O O11 0.741591 0.735786 0.251474
O O12 0.376423 0.357133 0.353020
O O13 0.500000 0.500000 0.000000
O O14 0.000000 0.000000 0.500000
O O15 0.102986 0.647280 0.153634
O O16 0.000000 0.500000 0.500000
#
# Coordination Sequence:
#
# PCOD8025082 Si02
#       7
#     2   2   2   2   2   2   2
#     4  12  23  40  64  94 130 170 214 265 318 382
#     4  11  24  43  65  94 133 172 214 265 325 384
#     4  11  24  42  67  95 131 173 211 266 326 384
#     4  10  24  44  67  98 134 170 219 276 326 388
#     4  10  23  44  68  98 131 170 221 271 328 393
#     4  12  24  43  64  95 133 167 218 267 316 388
#     4  12  24  42  65  94 131 174 215 262 323 385
#
# _framework density 21.542400000000001
#
# number of rings (size 3 to 8) (size 9 to 14) (size 15 to 20)
#    0.000    0.857    2.857    4.286    2.000    1.714 
#    2.571    0.000    0.000    0.000    0.000    0.000 
#    0.000    0.000    0.000    0.000    0.000    0.000 
#
# Total GULP energy -173573.534232 kJ/mol
# GULP energy per Si atom -12398.109588 kJ/mol
# Density = 2.149337 g / cm^3
# Si number density = 21.542400 Si / 1000 Ang^3
#
#
#
# Elastic Constant Matrix: (Units=GPa)
#
#
# Indices 1 2 3 4 5 6 
#
# 1 135.3346 48.4252 64.2005 -10.2248 15.9662 13.8772
# 2 48.4252 109.6394 30.2983 -0.1111 0.3726 22.9633
# 3 64.2005 30.2983 101.8100 -6.2655 9.3091 -3.5553
# 4 -10.2248 -0.1111 -6.2655 30.8986 1.1736 -1.1795
# 5 15.9662 0.3726 9.3091 1.1736 39.2760 3.9240
# 6 13.8772 22.9633 -3.5553 -1.1795 3.9240 44.4643
#
#
#
# Elastic Compliance Matrix: (Units=1/GPa)
#
#
# Indices 1 2 3 4 5 6 
#
# 1 0.012480 -0.003193 -0.006524 0.002831 -0.003342 -0.002398
# 2 -0.003193 0.012340 -0.002183 -0.001765 0.002331 -0.005804
# 3 -0.006524 -0.002183 0.014933 0.001085 -0.001349 0.004505
# 4 0.002831 -0.001765 0.001085 0.033657 -0.002520 0.001230
# 5 -0.003342 0.002331 -0.001349 -0.002520 0.027468 -0.002760
# 6 -0.002398 -0.005804 0.004505 0.001230 -0.002760 0.026872
#
#
# Mechanical properties :
#
#
# Convention : Reuss Voigt Hill
#
# Bulk Modulus (GPa) = 62.68154 70.29246 66.48700
# Shear Modulus (GPa) = 31.87373 36.51846 34.19610
#
# Velocity S-wave (km/s) = 3.85071 4.12174 3.98852
# Velocity P-wave (km/s) = 6.99504 7.43991 7.22090
#
# Compressibility (1/GPa) = 0.01595366
#
# Stress axis : x y z
#
# Youngs Moduli (GPa) = 80.12572 81.03528 66.96487
#
# Poissons Ratio (x) = 0.25876 0.43686
# Poissons Ratio (y) = 0.25585 0.14621
# Poissons Ratio (z) = 0.52271 0.17693
#
# Static dielectric constant tensor:
#      x y z
#    x 3.990540 0.067560 0.073080 
#    y 0.067560 3.956350 0.170470 
#    z 0.073080 0.170470 4.020830 
# 
# 
# High freq. dielectric constant tensor:
#      x y z
#    x 1.857760 0.011660 0.005300 
#    y 0.011660 1.865940 0.004800 
#    z 0.005300 0.004800 1.838200 
# 
# From -- ./inp_files/49221.got.cif
#   From: 2010.06.25/outbox.cif.g09.slc.cpg/sg2_25_cif.got.tgz:49221.got - 2010.06.27 13:26:56.
