data_PCOD8025540
_publ_section_title
;
Structure prediction by ZEFSAII (Michael W. Deem and Ramdas Pophale) SiO2 
 PCOD8025540
Probable space group: P -1
;
_chemical_formula_sum "Si O2"
_cell_formula_units_Z 12
_cell_length_a 9.951270
_cell_length_b 9.225004
_cell_length_c 12.528959
_cell_angle_alpha 71.994858
_cell_angle_beta 135.454693
_cell_angle_gamma 136.281856
_cell_volume 504.753539
_symmetry_space_group_name_H-M "P -1"
_symmetry_group_IT_number 2
_symmetry_cell_setting 'triclinic'
loop_
_space_group_symop_operation_xyz
x,y,z
-x,-y,-z
loop_
_atom_site_type_symbol
_atom_site_label
_atom_site_fract_x
_atom_site_fract_y
_atom_site_fract_z
Si Si1 0.428666 0.609418 0.331268
Si Si2 0.518655 0.350247 0.881776
Si Si3 0.002217 0.163479 0.312279
Si Si4 0.763359 0.323352 0.220438
Si Si5 0.659381 0.782631 0.837526
Si Si6 0.396828 0.767859 0.492684
O O1 0.377394 0.647508 0.176359
O O2 0.418788 0.727429 0.392029
O O3 0.752340 0.728597 0.484912
O O4 0.176306 0.332528 0.269815
O O5 0.536271 0.543294 0.854410
O O6 0.185181 0.095252 0.771374
O O7 0.727218 0.401118 0.075278
O O8 0.780284 0.155091 0.237704
O O9 0.500459 0.189205 0.184475
O O10 0.064079 0.557398 0.391712
O O11 0.593907 0.780474 0.677496
O O12 0.000000 0.000000 0.000000
O O13 0.500000 0.000000 0.500000
#
# Coordination Sequence:
#
# PCOD8025540 Si02
#       6
#     2   2   2   2   2   2
#     4  10  24  44  74 105 148 184 246 293 367 421
#     4  12  25  44  76 105 144 193 238 298 363 425
#     4  10  23  45  69 107 143 193 235 300 350 435
#     4  11  26  46  71 111 144 189 246 294 360 433
#     4  12  28  48  74 104 149 194 242 302 360 429
#     4  11  26  47  74 106 146 192 240 300 363 434
#
# _framework density 23.773978
#
# number of rings (size 3 to 8) (size 9 to 14) (size 15 to 20)
#    0.000    1.000    0.000    6.000    9.333    2.667 
#    0.000    0.000    0.000    0.000    0.000    0.000 
#    0.000    0.000    0.000    0.000    0.000    0.000 
#
# Total GULP energy -148825.626522 kJ/mol
# GULP energy per Si atom -12402.135543 kJ/mol
# Density = 2.371987 g / cm^3
# Si number density = 23.773978 Si / 1000 Ang^3
#
#
#
# Elastic Constant Matrix: (Units=GPa)
#
#
# Indices 1 2 3 4 5 6 
#
# 1 115.6341 24.1254 45.0989 -0.5081 14.9158 2.2393
# 2 24.1254 155.9127 44.6390 30.9887 10.8058 -12.1309
# 3 45.0989 44.6390 113.7257 21.8503 0.5420 9.2276
# 4 -0.5081 30.9887 21.8503 35.7117 11.5861 5.7692
# 5 14.9158 10.8058 0.5420 11.5861 40.1447 -4.8051
# 6 2.2393 -12.1309 9.2276 5.7692 -4.8051 32.4753
#
#
#
# Elastic Compliance Matrix: (Units=1/GPa)
#
#
# Indices 1 2 3 4 5 6 
#
# 1 0.011889 -0.001440 -0.005302 0.007007 -0.006222 -0.002016
# 2 -0.001440 0.009157 -0.001941 -0.008050 0.001098 0.005664
# 3 -0.005302 -0.001941 0.013259 -0.007525 0.004226 -0.002165
# 4 0.007007 -0.008050 -0.007525 0.046535 -0.015186 -0.011866
# 5 -0.006222 0.001098 0.004226 -0.015186 0.032100 0.007085
# 6 -0.002016 0.005664 -0.002165 -0.011866 0.007085 0.036819
#
#
# Mechanical properties :
#
#
# Convention : Reuss Voigt Hill
#
# Bulk Modulus (GPa) = 59.04129 68.11101 63.57615
# Shear Modulus (GPa) = 28.93988 39.76030 34.35009
#
# Velocity S-wave (km/s) = 3.49276 4.09397 3.80526
# Velocity P-wave (km/s) = 6.41515 7.14556 6.79018
#
# Compressibility (1/GPa) = 0.01693730
#
# Stress axis : x y z
#
# Youngs Moduli (GPa) = 84.11247 109.20548 75.41960
#
# Poissons Ratio (x) = 0.15725 0.39991
# Poissons Ratio (y) = 0.12112 0.14642
# Poissons Ratio (z) = 0.44601 0.21202
#
# Static dielectric constant tensor:
#      x y z
#    x 4.140200 0.028550 0.026340 
#    y 0.028550 4.284570 0.004260 
#    z 0.026340 0.004260 4.479900 
# 
# 
# High freq. dielectric constant tensor:
#      x y z
#    x 1.939370 0.001240 -0.000020 
#    y 0.001240 1.948420 0.004860 
#    z -0.000020 0.004860 1.949680 
# 
# From -- ./inp_files/382143.got.cif
#   From: 2010.06.25/outbox.cif.g09.slc.cpg/sg2_192_cif.got.tgz:382143.got - 2010.06.27 13:26:56.
