data_PCOD8025185
_publ_section_title
;
Structure prediction by ZEFSAII (Michael W. Deem and Ramdas Pophale) SiO2 
 PCOD8025185
Probable space group: P -1
;
_chemical_formula_sum "Si O2"
_cell_formula_units_Z 16
_cell_length_a 11.747624
_cell_length_b 5.250379
_cell_length_c 11.737784
_cell_angle_alpha 83.902749
_cell_angle_beta 114.408634
_cell_angle_gamma 77.895951
_cell_volume 629.310499
_symmetry_space_group_name_H-M "P -1"
_symmetry_group_IT_number 2
_symmetry_cell_setting 'triclinic'
loop_
_space_group_symop_operation_xyz
x,y,z
-x,-y,-z
loop_
_atom_site_type_symbol
_atom_site_label
_atom_site_fract_x
_atom_site_fract_y
_atom_site_fract_z
Si Si1 0.942327 0.296456 0.415847
Si Si2 0.396963 0.908922 0.889186
Si Si3 0.244940 0.182580 0.213113
Si Si4 0.364121 0.996094 0.492671
Si Si5 0.515447 0.596250 0.745958
Si Si6 0.966346 0.406352 0.160375
Si Si7 0.680236 0.661815 0.341058
Si Si8 0.818202 0.018942 0.032714
O O1 0.978756 0.295949 0.298577
O O2 0.785700 0.383308 0.364690
O O3 0.000000 0.500000 0.500000
O O4 0.000000 0.000000 0.500000
O O5 0.305491 0.129559 0.758445
O O6 0.297172 0.827745 0.937450
O O7 0.481156 0.665220 0.860171
O O8 0.500000 0.000000 0.000000
O O9 0.275538 0.988397 0.345933
O O10 0.345324 0.365924 0.230754
O O11 0.105648 0.395844 0.163426
O O12 0.245479 0.983395 0.118150
O O13 0.290253 0.257253 0.522934
O O14 0.500000 0.000000 0.500000
O O15 0.396780 0.750684 0.604663
O O16 0.478286 0.317393 0.730037
O O17 0.881019 0.711930 0.108577
O O18 0.914314 0.206450 0.066647
#
# Coordination Sequence:
#
# PCOD8025185 Si02
#       8
#     2   2   2   2   2   2   2   2
#     4  12  27  46  78 113 147 200 252 307 380 440
#     4  11  23  44  72 104 142 187 243 306 370 440
#     4  11  24  46  69 101 144 195 247 292 368 452
#     4   9  22  44  64 102 142 184 243 302 373 436
#     4  10  23  44  70 105 142 185 246 308 376 429
#     4  12  27  49  72 108 149 193 247 304 362 440
#     4  11  24  43  73 105 149 188 246 322 372 440
#     4  12  26  50  72 107 146 196 246 305 364 435
#
# _framework density 25.424652999999999
#
# number of rings (size 3 to 8) (size 9 to 14) (size 15 to 20)
#    0.000    1.000    2.500    3.000    5.250    3.500 
#    9.000    0.000    0.000    0.000    0.000    0.000 
#    0.000    0.000    0.000    0.000    0.000    0.000 
#
# Total GULP energy -198245.568521 kJ/mol
# GULP energy per Si atom -12390.348033 kJ/mol
# Density = 2.536679 g / cm^3
# Si number density = 25.424653 Si / 1000 Ang^3
#
#
#
# Elastic Constant Matrix: (Units=GPa)
#
#
# Indices 1 2 3 4 5 6 
#
# 1 149.0236 20.2886 41.9507 13.3543 0.7692 -5.5298
# 2 20.2886 83.2198 24.5485 7.3037 2.7006 0.4467
# 3 41.9507 24.5485 152.7538 25.3237 -12.4623 -3.2008
# 4 13.3543 7.3037 25.3237 24.8822 -6.4972 9.8001
# 5 0.7692 2.7006 -12.4623 -6.4972 42.0005 11.3943
# 6 -5.5298 0.4467 -3.2008 9.8001 11.3943 31.9159
#
#
#
# Elastic Compliance Matrix: (Units=1/GPa)
#
#
# Indices 1 2 3 4 5 6 
#
# 1 0.007750 -0.001069 -0.001341 -0.004293 -0.002020 0.003263
# 2 -0.001069 0.013006 -0.001503 -0.002599 -0.001927 0.000968
# 3 -0.001341 -0.001503 0.008733 -0.008876 0.000465 0.003224
# 4 -0.004293 -0.002599 -0.008876 0.067317 0.015575 -0.027828
# 5 -0.002020 -0.001927 0.000465 0.015575 0.030881 -0.016084
# 6 0.003263 0.000968 0.003224 -0.027828 -0.016084 0.046495
#
#
# Mechanical properties :
#
#
# Convention : Reuss Voigt Hill
#
# Bulk Modulus (GPa) = 46.16149 62.06365 54.11257
# Shear Modulus (GPa) = 26.42323 39.64033 33.03178
#
# Velocity S-wave (km/s) = 3.22728 3.95287 3.60836
# Velocity P-wave (km/s) = 5.66416 6.73033 6.22013
#
# Compressibility (1/GPa) = 0.02166308
#
# Stress axis : x y z
#
# Youngs Moduli (GPa) = 129.03824 76.88967 114.50551
#
# Poissons Ratio (x) = 0.08218 0.15358
# Poissons Ratio (y) = 0.13792 0.17205
# Poissons Ratio (z) = 0.17308 0.11553
#
# Static dielectric constant tensor:
#      x y z
#    x 4.895390 -0.013570 -0.349480 
#    y -0.013570 5.516060 0.362960 
#    z -0.349480 0.362960 6.030540 
# 
# 
# High freq. dielectric constant tensor:
#      x y z
#    x 2.031930 -0.004680 -0.008440 
#    y -0.004680 1.995290 0.003410 
#    z -0.008440 0.003410 2.037510 
# 
# From -- ./inp_files/410619.got.cif
#   From: 2010.06.25/outbox.cif.g09.slc.cpg/sg2_206_cif.got.tgz:410619.got - 2010.06.27 13:26:56.
