data_PCOD8025602
_publ_section_title
;
Structure prediction by ZEFSAII (Michael W. Deem and Ramdas Pophale) SiO2 
 PCOD8025602
Probable space group: P -1
;
_chemical_formula_sum "Si O2"
_cell_formula_units_Z 14
_cell_length_a 5.086007
_cell_length_b 8.706776
_cell_length_c 24.617484
_cell_angle_alpha 41.584224
_cell_angle_beta 51.800271
_cell_angle_gamma 57.330145
_cell_volume 562.332215
_symmetry_space_group_name_H-M "P -1"
_symmetry_group_IT_number 2
_symmetry_cell_setting 'triclinic'
loop_
_space_group_symop_operation_xyz
x,y,z
-x,-y,-z
loop_
_atom_site_type_symbol
_atom_site_label
_atom_site_fract_x
_atom_site_fract_y
_atom_site_fract_z
Si Si1 0.674922 0.544013 0.791290
Si Si2 0.082646 0.534418 0.102960
Si Si3 0.350330 0.873974 0.901387
Si Si4 0.466001 0.919610 0.334595
Si Si5 0.092003 0.861780 0.204192
Si Si6 0.182763 0.751539 0.524201
Si Si7 0.754926 0.478117 0.585580
O O1 0.882981 0.429019 0.846802
O O2 0.851468 0.405064 0.753938
O O3 0.281387 0.523984 0.852207
O O4 0.718984 0.815619 0.707716
O O5 0.362781 0.321207 0.106998
O O6 0.139767 0.771634 0.002893
O O7 0.532018 0.081404 0.847694
O O8 0.091636 0.959414 0.864036
O O9 0.410350 0.779421 0.433941
O O10 0.318349 0.791968 0.334481
O O11 0.869709 0.892249 0.279894
O O12 0.407883 0.650072 0.572641
O O13 0.913672 0.570059 0.595655
O O14 0.000000 0.000000 0.500000
O O15 0.000000 0.500000 0.500000
#
# Coordination Sequence:
#
# PCOD8025602 Si02
#       7
#     2   2   2   2   2   2   2
#     4  12  26  43  67 104 132 182 228 280 339 396
#     4  11  23  45  70  96 138 181 234 276 333 402
#     4  11  23  45  70  96 137 186 225 282 335 400
#     4  11  25  47  69  98 148 169 224 284 339 398
#     4  12  26  43  68 101 136 181 226 278 351 385
#     4  11  25  46  74 105 130 178 232 268 332 411
#     4  10  23  45  70  95 134 179 216 270 335 399
#
# _framework density 24.896315999999999
#
# number of rings (size 3 to 8) (size 9 to 14) (size 15 to 20)
#    0.000    0.857    2.857    3.857    2.000   12.571 
#    2.571    0.000    0.000    0.000    0.000    0.000 
#    0.000    0.000    0.000    0.000    0.000    0.000 
#
# Total GULP energy -173623.964729 kJ/mol
# GULP energy per Si atom -12401.711766 kJ/mol
# Density = 2.483965 g / cm^3
# Si number density = 24.896316 Si / 1000 Ang^3
#
#
#
# Elastic Constant Matrix: (Units=GPa)
#
#
# Indices 1 2 3 4 5 6 
#
# 1 128.9331 5.8142 26.9989 -7.1648 -1.5460 3.7437
# 2 5.8142 123.8739 22.9603 -19.2014 -0.9872 2.3668
# 3 26.9989 22.9603 86.0603 -5.8387 -4.4406 4.7425
# 4 -7.1648 -19.2014 -5.8387 23.9233 9.5706 -2.2937
# 5 -1.5460 -0.9872 -4.4406 9.5706 31.7507 -5.1651
# 6 3.7437 2.3668 4.7425 -2.2937 -5.1651 36.4088
#
#
#
# Elastic Compliance Matrix: (Units=1/GPa)
#
#
# Indices 1 2 3 4 5 6 
#
# 1 0.008428 0.000487 -0.002614 0.002544 -0.000790 -0.000510
# 2 0.000487 0.009768 -0.002307 0.008431 -0.002572 -0.000218
# 3 -0.002614 -0.002307 0.013185 -0.000124 0.001504 -0.001093
# 4 0.002544 0.008431 -0.000124 0.055905 -0.016418 0.000399
# 5 -0.000790 -0.002572 0.001504 -0.016418 0.037236 0.004301
# 6 -0.000510 -0.000218 -0.001093 0.000399 0.004301 0.028310
#
#
# Mechanical properties :
#
#
# Convention : Reuss Voigt Hill
#
# Bulk Modulus (GPa) = 44.42163 50.04602 47.23382
# Shear Modulus (GPa) = 29.54986 37.28947 33.41967
#
# Velocity S-wave (km/s) = 3.44890 3.87433 3.66779
# Velocity P-wave (km/s) = 5.80873 6.33714 6.07868
#
# Compressibility (1/GPa) = 0.02251156
#
# Stress axis : x y z
#
# Youngs Moduli (GPa) = 118.65095 102.37424 75.84425
#
# Poissons Ratio (x) = -0.04982 0.19826
# Poissons Ratio (y) = -0.05775 0.17501
# Poissons Ratio (z) = 0.31015 0.23622
#
# Static dielectric constant tensor:
#      x y z
#    x 5.083890 0.170940 -0.152820 
#    y 0.170940 4.416660 0.084200 
#    z -0.152820 0.084200 4.258440 
# 
# 
# High freq. dielectric constant tensor:
#      x y z
#    x 1.997920 -0.001080 -0.005620 
#    y -0.001080 2.003080 -0.009460 
#    z -0.005620 -0.009460 1.990840 
# 
# From -- ./inp_files/603944.got.cif
#   From: 2010.06.25/outbox.cif.g09.slc.cpg/sg2_302_cif.got.tgz:603944.got - 2010.06.27 13:26:56.
