data_PCOD8025249
_publ_section_title
;
Structure prediction by ZEFSAII (Michael W. Deem and Ramdas Pophale) SiO2 
 PCOD8025249
Probable space group: P -1
;
_chemical_formula_sum "Si O2"
_cell_formula_units_Z 16
_cell_length_a 9.496449
_cell_length_b 14.447857
_cell_length_c 21.385441
_cell_angle_alpha 19.477994
_cell_angle_beta 46.589249
_cell_angle_gamma 45.242868
_cell_volume 691.338329
_symmetry_space_group_name_H-M "P -1"
_symmetry_group_IT_number 2
_symmetry_cell_setting 'triclinic'
loop_
_space_group_symop_operation_xyz
x,y,z
-x,-y,-z
loop_
_atom_site_type_symbol
_atom_site_label
_atom_site_fract_x
_atom_site_fract_y
_atom_site_fract_z
Si Si1 0.919356 0.836019 0.685623
Si Si2 0.868626 0.627309 0.275454
Si Si3 0.214277 0.804993 0.993470
Si Si4 0.139119 0.607070 0.439980
Si Si5 0.678817 0.193970 0.386337
Si Si6 0.469493 0.707978 0.764192
Si Si7 0.398736 0.644956 0.557883
Si Si8 0.087324 0.820206 0.890516
O O1 0.087367 0.855669 0.674209
O O2 0.696801 0.025346 0.646349
O O3 0.930288 0.501969 0.886300
O O4 0.000000 0.000000 0.500000
O O5 0.923708 0.432860 0.444048
O O6 0.706026 0.550407 0.328151
O O7 0.073826 0.605577 0.189635
O O8 0.771665 0.953327 0.115419
O O9 0.432984 0.606875 0.040202
O O10 0.136817 0.948833 0.859625
O O11 0.366475 0.434745 0.473886
O O12 0.000000 0.500000 0.500000
O O13 0.109941 0.951703 0.219092
O O14 0.544878 0.323183 0.286415
O O15 0.639807 0.402821 0.326077
O O16 0.618831 0.906310 0.610227
O O17 0.257946 0.829112 0.782791
#
# Coordination Sequence:
#
# PCOD8025249 Si02
#       8
#     2   2   2   2   2   2   2   2
#     4  10  23  46  72 103 143 189 237 296 365 431
#     4  11  26  46  71 105 147 196 241 297 362 444
#     4  11  24  44  74 103 145 195 243 294 369 440
#     4  12  27  47  73 108 151 189 246 306 363 428
#     4  10  23  44  71 110 144 191 234 313 368 426
#     4  11  25  41  75 109 143 184 254 301 365 434
#     4  11  24  46  77  98 150 194 237 292 372 434
#     4  12  26  45  76 108 145 190 247 306 361 435
#
# _framework density 23.143518
#
# number of rings (size 3 to 8) (size 9 to 14) (size 15 to 20)
#    0.000    1.000    1.250    5.250    8.750    1.500 
#    0.000    5.000    0.000    0.000    0.000    0.000 
#    0.000    0.000    0.000    0.000    0.000    0.000 
#
# Total GULP energy -198288.859412 kJ/mol
# GULP energy per Si atom -12393.053713 kJ/mol
# Density = 2.309084 g / cm^3
# Si number density = 23.143518 Si / 1000 Ang^3
#
#
#
# Elastic Constant Matrix: (Units=GPa)
#
#
# Indices 1 2 3 4 5 6 
#
# 1 145.3899 54.1629 45.5328 -6.4955 -8.5886 8.9783
# 2 54.1629 106.7800 44.1534 -7.7867 6.7754 -8.7224
# 3 45.5328 44.1534 108.5968 -14.6006 5.9149 -4.6351
# 4 -6.4955 -7.7867 -14.6006 30.7167 4.4044 17.3912
# 5 -8.5886 6.7754 5.9149 4.4044 34.9812 -5.1657
# 6 8.9783 -8.7224 -4.6351 17.3912 -5.1657 47.2706
#
#
#
# Elastic Compliance Matrix: (Units=1/GPa)
#
#
# Indices 1 2 3 4 5 6 
#
# 1 0.009626 -0.004215 -0.002480 0.000979 0.003051 -0.002876
# 2 -0.004215 0.013281 -0.003421 -0.000344 -0.002578 0.002761
# 3 -0.002480 -0.003421 0.012519 0.005772 -0.002994 -0.001383
# 4 0.000979 -0.000344 0.005772 0.046903 -0.009225 -0.017948
# 5 0.003051 -0.002578 -0.002994 -0.009225 0.032327 0.005578
# 6 -0.002876 0.002761 -0.001383 -0.017948 0.005578 0.029287
#
#
# Mechanical properties :
#
#
# Convention : Reuss Voigt Hill
#
# Bulk Modulus (GPa) = 65.80603 72.05167 68.92885
# Shear Modulus (GPa) = 29.54389 37.05485 33.29937
#
# Velocity S-wave (km/s) = 3.57676 4.00570 3.79729
# Velocity P-wave (km/s) = 6.74932 7.25220 7.00527
#
# Compressibility (1/GPa) = 0.01519618
#
# Stress axis : x y z
#
# Youngs Moduli (GPa) = 103.88125 75.29358 79.87857
#
# Poissons Ratio (x) = 0.31733 0.19809
# Poissons Ratio (y) = 0.43781 0.27325
# Poissons Ratio (z) = 0.25761 0.25757
#
# Static dielectric constant tensor:
#      x y z
#    x 4.493400 -0.135390 0.053550 
#    y -0.135390 4.314460 -0.088680 
#    z 0.053550 -0.088680 4.066250 
# 
# 
# High freq. dielectric constant tensor:
#      x y z
#    x 1.926740 0.002560 0.004290 
#    y 0.002560 1.915580 -0.007380 
#    z 0.004290 -0.007380 1.907940 
# 
# From -- ./inp_files/590383.got.cif
#   From: 2010.06.25/outbox.cif.g09.slc.cpg/sg2_296_cif.got.tgz:590383.got - 2010.06.27 13:26:56.
