data_PCOD8025917
_publ_section_title
;
Structure prediction by ZEFSAII (Michael W. Deem and Ramdas Pophale) SiO2 
 PCOD8025917
Probable space group: P -1
;
_chemical_formula_sum "Si O2"
_cell_formula_units_Z 12
_cell_length_a 15.731760
_cell_length_b 5.029558
_cell_length_c 7.767162
_cell_angle_alpha 69.405458
_cell_angle_beta 60.669562
_cell_angle_gamma 62.336829
_cell_volume 468.349000
_symmetry_space_group_name_H-M "P -1"
_symmetry_group_IT_number 2
_symmetry_cell_setting 'triclinic'
loop_
_space_group_symop_operation_xyz
x,y,z
-x,-y,-z
loop_
_atom_site_type_symbol
_atom_site_label
_atom_site_fract_x
_atom_site_fract_y
_atom_site_fract_z
Si Si1 0.977189 0.365351 0.727471
Si Si2 0.447743 0.757274 0.631026
Si Si3 0.210056 0.691099 0.237047
Si Si4 0.265015 0.186530 0.881967
Si Si5 0.588446 0.687459 0.022081
Si Si6 0.899646 0.316727 0.289538
O O1 0.005488 0.557503 0.806075
O O2 0.000000 0.500000 0.500000
O O3 0.856195 0.394001 0.831452
O O4 0.051275 0.016825 0.761856
O O5 0.500000 0.500000 0.500000
O O6 0.466055 0.566138 0.836884
O O7 0.500000 0.000000 0.500000
O O8 0.322043 0.952750 0.720479
O O9 0.157644 0.705246 0.470603
O O10 0.325028 0.427219 0.188734
O O11 0.216203 0.017730 0.108369
O O12 0.353346 0.286659 0.863757
O O13 0.177859 0.480521 0.821700
O O14 0.500000 0.000000 0.000000
#
# Coordination Sequence:
#
# PCOD8025917 Si02
#       6
#     2   2   2   2   2   2
#     4  10  23  46  73 109 143 193 239 291 361 434
#     4  11  24  47  72  98 143 185 245 300 355 429
#     4  10  25  45  72 104 151 185 242 301 358 434
#     4  11  27  45  72 112 142 189 249 292 368 433
#     4  11  27  48  73 108 147 192 245 304 373 429
#     4  11  26  44  77 105 147 192 241 291 362 428
#
# _framework density 25.621918999999998
#
# number of rings (size 3 to 8) (size 9 to 14) (size 15 to 20)
#    0.000    1.333    1.667    2.000   14.000    5.333 
#    0.000    0.000    0.000    0.000    0.000    0.000 
#    0.000    0.000    0.000    0.000    0.000    0.000 
#
# Total GULP energy -148678.457974 kJ/mol
# GULP energy per Si atom -12389.871498 kJ/mol
# Density = 2.556360 g / cm^3
# Si number density = 25.621919 Si / 1000 Ang^3
#
#
#
# Elastic Constant Matrix: (Units=GPa)
#
#
# Indices 1 2 3 4 5 6 
#
# 1 78.2077 24.5296 41.9852 -30.0957 -9.8561 -14.0668
# 2 24.5296 140.9669 36.1947 -36.4342 -15.1302 -20.3665
# 3 41.9852 36.1947 98.1947 -14.0596 -14.8171 -1.9896
# 4 -30.0957 -36.4342 -14.0596 51.2602 1.3713 1.8411
# 5 -9.8561 -15.1302 -14.8171 1.3713 38.1191 -5.1596
# 6 -14.0668 -20.3665 -1.9896 1.8411 -5.1596 54.6361
#
#
#
# Elastic Compliance Matrix: (Units=1/GPa)
#
#
# Indices 1 2 3 4 5 6 
#
# 1 0.023067 0.002898 -0.008284 0.012974 0.004333 0.006689
# 2 0.002898 0.010637 -0.003299 0.008080 0.004035 0.004700
# 3 -0.008284 -0.003299 0.014753 -0.003126 0.002054 -0.002526
# 4 0.012974 0.008080 -0.003126 0.031676 0.004971 0.005641
# 5 0.004333 0.004035 0.002054 0.004971 0.030304 0.005389
# 6 0.006689 0.004700 -0.002526 0.005641 0.005389 0.022004
#
#
# Mechanical properties :
#
#
# Convention : Reuss Voigt Hill
#
# Bulk Modulus (GPa) = 32.16753 58.08761 45.12757
# Shear Modulus (GPa) = 31.21624 43.11372 37.16498
#
# Velocity S-wave (km/s) = 3.49426 4.10651 3.81269
# Velocity P-wave (km/s) = 5.37231 6.72345 6.08550
#
# Compressibility (1/GPa) = 0.03108725
#
# Stress axis : x y z
#
# Youngs Moduli (GPa) = 43.35258 94.00995 67.78340
#
# Poissons Ratio (x) = -0.27244 0.56150
# Poissons Ratio (y) = -0.12564 0.22362
# Poissons Ratio (z) = 0.35912 0.31014
#
# Static dielectric constant tensor:
#      x y z
#    x 5.118870 0.035980 -0.428280 
#    y 0.035980 4.879640 0.067660 
#    z -0.428280 0.067660 5.029280 
# 
# 
# High freq. dielectric constant tensor:
#      x y z
#    x 2.002340 0.002020 -0.024950 
#    y 0.002020 2.056280 -0.000030 
#    z -0.024950 -0.000030 2.041560 
# 
# From -- ./inp_files/91098.got.cif
#   From: 2010.06.25/outbox.cif.g09.slc.cpg/sg2_46_cif.got.tgz:91098.got - 2010.06.27 13:26:56.
