data_PCOD8025706
_publ_section_title
;
Structure prediction by ZEFSAII (Michael W. Deem and Ramdas Pophale) SiO2 
 PCOD8025706
Probable space group: P -1
;
_chemical_formula_sum "Si O2"
_cell_formula_units_Z 16
_cell_length_a 14.435541
_cell_length_b 27.663785
_cell_length_c 9.850152
_cell_angle_alpha 132.430957
_cell_angle_beta 141.647110
_cell_angle_gamma 20.801038
_cell_volume 835.803429
_symmetry_space_group_name_H-M "P -1"
_symmetry_group_IT_number 2
_symmetry_cell_setting 'triclinic'
loop_
_space_group_symop_operation_xyz
x,y,z
-x,-y,-z
loop_
_atom_site_type_symbol
_atom_site_label
_atom_site_fract_x
_atom_site_fract_y
_atom_site_fract_z
Si Si1 0.902319 0.373288 0.095406
Si Si2 0.811261 0.006588 0.784245
Si Si3 0.690032 0.812832 0.229798
Si Si4 0.454909 0.931101 0.682220
Si Si5 0.316333 0.662507 0.055380
Si Si6 0.860306 0.251533 0.278339
Si Si7 0.770264 0.950396 0.064174
Si Si8 0.736327 0.458211 0.763426
O O1 0.705542 0.513081 0.193894
O O2 0.275334 0.230318 0.294902
O O3 0.743023 0.369594 0.962678
O O4 0.876138 0.376381 0.909675
O O5 0.018707 0.868984 0.832008
O O6 0.469469 0.145468 0.731836
O O7 0.771102 0.003694 0.575626
O O8 0.000000 0.000000 0.000000
O O9 0.883156 0.806460 0.449657
O O10 0.946483 0.656010 0.183746
O O11 0.411218 0.929494 0.017652
O O12 0.615048 0.938706 0.849792
O O13 0.241237 0.017944 0.736723
O O14 0.160588 0.705184 0.810539
O O15 0.150831 0.794638 0.167073
O O16 0.499895 0.387762 0.190303
O O17 0.500000 0.500000 0.500000
#
# Coordination Sequence:
#
# PCOD8025706 Si02
#       8
#     2   2   2   2   2   2   2   2
#     4   9  16  29  47  81 117 139 176 220 287 331
#     4  12  25  39  56  81 116 156 196 233 277 337
#     4  11  18  35  58  86 110 146 189 230 287 337
#     4  10  20  33  53  83 113 144 178 237 280 329
#     4   9  17  27  49  82 115 142 168 231 279 339
#     4  10  19  35  58  86 115 145 191 233 284 334
#     4  10  17  29  57  86 109 135 182 232 286 328
#     4   9  19  30  55  89 118 142 178 239 288 335
#
# _framework density 19.143255
#
# number of rings (size 3 to 8) (size 9 to 14) (size 15 to 20)
#    0.000    2.000    3.750    1.875    0.000    1.000 
#    0.000    1.250    0.000    3.000    0.000    0.000 
#    0.000    0.000    0.000    0.000    0.000    0.000 
#
# Total GULP energy -198213.587656 kJ/mol
# GULP energy per Si atom -12388.349228 kJ/mol
# Density = 1.909968 g / cm^3
# Si number density = 19.143255 Si / 1000 Ang^3
#
#
#
# Elastic Constant Matrix: (Units=GPa)
#
#
# Indices 1 2 3 4 5 6 
#
# 1 44.2826 33.4576 30.0801 5.7263 -6.6398 -10.5022
# 2 33.4576 153.2364 25.9334 -7.2664 -0.3584 -38.4695
# 3 30.0801 25.9334 62.8773 5.6848 -12.1377 -3.2192
# 4 5.7263 -7.2664 5.6848 20.1900 -0.3533 -10.1023
# 5 -6.6398 -0.3584 -12.1377 -0.3533 24.5259 4.5012
# 6 -10.5022 -38.4695 -3.2192 -10.1023 4.5012 26.0131
#
#
#
# Elastic Compliance Matrix: (Units=1/GPa)
#
#
# Indices 1 2 3 4 5 6 
#
# 1 0.039049 -0.006222 -0.014723 -0.008685 0.002910 0.000865
# 2 -0.006222 0.023041 -0.010185 0.036101 -0.014462 0.046825
# 3 -0.014723 -0.010185 0.030784 -0.022179 0.016026 -0.028583
# 4 -0.008685 0.036101 -0.022179 0.120189 -0.029214 0.098868
# 5 0.002910 -0.014462 0.016026 -0.029214 0.056068 -0.039275
# 6 0.000865 0.046825 -0.028583 0.098868 -0.039275 0.149692
#
#
# Mechanical properties :
#
#
# Convention : Reuss Voigt Hill
#
# Bulk Modulus (GPa) = 32.66534 48.81540 40.74037
# Shear Modulus (GPa) = 10.17731 25.54081 17.85906
#
# Velocity S-wave (km/s) = 2.30823 3.65662 3.05768
# Velocity P-wave (km/s) = 4.91982 6.58660 5.81325
#
# Compressibility (1/GPa) = 0.03061349
#
# Stress axis : x y z
#
# Youngs Moduli (GPa) = 25.60876 43.40037 32.48477
#
# Poissons Ratio (x) = 0.27004 0.47828
# Poissons Ratio (y) = 0.15934 0.33085
# Poissons Ratio (z) = 0.37704 0.44203
#
# Static dielectric constant tensor:
#      x y z
#    x 2.967870 -0.255740 -0.248280 
#    y -0.255740 4.431110 -0.174970 
#    z -0.248280 -0.174970 2.915940 
# 
# 
# High freq. dielectric constant tensor:
#      x y z
#    x 1.706580 -0.021840 -0.057680 
#    y -0.021840 1.777920 -0.013380 
#    z -0.057680 -0.013380 1.699640 
# 
# From -- ./inp_files/204266.got.cif
#   From: 2010.06.25/outbox.cif.g09.slc.cpg/sg2_103_cif.got.tgz:204266.got - 2010.06.27 13:26:56.
