data_PCOD8025223
_publ_section_title
;
Structure prediction by ZEFSAII (Michael W. Deem and Ramdas Pophale) SiO2 
 PCOD8025223
Probable space group: P -1
;
_chemical_formula_sum "Si O2"
_cell_formula_units_Z 16
_cell_length_a 12.397337
_cell_length_b 12.191931
_cell_length_c 11.279177
_cell_angle_alpha 118.587791
_cell_angle_beta 31.691462
_cell_angle_gamma 106.253899
_cell_volume 755.910216
_symmetry_space_group_name_H-M "P -1"
_symmetry_group_IT_number 2
_symmetry_cell_setting 'triclinic'
loop_
_space_group_symop_operation_xyz
x,y,z
-x,-y,-z
loop_
_atom_site_type_symbol
_atom_site_label
_atom_site_fract_x
_atom_site_fract_y
_atom_site_fract_z
Si Si1 0.501011 0.896626 0.343958
Si Si2 0.625760 0.341272 0.591557
Si Si3 0.968056 0.647300 0.234708
Si Si4 0.297327 0.065803 0.059540
Si Si5 0.448120 0.187420 0.202629
Si Si6 0.642506 0.372105 0.990697
Si Si7 0.734691 0.430379 0.293403
Si Si8 0.825094 0.185097 0.520942
O O1 0.500000 0.000000 0.500000
O O2 0.533348 0.753371 0.298791
O O3 0.279501 0.926815 0.489462
O O4 0.680867 0.900306 0.081213
O O5 0.708222 0.339342 0.379511
O O6 0.832051 0.281668 0.452954
O O7 0.503550 0.484221 0.825832
O O8 0.121936 0.620078 0.190747
O O9 0.778339 0.779138 0.499458
O O10 0.859471 0.531599 0.269390
O O11 0.112489 0.660352 0.993547
O O12 0.425177 0.132131 0.064769
O O13 0.044742 0.117820 0.346034
O O14 0.378051 0.912036 0.930053
O O15 0.531128 0.314907 0.173448
O O16 0.660166 0.277138 0.813929
O O17 0.500000 0.500000 0.500000
#
# Coordination Sequence:
#
# PCOD8025223 Si02
#       8
#     2   2   2   2   2   2   2   2
#     4  10  25  47  66  95 141 185 228 274 332 420
#     4  10  23  44  71 100 140 177 224 288 337 412
#     4  11  23  38  70 100 136 179 213 285 350 403
#     4  11  24  45  69 100 133 187 232 275 345 401
#     4  11  23  42  71 102 142 170 230 294 332 409
#     4  12  21  44  71 110 134 171 230 290 357 390
#     4  11  22  43  64 101 145 174 225 274 347 413
#     4  10  24  43  71  99 137 183 230 279 338 416
#
# _framework density 21.166535
#
# number of rings (size 3 to 8) (size 9 to 14) (size 15 to 20)
#    0.750    0.500    5.000    0.375    0.000    5.000 
#    2.250    1.875    0.000    0.000    0.000    0.000 
#    0.000    0.000    0.000    0.000    0.000    0.000 
#
# Total GULP energy -198266.818225 kJ/mol
# GULP energy per Si atom -12391.676139 kJ/mol
# Density = 2.111836 g / cm^3
# Si number density = 21.166535 Si / 1000 Ang^3
#
#
#
# Elastic Constant Matrix: (Units=GPa)
#
#
# Indices 1 2 3 4 5 6 
#
# 1 103.8882 40.0850 45.2804 2.4754 4.1074 1.7341
# 2 40.0850 101.3977 47.7445 4.3912 1.8287 -5.0292
# 3 45.2804 47.7445 114.6099 11.4202 7.3325 -14.6421
# 4 2.4754 4.3912 11.4202 32.1646 -5.7901 0.1537
# 5 4.1074 1.8287 7.3325 -5.7901 48.1524 -1.3284
# 6 1.7341 -5.0292 -14.6421 0.1537 -1.3284 40.3485
#
#
#
# Elastic Compliance Matrix: (Units=1/GPa)
#
#
# Indices 1 2 3 4 5 6 
#
# 1 0.012671 -0.003268 -0.004020 0.000854 -0.000309 -0.002424
# 2 -0.003268 0.013122 -0.004169 0.000015 0.000425 0.000277
# 3 -0.004020 -0.004169 0.013142 -0.004147 -0.001878 0.004376
# 4 0.000854 0.000015 -0.004147 0.033316 0.004522 -0.001518
# 5 -0.000309 0.000425 -0.001878 0.004522 0.021610 0.000079
# 6 -0.002424 0.000277 0.004376 -0.001518 0.000079 0.026519
#
#
# Mechanical properties :
#
#
# Convention : Reuss Voigt Hill
#
# Bulk Modulus (GPa) = 62.41066 65.12397 63.76731
# Shear Modulus (GPa) = 33.63952 36.58549 35.11250
#
# Velocity S-wave (km/s) = 3.99090 4.16198 4.07734
# Velocity P-wave (km/s) = 7.12642 7.34373 7.23589
#
# Compressibility (1/GPa) = 0.01602290
#
# Stress axis : x y z
#
# Youngs Moduli (GPa) = 78.91992 76.20536 76.08939
#
# Poissons Ratio (x) = 0.24905 0.30586
# Poissons Ratio (y) = 0.25792 0.31719
# Poissons Ratio (z) = 0.31724 0.31768
#
# Static dielectric constant tensor:
#      x y z
#    x 3.807230 0.010290 0.145400 
#    y 0.010290 3.671200 -0.078510 
#    z 0.145400 -0.078510 3.801440 
# 
# 
# High freq. dielectric constant tensor:
#      x y z
#    x 1.834020 0.006040 0.010680 
#    y 0.006040 1.819160 -0.004370 
#    z 0.010680 -0.004370 1.827000 
# 
# From -- ./inp_files/428638.got.cif
#   From: 2010.06.25/outbox.cif.g09.slc.cpg/sg2_215_cif.got.tgz:428638.got - 2010.06.27 13:26:56.
