data_PCOD8025962
_publ_section_title
;
Structure prediction by ZEFSAII (Michael W. Deem and Ramdas Pophale) SiO2 
 PCOD8025962
Probable space group: P -1
;
_chemical_formula_sum "Si O2"
_cell_formula_units_Z 16
_cell_length_a 12.259249
_cell_length_b 28.000437
_cell_length_c 27.078274
_cell_angle_alpha 169.302713
_cell_angle_beta 24.162203
_cell_angle_gamma 156.683473
_cell_volume 676.530139
_symmetry_space_group_name_H-M "P -1"
_symmetry_group_IT_number 2
_symmetry_cell_setting 'triclinic'
loop_
_space_group_symop_operation_xyz
x,y,z
-x,-y,-z
loop_
_atom_site_type_symbol
_atom_site_label
_atom_site_fract_x
_atom_site_fract_y
_atom_site_fract_z
Si Si1 0.249869 0.785309 0.047048
Si Si2 0.912507 0.400227 0.323726
Si Si3 0.895715 0.920974 0.908941
Si Si4 0.635964 0.486156 0.826595
Si Si5 0.958115 0.207951 0.575780
Si Si6 0.257831 0.956251 0.600100
Si Si7 0.090273 0.482330 0.000918
Si Si8 0.406836 0.237182 0.304933
O O1 0.569256 0.833073 0.956799
O O2 0.168585 0.029429 0.303718
O O3 0.097727 0.505850 0.798119
O O4 0.156482 0.753346 0.111016
O O5 0.009405 0.173464 0.082497
O O6 0.582246 0.307570 0.355108
O O7 0.071087 0.447296 0.254149
O O8 0.003508 0.675165 0.596482
O O9 0.000000 0.000000 0.000000
O O10 0.596314 0.227460 0.614843
O O11 0.385282 0.417754 0.820114
O O12 0.620461 0.736342 0.120842
O O13 0.700536 0.074156 0.508557
O O14 0.878086 0.239458 0.698419
O O15 0.922232 0.852738 0.640274
O O16 0.000000 0.500000 0.000000
O O17 0.500000 0.500000 0.500000
O O18 0.500000 0.000000 0.000000
#
# Coordination Sequence:
#
# PCOD8025962 Si02
#       8
#     2   2   2   2   2   2   2   2
#     4  10  23  47  67 106 127 184 236 282 355 404
#     4  12  25  44  68 105 145 181 230 281 350 422
#     4  12  26  43  71 100 141 182 235 291 344 410
#     4  12  27  44  70 108 143 185 233 292 348 411
#     4  10  24  45  75  98 135 185 224 289 351 413
#     4  12  23  44  68 105 147 177 234 287 348 428
#     4  10  28  50  74  98 138 187 242 291 348 417
#     4  12  21  39  64  99 138 186 216 271 350 410
#
# _framework density 23.650093999999999
#
# number of rings (size 3 to 8) (size 9 to 14) (size 15 to 20)
#    0.750    0.000    2.500    4.875    3.500    2.500 
#    0.000    0.000    0.000    0.000    0.000    0.000 
#    0.000    0.000    0.000    0.000    0.000    0.000 
#
# Total GULP energy -198360.715991 kJ/mol
# GULP energy per Si atom -12397.544749 kJ/mol
# Density = 2.359627 g / cm^3
# Si number density = 23.650094 Si / 1000 Ang^3
#
#
#
# Elastic Constant Matrix: (Units=GPa)
#
#
# Indices 1 2 3 4 5 6 
#
# 1 161.9981 25.3262 55.5451 -4.2486 10.8612 -7.9343
# 2 25.3262 74.5576 31.5519 -4.5981 -0.7385 -13.3927
# 3 55.5451 31.5519 171.8804 7.4257 9.5016 -0.4728
# 4 -4.2486 -4.5981 7.4257 32.1815 -4.1817 -8.9733
# 5 10.8612 -0.7385 9.5016 -4.1817 37.8311 -0.2040
# 6 -7.9343 -13.3927 -0.4728 -8.9733 -0.2040 22.5572
#
#
#
# Elastic Compliance Matrix: (Units=1/GPa)
#
#
# Indices 1 2 3 4 5 6 
#
# 1 0.007353 -0.000975 -0.002198 0.001919 -0.001351 0.002712
# 2 -0.000975 0.018015 -0.003397 0.007207 0.002352 0.013170
# 3 -0.002198 -0.003397 0.007404 -0.003880 -0.001747 -0.004194
# 4 0.001919 0.007207 -0.003880 0.039683 0.005062 0.020705
# 5 -0.001351 0.002352 -0.001747 0.005062 0.027882 0.003151
# 6 0.002712 0.013170 -0.004194 0.020705 0.003151 0.061282
#
#
# Mechanical properties :
#
#
# Convention : Reuss Voigt Hill
#
# Bulk Modulus (GPa) = 50.93786 70.36472 60.65129
# Shear Modulus (GPa) = 27.57805 38.24815 32.91310
#
# Velocity S-wave (km/s) = 3.41851 4.02587 3.73455
# Velocity P-wave (km/s) = 6.09643 7.17127 6.65558
#
# Compressibility (1/GPa) = 0.01963176
#
# Stress axis : x y z
#
# Youngs Moduli (GPa) = 136.00354 55.51018 135.05323
#
# Poissons Ratio (x) = 0.05414 0.29683
# Poissons Ratio (y) = 0.13265 0.45877
# Poissons Ratio (z) = 0.29891 0.18856
#
# Static dielectric constant tensor:
#      x y z
#    x 4.830770 0.163480 -1.050620 
#    y 0.163480 4.470840 -0.310540 
#    z -1.050620 -0.310540 5.846460 
# 
# 
# High freq. dielectric constant tensor:
#      x y z
#    x 1.932500 0.005140 -0.002470 
#    y 0.005140 1.958930 -0.003610 
#    z -0.002470 -0.003610 1.949900 
# 
# From -- ./inp_files/618870.got.cif
#   From: 2010.06.25/outbox.cif.g09.slc.cpg/sg2_310_cif.got.tgz:618870.got - 2010.06.27 13:26:56.
