data_PCOD8025296
_publ_section_title
;
Structure prediction by ZEFSAII (Michael W. Deem and Ramdas Pophale) SiO2 
 PCOD8025296
Probable space group: P -1
;
_chemical_formula_sum "Si O2"
_cell_formula_units_Z 16
_cell_length_a 16.519733
_cell_length_b 8.693966
_cell_length_c 11.285388
_cell_angle_alpha 56.506852
_cell_angle_beta 31.930244
_cell_angle_gamma 54.217970
_cell_volume 689.564877
_symmetry_space_group_name_H-M "P -1"
_symmetry_group_IT_number 2
_symmetry_cell_setting 'triclinic'
loop_
_space_group_symop_operation_xyz
x,y,z
-x,-y,-z
loop_
_atom_site_type_symbol
_atom_site_label
_atom_site_fract_x
_atom_site_fract_y
_atom_site_fract_z
Si Si1 0.761033 0.361811 0.651989
Si Si2 0.839397 0.702896 0.547677
Si Si3 0.512077 0.437439 0.745728
Si Si4 0.582059 0.075795 0.643297
Si Si5 0.421071 0.833123 0.644519
Si Si6 0.849722 0.490678 0.850607
Si Si7 0.031981 0.366865 0.132285
Si Si8 0.263075 0.965144 0.013720
O O1 0.765484 0.540196 0.652792
O O2 0.583630 0.389398 0.808227
O O3 0.871076 0.354322 0.402798
O O4 0.803740 0.164049 0.755567
O O5 0.876049 0.659924 0.659852
O O6 0.006715 0.698714 0.277125
O O7 0.714173 0.905781 0.609934
O O8 0.556600 0.254866 0.685440
O O9 0.557535 0.628042 0.559617
O O10 0.323224 0.532713 0.948104
O O11 0.655935 0.131746 0.405516
O O12 0.418632 0.017791 0.851401
O O13 0.500000 0.000000 0.500000
O O14 0.296646 0.845536 0.900744
O O15 0.860511 0.547893 0.948682
O O16 0.127026 0.153695 0.070605
O O17 0.000000 0.500000 0.000000
#
# Coordination Sequence:
#
# PCOD8025296 Si02
#       8
#     2   2   2   2   2   2   2   2
#     4  11  25  43  73 106 144 187 246 288 358 431
#     4  10  23  45  72 102 141 192 231 297 353 427
#     4  12  24  43  72 105 142 185 237 298 356 422
#     4  11  24  41  73 104 144 181 245 291 362 417
#     4  10  24  41  68  98 142 184 234 292 349 422
#     4  10  23  44  72  98 146 182 237 287 362 415
#     4  11  26  44  73 103 146 191 237 298 362 422
#     4  11  23  44  70 104 142 192 241 296 352 423
#
# _framework density 23.203040999999999
#
# number of rings (size 3 to 8) (size 9 to 14) (size 15 to 20)
#    0.000    1.250    1.250    3.750    8.750    3.500 
#    4.500    0.625    0.000    0.000    0.000    0.000 
#    0.000    0.000    0.000    0.000    0.000    0.000 
#
# Total GULP energy -198302.879150 kJ/mol
# GULP energy per Si atom -12393.929947 kJ/mol
# Density = 2.315023 g / cm^3
# Si number density = 23.203041 Si / 1000 Ang^3
#
#
#
# Elastic Constant Matrix: (Units=GPa)
#
#
# Indices 1 2 3 4 5 6 
#
# 1 107.7468 47.8678 56.4972 3.6691 9.4566 -8.1728
# 2 47.8678 199.8399 59.9978 1.7819 5.2741 -8.2151
# 3 56.4972 59.9978 98.4486 -5.2719 14.5267 -6.2855
# 4 3.6691 1.7819 -5.2719 29.6727 -8.8190 3.2022
# 5 9.4566 5.2741 14.5267 -8.8190 43.1905 -1.5561
# 6 -8.1728 -8.2151 -6.2855 3.2022 -1.5561 36.3795
#
#
#
# Elastic Compliance Matrix: (Units=1/GPa)
#
#
# Indices 1 2 3 4 5 6 
#
# 1 0.013898 -0.001011 -0.007260 -0.003486 -0.001121 0.001899
# 2 -0.001011 0.006260 -0.003296 -0.000785 0.000430 0.000705
# 3 -0.007260 -0.003296 0.016963 0.003185 -0.003058 0.000145
# 4 -0.003486 -0.000785 0.003185 0.037272 0.007277 -0.003380
# 5 -0.001121 0.000430 -0.003058 0.007277 0.025853 -0.000218
# 6 0.001899 0.000705 0.000145 -0.003380 -0.000218 0.028387
#
#
# Mechanical properties :
#
#
# Convention : Reuss Voigt Hill
#
# Bulk Modulus (GPa) = 71.48424 81.64008 76.56216
# Shear Modulus (GPa) = 31.96362 37.96006 34.96184
#
# Velocity S-wave (km/s) = 3.71558 4.04913 3.88594
# Velocity P-wave (km/s) = 7.02014 7.55792 7.29399
#
# Compressibility (1/GPa) = 0.01398910
#
# Stress axis : x y z
#
# Youngs Moduli (GPa) = 71.95421 159.74050 58.95111
#
# Poissons Ratio (x) = 0.16144 0.42796
# Poissons Ratio (y) = 0.07272 0.19428
# Poissons Ratio (z) = 0.52236 0.52646
#
# Static dielectric constant tensor:
#      x y z
#    x 4.589390 -0.070090 0.352940 
#    y -0.070090 4.260170 0.037000 
#    z 0.352940 0.037000 4.623470 
# 
# 
# High freq. dielectric constant tensor:
#      x y z
#    x 1.925850 0.000890 0.006800 
#    y 0.000890 1.928350 0.000780 
#    z 0.006800 0.000780 1.911860 
# 
# From -- ./inp_files/346325.got.cif
#   From: 2010.06.25/outbox.cif.g09.slc.cpg/sg2_174_cif.got.tgz:346325.got - 2010.06.27 13:26:56.
