data_PCOD8025829
_publ_section_title
;
Structure prediction by ZEFSAII (Michael W. Deem and Ramdas Pophale) SiO2 
 PCOD8025829
Probable space group: P -1
;
_chemical_formula_sum "Si O2"
_cell_formula_units_Z 16
_cell_length_a 8.885287
_cell_length_b 23.800141
_cell_length_c 8.290218
_cell_angle_alpha 57.323832
_cell_angle_beta 58.206433
_cell_angle_gamma 29.391149
_cell_volume 717.422849
_symmetry_space_group_name_H-M "P -1"
_symmetry_group_IT_number 2
_symmetry_cell_setting 'triclinic'
loop_
_space_group_symop_operation_xyz
x,y,z
-x,-y,-z
loop_
_atom_site_type_symbol
_atom_site_label
_atom_site_fract_x
_atom_site_fract_y
_atom_site_fract_z
Si Si1 0.060203 0.907837 0.176260
Si Si2 0.688533 0.984934 0.550401
Si Si3 0.828624 0.382234 0.064711
Si Si4 0.838049 0.383500 0.426792
Si Si5 0.864629 0.233171 0.143044
Si Si6 0.262182 0.351522 0.736192
Si Si7 0.101043 0.177850 0.743677
Si Si8 0.798864 0.607570 0.660903
O O1 0.408372 0.771057 0.185666
O O2 0.923630 0.957441 0.356871
O O3 0.885463 0.905563 0.173840
O O4 0.000000 0.000000 0.000000
O O5 0.900593 0.888676 0.717879
O O6 0.500000 0.000000 0.500000
O O7 0.441859 0.100749 0.621723
O O8 0.869204 0.393061 0.207911
O O9 0.865868 0.292092 0.179264
O O10 0.500000 0.500000 0.000000
O O11 0.067568 0.344182 0.870105
O O12 0.500000 0.500000 0.500000
O O13 0.882658 0.290852 0.579235
O O14 0.085336 0.354131 0.422519
O O15 0.515944 0.312667 0.186575
O O16 0.006216 0.216500 0.921829
O O17 0.301542 0.363862 0.512850
O O18 0.074510 0.468441 0.756967
#
# Coordination Sequence:
#
# PCOD8025829 Si02
#       8
#     2   2   2   2   2   2   2   2
#     4  11  25  44  71 106 142 187 237 293 352 423
#     4  10  23  46  69  97 135 190 233 286 348 417
#     4  12  25  43  71 103 140 191 229 285 358 429
#     4  12  27  46  72 104 146 183 237 291 357 424
#     4  12  24  46  72 103 144 184 241 292 351 424
#     4  11  24  43  71 102 147 182 235 287 363 419
#     4  11  26  45  70 103 141 184 240 288 356 414
#     4  11  25  44  73 107 141 185 234 299 354 417
#
# _framework density 22.302047999999999
#
# number of rings (size 3 to 8) (size 9 to 14) (size 15 to 20)
#    0.000    0.750    2.500    4.875    8.750    0.500 
#    2.250    1.250    0.000    0.000    0.000    0.000 
#    0.000    0.000    0.000    0.000    0.000    0.000 
#
# Total GULP energy -198260.178858 kJ/mol
# GULP energy per Si atom -12391.261179 kJ/mol
# Density = 2.225129 g / cm^3
# Si number density = 22.302048 Si / 1000 Ang^3
#
#
#
# Elastic Constant Matrix: (Units=GPa)
#
#
# Indices 1 2 3 4 5 6 
#
# 1 63.4999 22.0670 17.0817 0.7614 -4.0142 3.1139
# 2 22.0670 160.0353 62.7621 2.4292 4.1620 -11.8812
# 3 17.0817 62.7621 123.0526 0.7027 4.9572 -5.4651
# 4 0.7614 2.4292 0.7027 53.1850 1.2510 -6.1014
# 5 -4.0142 4.1620 4.9572 1.2510 37.2555 -3.7930
# 6 3.1139 -11.8812 -5.4651 -6.1014 -3.7930 30.3351
#
#
#
# Elastic Compliance Matrix: (Units=1/GPa)
#
#
# Indices 1 2 3 4 5 6 
#
# 1 0.017124 -0.001993 -0.001557 -0.000487 0.002020 -0.002664
# 2 -0.001993 0.008215 -0.003779 0.000021 -0.000355 0.002701
# 3 -0.001557 -0.003779 0.010332 0.000133 -0.001081 0.000433
# 4 -0.000487 0.000021 0.000133 0.019263 -0.000321 0.003917
# 5 0.002020 -0.000355 -0.001081 -0.000321 0.027543 0.002838
# 6 -0.002664 0.002701 0.000433 0.003917 0.002838 0.035517
#
#
# Mechanical properties :
#
#
# Convention : Reuss Voigt Hill
#
# Bulk Modulus (GPa) = 47.59284 61.15662 54.37473
# Shear Modulus (GPa) = 35.80175 40.46692 38.13433
#
# Velocity S-wave (km/s) = 4.01098 4.26431 4.13958
# Velocity P-wave (km/s) = 6.54500 7.19217 6.87620
#
# Compressibility (1/GPa) = 0.02101157
#
# Stress axis : x y z
#
# Youngs Moduli (GPa) = 58.39794 121.72794 96.78380
#
# Poissons Ratio (x) = 0.24265 0.15072
# Poissons Ratio (y) = 0.11641 0.36576
# Poissons Ratio (z) = 0.09094 0.46003
#
# Static dielectric constant tensor:
#      x y z
#    x 3.798620 -0.102040 -0.198740 
#    y -0.102040 4.430280 0.383100 
#    z -0.198740 0.383100 4.439990 
# 
# 
# High freq. dielectric constant tensor:
#      x y z
#    x 1.854240 -0.007740 -0.002160 
#    y -0.007740 1.899830 0.008820 
#    z -0.002160 0.008820 1.894570 
# 
# From -- ./inp_files/226082.got.cif
#   From: 2010.06.25/outbox.cif.g09.slc.cpg/sg2_114_cif.got.tgz:226082.got - 2010.06.27 13:26:56.
