data_PCOD8025243
_publ_section_title
;
Structure prediction by ZEFSAII (Michael W. Deem and Ramdas Pophale) SiO2 
 PCOD8025243
Probable space group: P -1
;
_chemical_formula_sum "Si O2"
_cell_formula_units_Z 12
_cell_length_a 14.142525
_cell_length_b 11.827918
_cell_length_c 17.256457
_cell_angle_alpha 148.967921
_cell_angle_beta 149.670890
_cell_angle_gamma 19.031758
_cell_volume 460.412930
_symmetry_space_group_name_H-M "P -1"
_symmetry_group_IT_number 2
_symmetry_cell_setting 'triclinic'
loop_
_space_group_symop_operation_xyz
x,y,z
-x,-y,-z
loop_
_atom_site_type_symbol
_atom_site_label
_atom_site_fract_x
_atom_site_fract_y
_atom_site_fract_z
Si Si1 0.664965 0.229929 0.127042
Si Si2 0.157203 0.759334 0.893916
Si Si3 0.481561 0.798523 0.416536
Si Si4 0.135012 0.262665 0.585574
Si Si5 0.469788 0.110887 0.210806
Si Si6 0.215153 0.111780 0.839932
O O1 0.906674 0.069532 0.135715
O O2 0.434127 0.645481 0.229917
O O3 0.842176 0.011806 0.205440
O O4 0.457538 0.214548 0.944677
O O5 0.100223 0.555189 0.722271
O O6 0.500000 0.500000 0.000000
O O7 0.000000 0.000000 0.000000
O O8 0.805019 0.472855 0.499964
O O9 0.500000 0.000000 0.500000
O O10 0.209089 0.069776 0.444383
O O11 0.402759 0.947844 0.649351
O O12 0.105087 0.468773 0.154158
O O13 0.662242 0.088923 0.274526
O O14 0.500000 0.000000 0.000000
#
# Coordination Sequence:
#
# PCOD8025243 Si02
#       6
#     2   2   2   2   2   2
#     4  11  25  45  74 103 139 182 235 286 344 415
#     4  12  26  41  71 107 137 178 234 290 347 405
#     4  12  27  46  67 103 147 185 226 280 353 421
#     4  12  26  47  67 103 146 182 226 290 348 413
#     4  11  24  45  74 102 138 179 239 288 342 407
#     4  10  23  44  71 107 134 178 235 296 340 398
#
# _framework density 26.063559999999999
#
# number of rings (size 3 to 8) (size 9 to 14) (size 15 to 20)
#    0.000    0.667    3.333    4.500    2.333    5.333 
#    0.000    5.000    0.000    0.000    0.000    0.000 
#    0.000    0.000    0.000    0.000    0.000    0.000 
#
# Total GULP energy -148671.854596 kJ/mol
# GULP energy per Si atom -12389.321216 kJ/mol
# Density = 2.600424 g / cm^3
# Si number density = 26.063560 Si / 1000 Ang^3
#
#
#
# Elastic Constant Matrix: (Units=GPa)
#
#
# Indices 1 2 3 4 5 6 
#
# 1 199.1438 52.3370 25.7005 10.0271 -34.2437 -2.4687
# 2 52.3370 97.6537 25.7889 -0.9188 -9.9971 -17.1745
# 3 25.7005 25.7889 91.3479 0.6184 -26.4485 -8.4993
# 4 10.0271 -0.9188 0.6184 36.1611 -5.0074 -6.6537
# 5 -34.2437 -9.9971 -26.4485 -5.0074 35.7100 1.2868
# 6 -2.4687 -17.1745 -8.4993 -6.6537 1.2868 52.9078
#
#
#
# Elastic Compliance Matrix: (Units=1/GPa)
#
#
# Indices 1 2 3 4 5 6 
#
# 1 0.006941 -0.003475 0.000692 -0.001375 0.006039 -0.001013
# 2 -0.003475 0.013430 -0.002923 0.001867 -0.001620 0.004002
# 3 0.000692 -0.002923 0.014879 0.001252 0.010991 0.001364
# 4 -0.001375 0.001867 0.001252 0.029429 0.004102 0.004344
# 5 0.006039 -0.001620 0.010991 0.004102 0.042020 0.001015
# 6 -0.001013 0.004002 0.001364 0.004344 0.001015 0.020893
#
#
# Mechanical properties :
#
#
# Convention : Reuss Voigt Hill
#
# Bulk Modulus (GPa) = 41.95280 66.19981 54.07630
# Shear Modulus (GPa) = 34.02507 43.91038 38.96772
#
# Velocity S-wave (km/s) = 3.61704 4.10901 3.87085
# Velocity P-wave (km/s) = 5.79442 6.92579 6.38521
#
# Compressibility (1/GPa) = 0.02383631
#
# Stress axis : x y z
#
# Youngs Moduli (GPa) = 144.07850 74.45789 67.21079
#
# Poissons Ratio (x) = 0.25877 -0.04651
# Poissons Ratio (y) = 0.50073 0.19647
# Poissons Ratio (z) = -0.09970 0.21766
#
# Static dielectric constant tensor:
#      x y z
#    x 3.585700 0.786410 -0.366900 
#    y 0.786410 4.930770 -0.062130 
#    z -0.366900 -0.062130 4.776500 
# 
# 
# High freq. dielectric constant tensor:
#      x y z
#    x 2.061600 -0.002770 -0.013510 
#    y -0.002770 2.047100 -0.014710 
#    z -0.013510 -0.014710 2.036590 
# 
# From -- ./inp_files/491485.got.cif
#   From: 2010.06.25/outbox.cif.g09.slc.cpg/sg2_246_cif.got.tgz:491485.got - 2010.06.27 13:26:56.
