data_PCOD8025672
_publ_section_title
;
Structure prediction by ZEFSAII (Michael W. Deem and Ramdas Pophale) SiO2 
 PCOD8025672
Probable space group: P -1
;
_chemical_formula_sum "Si O2"
_cell_formula_units_Z 14
_cell_length_a 6.195478
_cell_length_b 23.498318
_cell_length_c 16.653472
_cell_angle_alpha 160.009202
_cell_angle_beta 58.178184
_cell_angle_gamma 129.979764
_cell_volume 607.422145
_symmetry_space_group_name_H-M "P -1"
_symmetry_group_IT_number 2
_symmetry_cell_setting 'triclinic'
loop_
_space_group_symop_operation_xyz
x,y,z
-x,-y,-z
loop_
_atom_site_type_symbol
_atom_site_label
_atom_site_fract_x
_atom_site_fract_y
_atom_site_fract_z
Si Si1 0.146973 0.617835 0.209555
Si Si2 0.785916 0.901428 0.506692
Si Si3 0.399767 0.252506 0.031656
Si Si4 0.306922 0.598800 0.672551
Si Si5 0.879720 0.236251 0.834984
Si Si6 0.162029 0.138130 0.379394
Si Si7 0.652745 0.372806 0.474732
O O1 0.497967 0.767085 0.329363
O O2 0.989226 0.732609 0.421439
O O3 0.000000 0.500000 0.000000
O O4 0.103671 0.466682 0.089041
O O5 0.686105 0.850481 0.550163
O O6 0.052669 0.858780 0.381304
O O7 0.919582 0.128910 0.762585
O O8 0.582449 0.258261 0.083459
O O9 0.408822 0.450975 0.278554
O O10 0.550013 0.205457 0.864113
O O11 0.069080 0.084646 0.886281
O O12 0.500000 0.500000 0.500000
O O13 0.346322 0.702840 0.716377
O O14 0.966245 0.439219 0.541940
O O15 0.404207 0.198529 0.343247
#
# Coordination Sequence:
#
# PCOD8025672 Si02
#       7
#     2   2   2   2   2   2   2
#     4  12  25  43  64  95 132 181 231 274 326 388
#     4  11  27  42  61 101 138 177 229 274 331 385
#     4  11  24  41  68 101 131 176 226 271 329 398
#     4   9  22  46  70 100 129 169 219 267 346 402
#     4  11  24  44  66  92 140 182 217 284 322 386
#     4  12  26  41  68 102 133 174 229 273 332 397
#     4  10  23  45  72  95 134 174 211 280 337 398
#
# _framework density 23.048220000000001
#
# number of rings (size 3 to 8) (size 9 to 14) (size 15 to 20)
#    0.000    1.143    4.286    0.429    4.000    4.000 
#    0.000    6.429    0.000    0.000    0.000    0.000 
#    0.000    0.000    0.000    0.000    0.000    0.000 
#
# Total GULP energy -173500.128929 kJ/mol
# GULP energy per Si atom -12392.866352 kJ/mol
# Density = 2.299576 g / cm^3
# Si number density = 23.048220 Si / 1000 Ang^3
#
#
#
# Elastic Constant Matrix: (Units=GPa)
#
#
# Indices 1 2 3 4 5 6 
#
# 1 92.6241 39.9161 24.2347 2.9590 19.9099 2.6517
# 2 39.9161 141.4692 25.5556 28.6691 16.3442 13.7615
# 3 24.2347 25.5556 59.3440 21.3425 5.8011 -10.3756
# 4 2.9590 28.6691 21.3425 35.0128 -4.2372 -6.7082
# 5 19.9099 16.3442 5.8011 -4.2372 47.4828 2.8811
# 6 2.6517 13.7615 -10.3756 -6.7082 2.8811 34.2197
#
#
#
# Elastic Compliance Matrix: (Units=1/GPa)
#
#
# Indices 1 2 3 4 5 6 
#
# 1 0.014486 -0.003552 -0.005748 0.004699 -0.003717 -0.000203
# 2 -0.003552 0.011098 -0.000535 -0.009961 -0.002786 -0.006068
# 3 -0.005748 -0.000535 0.025645 -0.013835 -0.002132 0.005904
# 4 0.004699 -0.009961 -0.013835 0.047138 0.006863 0.008109
# 5 -0.003717 -0.002786 -0.002132 0.006863 0.024448 0.000049
# 6 -0.000203 -0.006068 0.005904 0.008109 0.000049 0.035055
#
#
# Mechanical properties :
#
#
# Convention : Reuss Voigt Hill
#
# Bulk Modulus (GPa) = 31.68693 52.53891 42.11292
# Shear Modulus (GPa) = 26.58736 36.92511 31.75623
#
# Velocity S-wave (km/s) = 3.40009 4.00694 3.71592
# Velocity P-wave (km/s) = 5.40297 6.65223 6.05988
#
# Compressibility (1/GPa) = 0.03155875
#
# Stress axis : x y z
#
# Youngs Moduli (GPa) = 69.03318 90.10360 38.99397
#
# Poissons Ratio (x) = 0.32005 0.22414
# Poissons Ratio (y) = 0.24520 0.02086
# Poissons Ratio (z) = 0.39682 0.04821
#
# Static dielectric constant tensor:
#      x y z
#    x 4.234950 -0.150110 -0.052950 
#    y -0.150110 4.509070 -0.060400 
#    z -0.052950 -0.060400 4.115820 
# 
# 
# High freq. dielectric constant tensor:
#      x y z
#    x 1.906160 0.009020 -0.016580 
#    y 0.009020 1.923400 0.001800 
#    z -0.016580 0.001800 1.896150 
# 
# From -- ./inp_files/52329.got.cif
#   From: 2010.06.25/outbox.cif.g09.slc.cpg/sg2_27_cif.got.tgz:52329.got - 2010.06.27 13:26:56.
