data_PCOD8025816
_publ_section_title
;
Structure prediction by ZEFSAII (Michael W. Deem and Ramdas Pophale) SiO2 
 PCOD8025816
Probable space group: P -1
;
_chemical_formula_sum "Si O2"
_cell_formula_units_Z 12
_cell_length_a 9.325434
_cell_length_b 11.725662
_cell_length_c 5.006818
_cell_angle_alpha 101.697774
_cell_angle_beta 121.993031
_cell_angle_gamma 66.726317
_cell_volume 426.526310
_symmetry_space_group_name_H-M "P -1"
_symmetry_group_IT_number 2
_symmetry_cell_setting 'triclinic'
loop_
_space_group_symop_operation_xyz
x,y,z
-x,-y,-z
loop_
_atom_site_type_symbol
_atom_site_label
_atom_site_fract_x
_atom_site_fract_y
_atom_site_fract_z
Si Si1 0.731365 0.433502 0.422428
Si Si2 0.032711 0.236941 0.363887
Si Si3 0.707344 0.160638 0.833310
Si Si4 0.694491 0.009195 0.238266
Si Si5 0.167609 0.375587 0.125475
Si Si6 0.433808 0.353608 0.987501
O O1 0.690079 0.555983 0.618621
O O2 0.669424 0.499301 0.103450
O O3 0.944393 0.342423 0.560230
O O4 0.610106 0.349638 0.338441
O O5 0.155936 0.116407 0.578299
O O6 0.146924 0.282018 0.282426
O O7 0.867059 0.218254 0.029449
O O8 0.514392 0.260333 0.776052
O O9 0.681418 0.116778 0.490515
O O10 0.761068 0.044352 0.037410
O O11 0.500000 0.000000 0.000000
O O12 0.280580 0.303083 0.943659
O O13 0.000000 0.500000 0.000000
#
# Coordination Sequence:
#
# PCOD8025816 Si02
#       6
#     2   2   2   2   2   2
#     4  10  23  46  69 109 153 202 258 316 394 459
#     4  11  26  50  78 117 161 208 267 326 402 472
#     4  11  28  53  82 115 159 212 265 329 399 475
#     4  12  29  53  82 120 153 209 272 334 395 469
#     4  12  25  42  74 114 158 208 257 324 393 475
#     4  10  24  45  74 108 153 202 259 317 392 466
#
# _framework density 28.134255
#
# number of rings (size 3 to 8) (size 9 to 14) (size 15 to 20)
#    0.000    1.000    1.667    2.500    4.667    5.333 
#    0.000    0.000    0.000    0.000    0.000    0.000 
#    0.000    0.000    0.000    0.000    0.000    0.000 
#
# Total GULP energy -148697.558890 kJ/mol
# GULP energy per Si atom -12391.463241 kJ/mol
# Density = 2.807022 g / cm^3
# Si number density = 28.134255 Si / 1000 Ang^3
#
#
#
# Elastic Constant Matrix: (Units=GPa)
#
#
# Indices 1 2 3 4 5 6 
#
# 1 145.5300 29.4347 -1.8729 -15.3651 -2.2055 -12.5376
# 2 29.4347 126.3517 4.5876 -10.2956 10.6460 -14.7936
# 3 -1.8729 4.5876 41.8194 2.8660 -2.1884 -12.4216
# 4 -15.3651 -10.2956 2.8660 43.2044 -9.2860 3.5465
# 5 -2.2055 10.6460 -2.1884 -9.2860 27.0798 -16.3212
# 6 -12.5376 -14.7936 -12.4216 3.5465 -16.3212 43.7441
#
#
#
# Elastic Compliance Matrix: (Units=1/GPa)
#
#
# Indices 1 2 3 4 5 6 
#
# 1 0.007931 -0.001623 0.001671 0.003027 0.004688 0.003703
# 2 -0.001623 0.008759 -0.000876 0.000908 -0.002612 0.001200
# 3 0.001671 -0.000876 0.028138 -0.000353 0.009774 0.011848
# 4 0.003027 0.000908 -0.000353 0.026526 0.010719 0.002923
# 5 0.004688 -0.002612 0.009774 0.010719 0.057060 0.023657
# 6 0.003703 0.001200 0.011848 0.002923 0.023657 0.036281
#
#
# Mechanical properties :
#
#
# Convention : Reuss Voigt Hill
#
# Bulk Modulus (GPa) = 23.16338 42.00001 32.58169
# Shear Modulus (GPa) = 27.66377 41.57577 34.61977
#
# Velocity S-wave (km/s) = 3.13913 3.84834 3.51168
# Velocity P-wave (km/s) = 4.62492 5.89127 5.29608
#
# Compressibility (1/GPa) = 0.04317160
#
# Stress axis : x y z
#
# Youngs Moduli (GPa) = 126.09045 114.16938 35.53877
#
# Poissons Ratio (x) = 0.18531 -0.05938
# Poissons Ratio (y) = 0.20466 0.03113
# Poissons Ratio (z) = -0.21069 0.10001
#
# Static dielectric constant tensor:
#      x y z
#    x 5.140330 0.033620 -0.223850 
#    y 0.033620 5.184450 -0.432770 
#    z -0.223850 -0.432770 -0.054010 
# 
# 
# High freq. dielectric constant tensor:
#      x y z
#    x 2.147430 -0.001280 0.024860 
#    y -0.001280 2.147660 0.003020 
#    z 0.024860 0.003020 2.156440 
# 
# From -- ./inp_files/28584.got.cif
#   From: 2010.06.25/outbox.cif.g09.slc.cpg/sg2_15_cif.got.tgz:28584.got - 2010.06.27 13:26:56.
