data_PCOD8025143
_publ_section_title
;
Structure prediction by ZEFSAII (Michael W. Deem and Ramdas Pophale) SiO2 
 PCOD8025143
Probable space group: P -1
;
_chemical_formula_sum "Si O2"
_cell_formula_units_Z 16
_cell_length_a 21.030068
_cell_length_b 5.022357
_cell_length_c 8.582476
_cell_angle_alpha 120.380659
_cell_angle_beta 58.595145
_cell_angle_gamma 103.096147
_cell_volume 666.610674
_symmetry_space_group_name_H-M "P -1"
_symmetry_group_IT_number 2
_symmetry_cell_setting 'triclinic'
loop_
_space_group_symop_operation_xyz
x,y,z
-x,-y,-z
loop_
_atom_site_type_symbol
_atom_site_label
_atom_site_fract_x
_atom_site_fract_y
_atom_site_fract_z
Si Si1 0.509373 0.763651 0.776925
Si Si2 0.777174 0.369305 0.929327
Si Si3 0.714981 0.518261 0.728979
Si Si4 0.601872 0.166153 0.565059
Si Si5 0.917020 0.643324 0.782232
Si Si6 0.357305 0.877929 0.845034
Si Si7 0.999963 0.235575 0.796770
Si Si8 0.862900 0.769552 0.572136
O O1 0.535570 0.427682 0.707290
O O2 0.431946 0.718912 0.774800
O O3 0.570622 0.879301 0.612792
O O4 0.500000 0.000000 0.000000
O O5 0.739709 0.335484 0.798008
O O6 0.829893 0.664438 0.964033
O O7 0.834622 0.075896 0.791957
O O8 0.709394 0.364760 0.137928
O O9 0.668860 0.300504 0.615527
O O10 0.789629 0.595631 0.560275
O O11 0.665774 0.822659 0.933748
O O12 0.630878 0.034097 0.323585
O O13 0.959647 0.351697 0.724016
O O14 0.911746 0.571662 0.581853
O O15 0.959743 0.955265 0.847985
O O16 0.086297 0.151454 0.617305
O O17 0.000000 0.500000 0.000000
#
# Coordination Sequence:
#
# PCOD8025143 Si02
#       8
#     2   2   2   2   2   2   2   2
#     4  12  25  46  73 101 142 183 230 287 346 409
#     4  10  23  44  72  97 132 183 230 281 340 414
#     4  10  24  44  68  98 141 181 232 282 347 412
#     4  12  27  45  71 105 135 184 230 290 343 410
#     4  11  23  45  70  94 130 181 224 267 343 403
#     4  11  25  44  70 102 140 180 233 286 349 408
#     4  12  26  42  67 105 139 172 224 287 337 401
#     4  10  23  44  69  97 131 181 228 276 338 414
#
# _framework density 24.002015
#
# number of rings (size 3 to 8) (size 9 to 14) (size 15 to 20)
#    0.000    1.000    2.500    3.000    8.750    1.000 
#    0.000    0.000    0.000    0.000    0.000    0.000 
#    0.000    0.000    0.000    0.000    0.000    0.000 
#
# Total GULP energy -198356.611976 kJ/mol
# GULP energy per Si atom -12397.288249 kJ/mol
# Density = 2.394739 g / cm^3
# Si number density = 24.002015 Si / 1000 Ang^3
#
#
#
# Elastic Constant Matrix: (Units=GPa)
#
#
# Indices 1 2 3 4 5 6 
#
# 1 92.5853 14.5872 31.6211 -14.1569 -14.8249 8.8442
# 2 14.5872 82.9079 16.0016 -25.5956 -17.7775 12.6693
# 3 31.6211 16.0016 81.3538 -32.2274 -8.8341 30.9085
# 4 -14.1569 -25.5956 -32.2274 36.5336 6.1090 -9.7552
# 5 -14.8249 -17.7775 -8.8341 6.1090 22.9591 -11.0978
# 6 8.8442 12.6693 30.9085 -9.7552 -11.0978 44.2314
#
#
#
# Elastic Compliance Matrix: (Units=1/GPa)
#
#
# Indices 1 2 3 4 5 6 
#
# 1 0.013766 -0.000176 -0.005885 -0.000457 0.008242 0.003378
# 2 -0.000176 0.018245 0.003962 0.013816 0.010797 -0.002204
# 3 -0.005885 0.003962 0.027829 0.021448 -0.003214 -0.015481
# 4 -0.000457 0.013816 0.021448 0.053820 0.001092 -0.006710
# 5 0.008242 0.010797 -0.003214 0.001092 0.062160 0.013342
# 6 0.003378 -0.002204 -0.015481 -0.006710 0.013342 0.035250
#
#
# Mechanical properties :
#
#
# Convention : Reuss Voigt Hill
#
# Bulk Modulus (GPa) = 17.97190 42.36298 30.16744
# Shear Modulus (GPa) = 21.38438 33.72063 27.55250
#
# Velocity S-wave (km/s) = 2.98810 3.75228 3.39178
# Velocity P-wave (km/s) = 4.40556 6.03828 5.28535
#
# Compressibility (1/GPa) = 0.05564242
#
# Stress axis : x y z
#
# Youngs Moduli (GPa) = 72.64368 54.80984 35.93336
#
# Poissons Ratio (x) = 0.00965 0.21147
# Poissons Ratio (y) = 0.01279 -0.14238
# Poissons Ratio (z) = 0.42752 -0.21718
#
# Static dielectric constant tensor:
#      x y z
#    x 4.616710 0.053570 -0.287550 
#    y 0.053570 4.505560 -0.447020 
#    z -0.287550 -0.447020 4.129600 
# 
# 
# High freq. dielectric constant tensor:
#      x y z
#    x 1.965450 0.003880 -0.022200 
#    y 0.003880 1.962810 -0.025470 
#    z -0.022200 -0.025470 1.928010 
# 
# From -- ./inp_files/340627.got.cif
#   From: 2010.06.25/outbox.cif.g09.slc.cpg/sg2_171_cif.got.tgz:340627.got - 2010.06.27 13:26:56.
