data_PCOD8025856
_publ_section_title
;
Structure prediction by ZEFSAII (Michael W. Deem and Ramdas Pophale) SiO2 
 PCOD8025856
Probable space group: P -1
;
_chemical_formula_sum "Si O2"
_cell_formula_units_Z 14
_cell_length_a 11.781785
_cell_length_b 8.791240
_cell_length_c 8.449676
_cell_angle_alpha 93.011694
_cell_angle_beta 53.017773
_cell_angle_gamma 111.711157
_cell_volume 632.255205
_symmetry_space_group_name_H-M "P -1"
_symmetry_group_IT_number 2
_symmetry_cell_setting 'triclinic'
loop_
_space_group_symop_operation_xyz
x,y,z
-x,-y,-z
loop_
_atom_site_type_symbol
_atom_site_label
_atom_site_fract_x
_atom_site_fract_y
_atom_site_fract_z
Si Si1 0.885301 0.150438 0.544122
Si Si2 0.963719 0.690775 0.889301
Si Si3 0.772821 0.330591 0.152618
Si Si4 0.787991 0.778030 0.605227
Si Si5 0.654041 0.090681 0.976646
Si Si6 0.403491 0.543061 0.453832
Si Si7 0.695727 0.775876 0.023892
O O1 0.942724 0.269893 0.351785
O O2 0.028407 0.169611 0.536672
O O3 0.778884 0.953279 0.574284
O O4 0.779576 0.209394 0.748810
O O5 0.099650 0.742784 0.912306
O O6 0.857014 0.494015 0.983290
O O7 0.843925 0.780755 0.005317
O O8 0.638696 0.201052 0.142055
O O9 0.694303 0.364517 0.378129
O O10 0.714113 0.633820 0.529846
O O11 0.703469 0.703840 0.839493
O O12 0.716453 0.964573 0.997429
O O13 0.500000 0.000000 0.000000
O O14 0.500000 0.500000 0.500000
O O15 0.524863 0.664743 0.231887
#
# Coordination Sequence:
#
# PCOD8025856 Si02
#       7
#     2   2   2   2   2   2   2
#     4   9  21  42  70  92 126 179 221 273 322 393
#     4  10  23  47  67 100 132 175 228 271 331 396
#     4  11  27  44  64 103 140 170 223 280 332 391
#     4   9  21  42  68  99 126 170 236 264 320 399
#     4  11  27  44  68  99 138 172 223 279 335 397
#     4  12  25  40  68 101 139 177 214 279 337 392
#     4  10  23  46  70  97 131 185 219 271 332 399
#
# _framework density 22.142959000000001
#
# number of rings (size 3 to 8) (size 9 to 14) (size 15 to 20)
#    0.000    1.714    1.429    1.286   10.000    5.143 
#    0.000    0.000    0.000    0.000    0.000    0.000 
#    0.000    0.000    0.000    0.000    0.000    0.000 
#
# Total GULP energy -173497.629464 kJ/mol
# GULP energy per Si atom -12392.687819 kJ/mol
# Density = 2.209256 g / cm^3
# Si number density = 22.142959 Si / 1000 Ang^3
#
#
#
# Elastic Constant Matrix: (Units=GPa)
#
#
# Indices 1 2 3 4 5 6 
#
# 1 116.6616 56.0414 37.2043 1.3324 -4.8728 2.9278
# 2 56.0414 89.8117 58.1788 17.9618 -2.3055 29.4137
# 3 37.2043 58.1788 146.7660 -5.3823 -4.2316 9.2345
# 4 1.3324 17.9618 -5.3823 35.5386 -2.2624 7.9072
# 5 -4.8728 -2.3055 -4.2316 -2.2624 25.6316 -1.6372
# 6 2.9278 29.4137 9.2345 7.9072 -1.6372 41.9366
#
#
#
# Elastic Compliance Matrix: (Units=1/GPa)
#
#
# Indices 1 2 3 4 5 6 
#
# 1 0.014236 -0.012921 0.001327 0.004814 0.002633 0.006972
# 2 -0.012921 0.034447 -0.009848 -0.014524 -0.003447 -0.018486
# 3 0.001327 -0.009848 0.010429 0.005848 0.001827 0.003487
# 4 0.004814 -0.014524 0.005848 0.036002 0.003875 0.001926
# 5 0.002633 -0.003447 0.001827 0.003875 0.040019 0.002663
# 6 0.006972 -0.018486 0.003487 0.001926 0.002663 0.035298
#
#
# Mechanical properties :
#
#
# Convention : Reuss Voigt Hill
#
# Bulk Modulus (GPa) = 61.62609 72.89869 67.26239
# Shear Modulus (GPa) = 22.85994 34.07570 28.46782
#
# Velocity S-wave (km/s) = 3.21655 3.92713 3.58947
# Velocity P-wave (km/s) = 6.45650 7.31823 6.90083
#
# Compressibility (1/GPa) = 0.01622689
#
# Stress axis : x y z
#
# Youngs Moduli (GPa) = 70.24684 29.03009 95.88794
#
# Poissons Ratio (x) = 0.37510 -0.12726
# Poissons Ratio (y) = 0.90765 0.94435
# Poissons Ratio (z) = -0.09323 0.28590
#
# Static dielectric constant tensor:
#      x y z
#    x 4.134840 -0.100810 -0.104950 
#    y -0.100810 3.887230 -0.052080 
#    z -0.104950 -0.052080 4.602040 
# 
# 
# High freq. dielectric constant tensor:
#      x y z
#    x 1.873900 -0.003120 -0.003690 
#    y -0.003120 1.850600 -0.011400 
#    z -0.003690 -0.011400 1.885660 
# 
# From -- ./inp_files/244403.got.cif
#   From: 2010.06.25/outbox.cif.g09.slc.cpg/sg2_123_cif.got.tgz:244403.got - 2010.06.27 13:26:56.
