data_PCOD8025896
_publ_section_title
;
Structure prediction by ZEFSAII (Michael W. Deem and Ramdas Pophale) SiO2 
 PCOD8025896
Probable space group: P -1
;
_chemical_formula_sum "Si O2"
_cell_formula_units_Z 16
_cell_length_a 21.479203
_cell_length_b 5.592497
_cell_length_c 7.652464
_cell_angle_alpha 114.880327
_cell_angle_beta 130.529789
_cell_angle_gamma 66.276453
_cell_volume 622.656685
_symmetry_space_group_name_H-M "P -1"
_symmetry_group_IT_number 2
_symmetry_cell_setting 'triclinic'
loop_
_space_group_symop_operation_xyz
x,y,z
-x,-y,-z
loop_
_atom_site_type_symbol
_atom_site_label
_atom_site_fract_x
_atom_site_fract_y
_atom_site_fract_z
Si Si1 0.069264 0.225924 0.767838
Si Si2 0.803422 0.095690 0.334084
Si Si3 0.327738 0.704159 0.132380
Si Si4 0.184408 0.526454 0.234424
Si Si5 0.527050 0.254630 0.847786
Si Si6 0.956199 0.183404 0.131710
Si Si7 0.336653 0.162391 0.868820
Si Si8 0.650163 0.805843 0.491565
O O1 0.135201 0.277048 0.054937
O O2 0.012155 0.524161 0.714351
O O3 0.114932 0.119930 0.637075
O O4 0.027665 0.983364 0.704992
O O5 0.832630 0.340713 0.563784
O O6 0.743699 0.976324 0.322377
O O7 0.752626 0.181659 0.093673
O O8 0.414941 0.691705 0.187090
O O9 0.328631 0.894119 0.360466
O O10 0.322587 0.394908 0.064704
O O11 0.282964 0.414398 0.349136
O O12 0.143858 0.738397 0.073515
O O13 0.441442 0.184361 0.591740
O O14 0.500000 0.500000 0.000000
O O15 0.575951 0.024459 0.990134
O O16 0.000000 0.000000 0.000000
O O17 0.344201 0.284707 0.727913
#
# Coordination Sequence:
#
# PCOD8025896 Si02
#       8
#     2   2   2   2   2   2   2   2
#     4  10  24  43  72 101 136 177 221 270 331 396
#     4  11  23  41  62 100 131 169 224 274 325 397
#     4  11  23  40  61  88 126 171 223 275 335 397
#     4  10  24  40  69  97 131 177 213 277 333 395
#     4  11  23  44  58  85 129 170 223 280 338 393
#     4  10  23  46  72 102 142 177 217 270 334 398
#     4  11  25  40  63  87 129 175 214 285 329 390
#     4  12  22  42  63  92 126 169 225 274 339 397
#
# _framework density 25.696344
#
# number of rings (size 3 to 8) (size 9 to 14) (size 15 to 20)
#    0.750    0.500    3.750    1.875    3.500    1.500 
#    4.500    1.250    0.000    0.000    0.000    0.000 
#    0.000    0.000    0.000    0.000    0.000    0.000 
#
# Total GULP energy -198228.639723 kJ/mol
# GULP energy per Si atom -12389.289983 kJ/mol
# Density = 2.563786 g / cm^3
# Si number density = 25.696344 Si / 1000 Ang^3
#
#
#
# Elastic Constant Matrix: (Units=GPa)
#
#
# Indices 1 2 3 4 5 6 
#
# 1 43.8822 33.6908 4.2032 -16.1913 -5.6535 -8.5777
# 2 33.6908 150.1394 11.5326 9.2215 0.5073 -11.0997
# 3 4.2032 11.5326 43.2222 11.9721 3.8059 -7.9911
# 4 -16.1913 9.2215 11.9721 51.8442 -11.7194 -5.3027
# 5 -5.6535 0.5073 3.8059 -11.7194 33.8632 4.5142
# 6 -8.5777 -11.0997 -7.9911 -5.3027 4.5142 38.5388
#
#
#
# Elastic Compliance Matrix: (Units=1/GPa)
#
#
# Indices 1 2 3 4 5 6 
#
# 1 0.041071 -0.009495 -0.007077 0.019906 0.013877 0.006053
# 2 -0.009495 0.009131 0.000383 -0.005486 -0.003700 0.000275
# 3 -0.007077 0.000383 0.028027 -0.010250 -0.008407 0.003921
# 4 0.019906 -0.005486 -0.010250 0.032682 0.015412 0.003417
# 5 0.013877 -0.003700 -0.008407 0.015412 0.038462 -0.002105
# 6 0.006053 0.000275 0.003921 0.003417 -0.002105 0.028904
#
#
# Mechanical properties :
#
#
# Convention : Reuss Voigt Hill
#
# Bulk Modulus (GPa) = 21.80937 37.34410 29.57673
# Shear Modulus (GPa) = 22.12992 37.37038 29.75015
#
# Velocity S-wave (km/s) = 2.93782 3.81768 3.40628
# Velocity P-wave (km/s) = 4.47364 5.83072 5.19667
#
# Compressibility (1/GPa) = 0.04585186
#
# Stress axis : x y z
#
# Youngs Moduli (GPa) = 24.34783 109.51228 35.68044
#
# Poissons Ratio (x) = 1.03978 0.25252
# Poissons Ratio (y) = 0.23117 -0.01367
# Poissons Ratio (z) = 0.17231 -0.04195
#
# Static dielectric constant tensor:
#      x y z
#    x 9.702730 0.235260 5.171120 
#    y 0.235260 4.880850 0.675870 
#    z 5.171120 0.675870 8.996740 
# 
# 
# High freq. dielectric constant tensor:
#      x y z
#    x 1.999520 -0.026590 0.005290 
#    y -0.026590 2.035340 0.015800 
#    z 0.005290 0.015800 2.039590 
# 
# From -- ./inp_files/350852.got.cif
#   From: 2010.06.25/outbox.cif.g09.slc.cpg/sg2_176_cif.got.tgz:350852.got - 2010.06.27 13:26:56.
