data_PCOD8025655
_publ_section_title
;
Structure prediction by ZEFSAII (Michael W. Deem and Ramdas Pophale) SiO2 
 PCOD8025655
Probable space group: P -1
;
_chemical_formula_sum "Si O2"
_cell_formula_units_Z 14
_cell_length_a 8.540838
_cell_length_b 12.404815
_cell_length_c 9.798209
_cell_angle_alpha 45.198597
_cell_angle_beta 46.448840
_cell_angle_gamma 65.118139
_cell_volume 529.597060
_symmetry_space_group_name_H-M "P -1"
_symmetry_group_IT_number 2
_symmetry_cell_setting 'triclinic'
loop_
_space_group_symop_operation_xyz
x,y,z
-x,-y,-z
loop_
_atom_site_type_symbol
_atom_site_label
_atom_site_fract_x
_atom_site_fract_y
_atom_site_fract_z
Si Si1 0.854500 0.781800 0.270662
Si Si2 0.069505 0.746551 0.915242
Si Si3 0.878416 0.210619 0.626430
Si Si4 0.583576 0.467732 0.628709
Si Si5 0.151787 0.441263 0.075038
Si Si6 0.788058 0.925606 0.766582
Si Si7 0.468871 0.957478 0.399450
O O1 0.754579 0.607662 0.454515
O O2 0.673513 0.894588 0.266091
O O3 0.963971 0.808062 0.326455
O O4 0.037980 0.833379 0.999278
O O5 0.266988 0.823646 0.636138
O O6 0.843149 0.761397 0.946718
O O7 0.127377 0.578881 0.074590
O O8 0.696655 0.314984 0.684342
O O9 0.750587 0.047495 0.800846
O O10 0.045671 0.280961 0.344404
O O11 0.500000 0.500000 0.500000
O O12 0.397808 0.437438 0.882284
O O13 0.000000 0.500000 0.000000
O O14 0.591236 0.907922 0.788169
O O15 0.000000 0.000000 0.500000
O O16 0.500000 0.000000 0.500000
#
# Coordination Sequence:
#
# PCOD8025655 Si02
#       7
#     2   2   2   2   2   2   2
#     4  12  25  44  70 105 144 181 241 293 351 416
#     4  11  24  45  71  99 142 190 231 290 355 419
#     4  12  26  44  72 106 142 185 235 296 348 422
#     4  12  24  43  71 103 140 184 235 291 348 422
#     4  12  23  43  75 100 138 186 232 284 360 415
#     4  10  23  45  72 100 140 184 235 288 355 416
#     4  11  24  44  70 101 143 186 236 295 349 419
#
# _framework density 26.435192000000001
#
# number of rings (size 3 to 8) (size 9 to 14) (size 15 to 20)
#    0.000    0.571    4.286    4.714    0.000    4.571 
#    0.000    4.286    0.000    0.000    0.000    0.000 
#    0.000    0.000    0.000    0.000    0.000    0.000 
#
# Total GULP energy -173501.028149 kJ/mol
# GULP energy per Si atom -12392.930582 kJ/mol
# Density = 2.637502 g / cm^3
# Si number density = 26.435192 Si / 1000 Ang^3
#
#
#
# Elastic Constant Matrix: (Units=GPa)
#
#
# Indices 1 2 3 4 5 6 
#
# 1 144.3446 37.2901 17.3337 6.7391 18.1887 -5.2427
# 2 37.2901 131.0342 23.3381 11.4251 -14.1705 -21.0282
# 3 17.3337 23.3381 95.4828 25.0957 3.7759 -14.8579
# 4 6.7391 11.4251 25.0957 47.0571 -4.6522 -4.9044
# 5 18.1887 -14.1705 3.7759 -4.6522 32.3549 10.8208
# 6 -5.2427 -21.0282 -14.8579 -4.9044 10.8208 52.3210
#
#
#
# Elastic Compliance Matrix: (Units=1/GPa)
#
#
# Indices 1 2 3 4 5 6 
#
# 1 0.008596 -0.002886 -0.000202 -0.000973 -0.006514 0.000900
# 2 -0.002886 0.009673 -0.001659 -0.000315 0.005340 0.001994
# 3 -0.000202 -0.001659 0.013390 -0.006781 -0.004276 0.003364
# 4 -0.000973 -0.000315 -0.006781 0.025506 0.005143 -0.000823
# 5 -0.006514 0.005340 -0.004276 0.005143 0.040707 -0.007658
# 6 0.000900 0.001994 0.003364 -0.000823 -0.007658 0.022466
#
#
# Mechanical properties :
#
#
# Convention : Reuss Voigt Hill
#
# Bulk Modulus (GPa) = 45.11101 58.53168 51.82135
# Shear Modulus (GPa) = 36.43767 45.87325 41.15546
#
# Velocity S-wave (km/s) = 3.71668 4.17022 3.94997
# Velocity P-wave (km/s) = 5.95987 6.73627 6.35993
#
# Compressibility (1/GPa) = 0.02216754
#
# Stress axis : x y z
#
# Youngs Moduli (GPa) = 116.32645 103.37947 74.68192
#
# Poissons Ratio (x) = 0.29831 0.01508
# Poissons Ratio (y) = 0.33567 0.12387
# Poissons Ratio (z) = 0.02348 0.17147
#
# Static dielectric constant tensor:
#      x y z
#    x 6.655250 -0.059250 0.333570 
#    y -0.059250 4.506000 0.430190 
#    z 0.333570 0.430190 4.861540 
# 
# 
# High freq. dielectric constant tensor:
#      x y z
#    x 2.054720 -0.006480 0.001970 
#    y -0.006480 2.090480 0.016010 
#    z 0.001970 0.016010 2.061670 
# 
# From -- ./inp_files/184670.got.cif
#   From: 2010.06.25/outbox.cif.g09.slc.cpg/sg2_93_cif.got.tgz:184670.got - 2010.06.27 13:26:56.
