data_PCOD8025852
_publ_section_title
;
Structure prediction by ZEFSAII (Michael W. Deem and Ramdas Pophale) SiO2 
 PCOD8025852
Probable space group: P -1
;
_chemical_formula_sum "Si O2"
_cell_formula_units_Z 14
_cell_length_a 9.212415
_cell_length_b 16.891471
_cell_length_c 13.916812
_cell_angle_alpha 158.056159
_cell_angle_beta 135.264458
_cell_angle_gamma 50.829317
_cell_volume 566.534357
_symmetry_space_group_name_H-M "P -1"
_symmetry_group_IT_number 2
_symmetry_cell_setting 'triclinic'
loop_
_space_group_symop_operation_xyz
x,y,z
-x,-y,-z
loop_
_atom_site_type_symbol
_atom_site_label
_atom_site_fract_x
_atom_site_fract_y
_atom_site_fract_z
Si Si1 0.706501 0.796892 0.796263
Si Si2 0.403777 0.425473 0.702366
Si Si3 0.162819 0.946910 0.199307
Si Si4 0.281151 0.780514 0.261766
Si Si5 0.473403 0.159418 0.870854
Si Si6 0.957955 0.584572 0.347878
Si Si7 0.406490 0.741487 0.752695
O O1 0.635068 0.735473 0.586068
O O2 0.560333 0.656204 0.647592
O O3 0.952307 0.781407 0.908735
O O4 0.667863 0.038252 0.070308
O O5 0.511073 0.324230 0.729801
O O6 0.185403 0.492934 0.714820
O O7 0.549609 0.632723 0.969875
O O8 0.303575 0.887484 0.287890
O O9 0.304964 0.931522 0.153569
O O10 0.097330 0.183601 0.448738
O O11 0.276639 0.979625 0.558123
O O12 0.089740 0.592791 0.960149
O O13 0.469029 0.227840 0.055610
O O14 0.196835 0.581232 0.486780
#
# Coordination Sequence:
#
# PCOD8025852 Si02
#       7
#     2   2   2   2   2   2   2
#     4  10  23  46  70  94 129 174 222 270 317 382
#     4  12  24  39  69  99 132 169 217 264 327 384
#     4  11  23  40  70  98 131 168 217 266 327 381
#     4  12  24  42  64 102 136 170 202 284 314 398
#     4  12  24  39  69  99 132 169 217 264 327 384
#     4  11  23  40  70  98 131 168 217 266 327 381
#     4  10  23  46  70  94 129 174 222 270 317 382
#
# _framework density 24.711652999999998
#
# number of rings (size 3 to 8) (size 9 to 14) (size 15 to 20)
#    0.000    0.857    4.286    2.571    2.000    4.000 
#    0.000    1.429    0.000    0.000    0.000    0.000 
#    0.000    0.000    0.000    0.000    0.000    0.000 
#
# Total GULP energy -173518.351822 kJ/mol
# GULP energy per Si atom -12394.167987 kJ/mol
# Density = 2.465541 g / cm^3
# Si number density = 24.711653 Si / 1000 Ang^3
#
#
#
# Elastic Constant Matrix: (Units=GPa)
#
#
# Indices 1 2 3 4 5 6 
#
# 1 73.3381 35.6730 43.8592 -14.6774 -9.3551 12.8586
# 2 35.6730 85.3527 17.0765 -20.9377 -22.2536 8.9533
# 3 43.8592 17.0765 173.6338 -25.1025 -5.4223 3.7981
# 4 -14.6774 -20.9377 -25.1025 36.8819 6.1395 -4.0739
# 5 -9.3551 -22.2536 -5.4223 6.1395 24.2368 7.5627
# 6 12.8586 8.9533 3.7981 -4.0739 7.5627 30.3121
#
#
#
# Elastic Compliance Matrix: (Units=1/GPa)
#
#
# Indices 1 2 3 4 5 6 
#
# 1 0.021094 -0.006021 -0.004375 0.000529 0.003844 -0.007509
# 2 -0.006021 0.021055 0.001113 0.006515 0.017916 -0.007399
# 3 -0.004375 0.001113 0.007302 0.004079 -0.000464 0.001276
# 4 0.000529 0.006515 0.004079 0.034492 -0.002445 0.002586
# 5 0.003844 0.017916 -0.000464 -0.002445 0.067183 -0.023955
# 6 -0.007509 -0.007399 0.001276 0.002586 -0.023955 0.044525
#
#
# Mechanical properties :
#
#
# Convention : Reuss Voigt Hill
#
# Bulk Modulus (GPa) = 32.37789 58.39357 45.38573
# Shear Modulus (GPa) = 22.27057 34.00057 28.13557
#
# Velocity S-wave (km/s) = 3.00528 3.71333 3.37791
# Velocity P-wave (km/s) = 5.01727 6.48586 5.79825
#
# Compressibility (1/GPa) = 0.03088528
#
# Stress axis : x y z
#
# Youngs Moduli (GPa) = 47.40776 47.49435 136.94454
#
# Poissons Ratio (x) = 0.28596 0.59916
# Poissons Ratio (y) = 0.28544 -0.15247
# Poissons Ratio (z) = 0.20742 -0.05288
#
# Static dielectric constant tensor:
#      x y z
#    x 4.157740 -0.006570 0.195590 
#    y -0.006570 4.326050 0.327340 
#    z 0.195590 0.327340 5.046540 
# 
# 
# High freq. dielectric constant tensor:
#      x y z
#    x 1.938290 -0.001280 0.003810 
#    y -0.001280 2.001150 0.029070 
#    z 0.003810 0.029070 2.015420 
# 
# From -- ./inp_files/349758.got.cif
#   From: 2010.06.25/outbox.cif.g09.slc.cpg/sg2_175_cif.got.tgz:349758.got - 2010.06.27 13:26:56.
