data_PCOD8025340
_publ_section_title
;
Structure prediction by ZEFSAII (Michael W. Deem and Ramdas Pophale) SiO2 
 PCOD8025340
Probable space group: P -1
;
_chemical_formula_sum "Si O2"
_cell_formula_units_Z 16
_cell_length_a 14.905105
_cell_length_b 15.588511
_cell_length_c 15.747689
_cell_angle_alpha 34.806753
_cell_angle_beta 161.069049
_cell_angle_gamma 145.157865
_cell_volume 658.133471
_symmetry_space_group_name_H-M "P -1"
_symmetry_group_IT_number 2
_symmetry_cell_setting 'triclinic'
loop_
_space_group_symop_operation_xyz
x,y,z
-x,-y,-z
loop_
_atom_site_type_symbol
_atom_site_label
_atom_site_fract_x
_atom_site_fract_y
_atom_site_fract_z
Si Si1 0.193470 0.333447 0.324867
Si Si2 0.185822 0.115405 0.923725
Si Si3 0.820197 0.594191 0.209894
Si Si4 0.758373 0.370846 0.581380
Si Si5 0.532547 0.670558 0.145113
Si Si6 0.006688 0.541536 0.111708
Si Si7 0.464642 0.820726 0.128403
Si Si8 0.555232 0.947136 0.497626
O O1 0.398807 0.221817 0.625736
O O2 0.235858 0.487147 0.298681
O O3 0.215567 0.384091 0.203586
O O4 0.868206 0.246699 0.116727
O O5 0.148409 0.237365 0.861247
O O6 0.378599 0.195360 0.953482
O O7 0.874700 0.020950 0.692453
O O8 0.339472 0.995348 0.200588
O O9 0.000000 0.500000 0.500000
O O10 0.938574 0.619360 0.200264
O O11 0.500000 0.500000 0.000000
O O12 0.687545 0.536232 0.370814
O O13 0.513395 0.239095 0.423830
O O14 0.805793 0.339922 0.749359
O O15 0.623063 0.747608 0.255474
O O16 0.189845 0.600788 0.895329
O O17 0.500000 0.000000 0.000000
O O18 0.500000 0.000000 0.500000
#
# Coordination Sequence:
#
# PCOD8025340 Si02
#       8
#     2   2   2   2   2   2   2   2
#     4  10  23  44  74 105 145 195 245 302 381 442
#     4  12  27  49  73 105 149 197 244 304 383 440
#     4  12  25  42  75 107 140 193 250 302 364 440
#     4  12  26  45  74 108 148 195 254 313 365 440
#     4  11  26  46  76 109 150 191 259 313 361 450
#     4  10  24  43  74 108 145 189 255 317 364 440
#     4  11  24  46  73 107 153 199 241 305 380 454
#     4  12  29  49  71 104 150 200 243 310 378 444
#
# _framework density 24.311178999999999
#
# number of rings (size 3 to 8) (size 9 to 14) (size 15 to 20)
#    0.000    0.750    3.750    2.250    5.250    2.500 
#    0.000    0.000    0.000    0.000    0.000    0.000 
#    0.000    0.000    0.000    0.000    0.000    0.000 
#
# Total GULP energy -198428.891602 kJ/mol
# GULP energy per Si atom -12401.805725 kJ/mol
# Density = 2.425585 g / cm^3
# Si number density = 24.311179 Si / 1000 Ang^3
#
#
#
# Elastic Constant Matrix: (Units=GPa)
#
#
# Indices 1 2 3 4 5 6 
#
# 1 94.7783 38.1353 3.0722 18.9255 -9.2586 7.8979
# 2 38.1353 133.4625 35.0902 8.0214 -0.0124 -1.3350
# 3 3.0722 35.0902 98.4318 1.5197 -7.3964 -5.8954
# 4 18.9255 8.0214 1.5197 34.2372 5.6242 -8.7625
# 5 -9.2586 -0.0124 -7.3964 5.6242 40.5950 4.6790
# 6 7.8979 -1.3350 -5.8954 -8.7625 4.6790 31.6923
#
#
#
# Elastic Compliance Matrix: (Units=1/GPa)
#
#
# Indices 1 2 3 4 5 6 
#
# 1 0.015564 -0.004192 0.001173 -0.010646 0.006123 -0.007684
# 2 -0.004192 0.009529 -0.003337 0.000877 -0.001837 0.001339
# 3 0.001173 -0.003337 0.011567 -0.000433 0.002289 0.001261
# 4 -0.010646 0.000877 -0.000433 0.040428 -0.009865 0.015244
# 5 0.006123 -0.001837 0.002289 -0.009865 0.028752 -0.008150
# 6 -0.007684 0.001339 0.001261 0.015244 -0.008150 0.039177
#
#
# Mechanical properties :
#
#
# Convention : Reuss Voigt Hill
#
# Bulk Modulus (GPa) = 41.76082 53.25199 47.50641
# Shear Modulus (GPa) = 30.17278 37.99655 34.08467
#
# Velocity S-wave (km/s) = 3.52676 3.95767 3.74841
# Velocity P-wave (km/s) = 5.81368 6.54493 6.19012
#
# Compressibility (1/GPa) = 0.02394589
#
# Stress axis : x y z
#
# Youngs Moduli (GPa) = 64.25146 104.94809 86.45540
#
# Poissons Ratio (x) = 0.43994 -0.10140
# Poissons Ratio (y) = 0.26934 0.28854
# Poissons Ratio (z) = -0.07536 0.35025
#
# Static dielectric constant tensor:
#      x y z
#    x 4.321680 -0.102670 -0.381690 
#    y -0.102670 4.633970 0.012170 
#    z -0.381690 0.012170 4.155760 
# 
# 
# High freq. dielectric constant tensor:
#      x y z
#    x 1.976810 0.006700 0.001720 
#    y 0.006700 1.965300 0.009390 
#    z 0.001720 0.009390 1.969890 
# 
# From -- ./inp_files/534308.got.cif
#   From: 2010.06.25/outbox.cif.g09.slc.cpg/sg2_268_cif.got.tgz:534308.got - 2010.06.27 13:26:56.
