data_PCOD8025756
_publ_section_title
;
Structure prediction by ZEFSAII (Michael W. Deem and Ramdas Pophale) SiO2 
 PCOD8025756
Probable space group: P -1
;
_chemical_formula_sum "Si O2"
_cell_formula_units_Z 16
_cell_length_a 8.141101
_cell_length_b 15.693153
_cell_length_c 8.886281
_cell_angle_alpha 89.789007
_cell_angle_beta 127.061413
_cell_angle_gamma 118.243490
_cell_volume 731.316021
_symmetry_space_group_name_H-M "P -1"
_symmetry_group_IT_number 2
_symmetry_cell_setting 'triclinic'
loop_
_space_group_symop_operation_xyz
x,y,z
-x,-y,-z
loop_
_atom_site_type_symbol
_atom_site_label
_atom_site_fract_x
_atom_site_fract_y
_atom_site_fract_z
Si Si1 0.552125 0.672835 0.367219
Si Si2 0.300102 0.887200 0.320770
Si Si3 0.007136 0.320595 0.316201
Si Si4 0.464778 0.588377 0.010478
Si Si5 0.684961 0.250021 0.418401
Si Si6 0.271497 0.190599 0.978272
Si Si7 0.878975 0.468680 0.660960
Si Si8 0.549754 0.189701 0.852347
O O1 0.784456 0.702160 0.605568
O O2 0.615822 0.643077 0.246206
O O3 0.284913 0.572718 0.278560
O O4 0.537299 0.770234 0.332699
O O5 0.278355 0.797760 0.412784
O O6 0.401971 0.888169 0.207526
O O7 0.029276 0.869801 0.165309
O O8 0.500000 0.000000 0.500000
O O9 0.151239 0.445184 0.431388
O O10 0.849367 0.250654 0.374166
O O11 0.820457 0.285522 0.070389
O O12 0.587135 0.683106 0.957318
O O13 0.500000 0.500000 0.000000
O O14 0.169093 0.531732 0.867402
O O15 0.780306 0.370037 0.497947
O O16 0.390632 0.179133 0.197248
O O17 0.337426 0.144467 0.869889
#
# Coordination Sequence:
#
# PCOD8025756 Si02
#       8
#     2   2   2   2   2   2   2   2
#     4  11  22  36  57  91 135 175 219 265 309 372
#     4  12  27  47  75  98 120 170 229 284 350 394
#     4  11  23  39  62  95 137 179 218 251 329 394
#     4  11  22  36  60  91 136 186 218 256 320 384
#     4  11  23  43  64  95 138 171 221 274 315 398
#     4  10  24  45  66  95 137 175 213 277 332 384
#     4  12  21  36  60  99 133 180 218 254 309 398
#     4  10  23  46  65  96 136 169 221 279 322 401
#
# _framework density 21.878366
#
# number of rings (size 3 to 8) (size 9 to 14) (size 15 to 20)
#    0.000    1.000    5.000    4.125    3.500    1.000 
#    0.000    2.500    0.000    0.000    0.000    0.000 
#    0.000    0.000    0.000    0.000    0.000    0.000 
#
# Total GULP energy -198262.496190 kJ/mol
# GULP energy per Si atom -12391.406012 kJ/mol
# Density = 2.182857 g / cm^3
# Si number density = 21.878366 Si / 1000 Ang^3
#
#
#
# Elastic Constant Matrix: (Units=GPa)
#
#
# Indices 1 2 3 4 5 6 
#
# 1 103.5846 10.9545 40.0685 13.6569 9.9504 -12.7996
# 2 10.9545 24.1515 12.5477 10.9692 -1.2075 -5.1395
# 3 40.0685 12.5477 89.9453 6.2894 24.4687 -9.2375
# 4 13.6569 10.9692 6.2894 33.6963 -2.8982 -3.9874
# 5 9.9504 -1.2075 24.4687 -2.8982 44.4133 3.7901
# 6 -12.7996 -5.1395 -9.2375 -3.9874 3.7901 15.8521
#
#
#
# Elastic Compliance Matrix: (Units=1/GPa)
#
#
# Indices 1 2 3 4 5 6 
#
# 1 0.012849 -0.000556 -0.004298 -0.003497 -0.001363 0.007136
# 2 -0.000556 0.053611 -0.006182 -0.014745 0.003272 0.008839
# 3 -0.004298 -0.006182 0.017034 0.000593 -0.009130 0.006783
# 4 -0.003497 -0.014745 0.000593 0.036133 0.002305 0.001279
# 5 -0.001363 0.003272 -0.009130 0.002305 0.029092 -0.011736
# 6 0.007136 0.008839 0.006783 0.001279 -0.011736 0.078791
#
#
# Mechanical properties :
#
#
# Convention : Reuss Voigt Hill
#
# Bulk Modulus (GPa) = 16.28115 38.31365 27.29740
# Shear Modulus (GPa) = 18.51455 29.06639 23.79047
#
# Velocity S-wave (km/s) = 2.91219 3.64887 3.30115
# Velocity P-wave (km/s) = 4.33193 5.94159 5.19943
#
# Compressibility (1/GPa) = 0.06142071
#
# Stress axis : x y z
#
# Youngs Moduli (GPa) = 77.82591 18.65285 58.70622
#
# Poissons Ratio (x) = 0.01037 0.25233
# Poissons Ratio (y) = 0.04329 0.36295
# Poissons Ratio (z) = 0.33451 0.11532
#
# Static dielectric constant tensor:
#      x y z
#    x 4.119190 -0.044440 0.028860 
#    y -0.044440 3.707260 -0.092300 
#    z 0.028860 -0.092300 4.051200 
# 
# 
# High freq. dielectric constant tensor:
#      x y z
#    x 1.873960 -0.004930 0.009990 
#    y -0.004930 1.822010 -0.016920 
#    z 0.009990 -0.016920 1.863930 
# 
# From -- ./inp_files/188884.got.cif
#   From: 2010.06.25/outbox.cif.g09.slc.cpg/sg2_95_cif.got.tgz:188884.got - 2010.06.27 13:26:56.
