data_PCOD8025681
_publ_section_title
;
Structure prediction by ZEFSAII (Michael W. Deem and Ramdas Pophale) SiO2 
 PCOD8025681
Probable space group: P -1
;
_chemical_formula_sum "Si O2"
_cell_formula_units_Z 16
_cell_length_a 13.238422
_cell_length_b 11.998764
_cell_length_c 12.056968
_cell_angle_alpha 85.869410
_cell_angle_beta 142.650122
_cell_angle_gamma 64.916874
_cell_volume 702.655088
_symmetry_space_group_name_H-M "P -1"
_symmetry_group_IT_number 2
_symmetry_cell_setting 'triclinic'
loop_
_space_group_symop_operation_xyz
x,y,z
-x,-y,-z
loop_
_atom_site_type_symbol
_atom_site_label
_atom_site_fract_x
_atom_site_fract_y
_atom_site_fract_z
Si Si1 0.034086 0.527442 0.405006
Si Si2 0.341703 0.817149 0.021480
Si Si3 0.310770 0.429986 0.059132
Si Si4 0.959920 0.760260 0.882070
Si Si5 0.547731 0.800537 0.598187
Si Si6 0.223549 0.110257 0.807902
Si Si7 0.751475 0.194738 0.819333
Si Si8 0.291798 0.705575 0.767913
O O1 0.913250 0.500995 0.221510
O O2 0.890488 0.721794 0.239588
O O3 0.000000 0.500000 0.500000
O O4 0.348629 0.377507 0.666211
O O5 0.197675 0.842315 0.000961
O O6 0.252410 0.816599 0.823891
O O7 0.286211 0.979443 0.960004
O O8 0.146752 0.624464 0.949633
O O9 0.409833 0.291538 0.247760
O O10 0.587749 0.309178 0.240418
O O11 0.828332 0.720261 0.825968
O O12 0.187855 0.705370 0.161284
O O13 0.707400 0.979478 0.619279
O O14 0.511338 0.727560 0.470955
O O15 0.007021 0.186343 0.520762
O O16 0.500000 0.000000 0.000000
O O17 0.000000 0.000000 0.000000
O O18 0.500000 0.500000 0.000000
#
# Coordination Sequence:
#
# PCOD8025681 Si02
#       8
#     2   2   2   2   2   2   2   2
#     4  12  24  46  66 106 150 187 240 303 362 444
#     4  12  25  47  73 103 150 192 243 303 374 443
#     4  12  25  44  74 105 145 190 246 302 366 449
#     4  10  23  45  73 102 143 196 236 311 375 422
#     4  10  24  48  69 107 143 188 255 300 366 443
#     4  12  26  45  72 108 146 197 242 297 367 448
#     4  10  24  46  72 102 143 188 247 308 364 438
#     4  12  25  47  73 109 154 188 246 303 373 446
#
# _framework density 22.770772999999998
#
# number of rings (size 3 to 8) (size 9 to 14) (size 15 to 20)
#    0.000    0.750    3.750    2.250    3.500    4.500 
#    6.750    0.000    0.000    0.000    0.000    0.000 
#    0.000    0.000    0.000    0.000    0.000    0.000 
#
# Total GULP energy -198262.529056 kJ/mol
# GULP energy per Si atom -12391.408066 kJ/mol
# Density = 2.271895 g / cm^3
# Si number density = 22.770773 Si / 1000 Ang^3
#
#
#
# Elastic Constant Matrix: (Units=GPa)
#
#
# Indices 1 2 3 4 5 6 
#
# 1 137.0783 49.2508 45.1251 18.4183 4.6161 -1.8332
# 2 49.2508 148.1352 39.9666 17.8216 11.4241 0.2343
# 3 45.1251 39.9666 103.2145 19.0008 21.2994 -0.1745
# 4 18.4183 17.8216 19.0008 46.8910 4.9622 6.2369
# 5 4.6161 11.4241 21.2994 4.9622 34.0785 5.2849
# 6 -1.8332 0.2343 -0.1745 6.2369 5.2849 37.7476
#
#
#
# Elastic Compliance Matrix: (Units=1/GPa)
#
#
# Indices 1 2 3 4 5 6 
#
# 1 0.009327 -0.002136 -0.003269 -0.001772 0.001675 0.000509
# 2 -0.002136 0.008195 -0.001716 -0.001486 -0.001208 0.000252
# 3 -0.003269 -0.001716 0.013891 -0.003101 -0.007440 0.001470
# 4 -0.001772 -0.001486 -0.003101 0.024413 -0.000244 -0.004091
# 5 0.001675 -0.001208 -0.007440 -0.000244 0.034952 -0.004799
# 6 0.000509 0.000252 0.001470 -0.004091 -0.004799 0.027869
#
#
# Mechanical properties :
#
#
# Convention : Reuss Voigt Hill
#
# Bulk Modulus (GPa) = 58.23862 73.01257 65.62559
# Shear Modulus (GPa) = 36.07107 40.68246 38.37676
#
# Velocity S-wave (km/s) = 3.98439 4.23141 4.10976
# Velocity P-wave (km/s) = 6.84096 7.48378 7.16957
#
# Compressibility (1/GPa) = 0.01717074
#
# Stress axis : x y z
#
# Youngs Moduli (GPa) = 107.21300 122.02152 71.98788
#
# Poissons Ratio (x) = 0.26061 0.23536
# Poissons Ratio (y) = 0.22898 0.12356
# Poissons Ratio (z) = 0.35052 0.20943
#
# Static dielectric constant tensor:
#      x y z
#    x 3.922610 0.162430 0.445480 
#    y 0.162430 5.967570 1.242170 
#    z 0.445480 1.242170 5.149420 
# 
# 
# High freq. dielectric constant tensor:
#      x y z
#    x 1.895460 0.008110 0.018900 
#    y 0.008110 1.920670 0.001840 
#    z 0.018900 0.001840 1.902910 
# 
# From -- ./inp_files/428255.got.cif
#   From: 2010.06.25/outbox.cif.g09.slc.cpg/sg2_215_cif.got.tgz:428255.got - 2010.06.27 13:26:56.
