data_PCOD8025722
_publ_section_title
;
Structure prediction by ZEFSAII (Michael W. Deem and Ramdas Pophale) SiO2 
 PCOD8025722
Probable space group: P -1
;
_chemical_formula_sum "Si O2"
_cell_formula_units_Z 16
_cell_length_a 12.010965
_cell_length_b 12.241781
_cell_length_c 11.170464
_cell_angle_alpha 96.170098
_cell_angle_beta 111.135073
_cell_angle_gamma 141.455216
_cell_volume 708.552317
_symmetry_space_group_name_H-M "P -1"
_symmetry_group_IT_number 2
_symmetry_cell_setting 'triclinic'
loop_
_space_group_symop_operation_xyz
x,y,z
-x,-y,-z
loop_
_atom_site_type_symbol
_atom_site_label
_atom_site_fract_x
_atom_site_fract_y
_atom_site_fract_z
Si Si1 0.714213 0.061665 0.274577
Si Si2 0.069550 0.512172 0.346286
Si Si3 0.765382 0.801705 0.799551
Si Si4 0.291582 0.345429 0.696741
Si Si5 0.823870 0.278280 0.983109
Si Si6 0.954108 0.254977 0.632271
Si Si7 0.941002 0.025963 0.299594
Si Si8 0.644252 0.942861 0.700581
O O1 0.731459 0.052331 0.422392
O O2 0.915643 0.326531 0.370078
O O3 0.432862 0.864760 0.098706
O O4 0.792207 0.019177 0.221594
O O5 0.979173 0.563545 0.302552
O O6 0.371085 0.756121 0.518983
O O7 0.986438 0.380767 0.176840
O O8 0.570804 0.566351 0.770685
O O9 0.626778 0.804903 0.724580
O O10 0.861620 0.828966 0.715786
O O11 0.000000 0.000000 0.000000
O O12 0.264875 0.240545 0.788465
O O13 0.218785 0.408971 0.719714
O O14 0.100517 0.156720 0.496675
O O15 0.738179 0.098058 0.861716
O O16 0.000000 0.500000 0.000000
O O17 0.852581 0.118488 0.697989
#
# Coordination Sequence:
#
# PCOD8025722 Si02
#       8
#     2   2   2   2   2   2   2   2
#     4  11  25  43  71 106 146 187 244 299 356 431
#     4  12  25  44  74 103 146 195 233 298 361 429
#     4  12  28  46  72 104 143 191 239 301 362 428
#     4  10  23  45  75 100 140 189 240 300 352 430
#     4  12  26  44  68 109 142 190 237 294 362 426
#     4  11  21  44  72 102 144 193 232 295 366 422
#     4  10  23  48  70 106 136 187 247 293 358 425
#     4  12  25  48  72 105 148 185 247 296 358 439
#
# _framework density 22.581254000000001
#
# number of rings (size 3 to 8) (size 9 to 14) (size 15 to 20)
#    0.000    0.750    3.750    3.750    3.500    2.500 
#    0.000    0.000    0.000    0.000    0.000    0.000 
#    0.000    0.000    0.000    0.000    0.000    0.000 
#
# Total GULP energy -198407.705934 kJ/mol
# GULP energy per Si atom -12400.481621 kJ/mol
# Density = 2.252986 g / cm^3
# Si number density = 22.581254 Si / 1000 Ang^3
#
#
#
# Elastic Constant Matrix: (Units=GPa)
#
#
# Indices 1 2 3 4 5 6 
#
# 1 104.7461 44.6646 27.5055 19.1368 -5.3404 14.7173
# 2 44.6646 123.0400 8.4589 22.2477 7.5347 14.0357
# 3 27.5055 8.4589 77.6206 1.1919 -14.3856 5.1882
# 4 19.1368 22.2477 1.1919 25.1057 0.6740 -3.1361
# 5 -5.3404 7.5347 -14.3856 0.6740 21.4408 -0.2092
# 6 14.7173 14.0357 5.1882 -3.1361 -0.2092 35.5449
#
#
#
# Elastic Compliance Matrix: (Units=1/GPa)
#
#
# Indices 1 2 3 4 5 6 
#
# 1 0.014188 -0.002872 -0.003844 -0.008763 0.002192 -0.004939
# 2 -0.002872 0.011494 -0.000776 -0.008324 -0.005053 -0.004000
# 3 -0.003844 -0.000776 0.016171 0.002557 0.010083 -0.000178
# 4 -0.008763 -0.008324 0.002557 0.055169 0.000835 0.011414
# 5 0.002192 -0.005053 0.010083 0.000835 0.055701 0.000017
# 6 -0.004939 -0.004000 -0.000178 0.011414 0.000017 0.032791
#
#
# Mechanical properties :
#
#
# Convention : Reuss Voigt Hill
#
# Bulk Modulus (GPa) = 37.21748 51.85162 44.53455
# Shear Modulus (GPa) = 23.87155 31.40345 27.63750
#
# Velocity S-wave (km/s) = 3.25490 3.73324 3.50224
# Velocity P-wave (km/s) = 5.53563 6.44941 6.00991
#
# Compressibility (1/GPa) = 0.02686910
#
# Stress axis : x y z
#
# Youngs Moduli (GPa) = 70.48395 86.99992 61.83866
#
# Poissons Ratio (x) = 0.24989 0.23768
# Poissons Ratio (y) = 0.20245 0.04799
# Poissons Ratio (z) = 0.27091 0.06751
#
# Static dielectric constant tensor:
#      x y z
#    x 4.162660 -0.170880 -0.099720 
#    y -0.170880 3.498630 -0.127590 
#    z -0.099720 -0.127590 3.995630 
# 
# 
# High freq. dielectric constant tensor:
#      x y z
#    x 1.894760 0.003010 -0.005610 
#    y 0.003010 1.904470 -0.004120 
#    z -0.005610 -0.004120 1.882840 
# 
# From -- ./inp_files/428081.got.cif
#   From: 2010.06.25/outbox.cif.g09.slc.cpg/sg2_215_cif.got.tgz:428081.got - 2010.06.27 13:26:56.
