data_PCOD8025404
_publ_section_title
;
Structure prediction by ZEFSAII (Michael W. Deem and Ramdas Pophale) SiO2 
 PCOD8025404
Probable space group: P -1
;
_chemical_formula_sum "Si O2"
_cell_formula_units_Z 16
_cell_length_a 5.193573
_cell_length_b 18.538337
_cell_length_c 21.064386
_cell_angle_alpha 160.095025
_cell_angle_beta 87.463652
_cell_angle_gamma 96.156116
_cell_volume 676.844492
_symmetry_space_group_name_H-M "P -1"
_symmetry_group_IT_number 2
_symmetry_cell_setting 'triclinic'
loop_
_space_group_symop_operation_xyz
x,y,z
-x,-y,-z
loop_
_atom_site_type_symbol
_atom_site_label
_atom_site_fract_x
_atom_site_fract_y
_atom_site_fract_z
Si Si1 0.750780 0.547535 0.958667
Si Si2 0.261927 0.015099 0.969645
Si Si3 0.364121 0.233934 0.541314
Si Si4 0.698446 0.235513 0.811058
Si Si5 0.797454 0.544305 0.716454
Si Si6 0.927253 0.429633 0.141448
Si Si7 0.819262 0.957927 0.738618
Si Si8 0.258853 0.793589 0.661906
O O1 0.500022 0.660757 0.057272
O O2 0.006540 0.702907 0.114181
O O3 0.690417 0.322277 0.811097
O O4 0.804245 0.498473 0.843145
O O5 0.325403 0.244226 0.121310
O O6 0.500000 0.000000 0.000000
O O7 0.227773 0.811286 0.752858
O O8 0.000000 0.000000 0.000000
O O9 0.620340 0.358081 0.605652
O O10 0.248500 0.390885 0.720058
O O11 0.408219 0.022760 0.404146
O O12 0.153924 0.156045 0.423013
O O13 0.044215 0.608639 0.814418
O O14 0.865007 0.440665 0.562171
O O15 0.777510 0.200260 0.926299
O O16 0.568517 0.840001 0.683391
O O17 0.094662 0.965541 0.777880
#
# Coordination Sequence:
#
# PCOD8025404 Si02
#       8
#     2   2   2   2   2   2   2   2
#     4  10  24  42  69  96 141 188 235 280 347 414
#     4  12  28  47  73  99 137 181 222 274 342 417
#     4  11  25  41  71 105 139 180 238 292 341 404
#     4  10  23  45  65  97 140 192 229 285 351 406
#     4  11  27  43  71 104 140 171 236 279 345 409
#     4  12  24  40  71 106 133 186 232 295 332 420
#     4  11  23  40  69  98 141 178 225 281 345 392
#     4  11  24  46  69 100 137 179 215 286 335 405
#
# _framework density 23.639106000000002
#
# number of rings (size 3 to 8) (size 9 to 14) (size 15 to 20)
#    0.000    1.000    3.750    1.500    8.750    1.500 
#    0.000    0.625    0.000    0.000    0.000    0.000 
#    0.000    0.000    0.000    0.000    0.000    0.000 
#
# Total GULP energy -198334.434699 kJ/mol
# GULP energy per Si atom -12395.902169 kJ/mol
# Density = 2.358530 g / cm^3
# Si number density = 23.639106 Si / 1000 Ang^3
#
#
#
# Elastic Constant Matrix: (Units=GPa)
#
#
# Indices 1 2 3 4 5 6 
#
# 1 77.3071 4.1462 1.4263 2.6631 -13.7166 4.9946
# 2 4.1462 72.2574 16.4770 -8.8000 -6.6761 2.0706
# 3 1.4263 16.4770 92.9684 -3.8890 -15.8374 4.4380
# 4 2.6631 -8.8000 -3.8890 53.7036 4.7237 -6.6388
# 5 -13.7166 -6.6761 -15.8374 4.7237 27.5341 0.7344
# 6 4.9946 2.0706 4.4380 -6.6388 0.7344 33.2347
#
#
#
# Elastic Compliance Matrix: (Units=1/GPa)
#
#
# Indices 1 2 3 4 5 6 
#
# 1 0.014669 -0.000516 0.001351 -0.001806 0.008347 -0.002898
# 2 -0.000516 0.014796 -0.002231 0.002120 0.001688 -0.000160
# 3 0.001351 -0.002231 0.012474 -0.000428 0.007433 -0.001979
# 4 -0.001806 0.002120 -0.000428 0.019921 -0.004163 0.004268
# 5 0.008347 0.001688 0.007433 -0.004163 0.045988 -0.004200
# 6 -0.002898 -0.000160 -0.001979 0.004268 -0.004200 0.031744
#
#
# Mechanical properties :
#
#
# Convention : Reuss Voigt Hill
#
# Bulk Modulus (GPa) = 25.54368 31.84797 28.69583
# Shear Modulus (GPa) = 32.16858 37.59335 34.88097
#
# Velocity S-wave (km/s) = 3.69293 3.99219 3.84547
# Velocity P-wave (km/s) = 5.38635 5.89507 5.64645
#
# Compressibility (1/GPa) = 0.03914862
#
# Stress axis : x y z
#
# Youngs Moduli (GPa) = 68.17300 67.58379 80.16803
#
# Poissons Ratio (x) = 0.03484 -0.10831
# Poissons Ratio (y) = 0.03515 0.17882
# Poissons Ratio (z) = -0.09210 0.15075
#
# Static dielectric constant tensor:
#      x y z
#    x 3.934960 -0.007900 0.028380 
#    y -0.007900 4.412060 -0.203540 
#    z 0.028380 -0.203540 4.492830 
# 
# 
# High freq. dielectric constant tensor:
#      x y z
#    x 1.931390 -0.005320 -0.005320 
#    y -0.005320 1.932340 -0.010050 
#    z -0.005320 -0.010050 1.940440 
# 
# From -- ./inp_files/48085.got.cif
#   From: 2010.06.25/outbox.cif.g09.slc.cpg/sg2_25_cif.got.tgz:48085.got - 2010.06.27 13:26:56.
