data_PCOD8025337
_publ_section_title
;
Structure prediction by ZEFSAII (Michael W. Deem and Ramdas Pophale) SiO2 
 PCOD8025337
Probable space group: P -1
;
_chemical_formula_sum "Si O2"
_cell_formula_units_Z 14
_cell_length_a 8.291298
_cell_length_b 19.017933
_cell_length_c 7.593809
_cell_angle_alpha 146.443430
_cell_angle_beta 124.205111
_cell_angle_gamma 55.711738
_cell_volume 535.476802
_symmetry_space_group_name_H-M "P -1"
_symmetry_group_IT_number 2
_symmetry_cell_setting 'triclinic'
loop_
_space_group_symop_operation_xyz
x,y,z
-x,-y,-z
loop_
_atom_site_type_symbol
_atom_site_label
_atom_site_fract_x
_atom_site_fract_y
_atom_site_fract_z
Si Si1 0.409857 0.879766 0.745138
Si Si2 0.476936 0.415157 0.144387
Si Si3 0.123388 0.536643 0.989072
Si Si4 0.778841 0.747669 0.163730
Si Si5 0.785868 0.696897 0.679263
Si Si6 0.169733 0.803049 0.136601
Si Si7 0.791079 0.035085 0.848590
O O1 0.588003 0.752917 0.558154
O O2 0.218642 0.879650 0.501058
O O3 0.500000 0.000000 0.000000
O O4 0.359853 0.889442 0.941923
O O5 0.500000 0.500000 0.500000
O O6 0.358063 0.516893 0.139027
O O7 0.343918 0.307093 0.874256
O O8 0.695140 0.342125 0.064322
O O9 0.104339 0.443662 0.617657
O O10 0.000000 0.500000 0.000000
O O11 0.020484 0.686887 0.196682
O O12 0.729526 0.902777 0.470234
O O13 0.711016 0.693191 0.825228
O O14 0.938804 0.795952 0.976305
O O15 0.217792 0.871163 0.128553
O O16 0.000000 0.000000 0.000000
#
# Coordination Sequence:
#
# PCOD8025337 Si02
#       7
#     2   2   2   2   2   2   2
#     4  12  26  46  73 107 152 198 249 303 367 441
#     4  11  24  45  75 107 145 194 245 313 378 443
#     4  10  23  44  74 102 143 192 240 307 376 433
#     4  11  25  47  72 105 149 193 249 306 376 442
#     4  12  25  48  75 109 146 196 246 314 375 443
#     4  12  26  48  74 112 152 191 257 303 373 447
#     4  12  28  46  77 113 151 203 246 305 372 449
#
# _framework density 26.144921
#
# number of rings (size 3 to 8) (size 9 to 14) (size 15 to 20)
#    0.000    0.571    1.429    6.429    8.000    3.429 
#    2.571    1.429    0.000    0.000    0.000    0.000 
#    0.000    0.000    0.000    0.000    0.000    0.000 
#
# Total GULP energy -173597.393530 kJ/mol
# GULP energy per Si atom -12399.813824 kJ/mol
# Density = 2.608541 g / cm^3
# Si number density = 26.144921 Si / 1000 Ang^3
#
#
#
# Elastic Constant Matrix: (Units=GPa)
#
#
# Indices 1 2 3 4 5 6 
#
# 1 82.7926 18.9074 16.0131 -2.8776 -19.0782 -0.4981
# 2 18.9074 123.8835 12.3321 -9.8267 -5.0444 -13.6235
# 3 16.0131 12.3321 101.2741 -13.7077 -22.0502 -0.0396
# 4 -2.8776 -9.8267 -13.7077 45.0596 -1.7281 -10.0704
# 5 -19.0782 -5.0444 -22.0502 -1.7281 45.6766 -5.2492
# 6 -0.4981 -13.6235 -0.0396 -10.0704 -5.2492 42.2300
#
#
#
# Elastic Compliance Matrix: (Units=1/GPa)
#
#
# Indices 1 2 3 4 5 6 
#
# 1 0.013864 -0.001736 -0.000748 0.000572 0.005305 0.000398
# 2 -0.001736 0.008992 -0.000338 0.002568 0.000612 0.003568
# 3 -0.000748 -0.000338 0.011820 0.004042 0.005689 0.001564
# 4 0.000572 0.002568 0.004042 0.025871 0.004320 0.007545
# 5 0.005305 0.000612 0.005689 0.004320 0.027630 0.004730
# 6 0.000398 0.003568 0.001564 0.007545 0.004730 0.027224
#
#
# Mechanical properties :
#
#
# Convention : Reuss Voigt Hill
#
# Bulk Modulus (GPa) = 34.44593 44.71726 39.58159
# Shear Modulus (GPa) = 38.24858 43.97305 41.11081
#
# Velocity S-wave (km/s) = 3.82900 4.10554 3.96968
# Velocity P-wave (km/s) = 5.72293 6.29402 6.01526
#
# Compressibility (1/GPa) = 0.02903101
#
# Stress axis : x y z
#
# Youngs Moduli (GPa) = 72.12714 111.21217 84.60223
#
# Poissons Ratio (x) = 0.19310 0.06329
# Poissons Ratio (y) = 0.12524 0.02861
# Poissons Ratio (z) = 0.05396 0.03761
#
# Static dielectric constant tensor:
#      x y z
#    x 3.502530 -1.026720 0.414520 
#    y -1.026720 5.060760 0.351170 
#    z 0.414520 0.351170 4.380380 
# 
# 
# High freq. dielectric constant tensor:
#      x y z
#    x 2.046780 -0.009220 -0.018310 
#    y -0.009220 2.064340 -0.008090 
#    z -0.018310 -0.008090 2.046560 
# 
# From -- ./inp_files/224408.got.cif
#   From: 2010.06.25/outbox.cif.g09.slc.cpg/sg2_113_cif.got.tgz:224408.got - 2010.06.27 13:26:56.
