data_PCOD8025675
_publ_section_title
;
Structure prediction by ZEFSAII (Michael W. Deem and Ramdas Pophale) SiO2 
 PCOD8025675
Probable space group: P -1
;
_chemical_formula_sum "Si O2"
_cell_formula_units_Z 16
_cell_length_a 18.144956
_cell_length_b 12.840223
_cell_length_c 9.236811
_cell_angle_alpha 100.280476
_cell_angle_beta 138.062315
_cell_angle_gamma 45.853091
_cell_volume 728.588732
_symmetry_space_group_name_H-M "P -1"
_symmetry_group_IT_number 2
_symmetry_cell_setting 'triclinic'
loop_
_space_group_symop_operation_xyz
x,y,z
-x,-y,-z
loop_
_atom_site_type_symbol
_atom_site_label
_atom_site_fract_x
_atom_site_fract_y
_atom_site_fract_z
Si Si1 0.849902 0.973570 0.559954
Si Si2 0.466718 0.647459 0.026208
Si Si3 0.745722 0.825116 0.287582
Si Si4 0.914806 0.609613 0.199138
Si Si5 0.130182 0.894075 0.812553
Si Si6 0.811059 0.489034 0.632770
Si Si7 0.876786 0.929354 0.913640
Si Si8 0.451457 0.163038 0.447985
O O1 0.813624 0.878465 0.473236
O O2 0.839414 0.014004 0.723857
O O3 0.671643 0.182837 0.259037
O O4 0.083385 0.817949 0.800114
O O5 0.689784 0.526116 0.335989
O O6 0.500000 0.500000 0.000000
O O7 0.369637 0.723437 0.067634
O O8 0.803624 0.782883 0.191870
O O9 0.878861 0.618666 0.494846
O O10 0.500000 0.000000 0.000000
O O11 0.988911 0.614358 0.169748
O O12 0.734569 0.673335 0.904304
O O13 0.000000 0.000000 0.500000
O O14 0.056750 0.040733 0.859535
O O15 0.640354 0.708955 0.508560
O O16 0.923212 0.316608 0.867344
O O17 0.658883 0.052168 0.670371
O O18 0.500000 0.000000 0.500000
#
# Coordination Sequence:
#
# PCOD8025675 Si02
#       8
#     2   2   2   2   2   2   2   2
#     4  11  25  44  74  96 145 182 232 297 365 414
#     4  11  25  46  71 106 137 183 243 295 355 438
#     4  11  25  45  69 105 145 186 237 295 359 422
#     4  11  26  41  69 103 143 190 240 287 356 429
#     4  10  23  45  72  99 134 184 232 291 363 424
#     4  12  25  43  73 103 141 190 244 290 356 431
#     4  12  25  47  72 106 144 184 238 300 361 421
#     4  12  26  42  68 103 146 188 239 289 354 422
#
# _framework density 21.960260999999999
#
# number of rings (size 3 to 8) (size 9 to 14) (size 15 to 20)
#    0.000    0.750    2.500    4.500   10.500    1.000 
#    2.250    1.250    0.000    0.000    0.000    0.000 
#    0.000    0.000    0.000    0.000    0.000    0.000 
#
# Total GULP energy -198347.335803 kJ/mol
# GULP energy per Si atom -12396.708488 kJ/mol
# Density = 2.191028 g / cm^3
# Si number density = 21.960261 Si / 1000 Ang^3
#
#
#
# Elastic Constant Matrix: (Units=GPa)
#
#
# Indices 1 2 3 4 5 6 
#
# 1 129.6044 42.1644 41.3985 3.3238 -0.6765 -10.7287
# 2 42.1644 125.1630 39.0426 7.5212 -3.2258 -9.9108
# 3 41.3985 39.0426 114.5430 6.7457 2.0324 -4.4580
# 4 3.3238 7.5212 6.7457 42.9297 -0.9374 1.0826
# 5 -0.6765 -3.2258 2.0324 -0.9374 34.3349 7.3501
# 6 -10.7287 -9.9108 -4.4580 1.0826 7.3501 28.6895
#
#
#
# Elastic Compliance Matrix: (Units=1/GPa)
#
#
# Indices 1 2 3 4 5 6 
#
# 1 0.009453 -0.002198 -0.002563 -0.000015 -0.000400 0.002481
# 2 -0.002198 0.009722 -0.002377 -0.001200 0.000534 0.002076
# 3 -0.002563 -0.002377 0.010553 -0.001068 -0.000959 0.000146
# 4 -0.000015 -0.001200 -0.001068 0.023738 0.000969 -0.001730
# 5 -0.000400 0.000534 -0.000959 0.000969 0.030982 -0.008088
# 6 0.002481 0.002076 0.000146 -0.001730 -0.008088 0.038661
#
#
# Mechanical properties :
#
#
# Convention : Reuss Voigt Hill
#
# Bulk Modulus (GPa) = 64.72026 68.28015 66.50021
# Shear Modulus (GPa) = 35.07914 37.63782 36.35848
#
# Velocity S-wave (km/s) = 4.00107 4.14443 4.07338
# Velocity P-wave (km/s) = 7.13304 7.35267 7.24369
#
# Compressibility (1/GPa) = 0.01545111
#
# Stress axis : x y z
#
# Youngs Moduli (GPa) = 105.78471 102.86106 94.76415
#
# Poissons Ratio (x) = 0.22610 0.24286
# Poissons Ratio (y) = 0.23252 0.22528
# Poissons Ratio (z) = 0.27111 0.24453
#
# Static dielectric constant tensor:
#      x y z
#    x 4.519500 -0.104790 0.184740 
#    y -0.104790 4.035030 0.063130 
#    z 0.184740 0.063130 4.263770 
# 
# 
# High freq. dielectric constant tensor:
#      x y z
#    x 1.869300 -0.003780 0.011300 
#    y -0.003780 1.862930 0.012610 
#    z 0.011300 0.012610 1.877020 
# 
# From -- ./inp_files/333457.got.cif
#   From: 2010.06.25/outbox.cif.g09.slc.cpg/sg2_167_cif.got.tgz:333457.got - 2010.06.27 13:26:56.
