data_PCOD8025883
_publ_section_title
;
Structure prediction by ZEFSAII (Michael W. Deem and Ramdas Pophale) SiO2 
 PCOD8025883
Probable space group: P -1
;
_chemical_formula_sum "Si O2"
_cell_formula_units_Z 16
_cell_length_a 12.140161
_cell_length_b 20.015099
_cell_length_c 9.324442
_cell_angle_alpha 115.050469
_cell_angle_beta 35.541223
_cell_angle_gamma 139.126866
_cell_volume 744.177836
_symmetry_space_group_name_H-M "P -1"
_symmetry_group_IT_number 2
_symmetry_cell_setting 'triclinic'
loop_
_space_group_symop_operation_xyz
x,y,z
-x,-y,-z
loop_
_atom_site_type_symbol
_atom_site_label
_atom_site_fract_x
_atom_site_fract_y
_atom_site_fract_z
Si Si1 0.834115 0.238509 0.146986
Si Si2 0.581215 0.721620 0.664993
Si Si3 0.347277 0.286448 0.737523
Si Si4 0.651495 0.230420 0.830917
Si Si5 0.360455 0.504040 0.778493
Si Si6 0.678861 0.864945 0.198398
Si Si7 0.760221 0.139186 0.844717
Si Si8 0.688240 0.530887 0.694389
O O1 0.555918 0.163074 0.479351
O O2 0.720164 0.183258 0.059456
O O3 0.033845 0.233845 0.997659
O O4 0.028935 0.373556 0.055681
O O5 0.567379 0.730289 0.515757
O O6 0.341180 0.583760 0.831136
O O7 0.914884 0.801376 0.437934
O O8 0.476048 0.762500 0.893517
O O9 0.306592 0.216155 0.844998
O O10 0.604764 0.423206 0.633911
O O11 0.404736 0.152780 0.896092
O O12 0.723013 0.171104 0.762789
O O13 0.951790 0.358197 0.558934
O O14 0.500000 0.500000 0.500000
O O15 0.609577 0.569076 0.696482
O O16 0.000000 0.000000 0.000000
O O17 0.500000 0.000000 0.000000
O O18 0.500000 0.500000 0.000000
#
# Coordination Sequence:
#
# PCOD8025883 Si02
#       8
#     2   2   2   2   2   2   2   2
#     4  10  23  46  71  97 134 178 221 278 337 396
#     4  11  24  42  75 104 134 170 224 285 339 400
#     4  10  24  45  69 100 134 179 217 274 343 397
#     4  12  27  43  69 106 131 176 226 282 335 395
#     4  11  18  42  72 104 133 170 220 275 344 406
#     4  12  30  47  63  95 140 183 230 269 328 410
#     4  11  25  45  73  97 133 178 228 281 332 391
#     4  11  23  42  69  98 142 173 219 273 336 408
#
# _framework density 21.500236000000001
#
# number of rings (size 3 to 8) (size 9 to 14) (size 15 to 20)
#    0.000    1.000    5.000    2.250    8.750    3.000 
#    0.000    0.000    0.000    0.000    0.000    0.000 
#    0.000    0.000    0.000    0.000    0.000    0.000 
#
# Total GULP energy -198449.957094 kJ/mol
# GULP energy per Si atom -12403.122318 kJ/mol
# Density = 2.145130 g / cm^3
# Si number density = 21.500236 Si / 1000 Ang^3
#
#
#
# Elastic Constant Matrix: (Units=GPa)
#
#
# Indices 1 2 3 4 5 6 
#
# 1 121.2974 42.9651 20.0458 -11.4569 9.4971 8.1994
# 2 42.9651 95.3120 48.3493 -23.3410 -6.8222 11.5828
# 3 20.0458 48.3493 132.7167 -3.4261 1.3743 11.3162
# 4 -11.4569 -23.3410 -3.4261 34.0887 4.4923 2.7820
# 5 9.4971 -6.8222 1.3743 4.4923 21.3999 -2.2746
# 6 8.1994 11.5828 11.3162 2.7820 -2.2746 34.9600
#
#
#
# Elastic Compliance Matrix: (Units=1/GPa)
#
#
# Indices 1 2 3 4 5 6 
#
# 1 0.010715 -0.005074 0.000461 0.001195 -0.006815 -0.001520
# 2 -0.005074 0.019053 -0.005657 0.010265 0.006140 -0.003709
# 3 0.000461 -0.005657 0.009600 -0.002348 -0.002270 -0.001302
# 4 0.001195 0.010265 -0.002348 0.037796 -0.005711 -0.006301
# 5 -0.006815 0.006140 -0.002270 -0.005711 0.053506 0.004235
# 6 -0.001520 -0.003709 -0.001302 -0.006301 0.004235 0.031388
#
#
# Mechanical properties :
#
#
# Convention : Reuss Voigt Hill
#
# Bulk Modulus (GPa) = 53.11457 63.56071 58.33764
# Shear Modulus (GPa) = 26.47274 33.95411 30.21342
#
# Velocity S-wave (km/s) = 3.51276 3.97828 3.75275
# Velocity P-wave (km/s) = 6.41954 7.12245 6.78011
#
# Compressibility (1/GPa) = 0.01882723
#
# Stress axis : x y z
#
# Youngs Moduli (GPa) = 93.33114 52.48507 104.16696
#
# Poissons Ratio (x) = 0.26633 -0.04805
# Poissons Ratio (y) = 0.47360 0.58927
# Poissons Ratio (z) = -0.04305 0.29691
#
# Static dielectric constant tensor:
#      x y z
#    x 4.011550 0.227270 -0.033500 
#    y 0.227270 3.415790 0.201120 
#    z -0.033500 0.201120 3.678530 
# 
# 
# High freq. dielectric constant tensor:
#      x y z
#    x 1.856300 0.005010 0.001190 
#    y 0.005010 1.840810 -0.002340 
#    z 0.001190 -0.002340 1.845100 
# 
# From -- ./inp_files/283120.got.cif
#   From: 2010.06.25/outbox.cif.g09.slc.cpg/sg2_142_cif.got.tgz:283120.got - 2010.06.27 13:26:56.
