data_PCOD8025044
_publ_section_title
;
Structure prediction by ZEFSAII (Michael W. Deem and Ramdas Pophale) SiO2 
 PCOD8025044
Probable space group: P -1
;
_chemical_formula_sum "Si O2"
_cell_formula_units_Z 16
_cell_length_a 14.368829
_cell_length_b 14.235910
_cell_length_c 15.322492
_cell_angle_alpha 39.235823
_cell_angle_beta 140.183085
_cell_angle_gamma 160.026714
_cell_volume 665.389721
_symmetry_space_group_name_H-M "P -1"
_symmetry_group_IT_number 2
_symmetry_cell_setting 'triclinic'
loop_
_space_group_symop_operation_xyz
x,y,z
-x,-y,-z
loop_
_atom_site_type_symbol
_atom_site_label
_atom_site_fract_x
_atom_site_fract_y
_atom_site_fract_z
Si Si1 0.750818 0.339148 0.834458
Si Si2 0.304145 0.489520 0.979670
Si Si3 0.844652 0.437418 0.514479
Si Si4 0.530298 0.404449 0.516573
Si Si5 0.753868 0.051241 0.799432
Si Si6 0.343749 0.731421 0.990069
Si Si7 0.969401 0.130536 0.569841
Si Si8 0.660030 0.801856 0.744678
O O1 0.693086 0.404736 0.669875
O O2 0.080170 0.609727 0.879096
O O3 0.611127 0.058000 0.916805
O O4 0.631193 0.297820 0.870004
O O5 0.320121 0.564992 0.034798
O O6 0.986750 0.207764 0.923442
O O7 0.461242 0.732709 0.850233
O O8 0.435575 0.438972 0.110695
O O9 0.725690 0.204052 0.658578
O O10 0.599314 0.331392 0.382443
O O11 0.000000 0.500000 0.500000
O O12 0.052943 0.716755 0.523317
O O13 0.500000 0.500000 0.500000
O O14 0.717152 0.631512 0.407970
O O15 0.234573 0.088243 0.498788
O O16 0.820556 0.037736 0.763105
O O17 0.882627 0.958329 0.715840
#
# Coordination Sequence:
#
# PCOD8025044 Si02
#       8
#     2   2   2   2   2   2   2   2
#     4  10  23  45  69  96 145 175 242 296 375 431
#     4  12  29  45  77 107 152 194 259 308 371 446
#     4  12  27  50  79 112 155 205 259 312 378 458
#     4  12  28  48  74 113 148 192 246 321 374 447
#     4  12  28  46  75 109 152 199 249 310 373 441
#     4  10  23  44  68 102 130 197 230 302 362 445
#     4  12  28  46  78 108 151 198 251 304 383 451
#     4  12  28  51  74 111 156 202 252 309 385 453
#
# _framework density 24.046057999999999
#
# number of rings (size 3 to 8) (size 9 to 14) (size 15 to 20)
#    0.000    0.500    2.500    3.750   10.500    0.000 
#    4.500    0.000    0.000    0.000    0.000    0.000 
#    0.000    0.000    0.000    0.000    0.000    0.000 
#
# Total GULP energy -198471.839838 kJ/mol
# GULP energy per Si atom -12404.489990 kJ/mol
# Density = 2.399133 g / cm^3
# Si number density = 24.046058 Si / 1000 Ang^3
#
#
#
# Elastic Constant Matrix: (Units=GPa)
#
#
# Indices 1 2 3 4 5 6 
#
# 1 130.7679 44.7637 19.1593 -1.5070 -2.8062 -26.3965
# 2 44.7637 118.3046 26.3957 -4.4560 -0.8885 -20.0390
# 3 19.1593 26.3957 102.1872 -8.9796 13.0872 -9.7472
# 4 -1.5070 -4.4560 -8.9796 34.1446 0.9926 -8.0675
# 5 -2.8062 -0.8885 13.0872 0.9926 28.4681 -2.6259
# 6 -26.3965 -20.0390 -9.7472 -8.0675 -2.6259 56.7574
#
#
#
# Elastic Compliance Matrix: (Units=1/GPa)
#
#
# Indices 1 2 3 4 5 6 
#
# 1 0.009454 -0.002768 -0.000877 0.000590 0.001544 0.003424
# 2 -0.002768 0.010380 -0.001985 0.001212 0.001130 0.002261
# 3 -0.000877 -0.001985 0.011542 0.003149 -0.005465 0.001068
# 4 0.000590 0.001212 0.003149 0.031693 -0.001935 0.005658
# 5 0.001544 0.001130 -0.005465 -0.001935 0.038048 0.001664
# 6 0.003424 0.002261 0.001068 0.005658 0.001664 0.021075
#
#
# Mechanical properties :
#
#
# Convention : Reuss Voigt Hill
#
# Bulk Modulus (GPa) = 49.70963 59.09968 54.40465
# Shear Modulus (GPa) = 35.67465 41.27010 38.47237
#
# Velocity S-wave (km/s) = 3.85593 4.14731 4.00427
# Velocity P-wave (km/s) = 6.36724 6.89671 6.63726
#
# Compressibility (1/GPa) = 0.02011683
#
# Stress axis : x y z
#
# Youngs Moduli (GPa) = 105.77275 96.33895 86.64286
#
# Poissons Ratio (x) = 0.26664 0.07598
# Poissons Ratio (y) = 0.29275 0.17197
# Poissons Ratio (z) = 0.09276 0.19122
#
# Static dielectric constant tensor:
#      x y z
#    x 4.463980 -0.205960 -0.274810 
#    y -0.205960 4.461980 -0.172100 
#    z -0.274810 -0.172100 4.216880 
# 
# 
# High freq. dielectric constant tensor:
#      x y z
#    x 1.962290 -0.012720 -0.017830 
#    y -0.012720 1.968070 -0.008860 
#    z -0.017830 -0.008860 1.944770 
# 
# From -- ./inp_files/534264.got.cif
#   From: 2010.06.25/outbox.cif.g09.slc.cpg/sg2_268_cif.got.tgz:534264.got - 2010.06.27 13:26:56.
