data_PCOD8025864
_publ_section_title
;
Structure prediction by ZEFSAII (Michael W. Deem and Ramdas Pophale) SiO2 
 PCOD8025864
Probable space group: P -1
;
_chemical_formula_sum "Si O2"
_cell_formula_units_Z 16
_cell_length_a 14.731998
_cell_length_b 9.142729
_cell_length_c 15.117654
_cell_angle_alpha 38.224930
_cell_angle_beta 38.379165
_cell_angle_gamma 42.012316
_cell_volume 738.128661
_symmetry_space_group_name_H-M "P -1"
_symmetry_group_IT_number 2
_symmetry_cell_setting 'triclinic'
loop_
_space_group_symop_operation_xyz
x,y,z
-x,-y,-z
loop_
_atom_site_type_symbol
_atom_site_label
_atom_site_fract_x
_atom_site_fract_y
_atom_site_fract_z
Si Si1 0.377956 0.615278 0.960057
Si Si2 0.119834 0.759708 0.221360
Si Si3 0.565471 0.438638 0.576498
Si Si4 0.389155 0.280834 0.940225
Si Si5 0.180746 0.229676 0.483607
Si Si6 0.517986 0.964047 0.401253
Si Si7 0.884240 0.062219 0.478629
Si Si8 0.077180 0.259352 0.114300
O O1 0.400447 0.420293 0.956274
O O2 0.395445 0.868850 0.790424
O O3 0.500000 0.500000 0.000000
O O4 0.203089 0.697512 0.092431
O O5 0.191728 0.509442 0.346743
O O6 0.934921 0.805877 0.334082
O O7 0.150362 0.000941 0.125704
O O8 0.500000 0.500000 0.500000
O O9 0.438800 0.409780 0.756323
O O10 0.712723 0.189979 0.586711
O O11 0.618019 0.674830 0.449190
O O12 0.213015 0.293916 0.054243
O O13 0.500000 0.000000 0.000000
O O14 0.346756 0.020660 0.465011
O O15 0.111201 0.185582 0.462287
O O16 0.500000 0.000000 0.500000
O O17 0.934986 0.247709 0.288017
O O18 0.000000 0.000000 0.500000
O O19 0.000000 0.500000 0.000000
#
# Coordination Sequence:
#
# PCOD8025864 Si02
#       8
#     2   2   2   2   2   2   2   2
#     4  12  26  45  71 105 140 188 241 290 353 422
#     4  10  24  43  75  96 136 189 232 284 363 411
#     4  12  26  46  75 102 142 191 230 295 364 411
#     4  12  28  46  72 107 144 184 239 292 349 436
#     4  10  23  46  71 100 139 183 239 293 348 421
#     4  12  26  46  69 101 144 183 240 294 352 422
#     4  11  25  43  72 103 137 182 237 283 349 427
#     4  11  26  46  68 102 145 179 228 295 357 415
#
# _framework density 21.676438000000001
#
# number of rings (size 3 to 8) (size 9 to 14) (size 15 to 20)
#    0.000    0.750    3.750    2.250   10.500    4.000 
#    0.000    1.250    0.000    0.000    0.000    0.000 
#    0.000    0.000    0.000    0.000    0.000    0.000 
#
# Total GULP energy -198383.504096 kJ/mol
# GULP energy per Si atom -12398.969006 kJ/mol
# Density = 2.162710 g / cm^3
# Si number density = 21.676438 Si / 1000 Ang^3
#
#
#
# Elastic Constant Matrix: (Units=GPa)
#
#
# Indices 1 2 3 4 5 6 
#
# 1 115.0263 38.7323 27.7309 -2.8408 6.8142 13.7548
# 2 38.7323 117.2197 43.0337 -0.3732 -3.5653 18.3002
# 3 27.7309 43.0337 134.4363 3.8367 2.6982 19.5321
# 4 -2.8408 -0.3732 3.8367 51.0858 0.0276 -1.7087
# 5 6.8142 -3.5653 2.6982 0.0276 33.8563 4.0593
# 6 13.7548 18.3002 19.5321 -1.7087 4.0593 38.8059
#
#
#
# Elastic Compliance Matrix: (Units=1/GPa)
#
#
# Indices 1 2 3 4 5 6 
#
# 1 0.010203 -0.002844 -0.000942 0.000566 -0.002092 -0.001557
# 2 -0.002844 0.010951 -0.002510 0.000004 0.002301 -0.003134
# 3 -0.000942 -0.002510 0.008898 -0.000838 -0.000429 -0.002953
# 4 0.000566 0.000004 -0.000838 0.019706 -0.000196 0.001107
# 5 -0.002092 0.002301 -0.000429 -0.000196 0.030635 -0.003341
# 6 -0.001557 -0.003134 -0.002953 0.001107 -0.003341 0.029684
#
#
# Mechanical properties :
#
#
# Convention : Reuss Voigt Hill
#
# Bulk Modulus (GPa) = 57.27512 65.07511 61.17512
# Shear Modulus (GPa) = 38.91393 41.89530 40.40461
#
# Velocity S-wave (km/s) = 4.24160 4.40108 4.32208
# Velocity P-wave (km/s) = 7.10411 7.47746 7.29317
#
# Compressibility (1/GPa) = 0.01745959
#
# Stress axis : x y z
#
# Youngs Moduli (GPa) = 98.01475 91.31235 112.38748
#
# Poissons Ratio (x) = 0.25969 0.10588
# Poissons Ratio (y) = 0.27876 0.28209
# Poissons Ratio (z) = 0.09234 0.22919
#
# Static dielectric constant tensor:
#      x y z
#    x 4.043730 0.110530 -0.186710 
#    y 0.110530 4.193120 0.099140 
#    z -0.186710 0.099140 4.346000 
# 
# 
# High freq. dielectric constant tensor:
#      x y z
#    x 1.838850 0.009530 -0.006280 
#    y 0.009530 1.865700 0.001510 
#    z -0.006280 0.001510 1.869960 
# 
# From -- ./inp_files/529275.got.cif
#   From: 2010.06.25/outbox.cif.g09.slc.cpg/sg2_265_cif.got.tgz:529275.got - 2010.06.27 13:26:56.
