data_PCOD8025375
_publ_section_title
;
Structure prediction by ZEFSAII (Michael W. Deem and Ramdas Pophale) SiO2 
 PCOD8025375
Probable space group: P -1
;
_chemical_formula_sum "Si O2"
_cell_formula_units_Z 12
_cell_length_a 11.369349
_cell_length_b 14.767333
_cell_length_c 7.038544
_cell_angle_alpha 66.704171
_cell_angle_beta 114.916592
_cell_angle_gamma 149.336227
_cell_volume 545.187355
_symmetry_space_group_name_H-M "P -1"
_symmetry_group_IT_number 2
_symmetry_cell_setting 'triclinic'
loop_
_space_group_symop_operation_xyz
x,y,z
-x,-y,-z
loop_
_atom_site_type_symbol
_atom_site_label
_atom_site_fract_x
_atom_site_fract_y
_atom_site_fract_z
Si Si1 0.341816 0.164924 0.566661
Si Si2 0.868461 0.508157 0.661927
Si Si3 0.910509 0.884693 0.257388
Si Si4 0.187132 0.532751 0.907531
Si Si5 0.319955 0.071351 0.016181
Si Si6 0.967307 0.721696 0.260248
O O1 0.608163 0.346176 0.528007
O O2 0.246245 0.201704 0.584441
O O3 0.333896 0.070135 0.795913
O O4 0.183323 0.044848 0.373128
O O5 0.979130 0.470238 0.739320
O O6 0.020847 0.686541 0.507444
O O7 0.861921 0.532583 0.857556
O O8 0.857904 0.949027 0.037804
O O9 0.831324 0.734524 0.223079
O O10 0.196351 0.439724 0.866427
O O11 0.425947 0.745376 0.877771
O O12 0.214420 0.906176 0.174824
#
# Coordination Sequence:
#
# PCOD8025375 Si02
#       6
#     2   2   2   2   2   2
#     4   8  19  42  65  84 137 162 198 262 306 367
#     4  10  23  45  63  91 124 171 205 260 309 358
#     4   9  20  40  64  94 127 163 206 252 316 370
#     4  10  24  46  62  90 133 157 214 259 303 374
#     4   9  21  43  60  94 129 161 199 262 310 363
#     4  12  24  37  70  97 118 169 211 250 318 367
#
# _framework density 22.010781000000001
#
# number of rings (size 3 to 8) (size 9 to 14) (size 15 to 20)
#    1.000    1.333    0.000    1.000    4.667    2.000 
#    6.000    2.500    0.000    0.000    0.000    0.000 
#    0.000    0.000    0.000    0.000    0.000    0.000 
#
# Total GULP energy -148736.629741 kJ/mol
# GULP energy per Si atom -12394.719145 kJ/mol
# Density = 2.196068 g / cm^3
# Si number density = 22.010781 Si / 1000 Ang^3
#
#
#
# Elastic Constant Matrix: (Units=GPa)
#
#
# Indices 1 2 3 4 5 6 
#
# 1 59.5301 41.2235 29.7239 10.7978 12.7839 2.3866
# 2 41.2235 128.5824 74.0402 -2.4616 5.6498 13.3232
# 3 29.7239 74.0402 119.8568 -12.5346 1.7714 -2.2401
# 4 10.7978 -2.4616 -12.5346 43.5468 8.8935 4.0953
# 5 12.7839 5.6498 1.7714 8.8935 22.0177 2.7423
# 6 2.3866 13.3232 -2.2401 4.0953 2.7423 27.9329
#
#
#
# Elastic Compliance Matrix: (Units=1/GPa)
#
#
# Indices 1 2 3 4 5 6 
#
# 1 0.026125 -0.006707 -0.002701 -0.005576 -0.011311 0.002678
# 2 -0.006707 0.015137 -0.007770 0.000727 0.001276 -0.007502
# 3 -0.002701 -0.007770 0.014297 0.003864 0.000292 0.004488
# 4 -0.005576 0.000727 0.003864 0.027391 -0.007976 -0.002793
# 5 -0.011311 0.001276 0.000292 -0.007976 0.055340 -0.003882
# 6 0.002678 -0.007502 0.004488 -0.002793 -0.003882 0.040300
#
#
# Mechanical properties :
#
#
# Convention : Reuss Voigt Hill
#
# Bulk Modulus (GPa) = 47.16842 66.43827 56.80335
# Shear Modulus (GPa) = 22.72570 29.56492 26.14531
#
# Velocity S-wave (km/s) = 3.21671 3.66895 3.45025
# Velocity P-wave (km/s) = 5.93907 6.94249 6.46029
#
# Compressibility (1/GPa) = 0.02120062
#
# Stress axis : x y z
#
# Youngs Moduli (GPa) = 38.27753 66.06342 69.94520
#
# Poissons Ratio (x) = 0.44312 0.18895
# Poissons Ratio (y) = 0.25674 0.54350
# Poissons Ratio (z) = 0.10340 0.51333
#
# Static dielectric constant tensor:
#      x y z
#    x 3.854190 0.145130 -0.142410 
#    y 0.145130 3.609290 -0.000260 
#    z -0.142410 -0.000260 3.956700 
# 
# 
# High freq. dielectric constant tensor:
#      x y z
#    x 1.857740 0.012510 -0.022190 
#    y 0.012510 1.841340 0.000710 
#    z -0.022190 0.000710 1.873630 
# 
# From -- ./inp_files/177126.got.cif
#   From: 2010.06.25/outbox.cif.g09.slc.cpg/sg2_89_cif.got.tgz:177126.got - 2010.06.27 13:26:56.
