data_PCOD8025283
_publ_section_title
;
Structure prediction by ZEFSAII (Michael W. Deem and Ramdas Pophale) SiO2 
 PCOD8025283
Probable space group: P -1
;
_chemical_formula_sum "Si O2"
_cell_formula_units_Z 16
_cell_length_a 9.009397
_cell_length_b 10.937500
_cell_length_c 11.704810
_cell_angle_alpha 126.950709
_cell_angle_beta 62.658023
_cell_angle_gamma 129.100912
_cell_volume 709.300346
_symmetry_space_group_name_H-M "P -1"
_symmetry_group_IT_number 2
_symmetry_cell_setting 'triclinic'
loop_
_space_group_symop_operation_xyz
x,y,z
-x,-y,-z
loop_
_atom_site_type_symbol
_atom_site_label
_atom_site_fract_x
_atom_site_fract_y
_atom_site_fract_z
Si Si1 0.858123 0.538064 0.943040
Si Si2 0.781560 0.495500 0.194373
Si Si3 0.077585 0.938202 0.093169
Si Si4 0.244993 0.475198 0.274790
Si Si5 0.444150 0.851447 0.527758
Si Si6 0.204842 0.177627 0.523885
Si Si7 0.131202 0.867596 0.781533
Si Si8 0.373181 0.267756 0.275589
O O1 0.715960 0.501785 0.864592
O O2 0.020990 0.489860 0.821865
O O3 0.743864 0.434482 0.039314
O O4 0.965532 0.739379 0.063854
O O5 0.800027 0.685926 0.309231
O O6 0.603596 0.347554 0.249738
O O7 0.273019 0.060324 0.163340
O O8 0.145977 0.946870 0.945038
O O9 0.941738 0.025193 0.211329
O O10 0.305397 0.661380 0.414362
O O11 0.354988 0.385535 0.246645
O O12 0.017011 0.342109 0.292286
O O13 0.636259 0.871666 0.523984
O O14 0.336137 0.895363 0.689339
O O15 0.500000 0.000000 0.500000
O O16 0.271677 0.278019 0.434151
O O17 0.000000 0.000000 0.500000
#
# Coordination Sequence:
#
# PCOD8025283 Si02
#       8
#     2   2   2   2   2   2   2   2
#     4  10  24  43  71 100 142 181 223 287 347 417
#     4  11  25  45  68 103 138 184 233 278 356 413
#     4   9  20  41  68  98 135 178 215 283 340 399
#     4  10  23  44  72 104 135 183 226 286 340 410
#     4  12  28  43  68 107 132 187 234 286 343 415
#     4  12  29  49  69  97 147 185 230 295 349 408
#     4   9  21  41  69 101 135 171 228 279 339 404
#     4  11  24  44  74 101 134 186 230 286 349 411
#
# _framework density 22.557441000000001
#
# number of rings (size 3 to 8) (size 9 to 14) (size 15 to 20)
#    0.000    1.500    1.250    2.250   10.500    2.000 
#    2.250    0.000    0.000    0.000    0.000    0.000 
#    0.000    0.000    0.000    0.000    0.000    0.000 
#
# Total GULP energy -198351.999923 kJ/mol
# GULP energy per Si atom -12396.999995 kJ/mol
# Density = 2.250610 g / cm^3
# Si number density = 22.557441 Si / 1000 Ang^3
#
#
#
# Elastic Constant Matrix: (Units=GPa)
#
#
# Indices 1 2 3 4 5 6 
#
# 1 99.5503 30.8016 54.2956 -6.3497 -6.0173 2.2456
# 2 30.8016 74.6668 38.8900 -5.2649 -15.0684 7.9011
# 3 54.2956 38.8900 109.6976 -4.0559 -11.5822 13.5017
# 4 -6.3497 -5.2649 -4.0559 40.1380 -5.6244 0.9486
# 5 -6.0173 -15.0684 -11.5822 -5.6244 34.6147 -6.4521
# 6 2.2456 7.9011 13.5017 0.9486 -6.4521 35.9779
#
#
#
# Elastic Compliance Matrix: (Units=1/GPa)
#
#
# Indices 1 2 3 4 5 6 
#
# 1 0.014400 -0.002813 -0.006366 0.001178 -0.000282 0.002026
# 2 -0.002813 0.018299 -0.004197 0.002435 0.006242 -0.001213
# 3 -0.006366 -0.004197 0.014360 0.000150 0.001176 -0.003863
# 4 0.001178 0.002435 0.000150 0.026215 0.005506 -0.000368
# 5 -0.000282 0.006242 0.001176 0.005506 0.033608 0.004087
# 6 0.002026 -0.001213 -0.003863 -0.000368 0.004087 0.030127
#
#
# Mechanical properties :
#
#
# Convention : Reuss Voigt Hill
#
# Bulk Modulus (GPa) = 49.24242 59.09878 54.17060
# Shear Modulus (GPa) = 29.32078 32.80798 31.06438
#
# Velocity S-wave (km/s) = 3.60922 3.81782 3.71499
# Velocity P-wave (km/s) = 6.26465 6.75947 6.51676
#
# Compressibility (1/GPa) = 0.02030769
#
# Stress axis : x y z
#
# Youngs Moduli (GPa) = 69.44546 54.64859 69.63985
#
# Poissons Ratio (x) = 0.15372 0.44330
# Poissons Ratio (y) = 0.19535 0.29225
# Poissons Ratio (z) = 0.44206 0.22934
#
# Static dielectric constant tensor:
#      x y z
#    x 3.984530 -0.046200 0.070590 
#    y -0.046200 4.145960 0.018760 
#    z 0.070590 0.018760 4.080610 
# 
# 
# High freq. dielectric constant tensor:
#      x y z
#    x 1.881580 -0.004160 0.003530 
#    y -0.004160 1.890870 -0.000660 
#    z 0.003530 -0.000660 1.893660 
# 
# From -- ./inp_files/393027.got.cif
#   From: 2010.06.25/outbox.cif.g09.slc.cpg/sg2_197_cif.got.tgz:393027.got - 2010.06.27 13:26:56.
