data_PCOD8025361
_publ_section_title
;
Structure prediction by ZEFSAII (Michael W. Deem and Ramdas Pophale) SiO2 
 PCOD8025361
Probable space group: P -1
;
_chemical_formula_sum "Si O2"
_cell_formula_units_Z 16
_cell_length_a 9.547096
_cell_length_b 13.428659
_cell_length_c 9.081629
_cell_angle_alpha 125.008157
_cell_angle_beta 62.015230
_cell_angle_gamma 82.586555
_cell_volume 703.010816
_symmetry_space_group_name_H-M "P -1"
_symmetry_group_IT_number 2
_symmetry_cell_setting 'triclinic'
loop_
_space_group_symop_operation_xyz
x,y,z
-x,-y,-z
loop_
_atom_site_type_symbol
_atom_site_label
_atom_site_fract_x
_atom_site_fract_y
_atom_site_fract_z
Si Si1 0.779558 0.612542 0.166481
Si Si2 0.294431 0.535751 0.149596
Si Si3 0.304326 0.537868 0.695263
Si Si4 0.927209 0.397543 0.407509
Si Si5 0.242817 0.983308 0.274015
Si Si6 0.522408 0.941871 0.604633
Si Si7 0.138466 0.051234 0.035803
Si Si8 0.866696 0.221651 0.794426
O O1 0.648104 0.581437 0.306000
O O2 0.708680 0.777608 0.369408
O O3 0.734695 0.590280 0.001850
O O4 0.000000 0.500000 0.000000
O O5 0.243143 0.566474 0.370175
O O6 0.157390 0.680499 0.248558
O O7 0.500000 0.500000 0.000000
O O8 0.500000 0.500000 0.500000
O O9 0.166394 0.535319 0.644307
O O10 0.172053 0.698517 0.963568
O O11 0.000000 0.500000 0.500000
O O12 0.066856 0.220735 0.186251
O O13 0.431368 0.977511 0.222954
O O14 0.181348 0.020160 0.163612
O O15 0.082188 0.088443 0.560849
O O16 0.282253 0.827251 0.166460
O O17 0.500000 0.000000 0.500000
O O18 0.332160 0.954266 0.763772
O O19 0.000000 0.000000 0.000000
#
# Coordination Sequence:
#
# PCOD8025361 Si02
#       8
#     2   2   2   2   2   2   2   2
#     4  11  26  48  74 101 147 193 244 304 376 453
#     4  11  24  43  72 103 140 186 252 301 364 446
#     4  11  25  44  71 104 142 190 248 303 369 444
#     4  12  27  44  74 109 149 192 251 316 376 444
#     4  11  25  48  75 102 150 197 247 310 380 454
#     4  12  31  47  78 114 153 197 255 315 389 455
#     4  12  30  50  78 111 156 201 257 317 389 459
#     4  10  23  44  76 102 140 196 250 299 382 445
#
# _framework density 22.759250999999999
#
# number of rings (size 3 to 8) (size 9 to 14) (size 15 to 20)
#    0.000    0.750    1.250    4.875   17.500    1.000 
#    0.000    0.000    0.000    0.000    0.000    0.000 
#    0.000    0.000    0.000    0.000    0.000    0.000 
#
# Total GULP energy -198252.643756 kJ/mol
# GULP energy per Si atom -12390.790235 kJ/mol
# Density = 2.270745 g / cm^3
# Si number density = 22.759251 Si / 1000 Ang^3
#
#
#
# Elastic Constant Matrix: (Units=GPa)
#
#
# Indices 1 2 3 4 5 6 
#
# 1 143.6818 27.4765 44.2703 0.1160 17.6608 7.3474
# 2 27.4765 72.2971 43.0528 2.6102 10.9398 14.4032
# 3 44.2703 43.0528 124.9257 -11.0013 2.9070 -1.0507
# 4 0.1160 2.6102 -11.0013 38.5797 7.5096 8.9549
# 5 17.6608 10.9398 2.9070 7.5096 43.5922 -4.5899
# 6 7.3474 14.4032 -1.0507 8.9549 -4.5899 34.4781
#
#
#
# Elastic Compliance Matrix: (Units=1/GPa)
#
#
# Indices 1 2 3 4 5 6 
#
# 1 0.008433 -0.000710 -0.002647 0.000418 -0.003359 -0.002137
# 2 -0.000710 0.020963 -0.006935 -0.000115 -0.005493 -0.009519
# 3 -0.002647 -0.006935 0.011545 0.002601 0.001953 0.003398
# 4 0.000418 -0.000115 0.002601 0.029898 -0.006367 -0.008575
# 5 -0.003359 -0.005493 0.001953 -0.006367 0.027529 0.008389
# 6 -0.002137 -0.009519 0.003398 -0.008575 0.008389 0.036883
#
#
# Mechanical properties :
#
#
# Convention : Reuss Voigt Hill
#
# Bulk Modulus (GPa) = 49.12282 63.38933 56.25607
# Shear Modulus (GPa) = 30.74628 38.40366 34.57497
#
# Velocity S-wave (km/s) = 3.67950 4.11224 3.90187
# Velocity P-wave (km/s) = 6.29937 7.10351 6.71349
#
# Compressibility (1/GPa) = 0.02035714
#
# Stress axis : x y z
#
# Youngs Moduli (GPa) = 118.58380 47.70227 86.61789
#
# Poissons Ratio (x) = 0.03387 0.22926
# Poissons Ratio (y) = 0.08419 0.60073
# Poissons Ratio (z) = 0.31386 0.33083
#
# Static dielectric constant tensor:
#      x y z
#    x 4.186660 0.238390 0.291140 
#    y 0.238390 4.235870 -0.072470 
#    z 0.291140 -0.072470 4.394800 
# 
# 
# High freq. dielectric constant tensor:
#      x y z
#    x 1.906500 0.011260 0.010230 
#    y 0.011260 1.904360 -0.008350 
#    z 0.010230 -0.008350 1.911130 
# 
# From -- ./inp_files/208908.got.cif
#   From: 2010.06.25/outbox.cif.g09.slc.cpg/sg2_105_cif.got.tgz:208908.got - 2010.06.27 13:26:56.
