data_PCOD8025451
_publ_section_title
;
Structure prediction by ZEFSAII (Michael W. Deem and Ramdas Pophale) SiO2 
 PCOD8025451
Probable space group: P -1
;
_chemical_formula_sum "Si O2"
_cell_formula_units_Z 16
_cell_length_a 13.996720
_cell_length_b 14.708650
_cell_length_c 6.283880
_cell_angle_alpha 49.069804
_cell_angle_beta 101.808739
_cell_angle_gamma 129.075443
_cell_volume 709.288813
_symmetry_space_group_name_H-M "P -1"
_symmetry_group_IT_number 2
_symmetry_cell_setting 'triclinic'
loop_
_space_group_symop_operation_xyz
x,y,z
-x,-y,-z
loop_
_atom_site_type_symbol
_atom_site_label
_atom_site_fract_x
_atom_site_fract_y
_atom_site_fract_z
Si Si1 0.374395 0.961721 0.903556
Si Si2 0.192671 0.179251 0.427899
Si Si3 0.931154 0.077502 0.588180
Si Si4 0.705663 0.487380 0.170523
Si Si5 0.284581 0.649655 0.210000
Si Si6 0.296670 0.114838 0.917456
Si Si7 0.073100 0.435237 0.118127
Si Si8 0.491859 0.217357 0.199998
O O1 0.317852 0.003091 0.992463
O O2 0.408019 0.056579 0.552467
O O3 0.500000 0.000000 0.000000
O O4 0.263474 0.766751 0.113839
O O5 0.305851 0.226962 0.569672
O O6 0.065538 0.113344 0.607381
O O7 0.156610 0.038582 0.473552
O O8 0.243359 0.333643 0.075664
O O9 0.962259 0.244054 0.322463
O O10 0.852090 0.998476 0.891427
O O11 0.668041 0.410084 0.505620
O O12 0.572718 0.376459 0.141010
O O13 0.817681 0.487328 0.136919
O O14 0.152010 0.486042 0.298335
O O15 0.402809 0.767755 0.915499
O O16 0.397040 0.216533 0.003245
O O17 0.000000 0.500000 0.000000
#
# Coordination Sequence:
#
# PCOD8025451 Si02
#       8
#     2   2   2   2   2   2   2   2
#     4  12  24  42  68 100 138 179 216 271 338 406
#     4  10  24  47  69  95 136 177 231 274 324 394
#     4  10  24  45  68  96 134 179 227 274 328 390
#     4  10  23  45  67  97 134 179 218 277 335 391
#     4  11  24  42  68  95 137 178 216 272 337 394
#     4  12  25  39  71 102 130 181 224 273 332 397
#     4  10  25  40  66 100 136 169 221 280 335 396
#     4  11  23  42  66 102 131 170 222 269 339 395
#
# _framework density 22.557804999999998
#
# number of rings (size 3 to 8) (size 9 to 14) (size 15 to 20)
#    0.000    1.250    2.500    1.500    5.250    7.000 
#    0.000    4.375    0.000    0.000    0.000    0.000 
#    0.000    0.000    0.000    0.000    0.000    0.000 
#
# Total GULP energy -198377.372549 kJ/mol
# GULP energy per Si atom -12398.585784 kJ/mol
# Density = 2.250646 g / cm^3
# Si number density = 22.557805 Si / 1000 Ang^3
#
#
#
# Elastic Constant Matrix: (Units=GPa)
#
#
# Indices 1 2 3 4 5 6 
#
# 1 95.3142 42.4894 42.7508 2.5632 12.3717 -13.9677
# 2 42.4894 145.2886 66.2569 -5.8037 20.0383 -4.6377
# 3 42.7508 66.2569 114.2606 -1.9629 11.1389 -1.2458
# 4 2.5632 -5.8037 -1.9629 36.9061 3.4992 7.9741
# 5 12.3717 20.0383 11.1389 3.4992 31.8810 7.4935
# 6 -13.9677 -4.6377 -1.2458 7.9741 7.4935 31.8942
#
#
#
# Elastic Compliance Matrix: (Units=1/GPa)
#
#
# Indices 1 2 3 4 5 6 
#
# 1 0.014965 -0.001687 -0.004106 -0.002787 -0.004886 0.007993
# 2 -0.001687 0.010341 -0.004873 0.001653 -0.004617 0.001246
# 3 -0.004106 -0.004873 0.013045 0.000655 0.000566 -0.002294
# 4 -0.002787 0.001653 0.000655 0.029449 -0.001549 -0.007953
# 5 -0.004886 -0.004617 0.000566 -0.001549 0.038846 -0.011529
# 6 0.007993 0.001246 -0.002294 -0.007953 -0.011529 0.039643
#
#
# Mechanical properties :
#
#
# Convention : Reuss Voigt Hill
#
# Bulk Modulus (GPa) = 58.75404 73.09528 65.92466
# Shear Modulus (GPa) = 28.85248 33.69401 31.27324
#
# Velocity S-wave (km/s) = 3.58026 3.86900 3.72743
# Velocity P-wave (km/s) = 6.57218 7.24105 6.91470
#
# Compressibility (1/GPa) = 0.01702011
#
# Stress axis : x y z
#
# Youngs Moduli (GPa) = 66.82070 96.70124 76.65663
#
# Poissons Ratio (x) = 0.16309 0.31473
# Poissons Ratio (y) = 0.11270 0.37358
# Poissons Ratio (z) = 0.27435 0.47127
#
# Static dielectric constant tensor:
#      x y z
#    x 4.110080 -0.064500 -0.115010 
#    y -0.064500 4.343600 0.036790 
#    z -0.115010 0.036790 3.965120 
# 
# 
# High freq. dielectric constant tensor:
#      x y z
#    x 1.890160 -0.002810 -0.004880 
#    y -0.002810 1.895920 0.006540 
#    z -0.004880 0.006540 1.880350 
# 
# From -- ./inp_files/97505.got.cif
#   From: 2010.06.25/outbox.cif.g09.slc.cpg/sg2_49_cif.got.tgz:97505.got - 2010.06.27 13:26:56.
