data_PCOD8025019
_publ_section_title
;
Structure prediction by ZEFSAII (Michael W. Deem and Ramdas Pophale) SiO2 
 PCOD8025019
Probable space group: P -1
;
_chemical_formula_sum "Si O2"
_cell_formula_units_Z 16
_cell_length_a 8.077047
_cell_length_b 8.484239
_cell_length_c 15.257405
_cell_angle_alpha 53.615506
_cell_angle_beta 115.052384
_cell_angle_gamma 85.933682
_cell_volume 684.140991
_symmetry_space_group_name_H-M "P -1"
_symmetry_group_IT_number 2
_symmetry_cell_setting 'triclinic'
loop_
_space_group_symop_operation_xyz
x,y,z
-x,-y,-z
loop_
_atom_site_type_symbol
_atom_site_label
_atom_site_fract_x
_atom_site_fract_y
_atom_site_fract_z
Si Si1 0.241242 0.444871 0.198943
Si Si2 0.654319 0.011507 0.691749
Si Si3 0.695214 0.784958 0.089178
Si Si4 0.810679 0.909745 0.420850
Si Si5 0.185213 0.706506 0.460693
Si Si6 0.676079 0.382938 0.292507
Si Si7 0.896684 0.483256 0.661643
Si Si8 0.098681 0.116988 0.045284
O O1 0.220926 0.228867 0.240129
O O2 0.449716 0.420836 0.216707
O O3 0.229941 0.481238 0.289368
O O4 0.075544 0.649963 0.041311
O O5 0.419599 0.070250 0.643997
O O6 0.780276 0.034058 0.796368
O O7 0.679841 0.164361 0.572428
O O8 0.683368 0.555778 0.167266
O O9 0.893516 0.740051 0.208271
O O10 0.734975 0.828803 0.984565
O O11 0.500000 0.000000 0.000000
O O12 0.817135 0.126617 0.388860
O O13 0.933976 0.700418 0.582475
O O14 0.941478 0.854862 0.377132
O O15 0.284249 0.563067 0.616878
O O16 0.218741 0.542331 0.441556
O O17 0.000000 0.000000 0.000000
#
# Coordination Sequence:
#
# PCOD8025019 Si02
#       8
#     2   2   2   2   2   2   2   2
#     4  10  23  44  67  97 139 181 237 276 344 416
#     4  11  25  44  71 102 138 185 225 290 345 409
#     4  11  25  41  69  95 138 181 225 283 340 407
#     4  11  25  44  68 106 143 176 235 283 347 421
#     4  12  25  41  72 103 141 182 225 291 345 414
#     4  11  24  44  70 104 136 185 225 286 353 405
#     4  11  24  43  66 103 137 181 229 282 349 407
#     4  11  24  45  68  96 136 185 231 282 337 415
#
# _framework density 23.386993
#
# number of rings (size 3 to 8) (size 9 to 14) (size 15 to 20)
#    0.000    1.000    1.250    4.875    5.250    5.000 
#    0.000    1.250    0.000    0.000    0.000    0.000 
#    0.000    0.000    0.000    0.000    0.000    0.000 
#
# Total GULP energy -198274.360165 kJ/mol
# GULP energy per Si atom -12392.147510 kJ/mol
# Density = 2.333376 g / cm^3
# Si number density = 23.386993 Si / 1000 Ang^3
#
#
#
# Elastic Constant Matrix: (Units=GPa)
#
#
# Indices 1 2 3 4 5 6 
#
# 1 99.6028 19.1611 25.4153 -12.5740 -14.5081 2.0638
# 2 19.1611 74.3460 18.0659 -5.6803 3.2934 0.0567
# 3 25.4153 18.0659 92.4362 -14.6310 -1.1125 -11.3172
# 4 -12.5740 -5.6803 -14.6310 44.2187 -4.5156 1.0359
# 5 -14.5081 3.2934 -1.1125 -4.5156 39.3700 -8.4756
# 6 2.0638 0.0567 -11.3172 1.0359 -8.4756 26.0096
#
#
#
# Elastic Compliance Matrix: (Units=1/GPa)
#
#
# Indices 1 2 3 4 5 6 
#
# 1 0.012230 -0.002561 -0.002418 0.002858 0.004863 -0.000546
# 2 -0.002561 0.014826 -0.002413 0.000152 -0.002608 -0.001735
# 3 -0.002418 -0.002413 0.013282 0.003396 0.001434 0.006308
# 4 0.002858 0.000152 0.003396 0.024977 0.004362 0.001677
# 5 0.004863 -0.002608 0.001434 0.004362 0.030076 0.009871
# 6 -0.000546 -0.001735 0.006308 0.001677 0.009871 0.044389
#
#
# Mechanical properties :
#
#
# Convention : Reuss Voigt Hill
#
# Bulk Modulus (GPa) = 39.13458 43.51886 41.32672
# Shear Modulus (GPa) = 30.65952 35.50250 33.08101
#
# Velocity S-wave (km/s) = 3.62465 3.90044 3.76507
# Velocity P-wave (km/s) = 5.85553 6.23964 6.05063
#
# Compressibility (1/GPa) = 0.02555285
#
# Stress axis : x y z
#
# Youngs Moduli (GPa) = 81.76589 67.45111 75.29094
#
# Poissons Ratio (x) = 0.17275 0.18206
# Poissons Ratio (y) = 0.20941 0.18169
# Poissons Ratio (z) = 0.19771 0.16277
#
# Static dielectric constant tensor:
#      x y z
#    x 4.503720 0.015080 -0.058240 
#    y 0.015080 3.728550 -0.262260 
#    z -0.058240 -0.262260 4.287740 
# 
# 
# High freq. dielectric constant tensor:
#      x y z
#    x 1.949580 0.002440 0.000200 
#    y 0.002440 1.911280 -0.019230 
#    z 0.000200 -0.019230 1.924730 
# 
# From -- ./inp_files/494428.got.cif
#   From: 2010.06.25/outbox.cif.g09.slc.cpg/sg2_248_cif.got.tgz:494428.got - 2010.06.27 13:26:56.
