data_PCOD8025979
_publ_section_title
;
Structure prediction by ZEFSAII (Michael W. Deem and Ramdas Pophale) SiO2 
 PCOD8025979
Probable space group: P -1
;
_chemical_formula_sum "Si O2"
_cell_formula_units_Z 16
_cell_length_a 10.036888
_cell_length_b 9.683588
_cell_length_c 21.417173
_cell_angle_alpha 134.262625
_cell_angle_beta 27.928109
_cell_angle_gamma 131.443064
_cell_volume 691.833252
_symmetry_space_group_name_H-M "P -1"
_symmetry_group_IT_number 2
_symmetry_cell_setting 'triclinic'
loop_
_space_group_symop_operation_xyz
x,y,z
-x,-y,-z
loop_
_atom_site_type_symbol
_atom_site_label
_atom_site_fract_x
_atom_site_fract_y
_atom_site_fract_z
Si Si1 0.734294 0.679741 0.653488
Si Si2 0.730729 0.656286 0.400033
Si Si3 0.838551 0.862129 0.105931
Si Si4 0.210414 0.859601 0.064865
Si Si5 0.514263 0.507973 0.813953
Si Si6 0.832134 0.981320 0.366690
Si Si7 0.769608 0.240310 0.191099
Si Si8 0.880472 0.498014 0.410326
O O1 0.563369 0.528234 0.725343
O O2 0.502107 0.797949 0.754869
O O3 0.888545 0.571256 0.501584
O O4 0.981135 0.813415 0.631492
O O5 0.887844 0.838692 0.355416
O O6 0.788828 0.450343 0.281821
O O7 0.840760 0.667994 0.429774
O O8 0.387631 0.670205 0.542677
O O9 0.589726 0.715906 0.196515
O O10 0.117085 0.897022 0.045252
O O11 0.723679 0.068121 0.207073
O O12 0.934130 0.772325 0.972722
O O13 0.951572 0.891787 0.227257
O O14 0.274872 0.638051 0.976528
O O15 0.500000 0.000000 0.000000
O O16 0.812899 0.577622 0.749797
O O17 0.500000 0.000000 0.500000
#
# Coordination Sequence:
#
# PCOD8025979 Si02
#       8
#     2   2   2   2   2   2   2   2
#     4  11  24  45  69 101 147 178 239 294 349 426
#     4  10  24  46  70  99 146 183 241 294 354 414
#     4  11  25  42  73 101 136 190 233 284 365 421
#     4  12  26  45  70 105 149 180 237 297 352 422
#     4  12  24  44  71 105 138 189 234 293 355 426
#     4  12  27  44  74 109 140 190 238 295 355 427
#     4  10  23  47  69 100 141 181 236 295 351 423
#     4  10  25  44  70 100 137 193 234 292 356 419
#
# _framework density 23.12696
#
# number of rings (size 3 to 8) (size 9 to 14) (size 15 to 20)
#    0.000    1.000    2.500    2.250    8.750    2.500 
#    0.000    1.250    0.000    0.000    0.000    0.000 
#    0.000    0.000    0.000    0.000    0.000    0.000 
#
# Total GULP energy -198401.384889 kJ/mol
# GULP energy per Si atom -12400.086556 kJ/mol
# Density = 2.307432 g / cm^3
# Si number density = 23.126960 Si / 1000 Ang^3
#
#
#
# Elastic Constant Matrix: (Units=GPa)
#
#
# Indices 1 2 3 4 5 6 
#
# 1 93.0937 34.6695 40.8631 -8.2210 -1.5546 -6.5555
# 2 34.6695 132.6097 36.3122 -14.2578 5.1915 -26.7349
# 3 40.8631 36.3122 126.4187 -0.4260 -2.9949 -7.0363
# 4 -8.2210 -14.2578 -0.4260 27.3511 -6.6043 1.6726
# 5 -1.5546 5.1915 -2.9949 -6.6043 44.8845 -1.6706
# 6 -6.5555 -26.7349 -7.0363 1.6726 -1.6706 32.3251
#
#
#
# Elastic Compliance Matrix: (Units=1/GPa)
#
#
# Indices 1 2 3 4 5 6 
#
# 1 0.013472 -0.002225 -0.003684 0.003057 0.000927 -0.000020
# 2 -0.002225 0.010684 -0.001918 0.004272 -0.000525 0.007719
# 3 -0.003684 -0.001918 0.009651 -0.001838 0.000463 -0.000114
# 4 0.003057 0.004272 -0.001838 0.040908 0.005580 0.001925
# 5 0.000927 -0.000525 0.000463 0.005580 0.023253 0.000768
# 6 -0.000020 0.007719 -0.000114 0.001925 0.000768 0.037231
#
#
# Mechanical properties :
#
#
# Convention : Reuss Voigt Hill
#
# Bulk Modulus (GPa) = 55.09142 63.97907 59.53525
# Shear Modulus (GPa) = 31.86666 36.93064 34.39865
#
# Velocity S-wave (km/s) = 3.71604 4.00042 3.86084
# Velocity P-wave (km/s) = 6.50268 7.00443 6.75822
#
# Compressibility (1/GPa) = 0.01815165
#
# Stress axis : x y z
#
# Youngs Moduli (GPa) = 74.22981 93.59822 103.62132
#
# Poissons Ratio (x) = 0.20824 0.38177
# Poissons Ratio (y) = 0.16515 0.19875
# Poissons Ratio (z) = 0.27349 0.17953
#
# Static dielectric constant tensor:
#      x y z
#    x 4.332410 -0.277180 0.025720 
#    y -0.277180 4.004810 0.032910 
#    z 0.025720 0.032910 4.326260 
# 
# 
# High freq. dielectric constant tensor:
#      x y z
#    x 1.922810 -0.021940 -0.003880 
#    y -0.021940 1.902330 -0.000060 
#    z -0.003880 -0.000060 1.924210 
# 
# From -- ./inp_files/588006.got.cif
#   From: 2010.06.25/outbox.cif.g09.slc.cpg/sg2_295_cif.got.tgz:588006.got - 2010.06.27 13:26:56.
