data_PCOD8025847
_publ_section_title
;
Structure prediction by ZEFSAII (Michael W. Deem and Ramdas Pophale) SiO2 
 PCOD8025847
Probable space group: P -1
;
_chemical_formula_sum "Si O2"
_cell_formula_units_Z 16
_cell_length_a 21.075545
_cell_length_b 12.354893
_cell_length_c 12.503206
_cell_angle_alpha 141.286423
_cell_angle_beta 27.299313
_cell_angle_gamma 151.056092
_cell_volume 722.574026
_symmetry_space_group_name_H-M "P -1"
_symmetry_group_IT_number 2
_symmetry_cell_setting 'triclinic'
loop_
_space_group_symop_operation_xyz
x,y,z
-x,-y,-z
loop_
_atom_site_type_symbol
_atom_site_label
_atom_site_fract_x
_atom_site_fract_y
_atom_site_fract_z
Si Si1 0.194419 0.106264 0.251282
Si Si2 0.446262 0.724539 0.576426
Si Si3 0.661331 0.729562 0.623507
Si Si4 0.004221 0.490927 0.361396
Si Si5 0.824001 0.254775 0.102755
Si Si6 0.591104 0.232442 0.094464
Si Si7 0.176465 0.952581 0.836249
Si Si8 0.050780 0.159464 0.312884
O O1 0.351862 0.279051 0.232776
O O2 0.200828 0.906564 0.075781
O O3 0.000000 0.000000 0.500000
O O4 0.205970 0.212868 0.202106
O O5 0.327958 0.460670 0.573324
O O6 0.346784 0.758771 0.662737
O O7 0.465937 0.824381 0.740239
O O8 0.633575 0.831508 0.323588
O O9 0.488136 0.665922 0.772521
O O10 0.843468 0.972698 0.510350
O O11 0.916002 0.607749 0.555856
O O12 0.000000 0.500000 0.500000
O O13 0.897846 0.234143 0.288179
O O14 0.197602 0.614921 0.116166
O O15 0.827438 0.172339 0.150165
O O16 0.000000 0.500000 0.000000
O O17 0.500000 0.000000 0.000000
O O18 0.074200 0.055876 0.091244
#
# Coordination Sequence:
#
# PCOD8025847 Si02
#       8
#     2   2   2   2   2   2   2   2
#     4   9  20  38  67 102 127 168 226 286 337 409
#     4  12  26  43  68 103 139 186 225 295 349 412
#     4  11  23  42  70  98 136 178 239 287 346 415
#     4  12  27  45  73 101 140 187 231 290 354 421
#     4  11  22  42  72 101 136 183 232 283 350 413
#     4  12  24  45  69 100 136 181 240 286 346 423
#     4  11  27  46  67 103 148 179 232 290 351 418
#     4  10  23  46  70 104 133 183 236 284 355 411
#
# _framework density 22.143060999999999
#
# number of rings (size 3 to 8) (size 9 to 14) (size 15 to 20)
#    0.000    1.000    1.250    6.000    8.750    0.500 
#    0.000    1.250    0.000    0.000    0.000    0.000 
#    0.000    0.000    0.000    0.000    0.000    0.000 
#
# Total GULP energy -198232.748211 kJ/mol
# GULP energy per Si atom -12389.546763 kJ/mol
# Density = 2.209266 g / cm^3
# Si number density = 22.143061 Si / 1000 Ang^3
#
#
#
# Elastic Constant Matrix: (Units=GPa)
#
#
# Indices 1 2 3 4 5 6 
#
# 1 91.2155 5.8660 29.6845 1.4712 -1.4247 2.4842
# 2 5.8660 51.1250 19.2258 9.9709 -0.1876 4.1277
# 3 29.6845 19.2258 108.3965 12.1649 -2.5695 -1.2042
# 4 1.4712 9.9709 12.1649 42.0004 -4.0489 3.8577
# 5 -1.4247 -0.1876 -2.5695 -4.0489 44.4583 6.5032
# 6 2.4842 4.1277 -1.2042 3.8577 6.5032 31.0079
#
#
#
# Elastic Compliance Matrix: (Units=1/GPa)
#
#
# Indices 1 2 3 4 5 6 
#
# 1 0.012100 -0.000163 -0.003373 0.000751 0.000446 -0.001266
# 2 -0.000163 0.021839 -0.003414 -0.003970 -0.000105 -0.002511
# 3 -0.003373 -0.003414 0.011041 -0.002392 0.000088 0.001433
# 4 0.000751 -0.003970 -0.002392 0.025998 0.002739 -0.003433
# 5 0.000446 -0.000105 0.000088 0.002739 0.023536 -0.005295
# 6 -0.001266 -0.002511 0.001433 -0.003433 -0.005295 0.034279
#
#
# Mechanical properties :
#
#
# Convention : Reuss Voigt Hill
#
# Bulk Modulus (GPa) = 32.17294 40.03217 36.10256
# Shear Modulus (GPa) = 32.66871 36.55735 34.61303
#
# Velocity S-wave (km/s) = 3.84519 4.06761 3.95796
# Velocity P-wave (km/s) = 5.85450 6.33867 6.10139
#
# Compressibility (1/GPa) = 0.03108202
#
# Stress axis : x y z
#
# Youngs Moduli (GPa) = 82.64195 45.78993 90.57184
#
# Poissons Ratio (x) = 0.00745 0.30546
# Poissons Ratio (y) = 0.01345 0.30919
# Poissons Ratio (z) = 0.27872 0.15632
#
# Static dielectric constant tensor:
#      x y z
#    x 5.057680 -0.107650 -1.541430 
#    y -0.107650 4.100980 0.664000 
#    z -1.541430 0.664000 8.742700 
# 
# 
# High freq. dielectric constant tensor:
#      x y z
#    x 1.879640 0.000480 0.002740 
#    y 0.000480 1.866920 0.023020 
#    z 0.002740 0.023020 1.880490 
# 
# From -- ./inp_files/427426.got.cif
#   From: 2010.06.25/outbox.cif.g09.slc.cpg/sg2_214_cif.got.tgz:427426.got - 2010.06.27 13:26:56.
