data_PCOD8025290
_publ_section_title
;
Structure prediction by ZEFSAII (Michael W. Deem and Ramdas Pophale) SiO2 
 PCOD8025290
Probable space group: P -1
;
_chemical_formula_sum "Si O2"
_cell_formula_units_Z 12
_cell_length_a 20.324020
_cell_length_b 17.758177
_cell_length_c 5.781472
_cell_angle_alpha 103.324753
_cell_angle_beta 105.138208
_cell_angle_gamma 13.349883
_cell_volume 462.459290
_symmetry_space_group_name_H-M "P -1"
_symmetry_group_IT_number 2
_symmetry_cell_setting 'triclinic'
loop_
_space_group_symop_operation_xyz
x,y,z
-x,-y,-z
loop_
_atom_site_type_symbol
_atom_site_label
_atom_site_fract_x
_atom_site_fract_y
_atom_site_fract_z
Si Si1 0.473950 0.201370 0.154801
Si Si2 0.841074 0.314493 0.570420
Si Si3 0.922224 0.725423 0.826658
Si Si4 0.634355 0.878611 0.291782
Si Si5 0.252709 0.933512 0.329450
Si Si6 0.166516 0.882907 0.940161
O O1 0.386815 0.384172 0.274168
O O2 0.599977 0.010277 0.349651
O O3 0.200234 0.464706 0.977050
O O4 0.719194 0.933168 0.999844
O O5 0.600813 0.530409 0.357926
O O6 0.070596 0.119032 0.526672
O O7 0.033562 0.036028 0.671545
O O8 0.033503 0.519992 0.680436
O O9 0.771776 0.948099 0.661116
O O10 0.500000 0.000000 0.500000
O O11 0.500000 0.000000 0.000000
O O12 0.101882 0.040461 0.090204
O O13 0.500000 0.500000 0.000000
O O14 0.000000 0.000000 0.000000
#
# Coordination Sequence:
#
# PCOD8025290 Si02
#       6
#     2   2   2   2   2   2
#     4  11  23  44  72 105 148 196 246 305 370 443
#     4  12  26  45  75 107 143 192 248 303 375 453
#     4  11  23  44  72 105 148 196 246 305 370 443
#     4  10  23  44  72 108 156 203 257 315 376 446
#     4  12  26  45  75 107 143 192 248 303 375 453
#     4  12  28  48  74 103 148 185 238 314 380 456
#
# _framework density 25.948229000000001
#
# number of rings (size 3 to 8) (size 9 to 14) (size 15 to 20)
#    0.000    0.667    1.667    5.500    2.333    6.667 
#    0.000    7.500    0.000    0.000    0.000    0.000 
#    0.000    0.000    0.000    0.000    0.000    0.000 
#
# Total GULP energy -148676.820288 kJ/mol
# GULP energy per Si atom -12389.735024 kJ/mol
# Density = 2.588917 g / cm^3
# Si number density = 25.948229 Si / 1000 Ang^3
#
#
#
# Elastic Constant Matrix: (Units=GPa)
#
#
# Indices 1 2 3 4 5 6 
#
# 1 148.1262 51.1001 42.9255 -4.0959 -33.9296 -4.0954
# 2 51.1001 172.6069 39.4772 -13.9144 -40.6153 -14.1851
# 3 42.9255 39.4772 78.2415 5.8972 -43.1799 2.6803
# 4 -4.0959 -13.9144 5.8972 50.9789 -2.0876 -13.2337
# 5 -33.9296 -40.6153 -43.1799 -2.0876 61.1434 3.9275
# 6 -4.0954 -14.1851 2.6803 -13.2337 3.9275 56.5676
#
#
#
# Elastic Compliance Matrix: (Units=1/GPa)
#
#
# Indices 1 2 3 4 5 6 
#
# 1 0.008542 -0.001294 -0.003248 0.000917 0.001582 0.000552
# 2 -0.001294 0.007758 -0.001792 0.002976 0.003116 0.002416
# 3 -0.003248 -0.001792 0.023410 -0.003844 0.013643 -0.003640
# 4 0.000917 0.002976 -0.003844 0.022579 0.000139 0.006267
# 5 0.001582 0.003116 0.013643 0.000139 0.029054 -0.001735
# 6 0.000552 0.002416 -0.003640 0.006267 -0.001735 0.020083
#
#
# Mechanical properties :
#
#
# Convention : Reuss Voigt Hill
#
# Bulk Modulus (GPa) = 36.97843 73.99780 55.48812
# Shear Modulus (GPa) = 37.56328 51.43609 44.49969
#
# Velocity S-wave (km/s) = 3.80889 4.45709 4.14568
# Velocity P-wave (km/s) = 5.79874 7.42071 6.65929
#
# Compressibility (1/GPa) = 0.02704279
#
# Stress axis : x y z
#
# Youngs Moduli (GPa) = 117.07108 128.89563 42.71598
#
# Poissons Ratio (x) = 0.16683 0.13874
# Poissons Ratio (y) = 0.15152 0.07653
# Poissons Ratio (z) = 0.38025 0.23092
#
# Static dielectric constant tensor:
#      x y z
#    x 5.431070 0.535530 0.315870 
#    y 0.535530 5.030830 -0.129220 
#    z 0.315870 -0.129220 4.902800 
# 
# 
# High freq. dielectric constant tensor:
#      x y z
#    x 2.059960 0.006800 0.009480 
#    y 0.006800 2.063850 -0.014390 
#    z 0.009480 -0.014390 2.037940 
# 
# From -- ./inp_files/124948.got.cif
#   From: 2010.06.25/outbox.cif.g09.slc.cpg/sg2_63_cif.got.tgz:124948.got - 2010.06.27 13:26:56.
