data_PCOD8025176
_publ_section_title
;
Structure prediction by ZEFSAII (Michael W. Deem and Ramdas Pophale) SiO2 
 PCOD8025176
Probable space group: P -1
;
_chemical_formula_sum "Si O2"
_cell_formula_units_Z 16
_cell_length_a 20.210781
_cell_length_b 15.440446
_cell_length_c 5.128700
_cell_angle_alpha 72.966843
_cell_angle_beta 80.542838
_cell_angle_gamma 27.080971
_cell_volume 679.321026
_symmetry_space_group_name_H-M "P -1"
_symmetry_group_IT_number 2
_symmetry_cell_setting 'triclinic'
loop_
_space_group_symop_operation_xyz
x,y,z
-x,-y,-z
loop_
_atom_site_type_symbol
_atom_site_label
_atom_site_fract_x
_atom_site_fract_y
_atom_site_fract_z
Si Si1 0.198627 0.904115 0.647435
Si Si2 0.250456 0.443152 0.961917
Si Si3 0.883618 0.722924 0.377442
Si Si4 0.132368 0.681203 0.339859
Si Si5 0.738787 0.283648 0.727507
Si Si6 0.554080 0.259478 0.532461
Si Si7 0.009803 0.596743 0.909457
Si Si8 0.444056 0.862344 0.849890
O O1 0.185695 0.854508 0.448888
O O2 0.293572 0.877284 0.532492
O O3 0.274103 0.766106 0.970958
O O4 0.035555 0.135320 0.626234
O O5 0.240162 0.518058 0.646557
O O6 0.178671 0.431126 0.955064
O O7 0.164321 0.591571 0.128290
O O8 0.426813 0.219556 0.103274
O O9 0.000000 0.500000 0.500000
O O10 0.919489 0.741227 0.589396
O O11 0.711508 0.898286 0.324784
O O12 0.919124 0.742833 0.088225
O O13 0.158478 0.756267 0.216932
O O14 0.573232 0.512061 0.546389
O O15 0.501571 0.256777 0.335982
O O16 0.579906 0.175821 0.859190
O O17 0.000000 0.500000 0.000000
#
# Coordination Sequence:
#
# PCOD8025176 Si02
#       8
#     2   2   2   2   2   2   2   2
#     4  12  26  40  66  98 132 189 227 294 344 402
#     4  12  24  44  68 100 139 180 225 286 339 407
#     4  10  23  44  70 103 136 173 216 276 343 410
#     4  12  25  42  67 100 135 179 239 280 342 403
#     4  12  22  46  62  94 144 177 233 288 348 400
#     4  12  25  42  67 100 135 179 239 280 342 403
#     4  10  23  44  70 103 136 173 216 276 343 410
#     4  12  24  44  68 100 139 180 225 286 339 407
#
# _framework density 23.552931000000001
#
# number of rings (size 3 to 8) (size 9 to 14) (size 15 to 20)
#    0.000    0.500    2.500    6.000    5.250    0.000 
#    0.000    5.000    0.000    0.000    0.000    0.000 
#    0.000    0.000    0.000    0.000    0.000    0.000 
#
# Total GULP energy -198376.217557 kJ/mol
# GULP energy per Si atom -12398.513597 kJ/mol
# Density = 2.349932 g / cm^3
# Si number density = 23.552931 Si / 1000 Ang^3
#
#
#
# Elastic Constant Matrix: (Units=GPa)
#
#
# Indices 1 2 3 4 5 6 
#
# 1 118.9268 38.5370 33.6375 -9.7431 15.1085 -25.7148
# 2 38.5370 98.5695 50.1615 -13.1210 2.6238 -27.4520
# 3 33.6375 50.1615 147.4269 27.3287 30.3813 10.6408
# 4 -9.7431 -13.1210 27.3287 47.1047 -7.0535 9.1086
# 5 15.1085 2.6238 30.3813 -7.0535 23.7187 -6.5027
# 6 -25.7148 -27.4520 10.6408 9.1086 -6.5027 36.2265
#
#
#
# Elastic Compliance Matrix: (Units=1/GPa)
#
#
# Indices 1 2 3 4 5 6 
#
# 1 0.011749 0.002890 -0.006852 0.005758 0.006023 0.012176
# 2 0.002890 0.061210 -0.056167 0.051415 0.097688 0.069541
# 3 -0.006852 -0.056167 0.066587 -0.058461 -0.111943 -0.072380
# 4 0.005758 0.051415 -0.058461 0.074631 0.104215 0.060163
# 5 0.006023 0.097688 -0.111943 0.104215 0.236851 0.127495
# 6 0.012176 0.069541 -0.072380 0.060163 0.127495 0.117964
#
#
# Mechanical properties :
#
#
# Convention : Reuss Voigt Hill
#
# Bulk Modulus (GPa) = 51.84308 67.73279 59.78794
# Shear Modulus (GPa) = 7.18723 37.58245 22.38484
#
# Velocity S-wave (km/s) = 1.74876 3.99890 3.08621
# Velocity P-wave (km/s) = 5.11240 7.08109 6.17569
#
# Compressibility (1/GPa) = 0.01928898
#
# Stress axis : x y z
#
# Youngs Moduli (GPa) = 85.11248 16.33729 15.01797
#
# Poissons Ratio (x) = -0.04722 0.10290
# Poissons Ratio (y) = -0.24601 0.84352
# Poissons Ratio (z) = 0.58315 0.91762
#
# Static dielectric constant tensor:
#      x y z
#    x 4.077400 -0.220150 0.119110 
#    y -0.220150 4.091910 -0.031460 
#    z 0.119110 -0.031460 4.011170 
# 
# 
# High freq. dielectric constant tensor:
#      x y z
#    x 1.924370 -0.017210 0.015400 
#    y -0.017210 1.934790 0.016660 
#    z 0.015400 0.016660 1.957270 
# 
# From -- ./inp_files/110729.got.cif
#   From: 2010.06.25/outbox.cif.g09.slc.cpg/sg2_56_cif.got.tgz:110729.got - 2010.06.27 13:26:56.
