data_PCOD8025277
_publ_section_title
;
Structure prediction by ZEFSAII (Michael W. Deem and Ramdas Pophale) SiO2 
 PCOD8025277
Probable space group: P -1
;
_chemical_formula_sum "Si O2"
_cell_formula_units_Z 12
_cell_length_a 5.149265
_cell_length_b 17.508011
_cell_length_c 14.860749
_cell_angle_alpha 25.464233
_cell_angle_beta 116.473534
_cell_angle_gamma 104.026830
_cell_volume 468.886979
_symmetry_space_group_name_H-M "P -1"
_symmetry_group_IT_number 2
_symmetry_cell_setting 'triclinic'
loop_
_space_group_symop_operation_xyz
x,y,z
-x,-y,-z
loop_
_atom_site_type_symbol
_atom_site_label
_atom_site_fract_x
_atom_site_fract_y
_atom_site_fract_z
Si Si1 0.807995 0.795504 0.384063
Si Si2 0.593155 0.293386 0.330432
Si Si3 0.204259 0.011803 0.175895
Si Si4 0.406592 0.198391 0.223817
Si Si5 0.924066 0.551354 0.331072
Si Si6 0.310968 0.636158 0.049113
O O1 0.453723 0.918492 0.233220
O O2 0.060172 0.700065 0.607615
O O3 0.916408 0.944473 0.187031
O O4 0.819919 0.618438 0.510798
O O5 0.628386 0.080148 0.603084
O O6 0.473713 0.332414 0.167861
O O7 0.338757 0.459843 0.176296
O O8 0.062480 0.244097 0.908069
O O9 0.622091 0.196606 0.173340
O O10 0.037775 0.278911 0.051470
O O11 0.500000 0.000000 0.500000
O O12 0.000000 0.500000 0.500000
O O13 0.570512 0.561320 0.248213
#
# Coordination Sequence:
#
# PCOD8025277 Si02
#       6
#     2   2   2   2   2   2
#     4   9  24  43  70 104 143 175 239 283 347 421
#     4   9  23  41  68  97 141 179 222 279 354 409
#     4  10  23  44  72 101 148 177 237 285 352 416
#     4  12  25  40  69 100 136 180 226 275 353 416
#     4  11  26  48  75 103 141 191 238 297 354 406
#     4  11  26  42  65 100 138 176 236 281 335 425
#
# _framework density 25.592518999999999
#
# number of rings (size 3 to 8) (size 9 to 14) (size 15 to 20)
#    1.000    0.667    0.000    2.500    9.333    2.667 
#    0.000    5.833    0.000    0.000    0.000    0.000 
#    0.000    0.000    0.000    0.000    0.000    0.000 
#
# Total GULP energy -148737.508360 kJ/mol
# GULP energy per Si atom -12394.792363 kJ/mol
# Density = 2.553427 g / cm^3
# Si number density = 25.592519 Si / 1000 Ang^3
#
#
#
# Elastic Constant Matrix: (Units=GPa)
#
#
# Indices 1 2 3 4 5 6 
#
# 1 126.8331 29.9420 25.4136 -12.7565 -11.6484 -11.9833
# 2 29.9420 116.3435 32.3192 13.4222 8.8036 -3.7899
# 3 25.4136 32.3192 64.8455 -5.8657 -10.5968 -3.9514
# 4 -12.7565 13.4222 -5.8657 46.1127 -1.4017 -1.0957
# 5 -11.6484 8.8036 -10.5968 -1.4017 22.4989 -6.7498
# 6 -11.9833 -3.7899 -3.9514 -1.0957 -6.7498 19.3657
#
#
#
# Elastic Compliance Matrix: (Units=1/GPa)
#
#
# Indices 1 2 3 4 5 6 
#
# 1 0.011258 -0.004128 0.000552 0.004973 0.011145 0.010437
# 2 -0.004128 0.013628 -0.008485 -0.006775 -0.013947 -0.006863
# 3 0.000552 -0.008485 0.023608 0.006421 0.018185 0.010200
# 4 0.004973 -0.006775 0.006421 0.026445 0.012580 0.008942
# 5 0.011145 -0.013947 0.018185 0.012580 0.075493 0.034902
# 6 0.010437 -0.006863 0.010200 0.008942 0.034902 0.071505
#
#
# Mechanical properties :
#
#
# Convention : Reuss Voigt Hill
#
# Bulk Modulus (GPa) = 41.02859 53.70796 47.36827
# Shear Modulus (GPa) = 19.67094 32.28527 25.97811
#
# Velocity S-wave (km/s) = 2.77541 3.55563 3.18947
# Velocity P-wave (km/s) = 5.13194 6.15533 5.66678
#
# Compressibility (1/GPa) = 0.02437325
#
# Stress axis : x y z
#
# Youngs Moduli (GPa) = 88.82566 73.37888 42.35917
#
# Poissons Ratio (x) = 0.30289 -0.02339
# Poissons Ratio (y) = 0.36666 0.35940
# Poissons Ratio (z) = -0.04906 0.62259
#
# Static dielectric constant tensor:
#      x y z
#    x 4.371840 0.240240 -0.148110 
#    y 0.240240 4.886160 -0.016390 
#    z -0.148110 -0.016390 4.782310 
# 
# 
# High freq. dielectric constant tensor:
#      x y z
#    x 2.012240 0.005080 -0.019060 
#    y 0.005080 2.021380 -0.016760 
#    z -0.019060 -0.016760 2.022500 
# 
# From -- ./inp_files/115027.got.cif
#   From: 2010.06.25/outbox.cif.g09.slc.cpg/sg2_58_cif.got.tgz:115027.got - 2010.06.27 13:26:56.
