data_PCOD8025849
_publ_section_title
;
Structure prediction by ZEFSAII (Michael W. Deem and Ramdas Pophale) SiO2 
 PCOD8025849
Probable space group: P -1
;
_chemical_formula_sum "Si O2"
_cell_formula_units_Z 14
_cell_length_a 11.578712
_cell_length_b 14.362768
_cell_length_c 6.019963
_cell_angle_alpha 48.718497
_cell_angle_beta 101.844905
_cell_angle_gamma 127.204906
_cell_volume 566.977493
_symmetry_space_group_name_H-M "P -1"
_symmetry_group_IT_number 2
_symmetry_cell_setting 'triclinic'
loop_
_space_group_symop_operation_xyz
x,y,z
-x,-y,-z
loop_
_atom_site_type_symbol
_atom_site_label
_atom_site_fract_x
_atom_site_fract_y
_atom_site_fract_z
Si Si1 0.756988 0.193983 0.949986
Si Si2 0.433038 0.785093 0.834757
Si Si3 0.647392 0.515665 0.488588
Si Si4 0.731612 0.006433 0.855900
Si Si5 0.852152 0.840272 0.291244
Si Si6 0.999626 0.746534 0.741913
Si Si7 0.744692 0.413054 0.316313
O O1 0.811505 0.362267 0.605328
O O2 0.670457 0.058367 0.938420
O O3 0.643324 0.145627 0.187451
O O4 0.899971 0.205245 0.072143
O O5 0.614236 0.913423 0.750299
O O6 0.387483 0.751175 0.610922
O O7 0.361679 0.610584 0.166275
O O8 0.500000 0.500000 0.500000
O O9 0.795648 0.693132 0.338203
O O10 0.669199 0.483876 0.292944
O O11 0.891034 0.168785 0.566083
O O12 0.733375 0.874778 0.194300
O O13 0.896842 0.805401 0.602099
O O14 0.000000 0.000000 0.000000
O O15 0.883933 0.551403 0.993945
#
# Coordination Sequence:
#
# PCOD8025849 Si02
#       7
#     2   2   2   2   2   2   2
#     4  11  26  43  73 103 143 188 238 287 344 410
#     4  11  24  47  71 107 138 187 237 288 349 414
#     4  11  23  47  72 103 141 181 234 291 347 420
#     4  11  25  46  72 103 147 183 233 292 347 419
#     4  10  23  46  70 104 143 178 230 289 352 420
#     4  11  25  45  70 105 140 184 235 286 351 415
#     4  11  26  45  74 103 141 183 237 291 348 413
#
# _framework density 24.692339
#
# number of rings (size 3 to 8) (size 9 to 14) (size 15 to 20)
#    0.000    1.143    2.857    1.714    4.000    8.000 
#    2.571    0.000    0.000    0.000    0.000    0.000 
#    0.000    0.000    0.000    0.000    0.000    0.000 
#
# Total GULP energy -173452.232852 kJ/mol
# GULP energy per Si atom -12389.445204 kJ/mol
# Density = 2.463614 g / cm^3
# Si number density = 24.692339 Si / 1000 Ang^3
#
#
#
# Elastic Constant Matrix: (Units=GPa)
#
#
# Indices 1 2 3 4 5 6 
#
# 1 106.4710 73.2717 64.5745 6.7149 17.5979 -3.0196
# 2 73.2717 138.5516 26.3603 3.7877 1.7676 -2.3224
# 3 64.5745 26.3603 104.4432 5.1510 29.0284 5.1194
# 4 6.7149 3.7877 5.1510 32.7882 4.5087 4.8343
# 5 17.5979 1.7676 29.0284 4.5087 43.9628 6.8767
# 6 -3.0196 -2.3224 5.1194 4.8343 6.8767 46.1366
#
#
#
# Elastic Compliance Matrix: (Units=1/GPa)
#
#
# Indices 1 2 3 4 5 6 
#
# 1 0.024364 -0.010475 -0.012001 -0.002091 -0.001641 0.002863
# 2 -0.010475 0.012164 0.002913 0.000126 0.001876 -0.000689
# 3 -0.012001 0.002913 0.018317 0.000477 -0.007199 -0.001648
# 4 -0.002091 0.000126 0.000477 0.031611 -0.002230 -0.003163
# 5 -0.001641 0.001876 -0.007199 -0.002230 0.028823 -0.003277
# 6 0.002863 -0.000689 -0.001648 -0.003163 -0.003277 0.022830
#
#
# Mechanical properties :
#
#
# Convention : Reuss Voigt Hill
#
# Bulk Modulus (GPa) = 63.61874 75.31987 69.46931
# Shear Modulus (GPa) = 27.40092 36.92813 32.16453
#
# Velocity S-wave (km/s) = 3.33482 3.87140 3.61309
# Velocity P-wave (km/s) = 6.37562 7.11008 6.75284
#
# Compressibility (1/GPa) = 0.01571864
#
# Stress axis : x y z
#
# Youngs Moduli (GPa) = 41.04423 82.20840 54.59261
#
# Poissons Ratio (x) = 0.86116 0.65516
# Poissons Ratio (y) = 0.42995 -0.15901
# Poissons Ratio (z) = 0.49257 -0.23945
#
# Static dielectric constant tensor:
#      x y z
#    x 4.963540 -0.054480 0.741620 
#    y -0.054480 4.469830 -0.052600 
#    z 0.741620 -0.052600 5.035850 
# 
# 
# High freq. dielectric constant tensor:
#      x y z
#    x 1.966740 0.011710 0.029480 
#    y 0.011710 1.981230 -0.012840 
#    z 0.029480 -0.012840 1.997390 
# 
# From -- ./inp_files/68381.got.cif
#   From: 2010.06.25/outbox.cif.g09.slc.cpg/sg2_35_cif.got.tgz:68381.got - 2010.06.27 13:26:56.
