data_PCOD8025650
_publ_section_title
;
Structure prediction by ZEFSAII (Michael W. Deem and Ramdas Pophale) SiO2 
 PCOD8025650
Probable space group: P -1
;
_chemical_formula_sum "Si O2"
_cell_formula_units_Z 16
_cell_length_a 5.061556
_cell_length_b 15.820840
_cell_length_c 9.814475
_cell_angle_alpha 88.218516
_cell_angle_beta 114.049481
_cell_angle_gamma 93.189122
_cell_volume 716.559144
_symmetry_space_group_name_H-M "P -1"
_symmetry_group_IT_number 2
_symmetry_cell_setting 'triclinic'
loop_
_space_group_symop_operation_xyz
x,y,z
-x,-y,-z
loop_
_atom_site_type_symbol
_atom_site_label
_atom_site_fract_x
_atom_site_fract_y
_atom_site_fract_z
Si Si1 0.910962 0.318812 0.519550
Si Si2 0.326631 0.031247 0.589766
Si Si3 0.906817 0.835889 0.307751
Si Si4 0.572411 0.373521 0.684939
Si Si5 0.366640 0.763063 0.079279
Si Si6 0.252628 0.647357 0.814089
Si Si7 0.764652 0.540123 0.854078
Si Si8 0.812734 0.060101 0.867264
O O1 0.757783 0.382492 0.585276
O O2 0.754815 0.319477 0.342397
O O3 0.858011 0.223552 0.573422
O O4 0.249423 0.342805 0.580047
O O5 0.294963 0.131857 0.610213
O O6 0.509367 0.007271 0.767379
O O7 0.500000 0.000000 0.500000
O O8 0.000000 0.000000 0.500000
O O9 0.712074 0.780633 0.162484
O O10 0.052098 0.916429 0.254421
O O11 0.723964 0.308318 0.823274
O O12 0.572256 0.466802 0.743182
O O13 0.215015 0.851903 0.062331
O O14 0.288062 0.728194 0.915697
O O15 0.536596 0.591745 0.892424
O O16 0.947206 0.597753 0.782124
O O17 0.000000 0.500000 0.000000
O O18 0.000000 0.000000 0.000000
#
# Coordination Sequence:
#
# PCOD8025650 Si02
#       8
#     2   2   2   2   2   2   2   2
#     4  11  25  44  70 101 141 186 231 289 350 416
#     4  11  23  44  71 101 138 178 228 289 361 419
#     4  10  23  45  71  97 141 191 230 278 363 420
#     4  11  23  44  72  95 140 192 229 280 361 417
#     4  10  24  42  71 102 140 193 231 286 351 425
#     4  12  27  44  68 109 140 178 244 292 340 412
#     4  12  26  43  72 104 140 184 237 292 345 411
#     4  11  24  46  75 109 140 185 247 291 352 430
#
# _framework density 22.328931000000001
#
# number of rings (size 3 to 8) (size 9 to 14) (size 15 to 20)
#    0.000    1.000    3.750    1.875    5.250    6.000 
#    2.250    0.000    0.000    0.000    0.000    0.000 
#    0.000    0.000    0.000    0.000    0.000    0.000 
#
# Total GULP energy -198252.770973 kJ/mol
# GULP energy per Si atom -12390.798186 kJ/mol
# Density = 2.227811 g / cm^3
# Si number density = 22.328931 Si / 1000 Ang^3
#
#
#
# Elastic Constant Matrix: (Units=GPa)
#
#
# Indices 1 2 3 4 5 6 
#
# 1 105.9282 43.2404 36.1375 8.8945 4.3979 -14.1778
# 2 43.2404 115.9329 69.4937 14.0545 4.9127 -11.7100
# 3 36.1375 69.4937 141.0739 20.9479 8.2524 -9.6714
# 4 8.8945 14.0545 20.9479 34.4430 -3.9442 -6.3655
# 5 4.3979 4.9127 8.2524 -3.9442 40.1670 5.1899
# 6 -14.1778 -11.7100 -9.6714 -6.3655 5.1899 38.9925
#
#
#
# Elastic Compliance Matrix: (Units=1/GPa)
#
#
# Indices 1 2 3 4 5 6 
#
# 1 0.011636 -0.003325 -0.000977 -0.000621 -0.001120 0.003038
# 2 -0.003325 0.013444 -0.005492 -0.001088 -0.000433 0.001346
# 3 -0.000977 -0.005492 0.010801 -0.004249 -0.001888 0.000232
# 4 -0.000621 -0.001088 -0.004249 0.033281 0.003915 0.003306
# 5 -0.001120 -0.000433 -0.001888 0.003915 0.026344 -0.003873
# 6 0.003038 0.001346 0.000232 0.003306 -0.003873 0.028268
#
#
# Mechanical properties :
#
#
# Convention : Reuss Voigt Hill
#
# Bulk Modulus (GPa) = 61.37066 73.40870 67.38968
# Shear Modulus (GPa) = 33.60378 36.99138 35.29758
#
# Velocity S-wave (km/s) = 3.88357 4.07462 3.98024
# Velocity P-wave (km/s) = 6.90318 7.42187 7.16722
#
# Compressibility (1/GPa) = 0.01629443
#
# Stress axis : x y z
#
# Youngs Moduli (GPa) = 85.93959 74.38343 92.58178
#
# Poissons Ratio (x) = 0.24731 0.09044
# Poissons Ratio (y) = 0.28574 0.50843
# Poissons Ratio (z) = 0.08395 0.40849
#
# Static dielectric constant tensor:
#      x y z
#    x 4.082220 -0.065250 0.116020 
#    y -0.065250 4.264210 0.298520 
#    z 0.116020 0.298520 4.048470 
# 
# 
# High freq. dielectric constant tensor:
#      x y z
#    x 1.890810 -0.013450 0.006550 
#    y -0.013450 1.872720 0.020120 
#    z 0.006550 0.020120 1.877240 
# 
# From -- ./inp_files/135388.got.cif
#   From: 2010.06.25/outbox.cif.g09.slc.cpg/sg2_68_cif.got.tgz:135388.got - 2010.06.27 13:26:56.
