data_PCOD8025141
_publ_section_title
;
Structure prediction by ZEFSAII (Michael W. Deem and Ramdas Pophale) SiO2 
 PCOD8025141
Probable space group: P -1
;
_chemical_formula_sum "Si O2"
_cell_formula_units_Z 16
_cell_length_a 8.550690
_cell_length_b 18.114640
_cell_length_c 9.325878
_cell_angle_alpha 63.885875
_cell_angle_beta 76.876898
_cell_angle_gamma 37.275292
_cell_volume 765.127925
_symmetry_space_group_name_H-M "P -1"
_symmetry_group_IT_number 2
_symmetry_cell_setting 'triclinic'
loop_
_space_group_symop_operation_xyz
x,y,z
-x,-y,-z
loop_
_atom_site_type_symbol
_atom_site_label
_atom_site_fract_x
_atom_site_fract_y
_atom_site_fract_z
Si Si1 0.661904 0.058825 0.436088
Si Si2 0.586669 0.683817 0.197666
Si Si3 0.106834 0.208305 0.387809
Si Si4 0.225413 0.657632 0.930721
Si Si5 0.620592 0.109650 0.733272
Si Si6 0.766531 0.440629 0.477832
Si Si7 0.797106 0.156682 0.128619
Si Si8 0.910270 0.694231 0.198424
O O1 0.387248 0.137190 0.365341
O O2 0.637418 0.102038 0.565375
O O3 0.762007 0.091105 0.289040
O O4 0.872279 0.898973 0.519399
O O5 0.431411 0.775564 0.297041
O O6 0.704864 0.545018 0.304785
O O7 0.836164 0.644816 0.157514
O O8 0.381598 0.774847 0.033034
O O9 0.930723 0.306350 0.207180
O O10 0.977510 0.294617 0.485339
O O11 0.284538 0.730402 0.859624
O O12 0.500000 0.500000 0.000000
O O13 0.053286 0.705336 0.065999
O O14 0.366736 0.158711 0.799230
O O15 0.890160 0.964679 0.871972
O O16 0.500000 0.500000 0.500000
O O17 0.886761 0.418225 0.624368
#
# Coordination Sequence:
#
# PCOD8025141 Si02
#       8
#     2   2   2   2   2   2   2   2
#     4  11  24  45  69  99 130 179 222 276 326 394
#     4  10  24  43  67 100 132 174 220 271 335 390
#     4  11  24  44  66  98 136 172 227 266 335 395
#     4  12  26  44  66 100 136 177 219 272 337 393
#     4  10  23  44  69  97 130 174 225 270 330 388
#     4  12  24  43  70  99 135 174 222 276 330 396
#     4  12  24  44  68 100 134 172 225 274 332 389
#     4  10  24  45  67  99 133 174 222 276 326 397
#
# _framework density 20.911535000000001
#
# number of rings (size 3 to 8) (size 9 to 14) (size 15 to 20)
#    0.750    0.250    2.500    4.125    1.750    2.500 
#    2.250    2.500    0.000    0.000    0.000    0.000 
#    0.000    0.000    0.000    0.000    0.000    0.000 
#
# Total GULP energy -198367.684913 kJ/mol
# GULP energy per Si atom -12397.980307 kJ/mol
# Density = 2.086394 g / cm^3
# Si number density = 20.911535 Si / 1000 Ang^3
#
#
#
# Elastic Constant Matrix: (Units=GPa)
#
#
# Indices 1 2 3 4 5 6 
#
# 1 106.5175 50.1476 67.0092 -6.3516 10.7249 -9.4927
# 2 50.1476 95.8288 24.0764 -21.7233 -8.7544 1.5719
# 3 67.0092 24.0764 118.0123 -15.0553 14.0364 -7.4446
# 4 -6.3516 -21.7233 -15.0553 24.6524 -0.5921 8.5067
# 5 10.7249 -8.7544 14.0364 -0.5921 48.8768 -2.9638
# 6 -9.4927 1.5719 -7.4446 8.5067 -2.9638 38.4214
#
#
#
# Elastic Compliance Matrix: (Units=1/GPa)
#
#
# Indices 1 2 3 4 5 6 
#
# 1 0.022597 -0.012824 -0.011216 -0.014807 -0.003794 0.006920
# 2 -0.012824 0.021351 0.004519 0.020950 0.005145 -0.007408
# 3 -0.011216 0.004519 0.015339 0.011323 -0.001154 -0.002580
# 4 -0.014807 0.020950 0.011323 0.068121 0.003536 -0.017131
# 5 -0.003794 0.005145 -0.001154 0.003536 0.022563 -0.000414
# 6 0.006920 -0.007408 -0.002580 -0.017131 -0.000414 0.031301
#
#
# Mechanical properties :
#
#
# Convention : Reuss Voigt Hill
#
# Bulk Modulus (GPa) = 49.39187 66.98055 58.18621
# Shear Modulus (GPa) = 22.02033 34.33180 28.17607
#
# Velocity S-wave (km/s) = 3.24855 4.05626 3.67467
# Velocity P-wave (km/s) = 6.14341 7.35103 6.77419
#
# Compressibility (1/GPa) = 0.02024625
#
# Stress axis : x y z
#
# Youngs Moduli (GPa) = 44.25340 46.83541 65.19226
#
# Poissons Ratio (x) = 0.60061 0.73119
# Poissons Ratio (y) = 0.56750 -0.29460
# Poissons Ratio (z) = 0.49634 -0.21165
#
# Static dielectric constant tensor:
#      x y z
#    x 3.978220 -0.031300 0.219730 
#    y -0.031300 3.716810 -0.022290 
#    z 0.219730 -0.022290 3.568900 
# 
# 
# High freq. dielectric constant tensor:
#      x y z
#    x 1.832850 -0.002180 0.021790 
#    y -0.002180 1.818280 -0.008370 
#    z 0.021790 -0.008370 1.816460 
# 
# From -- ./inp_files/217012.got.cif
#   From: 2010.06.25/outbox.cif.g09.slc.cpg/sg2_109_cif.got.tgz:217012.got - 2010.06.27 13:26:56.
