data_PCOD8025959
_publ_section_title
;
Structure prediction by ZEFSAII (Michael W. Deem and Ramdas Pophale) SiO2 
 PCOD8025959
Probable space group: P -1
;
_chemical_formula_sum "Si O2"
_cell_formula_units_Z 16
_cell_length_a 17.048136
_cell_length_b 8.906919
_cell_length_c 16.838292
_cell_angle_alpha 128.904413
_cell_angle_beta 19.957377
_cell_angle_gamma 126.169013
_cell_volume 679.131233
_symmetry_space_group_name_H-M "P -1"
_symmetry_group_IT_number 2
_symmetry_cell_setting 'triclinic'
loop_
_space_group_symop_operation_xyz
x,y,z
-x,-y,-z
loop_
_atom_site_type_symbol
_atom_site_label
_atom_site_fract_x
_atom_site_fract_y
_atom_site_fract_z
Si Si1 0.573338 0.028856 0.244380
Si Si2 0.656266 0.592621 0.056823
Si Si3 0.563870 0.051661 0.826065
Si Si4 0.762597 0.417383 0.237525
Si Si5 0.690104 0.732975 0.719197
Si Si6 0.279742 0.035624 0.666831
Si Si7 0.119547 0.615996 0.356893
Si Si8 0.015306 0.684865 0.860535
O O1 0.630096 0.822051 0.160845
O O2 0.559273 0.021150 0.160170
O O3 0.764212 0.190139 0.135540
O O4 0.342132 0.086637 0.532311
O O5 0.434064 0.468515 0.252290
O O6 0.702328 0.530111 0.901649
O O7 0.864496 0.540682 0.901656
O O8 0.759161 0.198561 0.658953
O O9 0.676475 0.869771 0.701708
O O10 0.400898 0.163307 0.079919
O O11 0.500000 0.500000 0.500000
O O12 0.795058 0.432974 0.307832
O O13 0.000000 0.500000 0.000000
O O14 0.954024 0.686646 0.467723
O O15 0.500000 0.000000 0.500000
O O16 0.126577 0.843248 0.749497
O O17 0.147698 0.219846 0.886388
O O18 0.000000 0.500000 0.500000
#
# Coordination Sequence:
#
# PCOD8025959 Si02
#       8
#     2   2   2   2   2   2   2   2
#     4  12  24  46  74 106 139 194 249 305 376 444
#     4  11  25  40  73 105 133 188 244 294 365 441
#     4  10  24  44  70 101 143 189 237 292 371 445
#     4  12  29  50  71 106 157 197 249 316 379 451
#     4  10  23  47  67 101 148 183 233 304 365 441
#     4  11  21  43  70  98 139 184 245 315 363 435
#     4  11  23  42  68 105 143 180 240 304 360 433
#     4  11  24  43  69 100 140 189 244 303 375 445
#
# _framework density 23.559511000000001
#
# number of rings (size 3 to 8) (size 9 to 14) (size 15 to 20)
#    0.000    1.000    2.500    3.375    5.250    3.000 
#    4.500    0.000    0.000    0.000    0.000    0.000 
#    0.000    0.000    0.000    0.000    0.000    0.000 
#
# Total GULP energy -198289.221001 kJ/mol
# GULP energy per Si atom -12393.076313 kJ/mol
# Density = 2.350589 g / cm^3
# Si number density = 23.559511 Si / 1000 Ang^3
#
#
#
# Elastic Constant Matrix: (Units=GPa)
#
#
# Indices 1 2 3 4 5 6 
#
# 1 109.3495 14.5774 2.3390 -3.5728 8.3597 4.9250
# 2 14.5774 120.8658 26.0803 -13.1592 15.5182 4.5472
# 3 2.3390 26.0803 67.7222 -13.2692 1.7720 -1.2228
# 4 -3.5728 -13.1592 -13.2692 31.6152 -7.0542 -4.6394
# 5 8.3597 15.5182 1.7720 -7.0542 32.8904 -6.0882
# 6 4.9250 4.5472 -1.2228 -4.6394 -6.0882 39.1579
#
#
#
# Elastic Compliance Matrix: (Units=1/GPa)
#
#
# Indices 1 2 3 4 5 6 
#
# 1 0.009493 -0.000796 0.000017 0.000021 -0.002304 -0.001457
# 2 -0.000796 0.009870 -0.003420 0.001385 -0.004279 -0.001654
# 3 0.000017 -0.003420 0.017377 0.006745 0.002514 0.002128
# 4 0.000021 0.001385 0.006745 0.037703 0.008134 0.005779
# 5 -0.002304 -0.004279 0.002514 0.008134 0.035992 0.007425
# 6 -0.001457 -0.001654 0.002128 0.005779 0.007425 0.027818
#
#
# Mechanical properties :
#
#
# Convention : Reuss Voigt Hill
#
# Bulk Modulus (GPa) = 35.28354 42.65899 38.97127
# Shear Modulus (GPa) = 32.03094 37.72875 34.87985
#
# Velocity S-wave (km/s) = 3.69124 4.00612 3.85190
# Velocity P-wave (km/s) = 5.75985 6.28847 6.02996
#
# Compressibility (1/GPa) = 0.02834183
#
# Stress axis : x y z
#
# Youngs Moduli (GPa) = 105.33968 101.31643 57.54772
#
# Poissons Ratio (x) = 0.08062 -0.00096
# Poissons Ratio (y) = 0.08382 0.19681
# Poissons Ratio (z) = -0.00175 0.34650
#
# Static dielectric constant tensor:
#      x y z
#    x 4.359810 -0.036550 -0.188990 
#    y -0.036550 4.393500 -0.041750 
#    z -0.188990 -0.041750 4.513770 
# 
# 
# High freq. dielectric constant tensor:
#      x y z
#    x 1.938630 0.003760 -0.002670 
#    y 0.003760 1.939130 -0.007430 
#    z -0.002670 -0.007430 1.929370 
# 
# From -- ./inp_files/575564.got.cif
#   From: 2010.06.25/outbox.cif.g09.slc.cpg/sg2_288_cif.got.tgz:575564.got - 2010.06.27 13:26:56.
