data_PCOD8025417
_publ_section_title
;
Structure prediction by ZEFSAII (Michael W. Deem and Ramdas Pophale) SiO2 
 PCOD8025417
Probable space group: P -1
;
_chemical_formula_sum "Si O2"
_cell_formula_units_Z 16
_cell_length_a 19.990441
_cell_length_b 11.377698
_cell_length_c 17.834992
_cell_angle_alpha 146.893001
_cell_angle_beta 159.439873
_cell_angle_gamma 41.255080
_cell_volume 766.860348
_symmetry_space_group_name_H-M "P -1"
_symmetry_group_IT_number 2
_symmetry_cell_setting 'triclinic'
loop_
_space_group_symop_operation_xyz
x,y,z
-x,-y,-z
loop_
_atom_site_type_symbol
_atom_site_label
_atom_site_fract_x
_atom_site_fract_y
_atom_site_fract_z
Si Si1 0.036519 0.647217 0.940338
Si Si2 0.894511 0.358211 0.248514
Si Si3 0.424717 0.804232 0.371995
Si Si4 0.245852 0.134230 0.136954
Si Si5 0.161510 0.562161 0.520862
Si Si6 0.092651 0.345234 0.958943
Si Si7 0.938216 0.936265 0.485773
Si Si8 0.595768 0.574245 0.962076
O O1 0.199834 0.814543 0.157480
O O2 0.160903 0.498121 0.040817
O O3 0.907290 0.777296 0.923582
O O4 0.894160 0.490490 0.652038
O O5 0.000000 0.500000 0.500000
O O6 0.049849 0.360049 0.344931
O O7 0.706567 0.454121 0.075862
O O8 0.827632 0.120801 0.085111
O O9 0.542141 0.824838 0.583539
O O10 0.443873 0.574478 0.232571
O O11 0.500000 0.000000 0.500000
O O12 0.256800 0.251181 0.128942
O O13 0.390638 0.605172 0.797649
O O14 0.083413 0.778095 0.581947
O O15 0.000000 0.500000 0.000000
O O16 0.947193 0.138378 0.660830
O O17 0.717962 0.806692 0.189206
O O18 0.000000 0.000000 0.500000
#
# Coordination Sequence:
#
# PCOD8025417 Si02
#       8
#     2   2   2   2   2   2   2   2
#     4  11  22  41  64  95 130 168 214 270 327 387
#     4  11  24  43  62  90 133 175 215 278 329 388
#     4  12  22  38  64  98 129 166 218 269 325 392
#     4  11  23  38  67  91 130 172 215 269 334 385
#     4  11  22  39  66  97 128 170 216 269 324 391
#     4  10  23  45  66  94 132 173 217 272 329 385
#     4  11  21  43  69  93 134 173 216 269 323 389
#     4  11  23  39  64 101 129 165 221 268 324 395
#
# _framework density 20.864294000000001
#
# number of rings (size 3 to 8) (size 9 to 14) (size 15 to 20)
#    0.000    1.000    6.250    1.500    1.750    2.500 
#    0.000    7.500    0.000    0.000    0.000    0.000 
#    0.000    0.000    0.000    0.000    0.000    0.000 
#
# Total GULP energy -198321.122030 kJ/mol
# GULP energy per Si atom -12395.070127 kJ/mol
# Density = 2.081681 g / cm^3
# Si number density = 20.864294 Si / 1000 Ang^3
#
#
#
# Elastic Constant Matrix: (Units=GPa)
#
#
# Indices 1 2 3 4 5 6 
#
# 1 64.4869 31.1920 41.9546 -10.1938 -3.6560 5.2261
# 2 31.1920 78.9173 52.5904 -2.4862 -0.3546 5.4045
# 3 41.9546 52.5904 134.5541 0.3261 -6.8301 -7.1107
# 4 -10.1938 -2.4862 0.3261 41.9160 -10.9403 -3.6253
# 5 -3.6560 -0.3546 -6.8301 -10.9403 49.5306 -5.1199
# 6 5.2261 5.4045 -7.1107 -3.6253 -5.1199 37.9846
#
#
#
# Elastic Compliance Matrix: (Units=1/GPa)
#
#
# Indices 1 2 3 4 5 6 
#
# 1 0.022456 -0.005168 -0.005033 0.005464 0.001873 -0.002523
# 2 -0.005168 0.018951 -0.006056 -0.000801 -0.001611 -0.003412
# 3 -0.005033 -0.006056 0.011642 -0.000986 0.001368 0.003824
# 4 0.005464 -0.000801 -0.000986 0.027075 0.006515 0.002640
# 5 0.001873 -0.001611 0.001368 0.006515 0.022343 0.003861
# 6 -0.002523 -0.003412 0.003824 0.002640 0.003861 0.028647
#
#
# Mechanical properties :
#
#
# Convention : Reuss Voigt Hill
#
# Bulk Modulus (GPa) = 48.69826 58.82580 53.76203
# Shear Modulus (GPa) = 29.33012 36.03433 32.68223
#
# Velocity S-wave (km/s) = 3.75341 4.16033 3.96209
# Velocity P-wave (km/s) = 6.49425 7.16474 6.83772
#
# Compressibility (1/GPa) = 0.02053461
#
# Stress axis : x y z
#
# Youngs Moduli (GPa) = 44.53179 52.76803 85.89484
#
# Poissons Ratio (x) = 0.27271 0.43234
# Poissons Ratio (y) = 0.23014 0.52015
# Poissons Ratio (z) = 0.22415 0.31954
#
# Static dielectric constant tensor:
#      x y z
#    x 4.654550 0.691960 0.048130 
#    y 0.691960 4.195170 0.119620 
#    z 0.048130 0.119620 3.972940 
# 
# 
# High freq. dielectric constant tensor:
#      x y z
#    x 1.812640 0.015010 -0.012870 
#    y 0.015010 1.816290 0.008360 
#    z -0.012870 0.008360 1.821960 
# 
# From -- ./inp_files/438537.got.cif
#   From: 2010.06.25/outbox.cif.g09.slc.cpg/sg2_220_cif.got.tgz:438537.got - 2010.06.27 13:26:56.
