data_PCOD8025582
_publ_section_title
;
Structure prediction by ZEFSAII (Michael W. Deem and Ramdas Pophale) SiO2 
 PCOD8025582
Probable space group: P -1
;
_chemical_formula_sum "Si O2"
_cell_formula_units_Z 14
_cell_length_a 19.689737
_cell_length_b 12.534075
_cell_length_c 15.079111
_cell_angle_alpha 150.603820
_cell_angle_beta 20.272528
_cell_angle_gamma 149.561201
_cell_volume 610.456570
_symmetry_space_group_name_H-M "P -1"
_symmetry_group_IT_number 2
_symmetry_cell_setting 'triclinic'
loop_
_space_group_symop_operation_xyz
x,y,z
-x,-y,-z
loop_
_atom_site_type_symbol
_atom_site_label
_atom_site_fract_x
_atom_site_fract_y
_atom_site_fract_z
Si Si1 0.801047 0.606762 0.984225
Si Si2 0.876362 0.162730 0.014429
Si Si3 0.382625 0.186642 0.802405
Si Si4 0.557018 0.115506 0.919011
Si Si5 0.196343 0.556798 0.539525
Si Si6 0.836547 0.915483 0.713014
Si Si7 0.335880 0.289265 0.588992
O O1 0.750604 0.734355 0.052769
O O2 0.674804 0.678086 0.269565
O O3 0.742648 0.336484 0.853862
O O4 0.044980 0.674505 0.755406
O O5 0.118019 0.259661 0.789846
O O6 0.821874 0.119063 0.945227
O O7 0.785174 0.346249 0.310552
O O8 0.784929 0.914913 0.991306
O O9 0.575753 0.390989 0.744215
O O10 0.500000 0.000000 0.500000
O O11 0.602361 0.939046 0.666974
O O12 0.370628 0.193332 0.163187
O O13 0.500000 0.000000 0.000000
O O14 0.103349 0.288325 0.457251
O O15 0.000000 0.000000 0.500000
O O16 0.500000 0.500000 0.500000
#
# Coordination Sequence:
#
# PCOD8025582 Si02
#       7
#     2   2   2   2   2   2   2
#     4  11  23  45  71 101 142 180 226 287 343 399
#     4  10  25  45  65 100 134 176 234 278 345 404
#     4  10  23  45  70 101 139 181 237 283 334 413
#     4  12  24  43  67 102 137 177 227 280 345 413
#     4  10  23  45  71 100 135 182 227 282 344 403
#     4  12  26  42  69  98 141 179 227 291 341 413
#     4  11  24  41  70 100 135 180 226 282 349 415
#
# _framework density 22.933655000000002
#
# number of rings (size 3 to 8) (size 9 to 14) (size 15 to 20)
#    0.000    1.143    2.857    2.571    6.000    6.286 
#    0.000    1.429    0.000    0.000    0.000    0.000 
#    0.000    0.000    0.000    0.000    0.000    0.000 
#
# Total GULP energy -173495.640542 kJ/mol
# GULP energy per Si atom -12392.545753 kJ/mol
# Density = 2.288146 g / cm^3
# Si number density = 22.933655 Si / 1000 Ang^3
#
#
#
# Elastic Constant Matrix: (Units=GPa)
#
#
# Indices 1 2 3 4 5 6 
#
# 1 100.3972 20.9110 35.3197 -6.6415 -3.1418 5.8490
# 2 20.9110 105.5091 31.7432 -5.5381 10.6837 10.5821
# 3 35.3197 31.7432 85.1147 -2.5432 4.5745 9.1990
# 4 -6.6415 -5.5381 -2.5432 47.8366 4.1365 -3.7111
# 5 -3.1418 10.6837 4.5745 4.1365 39.1756 2.8411
# 6 5.8490 10.5821 9.1990 -3.7111 2.8411 30.4260
#
#
#
# Elastic Compliance Matrix: (Units=1/GPa)
#
#
# Indices 1 2 3 4 5 6 
#
# 1 0.011944 -0.001052 -0.004560 0.001102 0.001703 -0.000576
# 2 -0.001052 0.011250 -0.003332 0.001033 -0.002704 -0.002325
# 3 -0.004560 -0.003332 0.015199 -0.000317 -0.001017 -0.002504
# 4 0.001102 0.001033 -0.000317 0.021572 -0.002608 0.002400
# 5 0.001703 -0.002704 -0.001017 -0.002608 0.026933 -0.001912
# 6 -0.000576 -0.002325 -0.002504 0.002400 -0.001912 0.035014
#
#
# Mechanical properties :
#
#
# Convention : Reuss Voigt Hill
#
# Bulk Modulus (GPa) = 48.76779 51.88544 50.32661
# Shear Modulus (GPa) = 34.09843 37.02411 35.56127
#
# Velocity S-wave (km/s) = 3.86013 4.02232 3.94206
# Velocity P-wave (km/s) = 6.41703 6.65172 6.53543
#
# Compressibility (1/GPa) = 0.02050534
#
# Stress axis : x y z
#
# Youngs Moduli (GPa) = 83.72721 88.89015 65.79173
#
# Poissons Ratio (x) = 0.09351 0.30002
# Poissons Ratio (y) = 0.08808 0.21919
# Poissons Ratio (z) = 0.38181 0.29615
#
# Static dielectric constant tensor:
#      x y z
#    x 3.882660 0.180040 0.099900 
#    y 0.180040 4.500380 -0.204120 
#    z 0.099900 -0.204120 4.201490 
# 
# 
# High freq. dielectric constant tensor:
#      x y z
#    x 1.897210 0.017600 -0.005460 
#    y 0.017600 1.917180 -0.007360 
#    z -0.005460 -0.007360 1.906740 
# 
# From -- ./inp_files/255468.got.cif
#   From: 2010.06.25/outbox.cif.g09.slc.cpg/sg2_128_cif.got.tgz:255468.got - 2010.06.27 13:26:56.
