data_PCOD8025984
_publ_section_title
;
Structure prediction by ZEFSAII (Michael W. Deem and Ramdas Pophale) SiO2 
 PCOD8025984
Probable space group: P -1
;
_chemical_formula_sum "Si O2"
_cell_formula_units_Z 14
_cell_length_a 18.954906
_cell_length_b 8.525417
_cell_length_c 11.592002
_cell_angle_alpha 62.886145
_cell_angle_beta 148.140529
_cell_angle_gamma 137.434883
_cell_volume 588.366518
_symmetry_space_group_name_H-M "P -1"
_symmetry_group_IT_number 2
_symmetry_cell_setting 'triclinic'
loop_
_space_group_symop_operation_xyz
x,y,z
-x,-y,-z
loop_
_atom_site_type_symbol
_atom_site_label
_atom_site_fract_x
_atom_site_fract_y
_atom_site_fract_z
Si Si1 0.564055 0.237322 0.443489
Si Si2 0.882796 0.592082 0.133434
Si Si3 0.791356 0.940729 0.420664
Si Si4 0.504261 0.565638 0.340686
Si Si5 0.730971 0.073225 0.062235
Si Si6 0.138208 0.973576 0.169793
Si Si7 0.973531 0.742061 0.780319
O O1 0.516993 0.367857 0.405630
O O2 0.800878 0.443236 0.685895
O O3 0.500000 0.000000 0.500000
O O4 0.468553 0.149863 0.213212
O O5 0.746909 0.286241 0.062384
O O6 0.026437 0.754809 0.388968
O O7 0.031419 0.719941 0.186110
O O8 0.727588 0.605724 0.906631
O O9 0.721445 0.924353 0.202045
O O10 0.599810 0.763857 0.298478
O O11 0.870169 0.820743 0.572847
O O12 0.632599 0.751083 0.570206
O O13 0.922823 0.231801 0.196496
O O14 0.134643 0.920551 0.047626
O O15 0.000000 0.000000 0.000000
#
# Coordination Sequence:
#
# PCOD8025984 Si02
#       7
#     2   2   2   2   2   2   2
#     4  11  25  42  64 100 131 166 219 274 337 382
#     4  11  24  43  67  99 130 175 222 268 330 390
#     4  10  23  47  69  93 127 180 229 262 323 391
#     4  10  24  44  72  95 132 174 222 272 322 397
#     4  12  27  41  67 100 136 172 216 275 329 391
#     4  11  21  43  70  96 127 176 227 262 325 394
#     4  11  24  45  66  96 135 173 216 276 328 385
#
# _framework density 23.794691
#
# number of rings (size 3 to 8) (size 9 to 14) (size 15 to 20)
#    0.000    1.143    4.286    2.571    0.000   11.429 
#    0.000    0.000    0.000    0.000    0.000    0.000 
#    0.000    0.000    0.000    0.000    0.000    0.000 
#
# Total GULP energy -173620.941470 kJ/mol
# GULP energy per Si atom -12401.495819 kJ/mol
# Density = 2.374053 g / cm^3
# Si number density = 23.794691 Si / 1000 Ang^3
#
#
#
# Elastic Constant Matrix: (Units=GPa)
#
#
# Indices 1 2 3 4 5 6 
#
# 1 103.6802 40.2963 50.7878 -0.0354 -9.2880 7.5562
# 2 40.2963 122.3154 54.7399 13.7559 -16.6182 8.0679
# 3 50.7878 54.7399 144.8058 11.8889 -25.6809 17.9800
# 4 -0.0354 13.7559 11.8889 40.1850 12.7234 -1.2574
# 5 -9.2880 -16.6182 -25.6809 12.7234 45.5818 -1.9311
# 6 7.5562 8.0679 17.9800 -1.2574 -1.9311 22.5970
#
#
#
# Elastic Compliance Matrix: (Units=1/GPa)
#
#
# Indices 1 2 3 4 5 6 
#
# 1 0.012481 -0.002906 -0.003695 0.002507 -0.001305 -0.000168
# 2 -0.002906 0.011089 -0.002043 -0.004328 0.003453 -0.001308
# 3 -0.003695 -0.002043 0.011234 -0.004693 0.005856 -0.006734
# 4 0.002507 -0.004328 -0.004693 0.031838 -0.012380 0.005154
# 5 -0.001305 0.003453 0.005856 -0.012380 0.029533 -0.003621
# 6 -0.000168 -0.001308 -0.006734 0.005154 -0.003621 0.050113
#
#
# Mechanical properties :
#
#
# Convention : Reuss Voigt Hill
#
# Bulk Modulus (GPa) = 57.09089 73.60549 65.34819
# Shear Modulus (GPa) = 29.51335 36.67125 33.09230
#
# Velocity S-wave (km/s) = 3.52566 3.93001 3.73331
# Velocity P-wave (km/s) = 6.37329 7.18290 6.79017
#
# Compressibility (1/GPa) = 0.01751593
#
# Stress axis : x y z
#
# Youngs Moduli (GPa) = 80.12260 90.17685 89.01515
#
# Poissons Ratio (x) = 0.26208 0.32894
# Poissons Ratio (y) = 0.23286 0.18182
# Poissons Ratio (z) = 0.29608 0.18419
#
# Static dielectric constant tensor:
#      x y z
#    x 3.921840 -0.065120 0.147360 
#    y -0.065120 4.220910 0.338770 
#    z 0.147360 0.338770 4.355820 
# 
# 
# High freq. dielectric constant tensor:
#      x y z
#    x 1.942950 0.008360 0.000990 
#    y 0.008360 1.957560 0.017520 
#    z 0.000990 0.017520 1.944820 
# 
# From -- ./inp_files/469919.got.cif
#   From: 2010.06.25/outbox.cif.g09.slc.cpg/sg2_235_cif.got.tgz:469919.got - 2010.06.27 13:26:56.
