data_PCOD8025455
_publ_section_title
;
Structure prediction by ZEFSAII (Michael W. Deem and Ramdas Pophale) SiO2 
 PCOD8025455
Probable space group: P -1
;
_chemical_formula_sum "Si O2"
_cell_formula_units_Z 16
_cell_length_a 15.945749
_cell_length_b 18.616426
_cell_length_c 13.211636
_cell_angle_alpha 42.540069
_cell_angle_beta 153.787574
_cell_angle_gamma 153.259636
_cell_volume 737.379957
_symmetry_space_group_name_H-M "P -1"
_symmetry_group_IT_number 2
_symmetry_cell_setting 'triclinic'
loop_
_space_group_symop_operation_xyz
x,y,z
-x,-y,-z
loop_
_atom_site_type_symbol
_atom_site_label
_atom_site_fract_x
_atom_site_fract_y
_atom_site_fract_z
Si Si1 0.163226 0.851576 0.752809
Si Si2 0.549359 0.328657 0.494340
Si Si3 0.664834 0.194690 0.304229
Si Si4 0.731923 0.852093 0.938053
Si Si5 0.805573 0.036809 0.540495
Si Si6 0.615766 0.666836 0.475187
Si Si7 0.196870 0.640457 0.922169
Si Si8 0.660864 0.475939 0.257667
O O1 0.122375 0.910059 0.552528
O O2 0.077195 0.692727 0.798522
O O3 0.960595 0.816787 0.656093
O O4 0.500000 0.000000 0.000000
O O5 0.376028 0.303278 0.428364
O O6 0.559520 0.424068 0.319554
O O7 0.890581 0.441515 0.775428
O O8 0.381377 0.152430 0.452593
O O9 0.391552 0.100538 0.182435
O O10 0.620113 0.052674 0.373052
O O11 0.639030 0.255891 0.111964
O O12 0.980917 0.354217 0.537232
O O13 0.443783 0.677721 0.750675
O O14 0.872884 0.829978 0.193165
O O15 0.000000 0.000000 0.000000
O O16 0.500000 0.500000 0.500000
O O17 0.420432 0.669390 0.202075
O O18 0.500000 0.500000 0.000000
#
# Coordination Sequence:
#
# PCOD8025455 Si02
#       8
#     2   2   2   2   2   2   2   2
#     4  11  25  44  68 101 136 181 220 282 344 402
#     4  11  24  43  69 105 137 177 231 288 333 403
#     4  10  24  44  72  98 132 188 223 274 351 399
#     4  12  24  45  67 103 138 172 233 285 334 402
#     4  11  24  44  69  98 142 174 232 279 339 401
#     4  12  25  42  73 102 137 183 227 276 346 401
#     4  10  23  45  67  97 140 174 230 274 333 417
#     4  11  23  46  72  98 138 181 226 286 336 403
#
# _framework density 21.698449
#
# number of rings (size 3 to 8) (size 9 to 14) (size 15 to 20)
#    0.000    1.000    3.750    2.250    1.750    5.500 
#    0.000    0.000    0.000    0.000    0.000    0.000 
#    0.000    0.000    0.000    0.000    0.000    0.000 
#
# Total GULP energy -198430.560870 kJ/mol
# GULP energy per Si atom -12401.910054 kJ/mol
# Density = 2.164906 g / cm^3
# Si number density = 21.698449 Si / 1000 Ang^3
#
#
#
# Elastic Constant Matrix: (Units=GPa)
#
#
# Indices 1 2 3 4 5 6 
#
# 1 172.2198 42.4624 57.7062 -1.7311 14.5279 17.6174
# 2 42.4624 85.5670 26.1492 -0.7706 2.8430 3.1101
# 3 57.7062 26.1492 117.7669 -12.1710 -10.0852 22.8676
# 4 -1.7311 -0.7706 -12.1710 35.0776 -1.7160 -4.6638
# 5 14.5279 2.8430 -10.0852 -1.7160 36.0074 4.4968
# 6 17.6174 3.1101 22.8676 -4.6638 4.4968 29.1886
#
#
#
# Elastic Compliance Matrix: (Units=1/GPa)
#
#
# Indices 1 2 3 4 5 6 
#
# 1 0.008157 -0.002784 -0.003574 -0.001281 -0.003956 -0.001422
# 2 -0.002784 0.013683 -0.002170 -0.000365 -0.000831 0.001992
# 3 -0.003574 -0.002170 0.013302 0.003586 0.006568 -0.008472
# 4 -0.001281 -0.000365 0.003586 0.030132 0.002686 0.002403
# 5 -0.003956 -0.000831 0.006568 0.002686 0.032303 -0.007217
# 6 -0.001422 0.001992 -0.008472 0.002403 -0.007217 0.043040
#
#
# Mechanical properties :
#
#
# Convention : Reuss Voigt Hill
#
# Bulk Modulus (GPa) = 55.28673 69.79879 62.54276
# Shear Modulus (GPa) = 30.54346 36.67044 33.60695
#
# Velocity S-wave (km/s) = 3.75591 4.11542 3.93977
# Velocity P-wave (km/s) = 6.65914 7.40404 7.04144
#
# Compressibility (1/GPa) = 0.01808752
#
# Stress axis : x y z
#
# Youngs Moduli (GPa) = 122.59914 73.08163 75.17385
#
# Poissons Ratio (x) = 0.20346 0.26864
# Poissons Ratio (y) = 0.34132 0.16311
# Poissons Ratio (z) = 0.43812 0.15857
#
# Static dielectric constant tensor:
#      x y z
#    x 4.148770 -0.051790 -0.226010 
#    y -0.051790 3.963630 0.063530 
#    z -0.226010 0.063530 4.055070 
# 
# 
# High freq. dielectric constant tensor:
#      x y z
#    x 1.856860 0.000240 -0.014470 
#    y 0.000240 1.853580 0.002070 
#    z -0.014470 0.002070 1.859640 
# 
# From -- ./inp_files/99839.got.cif
#   From: 2010.06.25/outbox.cif.g09.slc.cpg/sg2_50_cif.got.tgz:99839.got - 2010.06.27 13:26:56.
