data_PCOD8025687
_publ_section_title
;
Structure prediction by ZEFSAII (Michael W. Deem and Ramdas Pophale) SiO2 
 PCOD8025687
Probable space group: P -1
;
_chemical_formula_sum "Si O2"
_cell_formula_units_Z 12
_cell_length_a 9.508650
_cell_length_b 12.817252
_cell_length_c 8.935796
_cell_angle_alpha 143.388318
_cell_angle_beta 64.290624
_cell_angle_gamma 97.220851
_cell_volume 532.665106
_symmetry_space_group_name_H-M "P -1"
_symmetry_group_IT_number 2
_symmetry_cell_setting 'triclinic'
loop_
_space_group_symop_operation_xyz
x,y,z
-x,-y,-z
loop_
_atom_site_type_symbol
_atom_site_label
_atom_site_fract_x
_atom_site_fract_y
_atom_site_fract_z
Si Si1 0.927495 0.710509 0.215481
Si Si2 0.675223 0.007146 0.889312
Si Si3 0.195902 0.906443 0.771112
Si Si4 0.713367 0.347128 0.126924
Si Si5 0.637285 0.502708 0.665473
Si Si6 0.687160 0.847225 0.202329
O O1 0.823958 0.823418 0.536800
O O2 0.797081 0.743261 0.176665
O O3 0.000000 0.500000 0.000000
O O4 0.095427 0.748069 0.139746
O O5 0.500000 0.000000 0.000000
O O6 0.721756 0.039040 0.067239
O O7 0.648372 0.181318 0.992755
O O8 0.271374 0.672595 0.460010
O O9 0.225426 0.016792 0.742873
O O10 0.000000 0.000000 0.000000
O O11 0.717083 0.454704 0.404730
O O12 0.562425 0.473406 0.225415
O O13 0.672588 0.684333 0.913870
O O14 0.500000 0.000000 0.500000
#
# Coordination Sequence:
#
# PCOD8025687 Si02
#       6
#     2   2   2   2   2   2
#     4  12  29  44  71 110 145 188 241 296 359 428
#     4  11  24  47  74 101 142 189 235 292 363 434
#     4  11  26  44  73 102 138 188 242 294 359 421
#     4  10  23  45  73 105 143 187 239 298 361 422
#     4  10  24  44  76 103 144 190 242 295 362 430
#     4  12  27  48  71 106 146 188 238 300 359 424
#
# _framework density 22.528227000000001
#
# number of rings (size 3 to 8) (size 9 to 14) (size 15 to 20)
#    0.000    1.000    0.000    5.500   14.000    3.333 
#    0.000    0.000    0.000    0.000    0.000    0.000 
#    0.000    0.000    0.000    0.000    0.000    0.000 
#
# Total GULP energy -148660.320038 kJ/mol
# GULP energy per Si atom -12388.360003 kJ/mol
# Density = 2.247695 g / cm^3
# Si number density = 22.528227 Si / 1000 Ang^3
#
#
#
# Elastic Constant Matrix: (Units=GPa)
#
#
# Indices 1 2 3 4 5 6 
#
# 1 16.7379 16.6803 -25.9415 42.1929 -62.6889 46.6787
# 2 16.6803 118.8189 31.1340 22.0878 -23.3563 20.3118
# 3 -25.9415 31.1340 105.9718 29.7914 -39.4134 41.2877
# 4 42.1929 22.0878 29.7914 25.2728 20.0790 -30.1348
# 5 -62.6889 -23.3563 -39.4134 20.0790 38.1160 7.9394
# 6 46.6787 20.3118 41.2877 -30.1348 7.9394 34.8362
#
#
#
# Elastic Compliance Matrix: (Units=1/GPa)
#
#
# Indices 1 2 3 4 5 6 
#
# 1 0.005536 -0.003080 -0.003880 0.008532 -0.002745 0.006984
# 2 -0.003080 0.010235 -0.002459 -0.002578 0.000276 -0.001219
# 3 -0.003880 -0.002459 0.007267 0.002845 -0.002072 0.000954
# 4 0.008532 -0.002578 0.002845 0.014550 0.008272 -0.002600
# 5 -0.002745 0.000276 -0.002072 0.008272 0.013286 0.010101
# 6 0.006984 -0.001219 0.000954 -0.002600 0.010101 0.014377
#
#
# Mechanical properties :
#
#
# Convention : Reuss Voigt Hill
#
# Bulk Modulus (GPa) = 238.14733 31.69714 134.92224
# Shear Modulus (GPa) = 58.48794 34.28873 46.38834
#
# Velocity S-wave (km/s) = 5.10083 3.90556 4.54268
# Velocity P-wave (km/s) = 11.85881 5.86842 9.35601
#
# Compressibility (1/GPa) = 0.00419908
#
# Stress axis : x y z
#
# Youngs Moduli (GPa) = 180.64995 97.70860 137.61394
#
# Poissons Ratio (x) = 0.30092 0.53401
# Poissons Ratio (y) = 0.55636 0.33834
# Poissons Ratio (z) = 0.70100 0.24023
#
# Static dielectric constant tensor:
#      x y z
#    x 4.064940 -0.100310 0.061720 
#    y -0.100310 3.972250 0.520350 
#    z 0.061720 0.520350 4.246440 
# 
# 
# High freq. dielectric constant tensor:
#      x y z
#    x 1.903110 -0.001620 -0.013180 
#    y -0.001620 1.893440 0.010360 
#    z -0.013180 0.010360 1.901050 
# 
# From -- ./inp_files/149655.got.cif
#   From: 2010.06.25/outbox.cif.g09.slc.cpg/sg2_75_cif.got.tgz:149655.got - 2010.06.27 13:26:56.
