data_PCOD8025989
_publ_section_title
;
Structure prediction by ZEFSAII (Michael W. Deem and Ramdas Pophale) SiO2 
 PCOD8025989
Probable space group: P -1
;
_chemical_formula_sum "Si O2"
_cell_formula_units_Z 16
_cell_length_a 11.685123
_cell_length_b 12.078738
_cell_length_c 11.911957
_cell_angle_alpha 100.545446
_cell_angle_beta 121.860661
_cell_angle_gamma 128.072316
_cell_volume 729.883593
_symmetry_space_group_name_H-M "P -1"
_symmetry_group_IT_number 2
_symmetry_cell_setting 'triclinic'
loop_
_space_group_symop_operation_xyz
x,y,z
-x,-y,-z
loop_
_atom_site_type_symbol
_atom_site_label
_atom_site_fract_x
_atom_site_fract_y
_atom_site_fract_z
Si Si1 0.405221 0.963964 0.133706
Si Si2 0.363633 0.819938 0.309503
Si Si3 0.899582 0.993977 0.275931
Si Si4 0.345962 0.469705 0.498560
Si Si5 0.525713 0.740218 0.831470
Si Si6 0.178208 0.985592 0.512630
Si Si7 0.933156 0.516112 0.730690
Si Si8 0.037712 0.659733 0.454459
O O1 0.288677 0.846533 0.172447
O O2 0.346101 0.054028 0.108555
O O3 0.702802 0.137733 0.297162
O O4 0.230186 0.769030 0.919126
O O5 0.547142 0.850404 0.366693
O O6 0.119628 0.582696 0.195472
O O7 0.500000 0.000000 0.500000
O O8 0.781276 0.939993 0.325750
O O9 0.664648 0.806396 0.031937
O O10 0.098967 0.231763 0.381741
O O11 0.049376 0.983260 0.362699
O O12 0.500000 0.500000 0.500000
O O13 0.543698 0.651660 0.733803
O O14 0.259065 0.516558 0.392132
O O15 0.218491 0.547978 0.647225
O O16 0.995713 0.743573 0.376117
O O17 0.878756 0.386560 0.583713
#
# Coordination Sequence:
#
# PCOD8025989 Si02
#       8
#     2   2   2   2   2   2   2   2
#     4  11  24  41  68 105 137 174 230 279 349 406
#     4  11  21  43  68  99 141 179 222 288 343 403
#     4  11  25  47  71  98 140 181 239 280 341 417
#     4  12  26  47  69 100 143 183 228 278 345 417
#     4  12  25  45  71 103 136 184 228 287 347 405
#     4  10  23  47  70 100 139 183 231 291 333 405
#     4  12  24  43  71 103 137 185 226 282 349 404
#     4  11  24  42  72 100 138 175 232 292 340 401
#
# _framework density 21.921303000000002
#
# number of rings (size 3 to 8) (size 9 to 14) (size 15 to 20)
#    0.000    0.750    6.250    1.500    3.500    1.500 
#    2.250    0.000    0.000    0.000    0.000    0.000 
#    0.000    0.000    0.000    0.000    0.000    0.000 
#
# Total GULP energy -198363.303578 kJ/mol
# GULP energy per Si atom -12397.706474 kJ/mol
# Density = 2.187141 g / cm^3
# Si number density = 21.921303 Si / 1000 Ang^3
#
#
#
# Elastic Constant Matrix: (Units=GPa)
#
#
# Indices 1 2 3 4 5 6 
#
# 1 117.1253 35.0062 34.7982 -3.7283 -1.2738 -6.3344
# 2 35.0062 116.7768 41.4125 -1.5102 -0.8292 -15.0151
# 3 34.7982 41.4125 127.5747 -0.3030 -5.2609 -1.2118
# 4 -3.7283 -1.5102 -0.3030 38.9028 -1.8081 2.7036
# 5 -1.2738 -0.8292 -5.2609 -1.8081 19.1355 2.6517
# 6 -6.3344 -15.0151 -1.2118 2.7036 2.6517 37.2658
#
#
#
# Elastic Compliance Matrix: (Units=1/GPa)
#
#
# Indices 1 2 3 4 5 6 
#
# 1 0.009829 -0.002148 -0.001976 0.000796 -0.000001 0.000684
# 2 -0.002148 0.010736 -0.002905 -0.000134 -0.001036 0.003950
# 3 -0.001976 -0.002905 0.009411 -0.000016 0.002520 -0.001378
# 4 0.000796 -0.000134 -0.000016 0.026045 0.002782 -0.002007
# 5 -0.000001 -0.001036 0.002520 0.002782 0.053774 -0.004364
# 6 0.000684 0.003950 -0.001378 -0.002007 -0.004364 0.028953
#
#
# Mechanical properties :
#
#
# Convention : Reuss Voigt Hill
#
# Bulk Modulus (GPa) = 62.81363 64.87894 63.84628
# Shear Modulus (GPa) = 31.62336 35.74481 33.68409
#
# Velocity S-wave (km/s) = 3.80226 4.04245 3.92419
# Velocity P-wave (km/s) = 6.92767 7.17280 7.05130
#
# Compressibility (1/GPa) = 0.01592011
#
# Stress axis : x y z
#
# Youngs Moduli (GPa) = 101.74005 93.14420 106.25741
#
# Poissons Ratio (x) = 0.20004 0.20991
# Poissons Ratio (y) = 0.21851 0.30866
# Poissons Ratio (z) = 0.20099 0.27056
#
# Static dielectric constant tensor:
#      x y z
#    x 3.897440 -0.105660 -0.181180 
#    y -0.105660 4.358860 0.042190 
#    z -0.181180 0.042190 3.976220 
# 
# 
# High freq. dielectric constant tensor:
#      x y z
#    x 1.855070 -0.010710 -0.012420 
#    y -0.010710 1.882810 0.002280 
#    z -0.012420 0.002280 1.854830 
# 
# From -- ./inp_files/428430.got.cif
#   From: 2010.06.25/outbox.cif.g09.slc.cpg/sg2_215_cif.got.tgz:428430.got - 2010.06.27 13:26:56.
