data_PCOD8025224
_publ_section_title
;
Structure prediction by ZEFSAII (Michael W. Deem and Ramdas Pophale) SiO2 
 PCOD8025224
Probable space group: P -1
;
_chemical_formula_sum "Si O2"
_cell_formula_units_Z 8
_cell_length_a 10.959778
_cell_length_b 7.208957
_cell_length_c 5.123042
_cell_angle_alpha 81.123485
_cell_angle_beta 81.896246
_cell_angle_gamma 127.327802
_cell_volume 303.505442
_symmetry_space_group_name_H-M "P -1"
_symmetry_group_IT_number 2
_symmetry_cell_setting 'triclinic'
loop_
_space_group_symop_operation_xyz
x,y,z
-x,-y,-z
loop_
_atom_site_type_symbol
_atom_site_label
_atom_site_fract_x
_atom_site_fract_y
_atom_site_fract_z
Si Si1 0.380710 0.094642 0.579926
Si Si2 0.099520 0.541006 0.712200
Si Si3 0.558712 0.349491 0.980741
Si Si4 0.834161 0.755727 0.499242
O O1 0.733977 0.187920 0.389953
O O2 0.452596 0.142083 0.836298
O O3 0.286797 0.201068 0.567654
O O4 0.526716 0.219142 0.297783
O O5 0.130002 0.345762 0.734896
O O6 0.000000 0.500000 0.500000
O O7 0.000000 0.500000 0.000000
O O8 0.746656 0.541426 0.796476
O O9 0.500000 0.500000 0.000000
O O10 0.000000 0.000000 0.500000
#
# Coordination Sequence:
#
# PCOD8025224 Si02
#       4
#     2   2   2   2
#     4  11  24  47  70  98 141 174 228 284 334 405
#     4  12  27  44  68 105 138 177 229 284 335 401
#     4  10  23  44  71 101 134 179 226 279 340 403
#     4  11  24  45  73 101 136 185 224 279 345 401
#
# _framework density 26.35867
#
# number of rings (size 3 to 8) (size 9 to 14) (size 15 to 20)
#    0.000    1.000    2.500    4.500    3.500    9.000 
#    0.000    0.000    0.000    0.000    0.000    0.000 
#    0.000    0.000    0.000    0.000    0.000    0.000 
#
# Total GULP energy -99205.086647 kJ/mol
# GULP energy per Si atom -12400.635831 kJ/mol
# Density = 2.629868 g / cm^3
# Si number density = 26.358670 Si / 1000 Ang^3
#
#
#
# Elastic Constant Matrix: (Units=GPa)
#
#
# Indices 1 2 3 4 5 6 
#
# 1 109.8433 37.0502 42.3655 15.6512 -29.1136 -3.7619
# 2 37.0502 206.0898 63.8282 5.6440 -17.1511 -1.7978
# 3 42.3655 63.8282 177.6264 12.4498 -18.7809 5.4862
# 4 15.6512 5.6440 12.4498 52.7662 2.7391 -9.2135
# 5 -29.1136 -17.1511 -18.7809 2.7391 44.9808 13.6966
# 6 -3.7619 -1.7978 5.4862 -9.2135 13.6966 44.9237
#
#
#
# Elastic Compliance Matrix: (Units=1/GPa)
#
#
# Indices 1 2 3 4 5 6 
#
# 1 0.012671 -0.001068 -0.001431 -0.004096 0.008090 -0.002113
# 2 -0.001068 0.005629 -0.001708 0.000109 0.000687 0.000157
# 3 -0.001431 -0.001708 0.006962 -0.001482 0.002016 -0.001957
# 4 -0.004096 0.000109 -0.001482 0.021945 -0.006489 0.006322
# 5 0.008090 0.000687 0.002016 -0.006489 0.032224 -0.010697
# 6 -0.002113 0.000157 -0.001957 0.006322 -0.010697 0.026886
#
#
# Mechanical properties :
#
#
# Convention : Reuss Voigt Hill
#
# Bulk Modulus (GPa) = 59.34977 86.67191 73.01084
# Shear Modulus (GPa) = 41.54677 51.88852 46.71764
#
# Velocity S-wave (km/s) = 3.97446 4.44165 4.21453
# Velocity P-wave (km/s) = 6.60506 7.69789 7.17232
#
# Compressibility (1/GPa) = 0.01684927
#
# Stress axis : x y z
#
# Youngs Moduli (GPa) = 78.91866 177.65977 143.63343
#
# Poissons Ratio (x) = 0.18972 0.20551
# Poissons Ratio (y) = 0.08428 0.24529
# Poissons Ratio (z) = 0.11292 0.30340
#
# Static dielectric constant tensor:
#      x y z
#    x 4.915710 -0.313530 0.910520 
#    y -0.313530 5.390790 -0.059800 
#    z 0.910520 -0.059800 -0.853810 
# 
# 
# High freq. dielectric constant tensor:
#      x y z
#    x 2.071550 -0.004640 -0.019410 
#    y -0.004640 2.078070 0.007550 
#    z -0.019410 0.007550 2.062930 
# 
# From -- ./inp_files/16493.got.cif
#   From: 2010.06.25/outbox.cif.g09.slc.cpg/sg2_9_cif.got.tgz:16493.got - 2010.06.27 13:26:56.
