data_PCOD8025623
_publ_section_title
;
Structure prediction by ZEFSAII (Michael W. Deem and Ramdas Pophale) SiO2 
 PCOD8025623
Probable space group: P -1
;
_chemical_formula_sum "Si O2"
_cell_formula_units_Z 16
_cell_length_a 8.475648
_cell_length_b 6.670891
_cell_length_c 18.947523
_cell_angle_alpha 52.251326
_cell_angle_beta 106.986072
_cell_angle_gamma 119.309541
_cell_volume 738.596683
_symmetry_space_group_name_H-M "P -1"
_symmetry_group_IT_number 2
_symmetry_cell_setting 'triclinic'
loop_
_space_group_symop_operation_xyz
x,y,z
-x,-y,-z
loop_
_atom_site_type_symbol
_atom_site_label
_atom_site_fract_x
_atom_site_fract_y
_atom_site_fract_z
Si Si1 0.772563 0.589041 0.132507
Si Si2 0.984608 0.559078 0.904294
Si Si3 0.877736 0.504855 0.418987
Si Si4 0.442300 0.057261 0.191866
Si Si5 0.623305 0.921549 0.479450
Si Si6 0.544155 0.663118 0.376297
Si Si7 0.652499 0.025862 0.959767
Si Si8 0.036984 0.868321 0.230339
O O1 0.848092 0.460522 0.108792
O O2 0.574100 0.356358 0.177336
O O3 0.903659 0.656123 0.202159
O O4 0.766490 0.866655 0.040815
O O5 0.791383 0.343154 0.896089
O O6 0.007939 0.867320 0.826834
O O7 0.000000 0.500000 0.000000
O O8 0.722226 0.601969 0.403058
O O9 0.000000 0.500000 0.500000
O O10 0.005947 0.721404 0.333045
O O11 0.809338 0.195123 0.443277
O O12 0.514946 0.821098 0.270275
O O13 0.442220 0.101321 0.098628
O O14 0.244253 0.964272 0.216921
O O15 0.553293 0.855491 0.403870
O O16 0.628679 0.635568 0.571890
O O17 0.500000 0.000000 0.500000
O O18 0.500000 0.000000 0.000000
#
# Coordination Sequence:
#
# PCOD8025623 Si02
#       8
#     2   2   2   2   2   2   2   2
#     4  12  25  48  71  99 147 184 234 293 347 416
#     4  12  23  45  73 100 144 186 230 293 351 410
#     4  11  26  45  70 103 140 183 234 288 353 416
#     4  12  26  45  71 106 140 182 240 285 353 423
#     4   9  21  44  72  97 133 182 222 284 351 406
#     4  10  23  45  71 100 141 180 229 290 349 414
#     4  12  25  44  72 104 142 191 234 287 352 418
#     4  12  27  46  71 105 141 185 237 293 351 419
#
# _framework density 21.662703
#
# number of rings (size 3 to 8) (size 9 to 14) (size 15 to 20)
#    0.000    0.750    2.500    4.500    7.000    1.500 
#    4.500    0.000    0.000    0.000    0.000    0.000 
#    0.000    0.000    0.000    0.000    0.000    0.000 
#
# Total GULP energy -198418.485901 kJ/mol
# GULP energy per Si atom -12401.155369 kJ/mol
# Density = 2.161340 g / cm^3
# Si number density = 21.662703 Si / 1000 Ang^3
#
#
#
# Elastic Constant Matrix: (Units=GPa)
#
#
# Indices 1 2 3 4 5 6 
#
# 1 123.0162 51.6858 49.7268 7.2308 -7.9178 -0.0388
# 2 51.6858 135.8702 47.1214 -9.9847 -9.5304 10.2924
# 3 49.7268 47.1214 147.5964 -0.6478 -4.0755 0.9293
# 4 7.2308 -9.9847 -0.6478 33.8367 3.0156 -5.5758
# 5 -7.9178 -9.5304 -4.0755 3.0156 36.9668 -3.0209
# 6 -0.0388 10.2924 0.9293 -5.5758 -3.0209 39.5671
#
#
#
# Elastic Compliance Matrix: (Units=1/GPa)
#
#
# Indices 1 2 3 4 5 6 
#
# 1 0.010911 -0.003460 -0.002549 -0.003436 0.001493 0.000600
# 2 -0.003460 0.009800 -0.001905 0.003167 0.001156 -0.001973
# 3 -0.002549 -0.001905 0.008238 0.000204 -0.000119 0.000319
# 4 -0.003436 0.003167 0.000204 0.032002 -0.002221 0.003508
# 5 0.001493 0.001156 -0.000119 -0.002221 0.027962 0.001525
# 6 0.000600 -0.001973 0.000319 0.003508 0.001525 0.026391
#
#
# Mechanical properties :
#
#
# Convention : Reuss Voigt Hill
#
# Bulk Modulus (GPa) = 76.21130 78.17231 77.19181
# Shear Modulus (GPa) = 36.89882 39.27072 38.08477
#
# Velocity S-wave (km/s) = 4.13162 4.26235 4.19750
# Velocity P-wave (km/s) = 7.61693 7.77097 7.69434
#
# Compressibility (1/GPa) = 0.01312141
#
# Stress axis : x y z
#
# Youngs Moduli (GPa) = 91.64718 102.04076 121.39165
#
# Poissons Ratio (x) = 0.35305 0.30945
# Poissons Ratio (y) = 0.31709 0.23123
# Poissons Ratio (z) = 0.23363 0.19437
#
# Static dielectric constant tensor:
#      x y z
#    x 0.000000 0.000000 0.000000 
#    y 0.000000 0.000000 0.000000 
#    z 0.000000 0.000000 0.000000 
# 
# 
# High freq. dielectric constant tensor:
#      x y z
#    x 1.848270 0.000560 -0.010220 
#    y 0.000560 1.866990 -0.009760 
#    z -0.010220 -0.009760 1.861600 
# 
# From -- ./inp_files/106345.got.cif
#   From: 2010.06.25/outbox.cif.g09.slc.cpg/sg2_54_cif.got.tgz:106345.got - 2010.06.27 13:26:56.
