data_PCOD8025526
_publ_section_title
;
Structure prediction by ZEFSAII (Michael W. Deem and Ramdas Pophale) SiO2 
 PCOD8025526
Probable space group: P -1
;
_chemical_formula_sum "Si O2"
_cell_formula_units_Z 16
_cell_length_a 8.820194
_cell_length_b 9.081166
_cell_length_c 11.954911
_cell_angle_alpha 80.383181
_cell_angle_beta 76.796349
_cell_angle_gamma 49.507019
_cell_volume 708.732897
_symmetry_space_group_name_H-M "P -1"
_symmetry_group_IT_number 2
_symmetry_cell_setting 'triclinic'
loop_
_space_group_symop_operation_xyz
x,y,z
-x,-y,-z
loop_
_atom_site_type_symbol
_atom_site_label
_atom_site_fract_x
_atom_site_fract_y
_atom_site_fract_z
Si Si1 0.452290 0.469536 0.390451
Si Si2 0.654569 0.524988 0.922473
Si Si3 0.316856 0.209526 0.957864
Si Si4 0.060749 0.613613 0.533391
Si Si5 0.571954 0.159874 0.259634
Si Si6 0.632689 0.641805 0.295101
Si Si7 0.946184 0.875156 0.080505
Si Si8 0.378397 0.015828 0.412812
O O1 0.500000 0.500000 0.500000
O O2 0.210774 0.595631 0.418937
O O3 0.575550 0.239839 0.370664
O O4 0.534284 0.546373 0.279782
O O5 0.555447 0.644487 0.813019
O O6 0.853008 0.316374 0.877263
O O7 0.500000 0.500000 0.000000
O O8 0.715487 0.626810 0.979525
O O9 0.336476 0.260983 0.822451
O O10 0.137424 0.195329 0.986976
O O11 0.500000 0.000000 0.000000
O O12 0.160348 0.517574 0.650483
O O13 0.000000 0.500000 0.500000
O O14 0.863720 0.839160 0.551342
O O15 0.442564 0.088150 0.292319
O O16 0.791696 0.995996 0.192827
O O17 0.464126 0.803330 0.390907
O O18 0.000000 0.000000 0.000000
O O19 0.500000 0.000000 0.500000
#
# Coordination Sequence:
#
# PCOD8025526 Si02
#       8
#     2   2   2   2   2   2   2   2
#     4  10  23  45  69 102 142 180 232 299 356 432
#     4  12  25  47  72 102 142 190 243 302 355 428
#     4  12  24  48  69 105 149 187 247 304 353 429
#     4  11  22  43  70 101 135 182 232 287 359 429
#     4  12  24  45  71  99 145 188 238 290 363 428
#     4  11  24  43  68 102 138 182 233 293 366 415
#     4  12  26  46  72 105 140 193 243 298 365 424
#     4  12  23  41  70 102 140 179 235 295 348 434
#
# _framework density 22.575500999999999
#
# number of rings (size 3 to 8) (size 9 to 14) (size 15 to 20)
#    0.000    0.500    6.250    1.875    1.750    1.500 
#    2.250    5.000    0.000    0.000    0.000    0.000 
#    0.000    0.000    0.000    0.000    0.000    0.000 
#
# Total GULP energy -198243.214538 kJ/mol
# GULP energy per Si atom -12390.200909 kJ/mol
# Density = 2.252412 g / cm^3
# Si number density = 22.575501 Si / 1000 Ang^3
#
#
#
# Elastic Constant Matrix: (Units=GPa)
#
#
# Indices 1 2 3 4 5 6 
#
# 1 148.9799 49.6413 25.5653 4.9163 -17.8702 3.3131
# 2 49.6413 152.1546 21.5621 18.1742 2.6679 -27.5103
# 3 25.5653 21.5621 62.4733 -1.9133 -0.3413 -7.2547
# 4 4.9163 18.1742 -1.9133 50.2543 1.6322 2.2988
# 5 -17.8702 2.6679 -0.3413 1.6322 36.4533 0.7809
# 6 3.3131 -27.5103 -7.2547 2.2988 0.7809 57.6339
#
#
#
# Elastic Compliance Matrix: (Units=1/GPa)
#
#
# Indices 1 2 3 4 5 6 
#
# 1 0.008782 -0.002979 -0.002811 0.000071 0.004544 -0.002345
# 2 -0.002979 0.008963 -0.001469 -0.003140 -0.002084 0.004418
# 3 -0.002811 -0.001469 0.017896 0.001450 -0.001204 0.001672
# 4 0.000071 -0.003140 0.001450 0.021202 -0.000625 -0.002158
# 5 0.004544 -0.002084 -0.001204 -0.000625 0.029867 -0.001787
# 6 -0.002345 0.004418 0.001672 -0.002158 -0.001787 0.019915
#
#
# Mechanical properties :
#
#
# Convention : Reuss Voigt Hill
#
# Bulk Modulus (GPa) = 47.34115 61.90505 54.62310
# Shear Modulus (GPa) = 39.00635 46.65757 42.83196
#
# Velocity S-wave (km/s) = 4.16121 4.55107 4.36050
# Velocity P-wave (km/s) = 6.64103 7.42275 7.04274
#
# Compressibility (1/GPa) = 0.02112327
#
# Stress axis : x y z
#
# Youngs Moduli (GPa) = 113.86685 111.57262 55.87823
#
# Poissons Ratio (x) = 0.33238 0.15707
# Poissons Ratio (y) = 0.33921 0.08208
# Poissons Ratio (z) = 0.32008 0.16388
#
# Static dielectric constant tensor:
#      x y z
#    x 3.727290 0.712990 0.089810 
#    y 0.712990 4.562480 -0.201780 
#    z 0.089810 -0.201780 4.064090 
# 
# 
# High freq. dielectric constant tensor:
#      x y z
#    x 1.900930 0.017590 -0.008100 
#    y 0.017590 1.906410 -0.001380 
#    z -0.008100 -0.001380 1.887330 
# 
# From -- ./inp_files/381962.got.cif
#   From: 2010.06.25/outbox.cif.g09.slc.cpg/sg2_191_cif.got.tgz:381962.got - 2010.06.27 13:26:56.
