data_PCOD8025742
_publ_section_title
;
Structure prediction by ZEFSAII (Michael W. Deem and Ramdas Pophale) SiO2 
 PCOD8025742
Probable space group: P -1
;
_chemical_formula_sum "Si O2"
_cell_formula_units_Z 10
_cell_length_a 11.609562
_cell_length_b 9.045335
_cell_length_c 5.478221
_cell_angle_alpha 76.522026
_cell_angle_beta 82.495623
_cell_angle_gamma 42.872719
_cell_volume 379.922126
_symmetry_space_group_name_H-M "P -1"
_symmetry_group_IT_number 2
_symmetry_cell_setting 'triclinic'
loop_
_space_group_symop_operation_xyz
x,y,z
-x,-y,-z
loop_
_atom_site_type_symbol
_atom_site_label
_atom_site_fract_x
_atom_site_fract_y
_atom_site_fract_z
Si Si1 0.911834 0.188874 0.757673
Si Si2 0.577150 0.062684 0.298844
Si Si3 0.748212 0.171940 0.420339
Si Si4 0.103844 0.412729 0.753366
Si Si5 0.283844 0.484634 0.935562
O O1 0.756073 0.243418 0.655880
O O2 0.838887 0.409008 0.829393
O O3 0.064129 0.083537 0.569021
O O4 0.000000 0.000000 0.000000
O O5 0.609731 0.170706 0.437994
O O6 0.500000 0.000000 0.500000
O O7 0.751099 0.854251 0.192955
O O8 0.454696 0.232187 0.049453
O O9 0.692417 0.358336 0.175738
O O10 0.197699 0.488564 0.719582
O O11 0.000000 0.500000 0.500000
O O12 0.000000 0.500000 0.000000
#
# Coordination Sequence:
#
# PCOD8025742 Si02
#       5
#     2   2   2   2   2
#     4   9  21  43  77 111 146 195 272 317 380 461
#     4  12  28  50  75 119 163 203 257 335 409 465
#     4  10  23  45  79 106 151 206 266 314 387 478
#     4  12  29  52  82 112 161 214 268 325 400 481
#     4  11  25  48  73 112 152 202 262 326 392 468
#
# _framework density 26.321186000000001
#
# number of rings (size 3 to 8) (size 9 to 14) (size 15 to 20)
#    0.000    1.200    0.000    3.600   14.000    0.800 
#   14.400    0.000    0.000    0.000    0.000    0.000 
#    0.000    0.000    0.000    0.000    0.000    0.000 
#
# Total GULP energy -123961.471671 kJ/mol
# GULP energy per Si atom -12396.147167 kJ/mol
# Density = 2.626128 g / cm^3
# Si number density = 26.321186 Si / 1000 Ang^3
#
#
#
# Elastic Constant Matrix: (Units=GPa)
#
#
# Indices 1 2 3 4 5 6 
#
# 1 177.6983 37.7360 74.6968 -11.7742 34.8806 31.2836
# 2 37.7360 171.2443 65.1341 -15.8546 18.2886 -7.1944
# 3 74.6968 65.1341 147.9928 1.9568 38.7011 -3.1207
# 4 -11.7742 -15.8546 1.9568 38.6226 6.6154 7.6068
# 5 34.8806 18.2886 38.7011 6.6154 51.4142 3.7154
# 6 31.2836 -7.1944 -3.1207 7.6068 3.7154 40.7789
#
#
#
# Elastic Compliance Matrix: (Units=1/GPa)
#
#
# Indices 1 2 3 4 5 6 
#
# 1 0.010134 -0.000009 -0.004422 0.005674 -0.003635 -0.008842
# 2 -0.000009 0.007421 -0.003094 0.003222 -0.000759 0.000548
# 3 -0.004422 -0.003094 0.011705 -0.003363 -0.004624 0.004791
# 4 0.005674 0.003222 -0.003363 0.031990 -0.005896 -0.009471
# 5 -0.003635 -0.000759 -0.004624 -0.005896 0.026352 0.000999
# 6 -0.008842 0.000548 0.004791 -0.009471 0.000999 0.033444
#
#
# Mechanical properties :
#
#
# Convention : Reuss Voigt Hill
#
# Bulk Modulus (GPa) = 70.37356 94.67435 82.52395
# Shear Modulus (GPa) = 35.50271 47.45436 41.47853
#
# Velocity S-wave (km/s) = 3.67662 4.25066 3.97402
# Velocity P-wave (km/s) = 6.69462 7.75485 7.24416
#
# Compressibility (1/GPa) = 0.01420988
#
# Stress axis : x y z
#
# Youngs Moduli (GPa) = 98.67538 134.75532 85.43028
#
# Poissons Ratio (x) = 0.00125 0.37777
# Poissons Ratio (y) = 0.00092 0.26432
# Poissons Ratio (z) = 0.43634 0.41694
#
# Static dielectric constant tensor:
#      x y z
#    x 4.982790 -0.058670 0.199690 
#    y -0.058670 5.706350 0.479390 
#    z 0.199690 0.479390 4.770420 
# 
# 
# High freq. dielectric constant tensor:
#      x y z
#    x 2.051020 0.013710 0.024270 
#    y 0.013710 2.069670 -0.000690 
#    z 0.024270 -0.000690 2.053950 
# 
# From -- ./inp_files/60298.got.cif
#   From: 2010.06.25/outbox.cif.g09.slc.cpg/sg2_31_cif.got.tgz:60298.got - 2010.06.27 13:26:56.
