data_PCOD8025583
_publ_section_title
;
Structure prediction by ZEFSAII (Michael W. Deem and Ramdas Pophale) SiO2 
 PCOD8025583
Probable space group: P -1
;
_chemical_formula_sum "Si O2"
_cell_formula_units_Z 14
_cell_length_a 11.764051
_cell_length_b 5.460445
_cell_length_c 22.744067
_cell_angle_alpha 78.316974
_cell_angle_beta 28.426201
_cell_angle_gamma 96.420202
_cell_volume 533.351334
_symmetry_space_group_name_H-M "P -1"
_symmetry_group_IT_number 2
_symmetry_cell_setting 'triclinic'
loop_
_space_group_symop_operation_xyz
x,y,z
-x,-y,-z
loop_
_atom_site_type_symbol
_atom_site_label
_atom_site_fract_x
_atom_site_fract_y
_atom_site_fract_z
Si Si1 0.198840 0.458270 0.687467
Si Si2 0.666353 0.203953 0.795601
Si Si3 0.649156 0.326513 0.514260
Si Si4 0.831321 0.484452 0.956944
Si Si5 0.661127 0.807675 0.952292
Si Si6 0.634950 0.744710 0.174442
Si Si7 0.613996 0.178424 0.246177
O O1 0.454404 0.455062 0.603631
O O2 0.334184 0.723751 0.561181
O O3 0.999793 0.463627 0.826507
O O4 0.956502 0.133517 0.774256
O O5 0.589063 0.177525 0.902710
O O6 0.506180 0.315851 0.823495
O O7 0.026880 0.430207 0.612026
O O8 0.511204 0.843268 0.863671
O O9 0.489962 0.980720 0.633198
O O10 0.013618 0.563000 0.931338
O O11 0.813799 0.765723 0.940384
O O12 0.500000 0.500000 0.000000
O O13 0.503169 0.388113 0.272702
O O14 0.500894 0.888196 0.267369
O O15 0.000000 0.000000 0.000000
#
# Coordination Sequence:
#
# PCOD8025583 Si02
#       7
#     2   2   2   2   2   2   2
#     4  10  23  45  70 101 150 193 236 290 373 444
#     4  11  26  44  72 107 146 185 247 307 360 428
#     4  11  24  47  68 108 148 193 230 304 376 436
#     4  11  22  44  73 102 139 193 249 293 353 441
#     4  11  22  42  71 108 137 188 246 297 353 442
#     4  12  26  48  78 106 138 197 254 305 361 426
#     4  12  26  47  76 105 145 193 248 299 362 444
#
# _framework density 26.249113000000001
#
# number of rings (size 3 to 8) (size 9 to 14) (size 15 to 20)
#    0.000    0.857    2.857    3.857    2.000    4.000 
#   15.429    0.000    0.000    0.000    0.000    0.000 
#    0.000    0.000    0.000    0.000    0.000    0.000 
#
# Total GULP energy -173468.889846 kJ/mol
# GULP energy per Si atom -12390.634989 kJ/mol
# Density = 2.618937 g / cm^3
# Si number density = 26.249113 Si / 1000 Ang^3
#
#
#
# Elastic Constant Matrix: (Units=GPa)
#
#
# Indices 1 2 3 4 5 6 
#
# 1 111.6172 22.2090 37.3950 -9.4536 -5.8571 -13.4267
# 2 22.2090 88.3018 29.0167 -11.1901 8.2086 2.8829
# 3 37.3950 29.0167 92.5466 -6.8872 -19.1484 -6.7924
# 4 -9.4536 -11.1901 -6.8872 22.0928 -8.4402 0.6299
# 5 -5.8571 8.2086 -19.1484 -8.4402 49.9484 -8.5468
# 6 -13.4267 2.8829 -6.7924 0.6299 -8.5468 52.7902
#
#
#
# Elastic Compliance Matrix: (Units=1/GPa)
#
#
# Indices 1 2 3 4 5 6 
#
# 1 0.011021 -0.001474 -0.003279 0.003367 0.001297 0.002631
# 2 -0.001474 0.014114 -0.004578 0.003612 -0.004054 -0.002434
# 3 -0.003279 -0.004578 0.015586 0.003908 0.007445 0.002580
# 4 0.003367 0.003612 0.003908 0.053805 0.010779 0.002265
# 5 0.001297 -0.004054 0.007445 0.010779 0.026484 0.005668
# 6 0.002631 -0.002434 0.002580 0.002265 0.005668 0.020968
#
#
# Mechanical properties :
#
#
# Convention : Reuss Voigt Hill
#
# Bulk Modulus (GPa) = 45.33383 52.18968 48.76176
# Shear Modulus (GPa) = 29.76300 38.55595 34.15948
#
# Velocity S-wave (km/s) = 3.37095 3.83671 3.61135
# Velocity P-wave (km/s) = 5.69729 6.28910 6.00050
#
# Compressibility (1/GPa) = 0.02205858
#
# Stress axis : x y z
#
# Youngs Moduli (GPa) = 90.73716 70.85165 64.15910
#
# Poissons Ratio (x) = 0.10445 0.21037
# Poissons Ratio (y) = 0.13376 0.29374
# Poissons Ratio (z) = 0.29752 0.32438
#
# Static dielectric constant tensor:
#      x y z
#    x 5.146120 -0.239800 0.022140 
#    y -0.239800 4.819600 -0.200840 
#    z 0.022140 -0.200840 4.758230 
# 
# 
# High freq. dielectric constant tensor:
#      x y z
#    x 2.075580 -0.014000 0.000800 
#    y -0.014000 2.046520 -0.014680 
#    z 0.000800 -0.014680 2.038880 
# 
# From -- ./inp_files/609161.got.cif
#   From: 2010.06.25/outbox.cif.g09.slc.cpg/sg2_305_cif.got.tgz:609161.got - 2010.06.27 13:26:56.
