data_PCOD8025286
_publ_section_title
;
Structure prediction by ZEFSAII (Michael W. Deem and Ramdas Pophale) SiO2 
 PCOD8025286
Probable space group: P -1
;
_chemical_formula_sum "Si O2"
_cell_formula_units_Z 16
_cell_length_a 15.796193
_cell_length_b 8.899757
_cell_length_c 13.063802
_cell_angle_alpha 75.311739
_cell_angle_beta 153.343411
_cell_angle_gamma 113.143563
_cell_volume 736.085423
_symmetry_space_group_name_H-M "P -1"
_symmetry_group_IT_number 2
_symmetry_cell_setting 'triclinic'
loop_
_space_group_symop_operation_xyz
x,y,z
-x,-y,-z
loop_
_atom_site_type_symbol
_atom_site_label
_atom_site_fract_x
_atom_site_fract_y
_atom_site_fract_z
Si Si1 0.068962 0.962568 0.973209
Si Si2 0.412297 0.317666 0.235711
Si Si3 0.210387 0.127261 0.498828
Si Si4 0.623888 0.349268 0.821326
Si Si5 0.402378 0.587143 0.798840
Si Si6 0.688003 0.137364 0.234041
Si Si7 0.370808 0.811084 0.356745
Si Si8 0.019877 0.687255 0.662424
O O1 0.873891 0.891616 0.703090
O O2 0.145110 0.808367 0.096231
O O3 0.235138 0.133010 0.076710
O O4 0.000000 0.000000 0.000000
O O5 0.342726 0.455641 0.191601
O O6 0.463933 0.373323 0.165611
O O7 0.609687 0.312327 0.511511
O O8 0.442473 0.265397 0.722779
O O9 0.070164 0.180201 0.415674
O O10 0.202667 0.947834 0.557274
O O11 0.556689 0.244451 0.661450
O O12 0.835028 0.343676 0.090563
O O13 0.414263 0.760529 0.828541
O O14 0.166624 0.483166 0.536668
O O15 0.500000 0.500000 0.000000
O O16 0.856564 0.249749 0.318495
O O17 0.500000 0.000000 0.000000
O O18 0.500000 0.000000 0.500000
#
# Coordination Sequence:
#
# PCOD8025286 Si02
#       8
#     2   2   2   2   2   2   2   2
#     4  11  26  45  72 111 148 187 245 303 359 433
#     4  11  26  45  75 104 148 195 240 300 366 431
#     4  12  25  45  73 106 146 190 245 298 360 430
#     4  12  24  48  72 109 149 187 240 301 358 437
#     4  12  28  49  74 109 148 191 246 298 365 437
#     4  12  27  44  76 105 143 192 245 300 361 428
#     4  10  23  44  72 105 143 188 240 295 359 424
#     4  12  26  49  70 107 148 192 241 301 366 427
#
# _framework density 21.736605999999998
#
# number of rings (size 3 to 8) (size 9 to 14) (size 15 to 20)
#    0.000    0.500    3.750    4.125   10.500    0.000 
#    0.000    1.875    0.000    0.000    0.000    0.000 
#    0.000    0.000    0.000    0.000    0.000    0.000 
#
# Total GULP energy -198434.682990 kJ/mol
# GULP energy per Si atom -12402.167687 kJ/mol
# Density = 2.168713 g / cm^3
# Si number density = 21.736606 Si / 1000 Ang^3
#
#
#
# Elastic Constant Matrix: (Units=GPa)
#
#
# Indices 1 2 3 4 5 6 
#
# 1 108.4676 30.0667 32.0168 -8.4192 -5.3213 -8.5282
# 2 30.0667 116.8556 45.9820 -26.2293 -3.4191 -21.8779
# 3 32.0168 45.9820 128.7476 -15.4536 -7.4954 -1.5926
# 4 -8.4192 -26.2293 -15.4536 51.2051 3.5550 2.3634
# 5 -5.3213 -3.4191 -7.4954 3.5550 36.9620 0.9229
# 6 -8.5282 -21.8779 -1.5926 2.3634 0.9229 47.9367
#
#
#
# Elastic Compliance Matrix: (Units=1/GPa)
#
#
# Indices 1 2 3 4 5 6 
#
# 1 0.010379 -0.001673 -0.001898 0.000167 0.000914 0.000994
# 2 -0.001673 0.012314 -0.003364 0.004813 -0.000371 0.004980
# 3 -0.001898 -0.003364 0.009599 0.000845 0.001321 -0.001621
# 4 0.000167 0.004813 0.000845 0.022329 -0.001537 0.001183
# 5 0.000914 -0.000371 0.001321 -0.001537 0.027578 -0.000418
# 6 0.000994 0.004980 -0.001621 0.001183 -0.000418 0.023206
#
#
# Mechanical properties :
#
#
# Convention : Reuss Voigt Hill
#
# Bulk Modulus (GPa) = 54.28488 63.35576 58.82032
# Shear Modulus (GPa) = 39.86703 43.62110 41.74406
#
# Velocity S-wave (km/s) = 4.28728 4.48460 4.38705
# Velocity P-wave (km/s) = 7.03817 7.48504 7.26504
#
# Compressibility (1/GPa) = 0.01842133
#
# Stress axis : x y z
#
# Youngs Moduli (GPa) = 96.34499 81.21016 104.17950
#
# Poissons Ratio (x) = 0.13590 0.19772
# Poissons Ratio (y) = 0.16122 0.35046
# Poissons Ratio (z) = 0.18285 0.27319
#
# Static dielectric constant tensor:
#      x y z
#    x 3.732460 -0.555190 -0.260780 
#    y -0.555190 4.038430 -0.444090 
#    z -0.260780 -0.444090 4.183500 
# 
# 
# High freq. dielectric constant tensor:
#      x y z
#    x 1.859570 -0.013870 -0.007110 
#    y -0.013870 1.861890 -0.012250 
#    z -0.007110 -0.012250 1.869400 
# 
# From -- ./inp_files/90045.got.cif
#   From: 2010.06.25/outbox.cif.g09.slc.cpg/sg2_46_cif.got.tgz:90045.got - 2010.06.27 13:26:56.
