data_PCOD8025508
_publ_section_title
;
Structure prediction by ZEFSAII (Michael W. Deem and Ramdas Pophale) SiO2 
 PCOD8025508
Probable space group: P -1
;
_chemical_formula_sum "Si O2"
_cell_formula_units_Z 16
_cell_length_a 12.224935
_cell_length_b 8.451321
_cell_length_c 20.018088
_cell_angle_alpha 43.872293
_cell_angle_beta 30.924113
_cell_angle_gamma 52.274221
_cell_volume 736.491942
_symmetry_space_group_name_H-M "P -1"
_symmetry_group_IT_number 2
_symmetry_cell_setting 'triclinic'
loop_
_space_group_symop_operation_xyz
x,y,z
-x,-y,-z
loop_
_atom_site_type_symbol
_atom_site_label
_atom_site_fract_x
_atom_site_fract_y
_atom_site_fract_z
Si Si1 0.343778 0.785988 0.654011
Si Si2 0.684612 0.927089 0.152954
Si Si3 0.636115 0.389149 0.654746
Si Si4 0.933347 0.954578 0.886385
Si Si5 0.268886 0.488231 0.656259
Si Si6 0.528624 0.599932 0.881059
Si Si7 0.011779 0.521922 0.323051
Si Si8 0.541982 0.758815 0.080615
O O1 0.476857 0.597177 0.678388
O O2 0.161195 0.857397 0.778823
O O3 0.252176 0.684342 0.662446
O O4 0.500000 0.000000 0.500000
O O5 0.471444 0.814627 0.268309
O O6 0.763888 0.771076 0.220334
O O7 0.603513 0.177841 0.136449
O O8 0.888818 0.949848 0.990395
O O9 0.656200 0.311745 0.745048
O O10 0.858932 0.461264 0.483432
O O11 0.913902 0.213311 0.790580
O O12 0.761866 0.778346 0.999435
O O13 0.500000 0.500000 0.500000
O O14 0.096427 0.530551 0.676006
O O15 0.782768 0.635566 0.727010
O O16 0.425952 0.417129 0.941220
O O17 0.500000 0.500000 0.000000
O O18 0.500000 0.000000 0.000000
#
# Coordination Sequence:
#
# PCOD8025508 Si02
#       8
#     2   2   2   2   2   2   2   2
#     4  11  22  41  70 103 138 176 227 280 343 403
#     4  10  23  45  68  98 142 180 226 282 337 408
#     4  10  23  45  68  98 139 175 223 288 332 412
#     4  11  23  43  71  96 136 181 228 282 339 403
#     4  11  23  44  69 101 144 177 221 289 341 405
#     4  12  25  45  70 102 137 181 230 284 340 409
#     4  12  23  45  71 100 140 179 225 285 345 401
#     4  11  24  46  68  94 135 182 227 279 337 404
#
# _framework density 21.724609000000001
#
# number of rings (size 3 to 8) (size 9 to 14) (size 15 to 20)
#    0.000    1.000    6.250    0.750    1.750    8.000 
#    0.000    0.000    0.000    0.000    0.000    0.000 
#    0.000    0.000    0.000    0.000    0.000    0.000 
#
# Total GULP energy -198352.617568 kJ/mol
# GULP energy per Si atom -12397.038598 kJ/mol
# Density = 2.167516 g / cm^3
# Si number density = 21.724609 Si / 1000 Ang^3
#
#
#
# Elastic Constant Matrix: (Units=GPa)
#
#
# Indices 1 2 3 4 5 6 
#
# 1 82.4660 45.6720 46.9645 -3.4573 10.7710 7.4806
# 2 45.6720 150.2296 62.1046 4.7787 5.4397 8.7122
# 3 46.9645 62.1046 163.1462 14.0464 21.7674 7.2020
# 4 -3.4573 4.7787 14.0464 49.7773 -0.8934 -6.0354
# 5 10.7710 5.4397 21.7674 -0.8934 40.6082 -1.6802
# 6 7.4806 8.7122 7.2020 -6.0354 -1.6802 26.2192
#
#
#
# Elastic Compliance Matrix: (Units=1/GPa)
#
#
# Indices 1 2 3 4 5 6 
#
# 1 0.016489 -0.003552 -0.003169 0.002058 -0.002250 -0.002324
# 2 -0.003552 0.008761 -0.002331 -0.000574 0.000951 -0.001329
# 3 -0.003169 -0.002331 0.008719 -0.002713 -0.003645 -0.001574
# 4 0.002058 -0.000574 -0.002713 0.021746 0.001690 0.005463
# 5 -0.002250 0.000951 -0.003645 0.001690 0.027229 0.003461
# 6 -0.002324 -0.001329 -0.001574 0.005463 0.003461 0.041156
#
#
# Mechanical properties :
#
#
# Convention : Reuss Voigt Hill
#
# Bulk Modulus (GPa) = 63.03540 78.36932 70.70236
# Shear Modulus (GPa) = 33.89995 39.39432 36.64714
#
# Velocity S-wave (km/s) = 3.95453 4.26296 4.11164
# Velocity P-wave (km/s) = 7.06609 7.77064 7.42672
#
# Compressibility (1/GPa) = 0.01586410
#
# Stress axis : x y z
#
# Youngs Moduli (GPa) = 60.64585 114.14221 114.69761
#
# Poissons Ratio (x) = 0.40545 0.36347
# Poissons Ratio (y) = 0.21542 0.26739
# Poissons Ratio (z) = 0.19218 0.26610
#
# Static dielectric constant tensor:
#      x y z
#    x 4.471690 0.134620 -0.033320 
#    y 0.134620 3.869500 0.079790 
#    z -0.033320 0.079790 4.046620 
# 
# 
# High freq. dielectric constant tensor:
#      x y z
#    x 1.848800 0.009890 0.003970 
#    y 0.009890 1.852990 -0.003970 
#    z 0.003970 -0.003970 1.873620 
# 
# From -- ./inp_files/593937.got.cif
#   From: 2010.06.25/outbox.cif.g09.slc.cpg/sg2_297_cif.got.tgz:593937.got - 2010.06.27 13:26:56.
