data_PCOD8025990
_publ_section_title
;
Structure prediction by ZEFSAII (Michael W. Deem and Ramdas Pophale) SiO2 
 PCOD8025990
Probable space group: P -1
;
_chemical_formula_sum "Si O2"
_cell_formula_units_Z 16
_cell_length_a 16.525297
_cell_length_b 9.012190
_cell_length_c 8.461283
_cell_angle_alpha 70.106528
_cell_angle_beta 99.525679
_cell_angle_gamma 142.746135
_cell_volume 704.905054
_symmetry_space_group_name_H-M "P -1"
_symmetry_group_IT_number 2
_symmetry_cell_setting 'triclinic'
loop_
_space_group_symop_operation_xyz
x,y,z
-x,-y,-z
loop_
_atom_site_type_symbol
_atom_site_label
_atom_site_fract_x
_atom_site_fract_y
_atom_site_fract_z
Si Si1 0.628282 0.887177 0.688915
Si Si2 0.376959 0.669058 0.833174
Si Si3 0.877057 0.468729 0.642397
Si Si4 0.898124 0.811568 0.678009
Si Si5 0.925521 0.434066 0.158793
Si Si6 0.908752 0.707429 0.242287
Si Si7 0.371590 0.468720 0.215930
Si Si8 0.376066 0.033464 0.699231
O O1 0.482400 0.730763 0.743947
O O2 0.637192 0.716719 0.798545
O O3 0.650597 0.942073 0.491510
O O4 0.745398 0.155912 0.726399
O O5 0.230499 0.416421 0.797825
O O6 0.419816 0.917822 0.752088
O O7 0.374451 0.607799 0.034192
O O8 0.862818 0.571891 0.746229
O O9 0.884704 0.564875 0.441700
O O10 0.014021 0.578256 0.673816
O O11 0.760060 0.701109 0.654875
O O12 0.000000 0.000000 0.500000
O O13 0.973554 0.981171 0.803547
O O14 0.950424 0.656103 0.130523
O O15 0.765107 0.158142 0.183777
O O16 0.000000 0.500000 0.000000
O O17 0.507469 0.684490 0.285211
#
# Coordination Sequence:
#
# PCOD8025990 Si02
#       8
#     2   2   2   2   2   2   2   2
#     4  12  25  45  74 101 142 190 237 292 352 424
#     4  11  25  45  73 101 142 185 234 292 361 413
#     4  11  23  44  74  99 139 187 245 283 355 416
#     4  10  25  42  74 100 139 186 238 290 350 417
#     4  11  25  42  72 108 143 180 233 300 359 411
#     4  10  23  47  70 103 138 186 243 289 348 427
#     4  12  27  45  67 108 147 180 236 298 356 413
#     4  11  26  46  73 102 141 190 239 284 348 438
#
# _framework density 22.698093
#
# number of rings (size 3 to 8) (size 9 to 14) (size 15 to 20)
#    0.000    1.000    2.500    3.375   12.250    1.500 
#    4.500    0.000    0.000    0.000    0.000    0.000 
#    0.000    0.000    0.000    0.000    0.000    0.000 
#
# Total GULP energy -198465.666180 kJ/mol
# GULP energy per Si atom -12404.104136 kJ/mol
# Density = 2.264643 g / cm^3
# Si number density = 22.698093 Si / 1000 Ang^3
#
#
#
# Elastic Constant Matrix: (Units=GPa)
#
#
# Indices 1 2 3 4 5 6 
#
# 1 147.0870 68.4840 11.6982 -2.9576 -17.8090 13.8537
# 2 68.4840 192.8004 10.6115 13.3347 -11.9502 -6.2119
# 3 11.6982 10.6115 56.7534 1.9926 -10.6516 5.9524
# 4 -2.9576 13.3347 1.9926 23.9230 0.8895 -0.2120
# 5 -17.8090 -11.9502 -10.6516 0.8895 44.5724 -3.8611
# 6 13.8537 -6.2119 5.9524 -0.2120 -3.8611 43.3916
#
#
#
# Elastic Compliance Matrix: (Units=1/GPa)
#
#
# Indices 1 2 3 4 5 6 
#
# 1 0.009015 -0.003330 -0.000596 0.002910 0.002244 -0.003059
# 2 -0.003330 0.006795 -0.000545 -0.004158 0.000630 0.002147
# 3 -0.000596 -0.000545 0.018866 -0.001508 0.003970 -0.002130
# 4 0.002910 -0.004158 -0.001508 0.044642 -0.001309 -0.001216
# 5 0.002244 0.000630 0.003970 -0.001309 0.024563 0.001009
# 6 -0.003059 0.002147 -0.002130 -0.001216 0.001009 0.024706
#
#
# Mechanical properties :
#
#
# Convention : Reuss Voigt Hill
#
# Bulk Modulus (GPa) = 38.85798 64.24757 51.55278
# Shear Modulus (GPa) = 34.22137 42.76719 38.49428
#
# Velocity S-wave (km/s) = 3.88709 4.34542 4.12263
# Velocity P-wave (km/s) = 6.10759 7.31735 6.73967
#
# Compressibility (1/GPa) = 0.02573474
#
# Stress axis : x y z
#
# Youngs Moduli (GPa) = 110.92728 147.15799 53.00481
#
# Poissons Ratio (x) = 0.49006 0.03158
# Poissons Ratio (y) = 0.36940 0.02889
# Poissons Ratio (z) = 0.06608 0.08021
#
# Static dielectric constant tensor:
#      x y z
#    x 4.311390 -0.109950 0.041340 
#    y -0.109950 4.789780 0.097040 
#    z 0.041340 0.097040 3.859390 
# 
# 
# High freq. dielectric constant tensor:
#      x y z
#    x 1.909560 0.002470 0.000370 
#    y 0.002470 1.908030 0.004180 
#    z 0.000370 0.004180 1.884390 
# 
# From -- ./inp_files/297940.got.cif
#   From: 2010.06.25/outbox.cif.g09.slc.cpg/sg2_149_cif.got.tgz:297940.got - 2010.06.27 13:26:56.
