data_PCOD8025341
_publ_section_title
;
Structure prediction by ZEFSAII (Michael W. Deem and Ramdas Pophale) SiO2 
 PCOD8025341
Probable space group: P -1
;
_chemical_formula_sum "Si O2"
_cell_formula_units_Z 14
_cell_length_a 8.507699
_cell_length_b 17.851752
_cell_length_c 8.733072
_cell_angle_alpha 145.884011
_cell_angle_beta 73.408105
_cell_angle_gamma 123.074549
_cell_volume 583.062784
_symmetry_space_group_name_H-M "P -1"
_symmetry_group_IT_number 2
_symmetry_cell_setting 'triclinic'
loop_
_space_group_symop_operation_xyz
x,y,z
-x,-y,-z
loop_
_atom_site_type_symbol
_atom_site_label
_atom_site_fract_x
_atom_site_fract_y
_atom_site_fract_z
Si Si1 0.032938 0.099286 0.397305
Si Si2 0.309235 0.846199 0.374188
Si Si3 0.639944 0.627707 0.041501
Si Si4 0.921703 0.796304 0.763387
Si Si5 0.657844 0.413267 0.203264
Si Si6 0.215115 0.557050 0.467616
Si Si7 0.324145 0.843439 0.706251
O O1 0.213812 0.187877 0.620191
O O2 0.147481 0.175429 0.331974
O O3 0.876024 0.140309 0.553672
O O4 0.913147 0.901176 0.082760
O O5 0.380023 0.835054 0.503221
O O6 0.500000 0.000000 0.500000
O O7 0.233691 0.672388 0.024592
O O8 0.500000 0.500000 0.000000
O O9 0.520668 0.636438 0.946530
O O10 0.787981 0.586612 0.859199
O O11 0.804721 0.607090 0.510616
O O12 0.150979 0.869692 0.801822
O O13 0.609410 0.363184 0.312533
O O14 0.276973 0.686045 0.537785
O O15 0.000000 0.500000 0.500000
O O16 0.500000 0.000000 0.000000
#
# Coordination Sequence:
#
# PCOD8025341 Si02
#       7
#     2   2   2   2   2   2   2
#     4  10  24  46  75 109 150 194 250 317 384 453
#     4  11  26  49  76 113 151 198 255 323 382 463
#     4  12  26  45  77 113 151 197 262 317 385 458
#     4  10  23  44  74 108 146 194 249 310 381 452
#     4  12  25  47  74 109 153 199 253 313 386 454
#     4  12  26  47  73 111 155 203 260 316 384 462
#     4  11  25  43  78 106 151 200 255 313 389 455
#
# _framework density 24.011137000000002
#
# number of rings (size 3 to 8) (size 9 to 14) (size 15 to 20)
#    0.000    0.857    2.857    3.000    4.000    4.571 
#    0.000    1.429    0.000    0.000    0.000    0.000 
#    0.000    0.000    0.000    0.000    0.000    0.000 
#
# Total GULP energy -173489.815373 kJ/mol
# GULP energy per Si atom -12392.129669 kJ/mol
# Density = 2.395649 g / cm^3
# Si number density = 24.011137 Si / 1000 Ang^3
#
#
#
# Elastic Constant Matrix: (Units=GPa)
#
#
# Indices 1 2 3 4 5 6 
#
# 1 96.6510 49.1376 60.1859 -8.4164 13.0572 -11.3792
# 2 49.1376 126.2930 52.9803 -6.9204 5.5813 -20.4154
# 3 60.1859 52.9803 224.8526 -0.8603 -3.8664 -0.2584
# 4 -8.4164 -6.9204 -0.8603 37.9864 -5.0501 1.7225
# 5 13.0572 5.5813 -3.8664 -5.0501 50.2429 -8.9727
# 6 -11.3792 -20.4154 -0.2584 1.7225 -8.9727 36.8828
#
#
#
# Elastic Compliance Matrix: (Units=1/GPa)
#
#
# Indices 1 2 3 4 5 6 
#
# 1 0.015179 -0.004085 -0.003147 0.002046 -0.003258 0.001512
# 2 -0.004085 0.010934 -0.001461 0.000925 0.000704 0.004910
# 3 -0.003147 -0.001461 0.005649 -0.000625 0.001094 -0.001445
# 4 0.002046 0.000925 -0.000625 0.027197 0.002120 0.000384
# 5 -0.003258 0.000704 0.001094 0.002120 0.021789 0.004594
# 6 0.001512 0.004910 -0.001445 0.000384 0.004594 0.031387
#
#
# Mechanical properties :
#
#
# Convention : Reuss Voigt Hill
#
# Bulk Modulus (GPa) = 69.56686 85.82268 77.69477
# Shear Modulus (GPa) = 37.22616 44.05526 40.64071
#
# Velocity S-wave (km/s) = 3.94175 4.28809 4.11856
# Velocity P-wave (km/s) = 7.05352 7.76771 7.41921
#
# Compressibility (1/GPa) = 0.01437466
#
# Stress axis : x y z
#
# Youngs Moduli (GPa) = 65.87898 91.45880 177.02900
#
# Poissons Ratio (x) = 0.37364 0.55709
# Poissons Ratio (y) = 0.26914 0.25872
# Poissons Ratio (z) = 0.20731 0.13366
#
# Static dielectric constant tensor:
#      x y z
#    x 4.569300 -0.333980 -0.002820 
#    y -0.333980 4.407210 -0.316090 
#    z -0.002820 -0.316090 4.633830 
# 
# 
# High freq. dielectric constant tensor:
#      x y z
#    x 1.956890 -0.015900 -0.002860 
#    y -0.015900 1.947890 -0.012110 
#    z -0.002860 -0.012110 1.976250 
# 
# From -- ./inp_files/219016.got.cif
#   From: 2010.06.25/outbox.cif.g09.slc.cpg/sg2_110_cif.got.tgz:219016.got - 2010.06.27 13:26:56.
