data_PCOD8025668
_publ_section_title
;
Structure prediction by ZEFSAII (Michael W. Deem and Ramdas Pophale) SiO2 
 PCOD8025668
Probable space group: P -1
;
_chemical_formula_sum "Si O2"
_cell_formula_units_Z 16
_cell_length_a 8.385945
_cell_length_b 18.389049
_cell_length_c 12.706388
_cell_angle_alpha 151.994500
_cell_angle_beta 48.689059
_cell_angle_gamma 127.760172
_cell_volume 688.676081
_symmetry_space_group_name_H-M "P -1"
_symmetry_group_IT_number 2
_symmetry_cell_setting 'triclinic'
loop_
_space_group_symop_operation_xyz
x,y,z
-x,-y,-z
loop_
_atom_site_type_symbol
_atom_site_label
_atom_site_fract_x
_atom_site_fract_y
_atom_site_fract_z
Si Si1 0.806206 0.177276 0.557124
Si Si2 0.538857 0.320268 0.672944
Si Si3 0.852534 0.823148 0.027929
Si Si4 0.168051 0.394488 0.054932
Si Si5 0.818998 0.584667 0.349769
Si Si6 0.703798 0.128367 0.175469
Si Si7 0.489801 0.199662 0.145393
Si Si8 0.401667 0.709125 0.007437
O O1 0.650927 0.251945 0.638576
O O2 0.707644 0.182801 0.723648
O O3 0.038882 0.271720 0.581163
O O4 0.818289 0.000944 0.293567
O O5 0.652666 0.490732 0.817635
O O6 0.556135 0.218065 0.431480
O O7 0.287217 0.328404 0.816354
O O8 0.654538 0.725894 0.936227
O O9 0.909407 0.744968 0.012872
O O10 0.046881 0.814232 0.849437
O O11 0.964330 0.482694 0.226908
O O12 0.638062 0.650324 0.584821
O O13 0.699571 0.470379 0.167959
O O14 0.640723 0.157539 0.120566
O O15 0.679184 0.948210 0.988770
O O16 0.637063 0.232501 0.020147
#
# Coordination Sequence:
#
# PCOD8025668 Si02
#       8
#     2   2   2   2   2   2   2   2
#     4  11  24  46  74 106 143 180 235 293 354 410
#     4  10  23  45  72 104 141 181 234 294 345 411
#     4  12  25  44  73 109 139 184 240 286 349 417
#     4  10  24  44  70 107 140 181 236 286 350 418
#     4  11  25  49  71 101 147 189 229 285 356 423
#     4  11  26  46  73 100 144 189 234 289 349 416
#     4  11  26  48  68 106 143 187 235 287 352 417
#     4  12  26  42  75 105 141 183 235 291 351 411
#
# _framework density 23.232983999999998
#
# number of rings (size 3 to 8) (size 9 to 14) (size 15 to 20)
#    0.000    1.000    2.500    2.625    7.000    2.500 
#    0.000    1.250    0.000    0.000    0.000    0.000 
#    0.000    0.000    0.000    0.000    0.000    0.000 
#
# Total GULP energy -198447.254595 kJ/mol
# GULP energy per Si atom -12402.953412 kJ/mol
# Density = 2.318010 g / cm^3
# Si number density = 23.232984 Si / 1000 Ang^3
#
#
#
# Elastic Constant Matrix: (Units=GPa)
#
#
# Indices 1 2 3 4 5 6 
#
# 1 23.2383 16.9974 -1.0842 13.1626 7.7426 6.7214
# 2 16.9974 88.5813 21.7883 6.1536 4.2675 -2.5138
# 3 -1.0842 21.7883 85.4029 4.8379 1.0480 -11.0356
# 4 13.1626 6.1536 4.8379 41.1474 -4.8849 11.1448
# 5 7.7426 4.2675 1.0480 -4.8849 34.7265 2.9437
# 6 6.7214 -2.5138 -11.0356 11.1448 2.9437 31.1935
#
#
#
# Elastic Compliance Matrix: (Units=1/GPa)
#
#
# Indices 1 2 3 4 5 6 
#
# 1 0.072959 -0.012972 0.005061 -0.022666 -0.017572 -0.005219
# 2 -0.012972 0.014547 -0.003787 0.002109 0.001367 0.001745
# 3 0.005061 -0.003787 0.013680 -0.004318 -0.002123 0.005187
# 4 -0.022666 0.002109 -0.004318 0.035821 0.010836 -0.010294
# 5 -0.017572 0.001367 -0.002123 0.010836 0.034472 -0.003979
# 6 -0.005219 0.001745 0.005187 -0.010294 -0.003979 0.039212
#
#
# Mechanical properties :
#
#
# Convention : Reuss Voigt Hill
#
# Bulk Modulus (GPa) = 12.85484 30.29172 21.57328
# Shear Modulus (GPa) = 19.22956 32.04821 25.63888
#
# Velocity S-wave (km/s) = 2.88007 3.71809 3.32558
# Velocity P-wave (km/s) = 4.07489 5.61238 4.90426
#
# Compressibility (1/GPa) = 0.07779174
#
# Stress axis : x y z
#
# Youngs Moduli (GPa) = 13.70624 68.74433 73.09694
#
# Poissons Ratio (x) = 0.89172 -0.36993
# Poissons Ratio (y) = 0.17779 0.27679
# Poissons Ratio (z) = -0.06936 0.26031
#
# Static dielectric constant tensor:
#      x y z
#    x 3.991150 0.180770 0.002350 
#    y 0.180770 4.471320 0.103920 
#    z 0.002350 0.103920 4.160510 
# 
# 
# High freq. dielectric constant tensor:
#      x y z
#    x 1.909140 0.008360 -0.003750 
#    y 0.008360 1.934190 0.002900 
#    z -0.003750 0.002900 1.921350 
# 
# From -- ./inp_files/403495.got.cif
#   From: 2010.06.25/outbox.cif.g09.slc.cpg/sg2_202_cif.got.tgz:403495.got - 2010.06.27 13:26:56.
