data_PCOD8025865
_publ_section_title
;
Structure prediction by ZEFSAII (Michael W. Deem and Ramdas Pophale) SiO2 
 PCOD8025865
Probable space group: P -1
;
_chemical_formula_sum "Si O2"
_cell_formula_units_Z 14
_cell_length_a 11.531717
_cell_length_b 10.984652
_cell_length_c 5.144218
_cell_angle_alpha 87.938324
_cell_angle_beta 131.174702
_cell_angle_gamma 85.831937
_cell_volume 486.127482
_symmetry_space_group_name_H-M "P -1"
_symmetry_group_IT_number 2
_symmetry_cell_setting 'triclinic'
loop_
_space_group_symop_operation_xyz
x,y,z
-x,-y,-z
loop_
_atom_site_type_symbol
_atom_site_label
_atom_site_fract_x
_atom_site_fract_y
_atom_site_fract_z
Si Si1 0.298223 0.274881 0.479218
Si Si2 0.352950 0.021561 0.462423
Si Si3 0.032637 0.075429 0.793868
Si Si4 0.009786 0.391543 0.820512
Si Si5 0.425650 0.651732 0.351439
Si Si6 0.737264 0.528834 0.171644
Si Si7 0.276255 0.772475 0.622065
O O1 0.366044 0.135819 0.672854
O O2 0.392850 0.322134 0.362664
O O3 0.343221 0.370364 0.756668
O O4 0.112782 0.279883 0.139763
O O5 0.500000 0.000000 0.500000
O O6 0.316407 0.905562 0.579323
O O7 0.216021 0.083865 0.061690
O O8 0.917121 0.207694 0.624103
O O9 0.000000 0.000000 0.500000
O O10 0.000000 0.000000 0.000000
O O11 0.116531 0.417127 0.734895
O O12 0.825371 0.399286 0.450779
O O13 0.000000 0.500000 0.000000
O O14 0.333676 0.677346 0.481875
O O15 0.396413 0.514495 0.210907
O O16 0.358824 0.747946 0.021712
#
# Coordination Sequence:
#
# PCOD8025865 Si02
#       7
#     2   2   2   2   2   2   2
#     4  11  25  44  70 109 140 196 238 307 373 430
#     4  11  24  48  72 108 152 191 244 307 363 444
#     4  10  23  46  71 100 140 192 246 291 354 430
#     4   9  22  45  69 104 141 182 246 294 375 429
#     4  12  27  45  78 104 150 190 247 305 368 439
#     4  10  24  45  73 105 141 192 243 309 365 444
#     4  11  26  48  72 110 145 200 246 298 370 438
#
# _framework density 28.799029000000001
#
# number of rings (size 3 to 8) (size 9 to 14) (size 15 to 20)
#    0.000    1.429    1.429    2.143    8.000    3.429 
#   10.286    0.000    0.000    0.000    0.000    0.000 
#    0.000    0.000    0.000    0.000    0.000    0.000 
#
# Total GULP energy -173483.853945 kJ/mol
# GULP energy per Si atom -12391.703853 kJ/mol
# Density = 2.873348 g / cm^3
# Si number density = 28.799029 Si / 1000 Ang^3
#
#
#
# Elastic Constant Matrix: (Units=GPa)
#
#
# Indices 1 2 3 4 5 6 
#
# 1 145.1432 26.7188 43.0178 6.4906 13.7797 -20.0941
# 2 26.7188 163.8662 17.6264 7.7188 5.6123 -21.9217
# 3 43.0178 17.6264 131.5531 12.4890 20.3597 -14.6792
# 4 6.4906 7.7188 12.4890 23.1735 2.7671 -7.8260
# 5 13.7797 5.6123 20.3597 2.7671 57.0338 2.8278
# 6 -20.0941 -21.9217 -14.6792 -7.8260 2.8278 50.9967
#
#
#
# Elastic Compliance Matrix: (Units=1/GPa)
#
#
# Indices 1 2 3 4 5 6 
#
# 1 0.008088 -0.000739 -0.002095 0.000051 -0.001252 0.002343
# 2 -0.000739 0.006627 -0.000212 -0.001032 -0.000465 0.002363
# 3 -0.002095 -0.000212 0.009211 -0.003537 -0.002656 0.001339
# 4 0.000051 -0.001032 -0.003537 0.047538 -0.001248 0.005923
# 5 -0.001252 -0.000465 -0.002656 -0.001248 0.019024 -0.002704
# 6 0.002343 0.002363 0.001339 0.005923 -0.002704 0.022993
#
#
# Mechanical properties :
#
#
# Convention : Reuss Voigt Hill
#
# Bulk Modulus (GPa) = 56.08048 68.36538 62.22293
# Shear Modulus (GPa) = 39.83466 49.78743 44.81104
#
# Velocity S-wave (km/s) = 3.72317 4.16238 3.94889
# Velocity P-wave (km/s) = 6.16425 6.84769 6.51494
#
# Compressibility (1/GPa) = 0.01783152
#
# Stress axis : x y z
#
# Youngs Moduli (GPa) = 123.64244 150.90545 108.56146
#
# Poissons Ratio (x) = 0.11158 0.22747
# Poissons Ratio (y) = 0.09142 0.02307
# Poissons Ratio (z) = 0.25906 0.03206
#
# Static dielectric constant tensor:
#      x y z
#    x 5.861100 -0.088230 0.820890 
#    y -0.088230 6.039290 -0.615400 
#    z 0.820890 -0.615400 6.147060 
# 
# 
# High freq. dielectric constant tensor:
#      x y z
#    x 2.180180 0.003250 0.024970 
#    y 0.003250 2.217610 -0.020490 
#    z 0.024970 -0.020490 2.191360 
# 
# From -- ./inp_files/67387.got.cif
#   From: 2010.06.25/outbox.cif.g09.slc.cpg/sg2_34_cif.got.tgz:67387.got - 2010.06.27 13:26:56.
