data_PCOD8025753
_publ_section_title
;
Structure prediction by ZEFSAII (Michael W. Deem and Ramdas Pophale) SiO2 
 PCOD8025753
Probable space group: P -1
;
_chemical_formula_sum "Si O2"
_cell_formula_units_Z 16
_cell_length_a 11.283359
_cell_length_b 15.014380
_cell_length_c 9.605834
_cell_angle_alpha 152.920952
_cell_angle_beta 83.959822
_cell_angle_gamma 86.663713
_cell_volume 693.984871
_symmetry_space_group_name_H-M "P -1"
_symmetry_group_IT_number 2
_symmetry_cell_setting 'triclinic'
loop_
_space_group_symop_operation_xyz
x,y,z
-x,-y,-z
loop_
_atom_site_type_symbol
_atom_site_label
_atom_site_fract_x
_atom_site_fract_y
_atom_site_fract_z
Si Si1 0.322728 0.910997 0.940484
Si Si2 0.858081 0.877951 0.240237
Si Si3 0.687418 0.699247 0.383006
Si Si4 0.621632 0.800767 0.227106
Si Si5 0.097983 0.083454 0.024058
Si Si6 0.907101 0.494143 0.258331
Si Si7 0.241002 0.784715 0.045154
Si Si8 0.515069 0.497128 0.252850
O O1 0.441715 0.702127 0.633595
O O2 0.227773 0.912106 0.081740
O O3 0.368237 0.109042 0.235131
O O4 0.240571 0.942801 0.853860
O O5 0.731464 0.821998 0.141985
O O6 0.828831 0.073723 0.619297
O O7 0.913325 0.932277 0.163706
O O8 0.958270 0.681022 0.029861
O O9 0.681496 0.794257 0.363305
O O10 0.833180 0.573136 0.231427
O O11 0.598683 0.555542 0.203425
O O12 0.500000 0.000000 0.500000
O O13 0.590059 0.591337 0.917956
O O14 0.070691 0.322117 0.401142
O O15 0.000000 0.000000 0.000000
O O16 0.819639 0.395214 0.221691
O O17 0.391159 0.678240 0.905766
#
# Coordination Sequence:
#
# PCOD8025753 Si02
#       8
#     2   2   2   2   2   2   2   2
#     4  11  23  43  69  99 138 179 226 284 338 402
#     4  12  25  46  72  98 139 183 225 285 342 402
#     4  10  23  46  65 103 138 175 234 284 330 406
#     4  12  25  43  67 104 144 178 227 280 342 408
#     4  11  27  47  68 102 136 176 230 285 345 407
#     4  10  25  45  73  95 133 177 233 279 338 404
#     4  11  23  47  67 106 132 181 232 281 335 409
#     4  11  24  40  69 100 140 183 225 280 338 406
#
# _framework density 23.055257999999998
#
# number of rings (size 3 to 8) (size 9 to 14) (size 15 to 20)
#    0.000    1.000    2.500    2.625    5.250    2.500 
#    2.250    0.000    0.000    0.000    0.000    0.000 
#    0.000    0.000    0.000    0.000    0.000    0.000 
#
# Total GULP energy -198420.868802 kJ/mol
# GULP energy per Si atom -12401.304300 kJ/mol
# Density = 2.300278 g / cm^3
# Si number density = 23.055258 Si / 1000 Ang^3
#
#
#
# Elastic Constant Matrix: (Units=GPa)
#
#
# Indices 1 2 3 4 5 6 
#
# 1 99.7534 32.8102 52.8098 5.6078 -6.3256 3.2928
# 2 32.8102 118.2769 44.3838 -0.1120 -7.8367 -5.3715
# 3 52.8098 44.3838 122.7098 18.9525 -8.7996 -6.6324
# 4 5.6078 -0.1120 18.9525 30.8712 -0.5740 -2.4707
# 5 -6.3256 -7.8367 -8.7996 -0.5740 43.7978 14.5226
# 6 3.2928 -5.3715 -6.6324 -2.4707 14.5226 39.6147
#
#
#
# Elastic Compliance Matrix: (Units=1/GPa)
#
#
# Indices 1 2 3 4 5 6 
#
# 1 0.013593 -0.001794 -0.005337 0.000607 0.001499 -0.002778
# 2 -0.001794 0.010244 -0.003210 0.002419 0.000659 0.000910
# 3 -0.005337 -0.003210 0.012777 -0.006755 0.000639 0.001492
# 4 0.000607 0.002419 -0.006755 0.036563 -0.000946 0.001774
# 5 0.001499 0.000659 0.000639 -0.000946 0.026499 -0.009702
# 6 -0.002778 0.000910 0.001492 0.001774 -0.009702 0.029515
#
#
# Mechanical properties :
#
#
# Convention : Reuss Voigt Hill
#
# Bulk Modulus (GPa) = 62.77121 66.74973 64.76047
# Shear Modulus (GPa) = 32.21938 36.90583 34.56261
#
# Velocity S-wave (km/s) = 3.74235 4.00528 3.87605
# Velocity P-wave (km/s) = 6.77931 7.09962 6.94132
#
# Compressibility (1/GPa) = 0.01593087
#
# Stress axis : x y z
#
# Youngs Moduli (GPa) = 73.56642 97.61380 78.26371
#
# Poissons Ratio (x) = 0.17514 0.41773
# Poissons Ratio (y) = 0.13199 0.25126
# Poissons Ratio (z) = 0.39265 0.31338
#
# Static dielectric constant tensor:
#      x y z
#    x 4.248920 -0.036480 0.110960 
#    y -0.036480 4.115420 0.276200 
#    z 0.110960 0.276200 4.000240 
# 
# 
# High freq. dielectric constant tensor:
#      x y z
#    x 1.920870 -0.001370 0.006450 
#    y -0.001370 1.911890 0.024250 
#    z 0.006450 0.024250 1.903410 
# 
# From -- ./inp_files/274839.got.cif
#   From: 2010.06.25/outbox.cif.g09.slc.cpg/sg2_138_cif.got.tgz:274839.got - 2010.06.27 13:26:56.
