data_PCOD8025493
_publ_section_title
;
Structure prediction by ZEFSAII (Michael W. Deem and Ramdas Pophale) SiO2 
 PCOD8025493
Probable space group: P -1
;
_chemical_formula_sum "Si O2"
_cell_formula_units_Z 14
_cell_length_a 8.797969
_cell_length_b 8.776356
_cell_length_c 13.919819
_cell_angle_alpha 115.613039
_cell_angle_beta 129.115890
_cell_angle_gamma 53.994516
_cell_volume 671.364656
_symmetry_space_group_name_H-M "P -1"
_symmetry_group_IT_number 2
_symmetry_cell_setting 'triclinic'
loop_
_space_group_symop_operation_xyz
x,y,z
-x,-y,-z
loop_
_atom_site_type_symbol
_atom_site_label
_atom_site_fract_x
_atom_site_fract_y
_atom_site_fract_z
Si Si1 0.999993 0.304596 0.469900
Si Si2 0.592197 0.033554 0.446435
Si Si3 0.260791 0.664379 0.444381
Si Si4 0.488200 0.849476 0.025354
Si Si5 0.888626 0.241806 0.204028
Si Si6 0.240585 0.122904 0.173477
Si Si7 0.946532 0.527148 0.184135
O O1 0.811890 0.315632 0.468651
O O2 0.974213 0.201845 0.335679
O O3 0.000000 0.500000 0.500000
O O4 0.233716 0.173081 0.576746
O O5 0.728143 0.153750 0.546588
O O6 0.409174 0.136642 0.321399
O O7 0.500000 0.000000 0.500000
O O8 0.500000 0.500000 0.500000
O O9 0.093569 0.627254 0.300874
O O10 0.732243 0.680583 0.087253
O O11 0.370206 0.956322 0.105368
O O12 0.345212 0.757480 0.896237
O O13 0.500000 0.000000 0.000000
O O14 0.864275 0.449948 0.222246
O O15 0.064869 0.083750 0.157771
O O16 0.102452 0.336614 0.131002
#
# Coordination Sequence:
#
# PCOD8025493 Si02
#       7
#     2   2   2   2   2   2   2
#     4  12  23  42  68 105 135 176 226 280 352 413
#     4  12  23  42  69 101 137 177 219 277 352 413
#     4  12  23  42  67 102 139 174 222 285 346 413
#     4  12  27  42  69  98 130 182 236 281 330 396
#     4  10  23  46  64  94 136 178 226 274 340 405
#     4  10  23  45  68  95 136 176 226 275 340 403
#     4  10  23  46  67  94 136 175 224 281 339 401
#
# _framework density 20.853048000000001
#
# number of rings (size 3 to 8) (size 9 to 14) (size 15 to 20)
#    0.857    0.000    4.286    3.000    4.000    0.571 
#    0.000    0.000    0.000    0.000    0.000    0.000 
#    0.000    0.000    0.000    0.000    0.000    0.000 
#
# Total GULP energy -173475.131928 kJ/mol
# GULP energy per Si atom -12391.080852 kJ/mol
# Density = 2.080559 g / cm^3
# Si number density = 20.853048 Si / 1000 Ang^3
#
#
#
# Elastic Constant Matrix: (Units=GPa)
#
#
# Indices 1 2 3 4 5 6 
#
# 1 131.9473 44.4740 32.4851 -5.0530 10.8233 6.4236
# 2 44.4740 124.8847 29.2856 -25.2493 14.5516 -7.3828
# 3 32.4851 29.2856 87.0908 -11.8856 24.2284 -7.7298
# 4 -5.0530 -25.2493 -11.8856 37.0811 -2.9943 10.3195
# 5 10.8233 14.5516 24.2284 -2.9943 43.3006 6.5083
# 6 6.4236 -7.3828 -7.7298 10.3195 6.5083 45.9675
#
#
#
# Elastic Compliance Matrix: (Units=1/GPa)
#
#
# Indices 1 2 3 4 5 6 
#
# 1 0.009351 -0.003055 -0.002967 -0.001116 0.000592 -0.002130
# 2 -0.003055 0.010890 -0.001027 0.006260 -0.002021 0.000884
# 3 -0.002967 -0.001027 0.015832 0.002327 -0.008143 0.003542
# 4 -0.001116 0.006260 0.002327 0.033496 0.000088 -0.005979
# 5 0.000592 -0.002021 -0.008143 0.000088 0.029077 -0.005913
# 6 -0.002130 0.000884 0.003542 -0.005979 -0.005913 0.024969
#
#
# Mechanical properties :
#
#
# Convention : Reuss Voigt Hill
#
# Bulk Modulus (GPa) = 45.50728 61.82359 53.66543
# Shear Modulus (GPa) = 34.47380 41.11505 37.79443
#
# Velocity S-wave (km/s) = 4.07034 4.44515 4.26187
# Velocity P-wave (km/s) = 6.63027 7.48715 7.07170
#
# Compressibility (1/GPa) = 0.02197451
#
# Stress axis : x y z
#
# Youngs Moduli (GPa) = 106.93704 91.82992 63.16410
#
# Poissons Ratio (x) = 0.28055 0.18740
# Poissons Ratio (y) = 0.32670 0.06488
# Poissons Ratio (z) = 0.31727 0.09433
#
# Static dielectric constant tensor:
#      x y z
#    x 3.916250 -0.107080 0.166700 
#    y -0.107080 4.003600 -0.023870 
#    z 0.166700 -0.023870 3.763950 
# 
# 
# High freq. dielectric constant tensor:
#      x y z
#    x 1.822750 -0.004890 0.016550 
#    y -0.004890 1.820970 -0.010060 
#    z 0.016550 -0.010060 1.808120 
# 
# From -- ./inp_files/493485.got.cif
#   From: 2010.06.25/outbox.cif.g09.slc.cpg/sg2_247_cif.got.tgz:493485.got - 2010.06.27 13:26:56.
