data_PCOD8025921
_publ_section_title
;
Structure prediction by ZEFSAII (Michael W. Deem and Ramdas Pophale) SiO2 
 PCOD8025921
Probable space group: P -1
;
_chemical_formula_sum "Si O2"
_cell_formula_units_Z 16
_cell_length_a 8.678765
_cell_length_b 11.573552
_cell_length_c 14.807950
_cell_angle_alpha 37.099265
_cell_angle_beta 130.932204
_cell_angle_gamma 115.240720
_cell_volume 662.552759
_symmetry_space_group_name_H-M "P -1"
_symmetry_group_IT_number 2
_symmetry_cell_setting 'triclinic'
loop_
_space_group_symop_operation_xyz
x,y,z
-x,-y,-z
loop_
_atom_site_type_symbol
_atom_site_label
_atom_site_fract_x
_atom_site_fract_y
_atom_site_fract_z
Si Si1 0.145024 0.763064 0.335792
Si Si2 0.851565 0.271558 0.345719
Si Si3 0.842967 0.404226 0.939360
Si Si4 0.178552 0.519609 0.320381
Si Si5 0.675144 0.915302 0.048129
Si Si6 0.489765 0.858839 0.318876
Si Si7 0.159332 0.899239 0.730602
Si Si8 0.387092 0.510322 0.734593
O O1 0.160471 0.680050 0.291278
O O2 0.323908 0.896468 0.316471
O O3 0.208722 0.596327 0.539576
O O4 0.912735 0.880602 0.198229
O O5 0.823808 0.282099 0.220148
O O6 0.642763 0.367436 0.259421
O O7 0.019128 0.389229 0.370977
O O8 0.933143 0.043502 0.546931
O O9 0.895676 0.381092 0.867583
O O10 0.611547 0.538630 0.770113
O O11 0.825012 0.192230 0.106167
O O12 0.000000 0.500000 0.000000
O O13 0.405283 0.372971 0.496363
O O14 0.627734 0.714612 0.113763
O O15 0.500000 0.000000 0.000000
O O16 0.651179 0.086183 0.858649
O O17 0.659446 0.993323 0.299690
#
# Coordination Sequence:
#
# PCOD8025921 Si02
#       8
#     2   2   2   2   2   2   2   2
#     4  12  26  46  70 109 147 193 245 289 364 437
#     4  10  23  46  74 100 141 194 237 297 363 429
#     4  12  25  47  73 108 144 187 242 299 362 430
#     4  11  23  45  75 104 147 193 235 297 364 432
#     4  12  27  44  69 105 145 191 244 300 358 426
#     4  11  24  44  69 102 148 189 234 299 358 429
#     4  10  23  46  74 103 143 186 243 296 366 426
#     4  12  26  47  72 106 144 191 241 299 366 433
#
# _framework density 24.149018999999999
#
# number of rings (size 3 to 8) (size 9 to 14) (size 15 to 20)
#    0.000    0.750    5.000    1.875    5.250    0.500 
#    4.500    1.250    0.000    0.000    0.000    0.000 
#    0.000    0.000    0.000    0.000    0.000    0.000 
#
# Total GULP energy -198284.087743 kJ/mol
# GULP energy per Si atom -12392.755484 kJ/mol
# Density = 2.409405 g / cm^3
# Si number density = 24.149019 Si / 1000 Ang^3
#
#
#
# Elastic Constant Matrix: (Units=GPa)
#
#
# Indices 1 2 3 4 5 6 
#
# 1 110.8155 24.6167 42.2446 -12.4578 9.9332 -9.5430
# 2 24.6167 75.0698 23.0796 -5.5075 -0.4314 -10.3878
# 3 42.2446 23.0796 129.1378 10.7522 -7.0000 -13.1663
# 4 -12.4578 -5.5075 10.7522 25.0845 0.5792 1.8469
# 5 9.9332 -0.4314 -7.0000 0.5792 50.7925 7.3148
# 6 -9.5430 -10.3878 -13.1663 1.8469 7.3148 44.7248
#
#
#
# Elastic Compliance Matrix: (Units=1/GPa)
#
#
# Indices 1 2 3 4 5 6 
#
# 1 0.012389 -0.002023 -0.004388 0.007584 -0.003291 0.001107
# 2 -0.002023 0.015172 -0.002068 0.003041 -0.000138 0.002380
# 3 -0.004388 -0.002068 0.010434 -0.007273 0.002130 0.001607
# 4 0.007584 0.003041 -0.007273 0.047579 -0.002812 -0.001321
# 5 -0.003291 -0.000138 0.002130 -0.002812 0.021153 -0.003451
# 6 0.001107 0.002380 0.001607 -0.001321 -0.003451 0.024240
#
#
# Mechanical properties :
#
#
# Convention : Reuss Voigt Hill
#
# Bulk Modulus (GPa) = 47.53596 54.98944 51.26270
# Shear Modulus (GPa) = 32.27129 39.12582 35.69855
#
# Velocity S-wave (km/s) = 3.65956 4.02952 3.84899
# Velocity P-wave (km/s) = 6.13055 6.66856 6.40521
#
# Compressibility (1/GPa) = 0.02103671
#
# Stress axis : x y z
#
# Youngs Moduli (GPa) = 80.71566 65.91242 95.84391
#
# Poissons Ratio (x) = 0.13333 0.42060
# Poissons Ratio (y) = 0.16327 0.19818
# Poissons Ratio (z) = 0.35421 0.13629
#
# Static dielectric constant tensor:
#      x y z
#    x 4.599950 0.126320 0.038880 
#    y 0.126320 4.125610 0.019730 
#    z 0.038880 0.019730 4.655910 
# 
# 
# High freq. dielectric constant tensor:
#      x y z
#    x 1.971440 0.010950 -0.002820 
#    y 0.010950 1.937340 0.007350 
#    z -0.002820 0.007350 1.966580 
# 
# From -- ./inp_files/499937.got.cif
#   From: 2010.06.25/outbox.cif.g09.slc.cpg/sg2_250_cif.got.tgz:499937.got - 2010.06.27 13:26:56.
