data_PCOD8025928
_publ_section_title
;
Structure prediction by ZEFSAII (Michael W. Deem and Ramdas Pophale) SiO2 
 PCOD8025928
Probable space group: P -1
;
_chemical_formula_sum "Si O2"
_cell_formula_units_Z 14
_cell_length_a 26.378081
_cell_length_b 8.965073
_cell_length_c 5.308265
_cell_angle_alpha 83.808038
_cell_angle_beta 87.882603
_cell_angle_gamma 30.158475
_cell_volume 622.980568
_symmetry_space_group_name_H-M "P -1"
_symmetry_group_IT_number 2
_symmetry_cell_setting 'triclinic'
loop_
_space_group_symop_operation_xyz
x,y,z
-x,-y,-z
loop_
_atom_site_type_symbol
_atom_site_label
_atom_site_fract_x
_atom_site_fract_y
_atom_site_fract_z
Si Si1 0.202849 0.836402 0.575139
Si Si2 0.121540 0.200353 0.025749
Si Si3 0.878781 0.470918 0.897636
Si Si4 0.305981 0.146400 0.385055
Si Si5 0.409671 0.844514 0.908468
Si Si6 0.597512 0.834025 0.400773
Si Si7 0.929436 0.095594 0.305504
O O1 0.323424 0.494814 0.653836
O O2 0.164090 0.026843 0.788824
O O3 0.145036 0.827269 0.558969
O O4 0.176902 0.985946 0.294377
O O5 0.154805 0.287670 0.017065
O O6 0.000000 0.500000 0.000000
O O7 0.814335 0.582453 0.642479
O O8 0.997690 0.178069 0.856251
O O9 0.857741 0.396069 0.120344
O O10 0.338860 0.237415 0.383693
O O11 0.353835 0.930674 0.648294
O O12 0.340179 0.998504 0.134923
O O13 0.438163 0.950215 0.842838
O O14 0.500000 0.500000 0.000000
O O15 0.500000 0.000000 0.500000
O O16 0.000000 0.000000 0.500000
#
# Coordination Sequence:
#
# PCOD8025928 Si02
#       7
#     2   2   2   2   2   2   2
#     4  12  27  47  73 103 150 190 240 301 358 428
#     4  12  27  48  70 106 150 193 241 293 363 426
#     4  11  25  43  69 107 140 190 236 299 347 444
#     4  10  24  43  73 102 140 177 241 290 359 423
#     4  10  23  46  74  99 143 180 241 304 362 424
#     4  10  26  48  75 105 144 188 245 296 368 430
#     4  11  24  41  75 101 144 190 244 284 367 420
#
# _framework density 22.472612000000002
#
# number of rings (size 3 to 8) (size 9 to 14) (size 15 to 20)
#    0.857    0.286    1.429    3.429   10.000    1.714 
#    2.571    0.000    0.000    0.000    0.000    0.000 
#    0.000    0.000    0.000    0.000    0.000    0.000 
#
# Total GULP energy -173500.947117 kJ/mol
# GULP energy per Si atom -12392.924794 kJ/mol
# Density = 2.242146 g / cm^3
# Si number density = 22.472612 Si / 1000 Ang^3
#
#
#
# Elastic Constant Matrix: (Units=GPa)
#
#
# Indices 1 2 3 4 5 6 
#
# 1 114.8597 51.7221 25.4244 -4.1993 7.3000 0.9984
# 2 51.7221 148.7411 51.4624 -17.9451 -7.2348 2.2448
# 3 25.4244 51.4624 138.2493 -17.2545 5.2178 6.8824
# 4 -4.1993 -17.9451 -17.2545 41.1958 0.4476 -6.7257
# 5 7.3000 -7.2348 5.2178 0.4476 31.1098 -5.2931
# 6 0.9984 2.2448 6.8824 -6.7257 -5.2931 32.3602
#
#
#
# Elastic Compliance Matrix: (Units=1/GPa)
#
#
# Indices 1 2 3 4 5 6 
#
# 1 0.010728 -0.003819 -0.000494 -0.000854 -0.003429 -0.000699
# 2 -0.003819 0.009475 -0.002679 0.002774 0.003716 0.001215
# 3 -0.000494 -0.002679 0.008763 0.002221 -0.002277 -0.001573
# 4 -0.000854 0.002774 0.002221 0.027158 0.000961 0.005163
# 5 -0.003429 0.003716 -0.002277 0.000961 0.035253 0.006298
# 6 -0.000699 0.001215 -0.001573 0.005163 0.006298 0.033277
#
#
# Mechanical properties :
#
#
# Convention : Reuss Voigt Hill
#
# Bulk Modulus (GPa) = 66.74519 73.22977 69.98748
# Shear Modulus (GPa) = 34.81116 39.14924 36.98020
#
# Velocity S-wave (km/s) = 3.94006 4.17836 4.06096
# Velocity P-wave (km/s) = 7.10380 7.47899 7.29381
#
# Compressibility (1/GPa) = 0.01498235
#
# Stress axis : x y z
#
# Youngs Moduli (GPa) = 93.21344 105.53971 114.11840
#
# Poissons Ratio (x) = 0.40305 0.05633
# Poissons Ratio (y) = 0.35598 0.30575
# Poissons Ratio (z) = 0.04601 0.28277
#
# Static dielectric constant tensor:
#      x y z
#    x 3.906060 0.029200 -0.029350 
#    y 0.029200 4.517710 0.262360 
#    z -0.029350 0.262360 4.211610 
# 
# 
# High freq. dielectric constant tensor:
#      x y z
#    x 1.875860 0.002740 0.001070 
#    y 0.002740 1.895940 0.000540 
#    z 0.001070 0.000540 1.891340 
# 
# From -- ./inp_files/126274.got.cif
#   From: 2010.06.25/outbox.cif.g09.slc.cpg/sg2_64_cif.got.tgz:126274.got - 2010.06.27 13:26:56.
