data_PCOD8025699
_publ_section_title
;
Structure prediction by ZEFSAII (Michael W. Deem and Ramdas Pophale) SiO2 
 PCOD8025699
Probable space group: P -1
;
_chemical_formula_sum "Si O2"
_cell_formula_units_Z 12
_cell_length_a 12.272175
_cell_length_b 16.209078
_cell_length_c 5.072259
_cell_angle_alpha 110.870319
_cell_angle_beta 81.007734
_cell_angle_gamma 151.589754
_cell_volume 419.635452
_symmetry_space_group_name_H-M "P -1"
_symmetry_group_IT_number 2
_symmetry_cell_setting 'triclinic'
loop_
_space_group_symop_operation_xyz
x,y,z
-x,-y,-z
loop_
_atom_site_type_symbol
_atom_site_label
_atom_site_fract_x
_atom_site_fract_y
_atom_site_fract_z
Si Si1 0.968964 0.657488 0.363404
Si Si2 0.362085 0.814811 0.250243
Si Si3 0.659634 0.531016 0.900198
Si Si4 0.777599 0.907351 0.438488
Si Si5 0.878462 0.085512 0.103111
Si Si6 0.265847 0.649456 0.591787
O O1 0.771817 0.479815 0.453517
O O2 0.079217 0.649920 0.163694
O O3 0.192184 0.870782 0.677403
O O4 0.843882 0.635020 0.182591
O O5 0.397751 0.759594 0.385096
O O6 0.500000 0.000000 0.500000
O O7 0.427389 0.817434 0.945291
O O8 0.481369 0.322482 0.668310
O O9 0.826566 0.685061 0.768529
O O10 0.500000 0.500000 0.000000
O O11 0.808545 0.957899 0.182610
O O12 0.000000 0.000000 0.500000
O O13 0.773348 0.985415 0.741306
O O14 0.000000 0.500000 0.500000
#
# Coordination Sequence:
#
# PCOD8025699 Si02
#       6
#     2   2   2   2   2   2
#     4  11  26  47  74 108 150 194 252 306 376 449
#     4  11  25  47  75 107 147 187 245 312 375 448
#     4  12  28  50  78 109 159 206 247 316 376 440
#     4  12  27  48  76 104 148 203 259 309 373 440
#     4  12  27  49  73 112 150 195 262 309 370 449
#     4  10  23  45  74 100 140 192 237 298 382 438
#
# _framework density 28.596250000000001
#
# number of rings (size 3 to 8) (size 9 to 14) (size 15 to 20)
#    0.000    0.667    3.333    3.000    9.333    2.667 
#    3.000    0.000    0.000    0.000    0.000    0.000 
#    0.000    0.000    0.000    0.000    0.000    0.000 
#
# Total GULP energy -148753.168108 kJ/mol
# GULP energy per Si atom -12396.097342 kJ/mol
# Density = 2.853116 g / cm^3
# Si number density = 28.596250 Si / 1000 Ang^3
#
#
#
# Elastic Constant Matrix: (Units=GPa)
#
#
# Indices 1 2 3 4 5 6 
#
# 1 100.6392 12.5419 24.7337 -18.3998 0.2621 -12.8142
# 2 12.5419 155.8718 43.6067 -7.2822 2.4935 -21.5417
# 3 24.7337 43.6067 164.5117 11.3739 -2.9511 -4.8302
# 4 -18.3998 -7.2822 11.3739 66.5404 -6.5849 -7.1797
# 5 0.2621 2.4935 -2.9511 -6.5849 42.9269 -0.2604
# 6 -12.8142 -21.5417 -4.8302 -7.1797 -0.2604 36.7996
#
#
#
# Elastic Compliance Matrix: (Units=1/GPa)
#
#
# Indices 1 2 3 4 5 6 
#
# 1 0.011782 0.000500 -0.002044 0.004240 0.000439 0.004957
# 2 0.000500 0.007715 -0.002112 0.001830 -0.000287 0.004768
# 3 -0.002044 -0.002112 0.007056 -0.002129 0.000285 -0.001435
# 4 0.004240 0.001830 -0.002129 0.017626 0.002460 0.005724
# 5 0.000439 -0.000287 0.000285 0.002460 0.023710 0.000670
# 6 0.004957 0.004768 -0.001435 0.005724 0.000670 0.032625
#
#
# Mechanical properties :
#
#
# Convention : Reuss Voigt Hill
#
# Bulk Modulus (GPa) = 51.97059 64.75414 58.36236
# Shear Modulus (GPa) = 43.76786 51.92940 47.84863
#
# Velocity S-wave (km/s) = 3.91646 4.26602 4.09497
# Velocity P-wave (km/s) = 6.21811 6.85264 6.54307
#
# Compressibility (1/GPa) = 0.01924165
#
# Stress axis : x y z
#
# Youngs Moduli (GPa) = 84.87704 129.61522 141.72773
#
# Poissons Ratio (x) = -0.06480 0.28963
# Poissons Ratio (y) = -0.04243 0.29931
# Poissons Ratio (z) = 0.17345 0.27373
#
# Static dielectric constant tensor:
#      x y z
#    x 5.716710 0.464860 -0.393190 
#    y 0.464860 6.870200 0.042990 
#    z -0.393190 0.042990 5.835650 
# 
# 
# High freq. dielectric constant tensor:
#      x y z
#    x 2.174050 0.017660 -0.014670 
#    y 0.017660 2.199650 0.010940 
#    z -0.014670 0.010940 2.169000 
# 
# From -- ./inp_files/73506.got.cif
#   From: 2010.06.25/outbox.cif.g09.slc.cpg/sg2_37_cif.got.tgz:73506.got - 2010.06.27 13:26:56.
