data_PCOD8025819
_publ_section_title
;
Structure prediction by ZEFSAII (Michael W. Deem and Ramdas Pophale) SiO2 
 PCOD8025819
Probable space group: P -1
;
_chemical_formula_sum "Si O2"
_cell_formula_units_Z 16
_cell_length_a 9.094333
_cell_length_b 7.946965
_cell_length_c 23.840895
_cell_angle_alpha 118.949145
_cell_angle_beta 28.673820
_cell_angle_gamma 120.656552
_cell_volume 708.392194
_symmetry_space_group_name_H-M "P -1"
_symmetry_group_IT_number 2
_symmetry_cell_setting 'triclinic'
loop_
_space_group_symop_operation_xyz
x,y,z
-x,-y,-z
loop_
_atom_site_type_symbol
_atom_site_label
_atom_site_fract_x
_atom_site_fract_y
_atom_site_fract_z
Si Si1 0.169214 0.960469 0.832601
Si Si2 0.758771 0.658757 0.063756
Si Si3 0.211428 0.330364 0.581913
Si Si4 0.649047 0.079637 0.358191
Si Si5 0.215172 0.413565 0.265124
Si Si6 0.849910 0.713236 0.273916
Si Si7 0.469348 0.270747 0.963132
Si Si8 0.347992 0.643897 0.797519
O O1 0.354286 0.954371 0.712334
O O2 0.337229 0.853521 0.807143
O O3 0.175782 0.186354 0.882186
O O4 0.806874 0.853165 0.926752
O O5 0.514645 0.461029 0.131246
O O6 0.624291 0.773407 0.077252
O O7 0.071737 0.588510 0.927334
O O8 0.500000 0.500000 0.500000
O O9 0.314528 0.131537 0.495213
O O10 0.129175 0.330723 0.674845
O O11 0.917665 0.382530 0.654200
O O12 0.949347 0.242155 0.302021
O O13 0.650079 0.878096 0.357572
O O14 0.322898 0.350061 0.279851
O O15 0.686534 0.514695 0.265839
O O16 0.200996 0.790416 0.144517
O O17 0.500000 0.500000 0.000000
#
# Coordination Sequence:
#
# PCOD8025819 Si02
#       8
#     2   2   2   2   2   2   2   2
#     4  11  24  42  63  97 140 170 216 258 325 383
#     4  11  22  40  63  96 139 171 210 263 327 385
#     4  10  23  46  69  91 125 171 222 273 318 377
#     4  11  26  43  67  94 128 175 224 266 312 387
#     4  11  23  41  66  94 128 174 218 265 325 380
#     4  12  23  42  69  95 131 168 221 261 328 384
#     4  11  20  38  68  96 132 178 205 263 325 392
#     4  11  23  39  63  98 134 165 209 268 322 388
#
# _framework density 22.586355999999999
#
# number of rings (size 3 to 8) (size 9 to 14) (size 15 to 20)
#    0.000    1.000    3.750    5.250    3.500    0.500 
#    0.000    8.125    0.000    0.000    0.000    0.000 
#    0.000    0.000    0.000    0.000    0.000    0.000 
#
# Total GULP energy -198400.656232 kJ/mol
# GULP energy per Si atom -12400.041014 kJ/mol
# Density = 2.253495 g / cm^3
# Si number density = 22.586356 Si / 1000 Ang^3
#
#
#
# Elastic Constant Matrix: (Units=GPa)
#
#
# Indices 1 2 3 4 5 6 
#
# 1 101.1421 8.0333 42.0714 9.3036 -9.5718 -3.7812
# 2 8.0333 71.6394 22.3628 17.1730 2.0320 3.5789
# 3 42.0714 22.3628 92.0811 23.0955 1.2688 -0.6956
# 4 9.3036 17.1730 23.0955 36.0978 -3.4742 2.5625
# 5 -9.5718 2.0320 1.2688 -3.4742 34.0271 11.7389
# 6 -3.7812 3.5789 -0.6956 2.5625 11.7389 35.1067
#
#
#
# Elastic Compliance Matrix: (Units=1/GPa)
#
#
# Indices 1 2 3 4 5 6 
#
# 1 0.012709 0.000156 -0.006144 0.000973 0.003949 -0.000160
# 2 0.000156 0.016284 -0.002440 -0.006281 -0.001191 -0.000835
# 3 -0.006144 -0.002440 0.016381 -0.008208 -0.003626 0.001723
# 4 0.000973 -0.006281 -0.008208 0.036573 0.006114 -0.004131
# 5 0.003949 -0.001191 -0.003626 0.006114 0.035404 -0.011810
# 6 -0.000160 -0.000835 0.001723 -0.004131 -0.011810 0.032837
#
#
# Mechanical properties :
#
#
# Convention : Reuss Voigt Hill
#
# Bulk Modulus (GPa) = 35.06706 45.53306 40.30006
# Shear Modulus (GPa) = 28.32036 33.87267 31.09651
#
# Velocity S-wave (km/s) = 3.54484 3.87679 3.71453
# Velocity P-wave (km/s) = 5.68454 6.34371 6.02315
#
# Compressibility (1/GPa) = 0.02851679
#
# Stress axis : x y z
#
# Youngs Moduli (GPa) = 78.68648 61.40883 61.04487
#
# Poissons Ratio (x) = -0.00955 0.37506
# Poissons Ratio (y) = -0.01224 0.14897
# Poissons Ratio (z) = 0.48345 0.14986
#
# Static dielectric constant tensor:
#      x y z
#    x 4.209510 -0.057100 -0.315860 
#    y -0.057100 3.844920 0.089240 
#    z -0.315860 0.089240 4.334000 
# 
# 
# High freq. dielectric constant tensor:
#      x y z
#    x 1.891670 -0.005910 -0.004000 
#    y -0.005910 1.879510 0.009740 
#    z -0.004000 0.009740 1.890070 
# 
# From -- ./inp_files/307308.got.cif
#   From: 2010.06.25/outbox.cif.g09.slc.cpg/sg2_154_cif.got.tgz:307308.got - 2010.06.27 13:26:56.
