data_PCOD8025517
_publ_section_title
;
Structure prediction by ZEFSAII (Michael W. Deem and Ramdas Pophale) SiO2 
 PCOD8025517
Probable space group: P -1
;
_chemical_formula_sum "Si O2"
_cell_formula_units_Z 14
_cell_length_a 21.315905
_cell_length_b 17.983196
_cell_length_c 9.569640
_cell_angle_alpha 132.140114
_cell_angle_beta 37.955356
_cell_angle_gamma 162.063541
_cell_volume 631.124496
_symmetry_space_group_name_H-M "P -1"
_symmetry_group_IT_number 2
_symmetry_cell_setting 'triclinic'
loop_
_space_group_symop_operation_xyz
x,y,z
-x,-y,-z
loop_
_atom_site_type_symbol
_atom_site_label
_atom_site_fract_x
_atom_site_fract_y
_atom_site_fract_z
Si Si1 0.401678 0.777010 0.786314
Si Si2 0.875025 0.072916 0.660991
Si Si3 0.465841 0.766467 0.356018
Si Si4 0.619428 0.520981 0.222538
Si Si5 0.118829 0.719680 0.241479
Si Si6 0.668204 0.575864 0.890448
Si Si7 0.956797 0.710527 0.075402
O O1 0.444262 0.752209 0.542010
O O2 0.263425 0.578913 0.893851
O O3 0.693112 0.081463 0.707083
O O4 0.205260 0.691681 0.991127
O O5 0.842605 0.161591 0.796297
O O6 0.034758 0.163094 0.369494
O O7 0.039921 0.218511 0.700511
O O8 0.589963 0.760171 0.783370
O O9 0.487077 0.670423 0.153892
O O10 0.193999 0.569120 0.519536
O O11 0.746118 0.069901 0.192188
O O12 0.500000 0.500000 0.500000
O O13 0.882977 0.715515 0.081618
O O14 0.699118 0.636460 0.075202
O O15 0.500000 0.500000 0.000000
#
# Coordination Sequence:
#
# PCOD8025517 Si02
#       7
#     2   2   2   2   2   2   2
#     4  11  23  45  70 101 139 184 226 281 342 404
#     4  11  24  46  69  95 142 178 225 282 336 410
#     4  11  25  41  69  99 140 174 233 281 338 406
#     4  12  28  44  69 102 138 177 231 282 341 406
#     4  10  23  45  69 100 142 181 226 280 342 403
#     4  11  25  45  70  96 134 181 224 281 341 404
#     4  12  25  42  71 101 134 183 226 281 340 402
#
# _framework density 22.182628999999999
#
# number of rings (size 3 to 8) (size 9 to 14) (size 15 to 20)
#    0.000    0.857    5.714    1.286    6.000    2.286 
#    0.000    1.429    0.000    0.000    0.000    0.000 
#    0.000    0.000    0.000    0.000    0.000    0.000 
#
# Total GULP energy -173606.824767 kJ/mol
# GULP energy per Si atom -12400.487483 kJ/mol
# Density = 2.213214 g / cm^3
# Si number density = 22.182629 Si / 1000 Ang^3
#
#
#
# Elastic Constant Matrix: (Units=GPa)
#
#
# Indices 1 2 3 4 5 6 
#
# 1 132.5384 20.4978 64.7904 3.1904 5.4064 24.4606
# 2 20.4978 66.5295 31.1018 -16.6827 8.5198 18.0602
# 3 64.7904 31.1018 123.5422 -10.8880 14.6801 9.6778
# 4 3.1904 -16.6827 -10.8880 42.0028 1.9829 -0.3669
# 5 5.4064 8.5198 14.6801 1.9829 30.5733 1.7678
# 6 24.4606 18.0602 9.6778 -0.3669 1.7678 29.4039
#
#
#
# Elastic Compliance Matrix: (Units=1/GPa)
#
#
# Indices 1 2 3 4 5 6 
#
# 1 0.012037 0.000750 -0.006192 -0.002357 0.001283 -0.008542
# 2 0.000750 0.022695 -0.003865 0.008049 -0.004376 -0.012928
# 3 -0.006192 -0.003865 0.012764 0.002480 -0.004327 0.003615
# 4 -0.002357 0.008049 0.002480 0.028018 -0.004651 -0.003170
# 5 0.001283 -0.004376 -0.004327 -0.004651 0.036033 0.000820
# 6 -0.008542 -0.012928 0.003615 -0.003170 0.000820 0.047777
#
#
# Mechanical properties :
#
#
# Convention : Reuss Voigt Hill
#
# Bulk Modulus (GPa) = 34.62395 61.71000 48.16697
# Shear Modulus (GPa) = 26.65729 34.14400 30.40065
#
# Velocity S-wave (km/s) = 3.47034 3.92755 3.70600
# Velocity P-wave (km/s) = 5.63029 6.96039 6.33037
#
# Compressibility (1/GPa) = 0.02888174
#
# Stress axis : x y z
#
# Youngs Moduli (GPa) = 83.07640 44.06348 78.34263
#
# Poissons Ratio (x) = -0.03305 0.48514
# Poissons Ratio (y) = -0.06231 0.30277
# Poissons Ratio (z) = 0.51445 0.17029
#
# Static dielectric constant tensor:
#      x y z
#    x 4.007720 0.145090 -0.005900 
#    y 0.145090 4.178160 -0.114260 
#    z -0.005900 -0.114260 4.125490 
# 
# 
# High freq. dielectric constant tensor:
#      x y z
#    x 1.866110 0.013760 0.000740 
#    y 0.013760 1.882580 -0.001430 
#    z 0.000740 -0.001430 1.872450 
# 
# From -- ./inp_files/337940.got.cif
#   From: 2010.06.25/outbox.cif.g09.slc.cpg/sg2_169_cif.got.tgz:337940.got - 2010.06.27 13:26:56.
