data_PCOD8025546
_publ_section_title
;
Structure prediction by ZEFSAII (Michael W. Deem and Ramdas Pophale) SiO2 
 PCOD8025546
Probable space group: P -1
;
_chemical_formula_sum "Si O2"
_cell_formula_units_Z 16
_cell_length_a 11.875395
_cell_length_b 8.893486
_cell_length_c 15.370859
_cell_angle_alpha 104.436154
_cell_angle_beta 152.642753
_cell_angle_gamma 79.101753
_cell_volume 720.534244
_symmetry_space_group_name_H-M "P -1"
_symmetry_group_IT_number 2
_symmetry_cell_setting 'triclinic'
loop_
_space_group_symop_operation_xyz
x,y,z
-x,-y,-z
loop_
_atom_site_type_symbol
_atom_site_label
_atom_site_fract_x
_atom_site_fract_y
_atom_site_fract_z
Si Si1 0.972106 0.813023 0.095806
Si Si2 0.254862 0.320260 0.907587
Si Si3 0.621549 0.238888 0.752115
Si Si4 0.979160 0.045000 0.591270
Si Si5 0.562397 0.906838 0.709122
Si Si6 0.335128 0.845197 0.885286
Si Si7 0.229108 0.666215 0.956151
Si Si8 0.227007 0.157355 0.331587
O O1 0.904012 0.720001 0.122329
O O2 0.163088 0.710392 0.160942
O O3 0.720759 0.809519 0.868262
O O4 0.090255 0.985781 0.225256
O O5 0.220994 0.496913 0.881611
O O6 0.154485 0.202640 0.745937
O O7 0.547542 0.290131 0.111659
O O8 0.360834 0.211542 0.521109
O O9 0.700644 0.078117 0.825810
O O10 0.614299 0.348963 0.848445
O O11 0.710744 0.086101 0.442117
O O12 0.000000 0.000000 0.500000
O O13 0.061635 0.892058 0.679126
O O14 0.568009 0.841248 0.604345
O O15 0.341660 0.795035 0.983866
O O16 0.500000 0.000000 0.000000
O O17 0.957078 0.712422 0.800382
#
# Coordination Sequence:
#
# PCOD8025546 Si02
#       8
#     2   2   2   2   2   2   2   2
#     4  11  20  42  66  96 134 176 225 265 329 384
#     4  11  25  43  65  94 139 176 214 282 330 396
#     4  11  22  37  70  99 133 176 216 276 323 394
#     4  11  24  42  69 100 123 173 235 274 325 391
#     4  11  20  38  69  98 132 169 230 282 312 386
#     4  10  23  45  69  90 127 177 223 275 321 385
#     4  12  24  44  65 102 140 172 215 268 346 392
#     4  11  21  42  66 102 132 173 221 273 328 393
#
# _framework density 22.205746000000001
#
# number of rings (size 3 to 8) (size 9 to 14) (size 15 to 20)
#    0.000    1.000    2.500    7.125    3.500    0.500 
#    4.500    1.875    0.000    0.000    0.000    0.000 
#    0.000    0.000    0.000    0.000    0.000    0.000 
#
# Total GULP energy -198287.731436 kJ/mol
# GULP energy per Si atom -12392.983215 kJ/mol
# Density = 2.215520 g / cm^3
# Si number density = 22.205746 Si / 1000 Ang^3
#
#
#
# Elastic Constant Matrix: (Units=GPa)
#
#
# Indices 1 2 3 4 5 6 
#
# 1 142.2004 42.7861 53.2661 0.4750 -3.1544 -7.1376
# 2 42.7861 101.0817 34.1945 -2.3081 -2.0216 -10.0005
# 3 53.2661 34.1945 108.5055 -3.8592 -8.6147 3.4139
# 4 0.4750 -2.3081 -3.8592 20.2372 -11.1565 -2.0031
# 5 -3.1544 -2.0216 -8.6147 -11.1565 43.2697 -7.5424
# 6 -7.1376 -10.0005 3.4139 -2.0031 -7.5424 22.0383
#
#
#
# Elastic Compliance Matrix: (Units=1/GPa)
#
#
# Indices 1 2 3 4 5 6 
#
# 1 0.009363 -0.002409 -0.003956 -0.001042 -0.000061 0.002436
# 2 -0.002409 0.012530 -0.002749 0.002415 0.001545 0.006080
# 3 -0.003956 -0.002749 0.012419 0.003050 0.002248 -0.003406
# 4 -0.001042 0.002415 0.003050 0.061844 0.018737 0.012320
# 5 -0.000061 0.001545 0.002248 0.018737 0.030640 0.012522
# 6 0.002436 0.006080 -0.003406 0.012320 0.012522 0.054856
#
#
# Mechanical properties :
#
#
# Convention : Reuss Voigt Hill
#
# Bulk Modulus (GPa) = 62.17240 68.03124 65.10182
# Shear Modulus (GPa) = 24.36145 31.87843 28.11994
#
# Velocity S-wave (km/s) = 3.31581 3.79303 3.56242
# Velocity P-wave (km/s) = 6.53595 7.06301 6.80458
#
# Compressibility (1/GPa) = 0.01608431
#
# Stress axis : x y z
#
# Youngs Moduli (GPa) = 106.79817 79.80753 80.52472
#
# Poissons Ratio (x) = 0.19226 0.31855
# Poissons Ratio (y) = 0.25729 0.22135
# Poissons Ratio (z) = 0.42249 0.21938
#
# Static dielectric constant tensor:
#      x y z
#    x 4.286320 -0.320770 0.078480 
#    y -0.320770 3.965970 -0.294330 
#    z 0.078480 -0.294330 4.153160 
# 
# 
# High freq. dielectric constant tensor:
#      x y z
#    x 1.896480 -0.015380 0.002150 
#    y -0.015380 1.838350 -0.019640 
#    z 0.002150 -0.019640 1.866730 
# 
# From -- ./inp_files/258338.got.cif
#   From: 2010.06.25/outbox.cif.g09.slc.cpg/sg2_130_cif.got.tgz:258338.got - 2010.06.27 13:26:56.
