data_PCOD8025002
_publ_section_title
;
Structure prediction by ZEFSAII (Michael W. Deem and Ramdas Pophale) SiO2 
 PCOD8025002
Probable space group: P -1
;
_chemical_formula_sum "Si O2"
_cell_formula_units_Z 16
_cell_length_a 8.819631
_cell_length_b 9.137797
_cell_length_c 12.386067
_cell_angle_alpha 81.791654
_cell_angle_beta 76.073183
_cell_angle_gamma 48.963497
_cell_volume 730.655088
_symmetry_space_group_name_H-M "P -1"
_symmetry_group_IT_number 2
_symmetry_cell_setting 'triclinic'
loop_
_space_group_symop_operation_xyz
x,y,z
-x,-y,-z
loop_
_atom_site_type_symbol
_atom_site_label
_atom_site_fract_x
_atom_site_fract_y
_atom_site_fract_z
Si Si1 0.449540 0.477771 0.391906
Si Si2 0.646726 0.538468 0.930125
Si Si3 0.218697 0.311296 0.948650
Si Si4 0.050677 0.624599 0.529836
Si Si5 0.566255 0.173025 0.254418
Si Si6 0.661473 0.617157 0.300180
Si Si7 0.931955 0.886933 0.076601
Si Si8 0.394647 0.011707 0.409013
O O1 0.500000 0.500000 0.500000
O O2 0.203594 0.609729 0.419743
O O3 0.563076 0.254605 0.363884
O O4 0.543140 0.542582 0.286134
O O5 0.570751 0.637469 0.817026
O O6 0.873743 0.331240 0.900703
O O7 0.500000 0.500000 0.000000
O O8 0.629383 0.694988 0.994888
O O9 0.265095 0.328542 0.816378
O O10 0.212487 0.133239 0.972611
O O11 0.000000 0.500000 0.000000
O O12 0.144448 0.543244 0.641629
O O13 0.000000 0.500000 0.500000
O O14 0.849830 0.849194 0.551274
O O15 0.453322 0.085922 0.293160
O O16 0.799275 0.011232 0.191095
O O17 0.488167 0.797731 0.385210
O O18 0.000000 0.000000 0.000000
O O19 0.500000 0.000000 0.500000
#
# Coordination Sequence:
#
# PCOD8025002 Si02
#       8
#     2   2   2   2   2   2   2   2
#     4  10  23  44  67  95 136 177 223 286 345 409
#     4  11  24  45  68 100 138 182 232 279 340 412
#     4  10  24  42  67  98 143 180 223 283 341 409
#     4  11  22  41  69  95 128 179 225 279 346 406
#     4  12  24  43  71  98 136 183 226 278 350 406
#     4  11  23  44  64  98 138 174 225 284 347 401
#     4  11  24  45  68 101 136 183 228 283 342 405
#     4  12  24  41  69 101 132 173 231 283 337 415
#
# _framework density 21.898157000000001
#
# number of rings (size 3 to 8) (size 9 to 14) (size 15 to 20)
#    0.000    1.000    5.000    1.500    5.250    2.000 
#    0.000    5.000    0.000    0.000    0.000    0.000 
#    0.000    0.000    0.000    0.000    0.000    0.000 
#
# Total GULP energy -198268.550981 kJ/mol
# GULP energy per Si atom -12391.784436 kJ/mol
# Density = 2.184832 g / cm^3
# Si number density = 21.898157 Si / 1000 Ang^3
#
#
#
# Elastic Constant Matrix: (Units=GPa)
#
#
# Indices 1 2 3 4 5 6 
#
# 1 145.2352 44.4817 34.7947 9.4121 -17.2526 9.9356
# 2 44.4817 120.3406 27.5903 19.8075 3.3329 -19.7166
# 3 34.7947 27.5903 72.3333 13.8375 -5.7509 -3.5474
# 4 9.4121 19.8075 13.8375 44.8801 0.6535 -7.3933
# 5 -17.2526 3.3329 -5.7509 0.6535 38.2918 2.8883
# 6 9.9356 -19.7166 -3.5474 -7.3933 2.8883 45.7031
#
#
#
# Elastic Compliance Matrix: (Units=1/GPa)
#
#
# Indices 1 2 3 4 5 6 
#
# 1 0.009549 -0.003609 -0.003021 -0.000234 0.004482 -0.004188
# 2 -0.003609 0.011560 -0.002147 -0.002750 -0.003313 0.005369
# 3 -0.003021 -0.002147 0.016914 -0.003592 0.001399 0.000374
# 4 -0.000234 -0.002750 -0.003592 0.025114 -0.001039 0.002714
# 5 0.004482 -0.003313 0.001399 -0.001039 0.028975 -0.004294
# 6 -0.004188 0.005369 0.000374 0.002714 -0.004294 0.025847
#
#
# Mechanical properties :
#
#
# Convention : Reuss Voigt Hill
#
# Bulk Modulus (GPa) = 48.85578 61.29360 55.07469
# Shear Modulus (GPa) = 35.12831 41.17785 38.15308
#
# Velocity S-wave (km/s) = 4.00955 4.34109 4.17861
# Velocity P-wave (km/s) = 6.61772 7.29231 6.96319
#
# Compressibility (1/GPa) = 0.02046841
#
# Stress axis : x y z
#
# Youngs Moduli (GPa) = 104.72847 86.50429 59.12259
#
# Poissons Ratio (x) = 0.31217 0.17861
# Poissons Ratio (y) = 0.37793 0.12696
# Poissons Ratio (z) = 0.31639 0.18576
#
# Static dielectric constant tensor:
#      x y z
#    x 4.992860 0.189100 -0.151580 
#    y 0.189100 4.315970 0.071330 
#    z -0.151580 0.071330 3.919980 
# 
# 
# High freq. dielectric constant tensor:
#      x y z
#    x 1.876080 0.014990 -0.018330 
#    y 0.014990 1.862960 0.018180 
#    z -0.018330 0.018180 1.855190 
# 
# From -- ./inp_files/207516.got.cif
#   From: 2010.06.25/outbox.cif.g09.slc.cpg/sg2_104_cif.got.tgz:207516.got - 2010.06.27 13:26:56.
