data_PCOD8025846
_publ_section_title
;
Structure prediction by ZEFSAII (Michael W. Deem and Ramdas Pophale) SiO2 
 PCOD8025846
Probable space group: P -1
;
_chemical_formula_sum "Si O2"
_cell_formula_units_Z 16
_cell_length_a 17.991031
_cell_length_b 11.766623
_cell_length_c 9.353886
_cell_angle_alpha 129.707197
_cell_angle_beta 117.138208
_cell_angle_gamma 28.530792
_cell_volume 697.187556
_symmetry_space_group_name_H-M "P -1"
_symmetry_group_IT_number 2
_symmetry_cell_setting 'triclinic'
loop_
_space_group_symop_operation_xyz
x,y,z
-x,-y,-z
loop_
_atom_site_type_symbol
_atom_site_label
_atom_site_fract_x
_atom_site_fract_y
_atom_site_fract_z
Si Si1 0.632752 0.675638 0.215487
Si Si2 0.821219 0.842059 0.133607
Si Si3 0.345823 0.690705 0.113832
Si Si4 0.335849 0.697152 0.442562
Si Si5 0.798869 0.611379 0.086640
Si Si6 0.165149 0.667181 0.342877
Si Si7 0.268862 0.314726 0.418023
Si Si8 0.875322 0.770100 0.814868
O O1 0.662218 0.742829 0.165893
O O2 0.737321 0.568070 0.357478
O O3 0.439891 0.968807 0.300146
O O4 0.696560 0.416259 0.029060
O O5 0.711958 0.874944 0.131138
O O6 0.811955 0.993693 0.356678
O O7 0.768493 0.960571 0.020600
O O8 0.000000 0.500000 0.000000
O O9 0.361480 0.701335 0.303700
O O10 0.192842 0.019284 0.196070
O O11 0.500000 0.500000 0.000000
O O12 0.500000 0.500000 0.500000
O O13 0.302080 0.575055 0.335995
O O14 0.936757 0.474309 0.197551
O O15 0.881200 0.370256 0.857718
O O16 0.240015 0.460150 0.372085
O O17 0.000000 0.000000 0.500000
O O18 0.135415 0.386395 0.365498
#
# Coordination Sequence:
#
# PCOD8025846 Si02
#       8
#     2   2   2   2   2   2   2   2
#     4  11  27  48  69 108 140 189 243 297 365 423
#     4  10  23  46  70 103 146 189 238 298 364 435
#     4  12  26  47  72 105 153 191 244 306 369 435
#     4  12  29  45  76 112 141 196 249 302 373 440
#     4  11  25  45  72 103 142 185 242 299 351 433
#     4  12  27  47  72 108 147 187 243 302 366 433
#     4  11  27  46  74 100 146 192 236 295 364 436
#     4  11  24  45  71 103 141 195 233 299 366 430
#
# _framework density 22.949348000000001
#
# number of rings (size 3 to 8) (size 9 to 14) (size 15 to 20)
#    0.000    0.750    3.750    2.250   10.500    2.500 
#    0.000    0.000    0.000    0.000    0.000    0.000 
#    0.000    0.000    0.000    0.000    0.000    0.000 
#
# Total GULP energy -198371.408303 kJ/mol
# GULP energy per Si atom -12398.213019 kJ/mol
# Density = 2.289711 g / cm^3
# Si number density = 22.949348 Si / 1000 Ang^3
#
#
#
# Elastic Constant Matrix: (Units=GPa)
#
#
# Indices 1 2 3 4 5 6 
#
# 1 113.7126 23.1417 23.2642 -14.0174 14.9086 21.2402
# 2 23.1417 79.3127 37.3498 -17.5647 6.7960 14.8787
# 3 23.2642 37.3498 131.4671 -23.1129 7.5958 2.9915
# 4 -14.0174 -17.5647 -23.1129 33.7540 1.2454 -2.1058
# 5 14.9086 6.7960 7.5958 1.2454 41.3268 -5.5511
# 6 21.2402 14.8787 2.9915 -2.1058 -5.5511 37.3592
#
#
#
# Elastic Compliance Matrix: (Units=1/GPa)
#
#
# Indices 1 2 3 4 5 6 
#
# 1 0.011417 -0.000436 -0.000803 0.003723 -0.004921 -0.006774
# 2 -0.000436 0.017165 -0.003395 0.006139 -0.003090 -0.006430
# 3 -0.000803 -0.003395 0.009535 0.004534 -0.000884 0.001170
# 4 0.003723 0.006139 0.004534 0.037428 -0.004788 -0.003527
# 5 -0.004921 -0.003090 -0.000884 -0.004788 0.027858 0.007969
# 6 -0.006774 -0.006430 0.001170 -0.003527 0.007969 0.034071
#
#
# Mechanical properties :
#
#
# Convention : Reuss Voigt Hill
#
# Bulk Modulus (GPa) = 34.66502 54.66709 44.66605
# Shear Modulus (GPa) = 31.97785 38.53713 35.25749
#
# Velocity S-wave (km/s) = 3.73689 4.10228 3.92384
# Velocity P-wave (km/s) = 5.81007 6.80520 6.32723
#
# Compressibility (1/GPa) = 0.02884753
#
# Stress axis : x y z
#
# Youngs Moduli (GPa) = 87.59087 58.25853 104.87893
#
# Poissons Ratio (x) = 0.02538 0.08426
# Poissons Ratio (y) = 0.03816 0.35609
# Poissons Ratio (z) = 0.07037 0.19780
#
# Static dielectric constant tensor:
#      x y z
#    x 4.701220 0.377950 -0.041320 
#    y 0.377950 4.022510 -0.167000 
#    z -0.041320 -0.167000 4.588130 
# 
# 
# High freq. dielectric constant tensor:
#      x y z
#    x 1.926380 0.011060 0.006560 
#    y 0.011060 1.893020 -0.011860 
#    z 0.006560 -0.011860 1.916280 
# 
# From -- ./inp_files/333804.got.cif
#   From: 2010.06.25/outbox.cif.g09.slc.cpg/sg2_167_cif.got.tgz:333804.got - 2010.06.27 13:26:56.
