data_PCOD8025220
_publ_section_title
;
Structure prediction by ZEFSAII (Michael W. Deem and Ramdas Pophale) SiO2 
 PCOD8025220
Probable space group: P -1
;
_chemical_formula_sum "Si O2"
_cell_formula_units_Z 16
_cell_length_a 6.496767
_cell_length_b 21.528924
_cell_length_c 23.471761
_cell_angle_alpha 19.742338
_cell_angle_beta 119.834271
_cell_angle_gamma 131.130230
_cell_volume 733.679035
_symmetry_space_group_name_H-M "P -1"
_symmetry_group_IT_number 2
_symmetry_cell_setting 'triclinic'
loop_
_space_group_symop_operation_xyz
x,y,z
-x,-y,-z
loop_
_atom_site_type_symbol
_atom_site_label
_atom_site_fract_x
_atom_site_fract_y
_atom_site_fract_z
Si Si1 0.399639 0.257348 0.363710
Si Si2 0.204249 0.831571 0.644390
Si Si3 0.380204 0.518729 0.688025
Si Si4 0.747320 0.149646 0.856215
Si Si5 0.302694 0.075483 0.066503
Si Si6 0.279847 0.047015 0.722820
Si Si7 0.706157 0.522649 0.058738
Si Si8 0.325925 0.234784 0.683813
O O1 0.668553 0.423764 0.304295
O O2 0.105605 0.227915 0.371580
O O3 0.297853 0.990485 0.577848
O O4 0.502042 0.375864 0.213130
O O5 0.500000 0.000000 0.500000
O O6 0.135995 0.580639 0.858012
O O7 0.617476 0.774684 0.469204
O O8 0.067215 0.372523 0.735206
O O9 0.496525 0.364561 0.843524
O O10 0.610871 0.238076 0.721548
O O11 0.778690 0.996221 0.949353
O O12 0.500000 0.000000 0.000000
O O13 0.482339 0.000830 0.187552
O O14 0.971104 0.954642 0.154272
O O15 0.218665 0.162764 0.665580
O O16 0.959088 0.796658 0.875961
O O17 0.500000 0.500000 0.000000
O O18 0.500000 0.500000 0.500000
#
# Coordination Sequence:
#
# PCOD8025220 Si02
#       8
#     2   2   2   2   2   2   2   2
#     4  10  23  44  71 100 135 177 229 279 348 411
#     4   9  21  44  71  95 130 178 219 281 343 402
#     4  12  24  44  71 101 136 178 232 279 342 413
#     4  11  24  41  68 100 134 180 231 273 339 409
#     4  11  24  46  68  95 142 182 225 283 340 402
#     4  11  27  44  66 105 135 176 237 282 338 413
#     4  11  25  46  68  99 142 178 227 289 346 407
#     4  11  23  44  69  97 141 180 223 287 341 401
#
# _framework density 21.807901999999999
#
# number of rings (size 3 to 8) (size 9 to 14) (size 15 to 20)
#    0.000    1.250    1.250    3.375    8.750    2.500 
#    6.750    0.000    0.000    0.000    0.000    0.000 
#    0.000    0.000    0.000    0.000    0.000    0.000 
#
# Total GULP energy -198222.345929 kJ/mol
# GULP energy per Si atom -12388.896621 kJ/mol
# Density = 2.175827 g / cm^3
# Si number density = 21.807902 Si / 1000 Ang^3
#
#
#
# Elastic Constant Matrix: (Units=GPa)
#
#
# Indices 1 2 3 4 5 6 
#
# 1 104.1983 45.1188 42.2485 -2.9856 9.4121 -14.8574
# 2 45.1188 139.1665 52.0810 -21.1830 12.1482 -31.1075
# 3 42.2485 52.0810 139.8285 -14.2072 14.7006 -15.1088
# 4 -2.9856 -21.1830 -14.2072 43.1658 -5.8899 2.5872
# 5 9.4121 12.1482 14.7006 -5.8899 35.6332 -4.0918
# 6 -14.8574 -31.1075 -15.1088 2.5872 -4.0918 37.9356
#
#
#
# Elastic Compliance Matrix: (Units=1/GPa)
#
#
# Indices 1 2 3 4 5 6 
#
# 1 0.012093 -0.002808 -0.002482 -0.001623 -0.001319 0.001414
# 2 -0.002808 0.011064 -0.002049 0.004053 -0.000734 0.006801
# 3 -0.002482 -0.002049 0.009105 0.001497 -0.002081 0.000648
# 4 -0.001623 0.004053 0.001497 0.025823 0.002908 0.001837
# 5 -0.001319 -0.000734 -0.002081 0.002908 0.030128 0.001104
# 6 0.001414 0.006801 0.000648 0.001837 0.001104 0.032743
#
#
# Mechanical properties :
#
#
# Convention : Reuss Voigt Hill
#
# Bulk Modulus (GPa) = 56.86183 73.56555 65.21369
# Shear Modulus (GPa) = 35.33686 39.59660 37.46673
#
# Velocity S-wave (km/s) = 4.02975 4.26573 4.14941
# Velocity P-wave (km/s) = 6.91248 7.62027 7.27499
#
# Compressibility (1/GPa) = 0.01758649
#
# Stress axis : x y z
#
# Youngs Moduli (GPa) = 82.68991 90.38364 109.82574
#
# Poissons Ratio (x) = 0.25379 0.27254
# Poissons Ratio (y) = 0.23219 0.22499
# Poissons Ratio (z) = 0.20520 0.18516
#
# Static dielectric constant tensor:
#      x y z
#    x 4.003800 -2.306400 8.150430 
#    y -2.306400 30.527450 -93.691830 
#    z 8.150430 -93.691830 336.129390 
# 
# 
# High freq. dielectric constant tensor:
#      x y z
#    x 1.861550 -0.010450 0.013280 
#    y -0.010450 1.864740 -0.017030 
#    z 0.013280 -0.017030 1.863840 
# 
# From -- ./inp_files/90932.got.cif
#   From: 2010.06.25/outbox.cif.g09.slc.cpg/sg2_46_cif.got.tgz:90932.got - 2010.06.27 13:26:56.
