data_PCOD8025731
_publ_section_title
;
Structure prediction by ZEFSAII (Michael W. Deem and Ramdas Pophale) SiO2 
 PCOD8025731
Probable space group: P -1
;
_chemical_formula_sum "Si O2"
_cell_formula_units_Z 14
_cell_length_a 10.112324
_cell_length_b 8.539665
_cell_length_c 23.427362
_cell_angle_alpha 42.798911
_cell_angle_beta 154.571918
_cell_angle_gamma 136.571313
_cell_volume 576.015904
_symmetry_space_group_name_H-M "P -1"
_symmetry_group_IT_number 2
_symmetry_cell_setting 'triclinic'
loop_
_space_group_symop_operation_xyz
x,y,z
-x,-y,-z
loop_
_atom_site_type_symbol
_atom_site_label
_atom_site_fract_x
_atom_site_fract_y
_atom_site_fract_z
Si Si1 0.241619 0.481334 0.811077
Si Si2 0.165204 0.960922 0.169208
Si Si3 0.255488 0.001851 0.689639
Si Si4 0.460608 0.474458 0.673224
Si Si5 0.939813 0.565535 0.023266
Si Si6 0.611051 0.084315 0.410468
Si Si7 0.665180 0.412779 0.532209
O O1 0.585078 0.448728 0.935959
O O2 0.088709 0.273971 0.850431
O O3 0.040103 0.473392 0.676184
O O4 0.252653 0.733769 0.779487
O O5 0.435164 0.890844 0.255533
O O6 0.995050 0.148018 0.021837
O O7 0.354112 0.104932 0.257162
O O8 0.299003 0.203299 0.703259
O O9 0.928166 0.018203 0.525824
O O10 0.294760 0.667124 0.585941
O O11 0.410567 0.468458 0.586931
O O12 0.830337 0.533673 0.817928
O O13 0.000000 0.500000 0.000000
O O14 0.455296 0.868222 0.448980
O O15 0.500000 0.500000 0.500000
#
# Coordination Sequence:
#
# PCOD8025731 Si02
#       7
#     2   2   2   2   2   2   2
#     4  10  24  45  75 101 136 195 240 288 354 421
#     4  10  23  45  75  99 140 190 244 282 352 426
#     4  11  24  40  73 104 140 185 236 296 355 409
#     4  12  26  42  69 110 146 181 241 293 353 430
#     4  11  25  49  69 103 149 191 232 290 359 423
#     4  11  22  42  69 107 141 184 232 301 352 414
#     4  11  23  46  74 108 139 183 244 295 357 422
#
# _framework density 24.304886
#
# number of rings (size 3 to 8) (size 9 to 14) (size 15 to 20)
#    0.000    1.143    2.857    3.000    4.000    4.000 
#    2.571    3.571    0.000    0.000    0.000    0.000 
#    0.000    0.000    0.000    0.000    0.000    0.000 
#
# Total GULP energy -173481.228484 kJ/mol
# GULP energy per Si atom -12391.516320 kJ/mol
# Density = 2.424957 g / cm^3
# Si number density = 24.304886 Si / 1000 Ang^3
#
#
#
# Elastic Constant Matrix: (Units=GPa)
#
#
# Indices 1 2 3 4 5 6 
#
# 1 52.8849 23.7690 17.5853 -3.6801 18.2294 8.8491
# 2 23.7690 149.1726 -8.9130 -5.3342 24.0158 2.4107
# 3 17.5853 -8.9130 101.1912 -0.9398 19.8368 11.4015
# 4 -3.6801 -5.3342 -0.9398 33.7325 -1.7853 6.1326
# 5 18.2294 24.0158 19.8368 -1.7853 37.2912 4.7728
# 6 8.8491 2.4107 11.4015 6.1326 4.7728 36.2471
#
#
#
# Elastic Compliance Matrix: (Units=1/GPa)
#
#
# Indices 1 2 3 4 5 6 
#
# 1 0.024675 -0.002537 -0.002320 0.002584 -0.008501 -0.004443
# 2 -0.002537 0.008083 0.002161 0.000806 -0.005068 -0.000067
# 3 -0.002320 0.002161 0.012008 0.000568 -0.006282 -0.002623
# 4 0.002584 0.000806 0.000568 0.031202 0.000199 -0.006168
# 5 -0.008501 -0.005068 -0.006282 0.000199 0.037664 -0.000605
# 6 -0.004443 -0.000067 -0.002623 -0.006168 -0.000605 0.030626
#
#
# Mechanical properties :
#
#
# Convention : Reuss Voigt Hill
#
# Bulk Modulus (GPa) = 25.39834 40.90345 33.15090
# Shear Modulus (GPa) = 30.71728 39.50799 35.11264
#
# Velocity S-wave (km/s) = 3.55890 4.03614 3.80501
# Velocity P-wave (km/s) = 5.23070 6.21180 5.74224
#
# Compressibility (1/GPa) = 0.03937265
#
# Stress axis : x y z
#
# Youngs Moduli (GPa) = 40.52754 123.71906 83.27572
#
# Poissons Ratio (x) = 0.31393 0.19323
# Poissons Ratio (y) = 0.10284 -0.17999
# Poissons Ratio (z) = 0.09404 -0.26740
#
# Static dielectric constant tensor:
#      x y z
#    x 3.987830 0.012440 0.131010 
#    y 0.012440 4.720850 -0.000650 
#    z 0.131010 -0.000650 4.549790 
# 
# 
# High freq. dielectric constant tensor:
#      x y z
#    x 1.923890 -0.003770 0.019770 
#    y -0.003770 1.991680 -0.005330 
#    z 0.019770 -0.005330 1.977810 
# 
# From -- ./inp_files/618212.got.cif
#   From: 2010.06.25/outbox.cif.g09.slc.cpg/sg2_310_cif.got.tgz:618212.got - 2010.06.27 13:26:56.
