data_PCOD8025772
_publ_section_title
;
Structure prediction by ZEFSAII (Michael W. Deem and Ramdas Pophale) SiO2 
 PCOD8025772
Probable space group: P -1
;
_chemical_formula_sum "Si O2"
_cell_formula_units_Z 14
_cell_length_a 20.984418
_cell_length_b 8.910747
_cell_length_c 9.189061
_cell_angle_alpha 113.630797
_cell_angle_beta 151.893298
_cell_angle_gamma 54.859733
_cell_volume 635.978251
_symmetry_space_group_name_H-M "P -1"
_symmetry_group_IT_number 2
_symmetry_cell_setting 'triclinic'
loop_
_space_group_symop_operation_xyz
x,y,z
-x,-y,-z
loop_
_atom_site_type_symbol
_atom_site_label
_atom_site_fract_x
_atom_site_fract_y
_atom_site_fract_z
Si Si1 0.107254 0.808630 0.554175
Si Si2 0.543755 0.838809 0.640869
Si Si3 0.337154 0.107119 0.797399
Si Si4 0.338464 0.689779 0.211979
Si Si5 0.839474 0.121369 0.634639
Si Si6 0.781262 0.434205 0.834909
Si Si7 0.951953 0.520276 0.743204
O O1 0.123002 0.873782 0.453930
O O2 0.028705 0.678674 0.344888
O O3 0.279363 0.690240 0.929962
O O4 0.000000 0.000000 0.500000
O O5 0.380708 0.856857 0.378430
O O6 0.640983 0.645396 0.668424
O O7 0.500000 0.000000 0.500000
O O8 0.642971 0.849049 0.978276
O O9 0.226404 0.306142 0.568566
O O10 0.267459 0.969934 0.597109
O O11 0.500000 0.000000 0.000000
O O12 0.500000 0.500000 0.500000
O O13 0.202279 0.707675 0.053749
O O14 0.746070 0.341853 0.587958
O O15 0.000000 0.000000 0.000000
O O16 0.941513 0.434784 0.131239
O O17 0.000000 0.500000 0.000000
#
# Coordination Sequence:
#
# PCOD8025772 Si02
#       7
#     2   2   2   2   2   2   2
#     4  12  27  43  74 107 142 188 241 299 359 437
#     4  11  26  46  73 109 143 190 242 301 362 425
#     4  12  28  47  77 107 147 189 245 300 364 432
#     4  10  23  46  67 101 144 187 234 293 363 420
#     4  12  24  48  70 110 145 190 238 300 369 428
#     4  11  24  46  75  97 150 188 237 297 362 426
#     4  12  26  48  73 110 142 192 247 299 365 432
#
# _framework density 22.013331000000001
#
# number of rings (size 3 to 8) (size 9 to 14) (size 15 to 20)
#    0.000    0.571    2.857    4.286    6.000    2.286 
#    0.000    4.286    0.000    0.000    0.000    0.000 
#    0.000    0.000    0.000    0.000    0.000    0.000 
#
# Total GULP energy -173572.144556 kJ/mol
# GULP energy per Si atom -12398.010325 kJ/mol
# Density = 2.196323 g / cm^3
# Si number density = 22.013331 Si / 1000 Ang^3
#
#
#
# Elastic Constant Matrix: (Units=GPa)
#
#
# Indices 1 2 3 4 5 6 
#
# 1 162.8633 77.5873 82.4161 -2.9207 0.8309 13.5757
# 2 77.5873 173.4688 74.7612 18.3868 2.5889 -3.7294
# 3 82.4161 74.7612 164.6505 9.8947 -17.0541 12.7454
# 4 -2.9207 18.3868 9.8947 47.5714 12.5626 1.4202
# 5 0.8309 2.5889 -17.0541 12.5626 47.4052 11.6184
# 6 13.5757 -3.7294 12.7454 1.4202 11.6184 49.8980
#
#
#
# Elastic Compliance Matrix: (Units=1/GPa)
#
#
# Indices 1 2 3 4 5 6 
#
# 1 0.009662 -0.003065 -0.003685 0.003053 -0.001745 -0.001597
# 2 -0.003065 0.008580 -0.002513 -0.002739 -0.001199 0.002474
# 3 -0.003685 -0.002513 0.009975 -0.002614 0.005185 -0.002866
# 4 0.003053 -0.002739 -0.002614 0.024793 -0.007584 0.000692
# 5 -0.001745 -0.001199 0.005185 -0.007584 0.026771 -0.006957
# 6 -0.001597 0.002474 -0.002866 0.000692 -0.006957 0.022993
#
#
# Mechanical properties :
#
#
# Convention : Reuss Voigt Hill
#
# Bulk Modulus (GPa) = 103.18968 107.83464 105.51216
# Shear Modulus (GPa) = 40.15088 46.72278 43.43683
#
# Velocity S-wave (km/s) = 4.27539 4.61203 4.44690
# Velocity P-wave (km/s) = 8.44687 8.80077 8.62564
#
# Compressibility (1/GPa) = 0.00969089
#
# Stress axis : x y z
#
# Youngs Moduli (GPa) = 103.49815 116.54979 100.25007
#
# Poissons Ratio (x) = 0.35725 0.36944
# Poissons Ratio (y) = 0.31724 0.25190
# Poissons Ratio (z) = 0.38141 0.29286
#
# Static dielectric constant tensor:
#      x y z
#    x 4.148620 0.007780 -0.284450 
#    y 0.007780 4.129710 0.022080 
#    z -0.284450 0.022080 3.975720 
# 
# 
# High freq. dielectric constant tensor:
#      x y z
#    x 1.878610 0.013540 -0.001410 
#    y 0.013540 1.883850 0.012810 
#    z -0.001410 0.012810 1.869160 
# 
# From -- ./inp_files/342883.got.cif
#   From: 2010.06.25/outbox.cif.g09.slc.cpg/sg2_172_cif.got.tgz:342883.got - 2010.06.27 13:26:56.
