data_PCOD8025117
_publ_section_title
;
Structure prediction by ZEFSAII (Michael W. Deem and Ramdas Pophale) SiO2 
 PCOD8025117
Probable space group: P -1
;
_chemical_formula_sum "Si O2"
_cell_formula_units_Z 16
_cell_length_a 14.644464
_cell_length_b 14.769367
_cell_length_c 5.421259
_cell_angle_alpha 98.444396
_cell_angle_beta 88.367966
_cell_angle_gamma 35.371863
_cell_volume 648.529582
_symmetry_space_group_name_H-M "P -1"
_symmetry_group_IT_number 2
_symmetry_cell_setting 'triclinic'
loop_
_space_group_symop_operation_xyz
x,y,z
-x,-y,-z
loop_
_atom_site_type_symbol
_atom_site_label
_atom_site_fract_x
_atom_site_fract_y
_atom_site_fract_z
Si Si1 0.478511 0.813777 0.378870
Si Si2 0.780676 0.064641 0.268039
Si Si3 0.322817 0.656181 0.692150
Si Si4 0.459981 0.137900 0.092234
Si Si5 0.106052 0.180994 0.171362
Si Si6 0.099705 0.395991 0.201659
Si Si7 0.242102 0.552340 0.919011
Si Si8 0.936377 0.221528 0.576520
O O1 0.344325 0.847853 0.460546
O O2 0.495374 0.865848 0.636753
O O3 0.646819 0.623913 0.230866
O O4 0.437181 0.900912 0.159683
O O5 0.716386 0.206215 0.175707
O O6 0.969493 0.919961 0.284191
O O7 0.772068 0.981871 0.063856
O O8 0.500000 0.500000 0.500000
O O9 0.324386 0.584512 0.890707
O O10 0.170781 0.756762 0.569023
O O11 0.265546 0.317171 0.143443
O O12 0.500000 0.000000 0.000000
O O13 0.157344 0.242654 0.153128
O O14 0.914819 0.326953 0.189464
O O15 0.094514 0.148595 0.433972
O O16 0.000000 0.500000 0.500000
O O17 0.000000 0.500000 0.000000
O O18 0.185912 0.600363 0.227187
#
# Coordination Sequence:
#
# PCOD8025117 Si02
#       8
#     2   2   2   2   2   2   2   2
#     4  12  27  46  76 108 149 194 243 304 376 428
#     4  11  25  44  72 102 143 191 242 299 359 441
#     4  11  23  45  67 107 141 187 244 295 367 426
#     4  12  28  49  73 108 151 190 246 307 372 442
#     4  10  24  44  71  99 143 185 244 292 371 429
#     4  12  27  46  76 108 143 193 247 305 364 438
#     4  10  23  44  69 103 142 186 240 298 356 438
#     4  10  25  43  71 100 143 187 239 300 357 438
#
# _framework density 24.671195000000001
#
# number of rings (size 3 to 8) (size 9 to 14) (size 15 to 20)
#    0.000    1.000    1.250    3.750   12.250    6.000 
#    0.000    0.000    0.000    0.000    0.000    0.000 
#    0.000    0.000    0.000    0.000    0.000    0.000 
#
# Total GULP energy -198228.088436 kJ/mol
# GULP energy per Si atom -12389.255527 kJ/mol
# Density = 2.461504 g / cm^3
# Si number density = 24.671195 Si / 1000 Ang^3
#
#
#
# Elastic Constant Matrix: (Units=GPa)
#
#
# Indices 1 2 3 4 5 6 
#
# 1 76.3872 11.4737 21.8021 0.9294 -3.2122 14.6359
# 2 11.4737 78.5643 24.7189 2.2730 16.4222 23.8855
# 3 21.8021 24.7189 143.2216 5.8319 1.8703 14.8633
# 4 0.9294 2.2730 5.8319 43.6859 3.0822 5.7114
# 5 -3.2122 16.4222 1.8703 3.0822 43.0310 7.6344
# 6 14.6359 23.8855 14.8633 5.7114 7.6344 49.1512
#
#
#
# Elastic Compliance Matrix: (Units=1/GPa)
#
#
# Indices 1 2 3 4 5 6 
#
# 1 0.014516 -0.000904 -0.001706 0.000303 0.002144 -0.003735
# 2 -0.000904 0.016507 -0.002004 0.000632 -0.005187 -0.006414
# 3 -0.001706 -0.002004 0.007701 -0.000815 0.000508 -0.000831
# 4 0.000303 0.000632 -0.000815 0.023405 -0.001389 -0.002655
# 5 0.002144 -0.005187 0.000508 -0.001389 0.025833 -0.002122
# 6 -0.003735 -0.006414 -0.000831 -0.002655 -0.002122 0.025464
#
#
# Mechanical properties :
#
#
# Convention : Reuss Voigt Hill
#
# Bulk Modulus (GPa) = 33.90405 46.01805 39.96105
# Shear Modulus (GPa) = 37.73968 43.18550 40.46259
#
# Velocity S-wave (km/s) = 3.91539 4.18837 4.05418
# Velocity P-wave (km/s) = 5.84915 6.48714 6.17639
#
# Compressibility (1/GPa) = 0.02949500
#
# Stress axis : x y z
#
# Youngs Moduli (GPa) = 68.88846 60.58014 129.86098
#
# Poissons Ratio (x) = 0.05479 0.22159
# Poissons Ratio (y) = 0.06230 0.26020
# Poissons Ratio (z) = 0.11755 0.12138
#
# Static dielectric constant tensor:
#      x y z
#    x 4.650860 0.030110 -0.408660 
#    y 0.030110 4.561450 -0.069580 
#    z -0.408660 -0.069580 4.879220 
# 
# 
# High freq. dielectric constant tensor:
#      x y z
#    x 1.983870 -0.007820 -0.018610 
#    y -0.007820 1.996220 0.013440 
#    z -0.018610 0.013440 1.988610 
# 
# From -- ./inp_files/98256.got.cif
#   From: 2010.06.25/outbox.cif.g09.slc.cpg/sg2_50_cif.got.tgz:98256.got - 2010.06.27 13:26:56.
