data_PCOD8025761
_publ_section_title
;
Structure prediction by ZEFSAII (Michael W. Deem and Ramdas Pophale) SiO2 
 PCOD8025761
Probable space group: P -1
;
_chemical_formula_sum "Si O2"
_cell_formula_units_Z 14
_cell_length_a 9.158439
_cell_length_b 22.888097
_cell_length_c 19.383113
_cell_angle_alpha 162.708132
_cell_angle_beta 46.225018
_cell_angle_gamma 142.286083
_cell_volume 692.271074
_symmetry_space_group_name_H-M "P -1"
_symmetry_group_IT_number 2
_symmetry_cell_setting 'triclinic'
loop_
_space_group_symop_operation_xyz
x,y,z
-x,-y,-z
loop_
_atom_site_type_symbol
_atom_site_label
_atom_site_fract_x
_atom_site_fract_y
_atom_site_fract_z
Si Si1 0.967896 0.595439 0.720341
Si Si2 0.849041 0.522708 0.913111
Si Si3 0.047533 0.702960 0.264288
Si Si4 0.672490 0.800554 0.349161
Si Si5 0.394984 0.282655 0.569353
Si Si6 0.293463 0.847378 0.033141
Si Si7 0.134625 0.880266 0.845284
O O1 0.690853 0.516518 0.742022
O O2 0.947865 0.349256 0.435907
O O3 0.062698 0.778246 0.831109
O O4 0.169274 0.749772 0.889006
O O5 0.816924 0.303072 0.718793
O O6 0.623047 0.415735 0.811904
O O7 0.842852 0.707276 0.174364
O O8 0.111307 0.657824 0.938396
O O9 0.772172 0.624846 0.287294
O O10 0.235218 0.972497 0.474433
O O11 0.000000 0.500000 0.000000
O O12 0.700203 0.868810 0.497725
O O13 0.347998 0.108939 0.325009
O O14 0.563585 0.895891 0.003790
O O15 0.000000 0.000000 0.000000
#
# Coordination Sequence:
#
# PCOD8025761 Si02
#       7
#     2   2   2   2   2   2   2
#     4  10  23  46  66  93 126 162 203 260 324 379
#     4  11  23  39  64  92 128 173 216 261 310 372
#     4  12  23  37  60  90 129 176 219 260 305 364
#     4  11  22  43  60  88 135 173 215 260 310 367
#     4  11  22  41  64  90 130 171 213 258 311 373
#     4  11  22  43  67  93 128 166 206 260 322 373
#     4  10  24  45  71  95 122 158 205 262 321 388
#
# _framework density 20.223293000000002
#
# number of rings (size 3 to 8) (size 9 to 14) (size 15 to 20)
#    0.000    1.143    4.286    2.143    2.000    0.571 
#    5.143    0.000    0.000    0.000    0.000    0.000 
#    0.000    0.000    0.000    0.000    0.000    0.000 
#
# Total GULP energy -173608.379572 kJ/mol
# GULP energy per Si atom -12400.598541 kJ/mol
# Density = 2.017726 g / cm^3
# Si number density = 20.223293 Si / 1000 Ang^3
#
#
#
# Elastic Constant Matrix: (Units=GPa)
#
#
# Indices 1 2 3 4 5 6 
#
# 1 125.3161 70.8288 56.8079 -4.7281 -0.6267 9.7990
# 2 70.8288 128.6356 46.3201 7.7110 -2.3629 12.1823
# 3 56.8079 46.3201 88.5169 -2.4499 1.3158 7.1282
# 4 -4.7281 7.7110 -2.4499 33.6327 -4.0858 2.8300
# 5 -0.6267 -2.3629 1.3158 -4.0858 43.0187 0.0260
# 6 9.7990 12.1823 7.1282 2.8300 0.0260 37.1448
#
#
#
# Elastic Compliance Matrix: (Units=1/GPa)
#
#
# Indices 1 2 3 4 5 6 
#
# 1 0.014060 -0.005706 -0.005885 0.002978 0.000355 -0.000935
# 2 -0.005706 0.012287 -0.002735 -0.003633 0.000331 -0.001723
# 3 -0.005885 -0.002735 0.016608 0.000999 -0.000649 -0.000813
# 4 0.002978 -0.003633 0.000999 0.031584 0.002814 -0.002194
# 5 0.000355 0.000331 -0.000649 0.002814 0.023556 -0.000309
# 6 -0.000935 -0.001723 -0.000813 -0.002194 -0.000309 0.028057
#
#
# Mechanical properties :
#
#
# Convention : Reuss Voigt Hill
#
# Bulk Modulus (GPa) = 69.90980 76.70910 73.30945
# Shear Modulus (GPa) = 31.33388 33.99336 32.66362
#
# Velocity S-wave (km/s) = 3.94051 4.10433 4.02325
# Velocity P-wave (km/s) = 7.43959 7.77651 7.60991
#
# Compressibility (1/GPa) = 0.01430415
#
# Stress axis : x y z
#
# Youngs Moduli (GPa) = 71.12484 81.38371 60.21217
#
# Poissons Ratio (x) = 0.46436 0.35434
# Poissons Ratio (y) = 0.40583 0.16467
# Poissons Ratio (z) = 0.41856 0.22257
#
# Static dielectric constant tensor:
#      x y z
#    x 3.834050 0.077410 -0.038470 
#    y 0.077410 3.841670 -0.044890 
#    z -0.038470 -0.044890 3.618780 
# 
# 
# High freq. dielectric constant tensor:
#      x y z
#    x 1.795880 0.008920 0.012380 
#    y 0.008920 1.803190 0.002290 
#    z 0.012380 0.002290 1.781640 
# 
# From -- ./inp_files/43528.got.cif
#   From: 2010.06.25/outbox.cif.g09.slc.cpg/sg2_22_cif.got.tgz:43528.got - 2010.06.27 13:26:56.
