data_PCOD8025806
_publ_section_title
;
Structure prediction by ZEFSAII (Michael W. Deem and Ramdas Pophale) SiO2 
 PCOD8025806
Probable space group: P -1
;
_chemical_formula_sum "Si O2"
_cell_formula_units_Z 16
_cell_length_a 15.515068
_cell_length_b 9.526728
_cell_length_c 15.819901
_cell_angle_alpha 112.632109
_cell_angle_beta 153.285221
_cell_angle_gamma 84.997640
_cell_volume 762.574303
_symmetry_space_group_name_H-M "P -1"
_symmetry_group_IT_number 2
_symmetry_cell_setting 'triclinic'
loop_
_space_group_symop_operation_xyz
x,y,z
-x,-y,-z
loop_
_atom_site_type_symbol
_atom_site_label
_atom_site_fract_x
_atom_site_fract_y
_atom_site_fract_z
Si Si1 0.019041 0.132021 0.874823
Si Si2 0.214546 0.282028 0.414315
Si Si3 0.233257 0.558264 0.773590
Si Si4 0.347869 0.282326 0.344523
Si Si5 0.167922 0.658955 0.922089
Si Si6 0.473460 0.957634 0.565961
Si Si7 0.228942 0.223756 0.764241
Si Si8 0.277108 0.400998 0.017045
O O1 0.798842 0.138042 0.666714
O O2 0.087727 0.165139 0.041923
O O3 0.242136 0.304817 0.054830
O O4 0.959379 0.930597 0.745763
O O5 0.310894 0.257068 0.405848
O O6 0.439909 0.416526 0.705547
O O7 0.088612 0.381181 0.313674
O O8 0.194269 0.359389 0.709658
O O9 0.000000 0.500000 0.500000
O O10 0.250173 0.662305 0.899346
O O11 0.500843 0.716118 0.001859
O O12 0.500000 0.500000 0.500000
O O13 0.481833 0.196294 0.410066
O O14 0.122746 0.480719 0.892039
O O15 0.355835 0.855160 0.183050
O O16 0.500000 0.000000 0.500000
O O17 0.204660 0.247061 0.846938
O O18 0.000000 0.000000 0.500000
#
# Coordination Sequence:
#
# PCOD8025806 Si02
#       8
#     2   2   2   2   2   2   2   2
#     4  12  25  40  68  91 131 174 218 269 326 383
#     4  12  23  45  65  93 136 171 223 272 321 385
#     4  10  23  46  69 100 133 176 220 275 341 395
#     4  12  25  43  61  97 133 176 222 269 323 387
#     4  11  24  42  69  95 130 172 220 271 323 397
#     4  12  24  43  65  94 132 177 217 267 328 383
#     4  10  24  44  70  99 138 170 218 276 336 410
#     4  11  25  42  65 102 125 173 219 267 331 391
#
# _framework density 20.981562
#
# number of rings (size 3 to 8) (size 9 to 14) (size 15 to 20)
#    0.000    0.750    5.000    1.875    3.500    3.000 
#    0.000    0.000    0.000    0.000    0.000    0.000 
#    0.000    0.000    0.000    0.000    0.000    0.000 
#
# Total GULP energy -198382.653982 kJ/mol
# GULP energy per Si atom -12398.915874 kJ/mol
# Density = 2.093381 g / cm^3
# Si number density = 20.981562 Si / 1000 Ang^3
#
#
#
# Elastic Constant Matrix: (Units=GPa)
#
#
# Indices 1 2 3 4 5 6 
#
# 1 61.9312 47.2835 52.3299 -0.0437 -14.2923 -14.8411
# 2 47.2835 113.1032 66.2930 -0.2469 -5.8460 -12.0594
# 3 52.3299 66.2930 113.5852 5.8089 -3.9971 -16.5915
# 4 -0.0437 -0.2469 5.8089 42.3558 -4.8223 2.0374
# 5 -14.2923 -5.8460 -3.9971 -4.8223 36.3583 1.5413
# 6 -14.8411 -12.0594 -16.5915 2.0374 1.5413 33.7072
#
#
#
# Elastic Compliance Matrix: (Units=1/GPa)
#
#
# Indices 1 2 3 4 5 6 
#
# 1 0.034752 -0.006942 -0.010675 0.002426 0.011400 0.006895
# 2 -0.006942 0.014984 -0.005691 0.000792 -0.000819 -0.000507
# 3 -0.010675 -0.005691 0.017381 -0.002951 -0.003684 0.002166
# 4 0.002426 0.000792 -0.002951 0.024572 0.004091 -0.001774
# 5 0.011400 -0.000819 -0.003684 0.004091 0.031940 0.001206
# 6 0.006895 -0.000507 0.002166 -0.001774 0.001206 0.033640
#
#
# Mechanical properties :
#
#
# Convention : Reuss Voigt Hill
#
# Bulk Modulus (GPa) = 48.77382 68.93695 58.85538
# Shear Modulus (GPa) = 23.72836 30.66516 27.19676
#
# Velocity S-wave (km/s) = 3.36656 3.82714 3.60421
# Velocity P-wave (km/s) = 6.19743 7.24270 6.74035
#
# Compressibility (1/GPa) = 0.02050280
#
# Stress axis : x y z
#
# Youngs Moduli (GPa) = 28.77563 66.73621 57.53423
#
# Poissons Ratio (x) = 0.46326 0.61416
# Poissons Ratio (y) = 0.19975 0.32741
# Poissons Ratio (z) = 0.30717 0.37978
#
# Static dielectric constant tensor:
#      x y z
#    x 3.942660 -0.226930 0.314370 
#    y -0.226930 4.047900 -0.317550 
#    z 0.314370 -0.317550 5.141220 
# 
# 
# High freq. dielectric constant tensor:
#      x y z
#    x 1.815940 -0.008800 -0.010290 
#    y -0.008800 1.831120 -0.005670 
#    z -0.010290 -0.005670 1.835560 
# 
# From -- ./inp_files/315468.got.cif
#   From: 2010.06.25/outbox.cif.g09.slc.cpg/sg2_158_cif.got.tgz:315468.got - 2010.06.27 13:26:56.
