data_PCOD8025970
_publ_section_title
;
Structure prediction by ZEFSAII (Michael W. Deem and Ramdas Pophale) SiO2 
 PCOD8025970
Probable space group: P -1
;
_chemical_formula_sum "Si O2"
_cell_formula_units_Z 16
_cell_length_a 13.711339
_cell_length_b 11.671482
_cell_length_c 8.489269
_cell_angle_alpha 46.600591
_cell_angle_beta 52.047643
_cell_angle_gamma 49.023492
_cell_volume 710.960198
_symmetry_space_group_name_H-M "P -1"
_symmetry_group_IT_number 2
_symmetry_cell_setting 'triclinic'
loop_
_space_group_symop_operation_xyz
x,y,z
-x,-y,-z
loop_
_atom_site_type_symbol
_atom_site_label
_atom_site_fract_x
_atom_site_fract_y
_atom_site_fract_z
Si Si1 0.282427 0.538379 0.368838
Si Si2 0.644369 0.986924 0.314819
Si Si3 0.463763 0.481826 0.731137
Si Si4 0.012303 0.866184 0.850943
Si Si5 0.109697 0.347791 0.642067
Si Si6 0.737711 0.255391 0.105087
Si Si7 0.182302 0.838903 0.408105
Si Si8 0.424429 0.907175 0.059860
O O1 0.445700 0.460878 0.288737
O O2 0.208169 0.411460 0.582465
O O3 0.251286 0.648477 0.454431
O O4 0.233250 0.632223 0.163888
O O5 0.778034 0.820582 0.401723
O O6 0.500000 0.000000 0.500000
O O7 0.648572 0.160611 0.215948
O O8 0.643829 0.980108 0.132037
O O9 0.500000 0.500000 0.500000
O O10 0.317362 0.621386 0.800840
O O11 0.475947 0.284607 0.921271
O O12 0.116867 0.888169 0.849871
O O13 0.074354 0.835368 0.643519
O O14 0.883056 0.046416 0.792481
O O15 0.972813 0.711599 0.092501
O O16 0.000000 0.500000 0.500000
O O17 0.301932 0.894543 0.299148
O O18 0.500000 0.000000 0.000000
#
# Coordination Sequence:
#
# PCOD8025970 Si02
#       8
#     2   2   2   2   2   2   2   2
#     4  11  23  42  69  95 140 179 238 298 360 422
#     4  12  28  45  72 108 143 191 244 300 368 428
#     4  11  25  43  70 101 137 189 239 294 363 428
#     4  11  24  43  71  96 139 185 240 289 366 433
#     4  12  26  45  69 108 146 185 240 308 362 427
#     4  12  23  44  73  99 142 188 239 296 364 438
#     4  10  23  47  68 100 134 193 237 290 360 439
#     4  11  25  46  70 101 145 182 233 299 364 431
#
# _framework density 22.504774000000001
#
# number of rings (size 3 to 8) (size 9 to 14) (size 15 to 20)
#    0.000    0.750    5.000    2.625    8.750    1.500 
#    0.000    2.500    0.000    0.000    0.000    0.000 
#    0.000    0.000    0.000    0.000    0.000    0.000 
#
# Total GULP energy -198224.019144 kJ/mol
# GULP energy per Si atom -12389.001196 kJ/mol
# Density = 2.245355 g / cm^3
# Si number density = 22.504774 Si / 1000 Ang^3
#
#
#
# Elastic Constant Matrix: (Units=GPa)
#
#
# Indices 1 2 3 4 5 6 
#
# 1 116.9610 38.0175 36.4811 -14.9314 -18.4361 7.8349
# 2 38.0175 92.0236 34.9843 -4.8486 -9.8843 -6.5391
# 3 36.4811 34.9843 125.0197 -1.0991 -18.4359 3.7836
# 4 -14.9314 -4.8486 -1.0991 33.6953 -0.1548 2.8418
# 5 -18.4361 -9.8843 -18.4359 -0.1548 47.5886 -8.7389
# 6 7.8349 -6.5391 3.7836 2.8418 -8.7389 39.4895
#
#
#
# Elastic Compliance Matrix: (Units=1/GPa)
#
#
# Indices 1 2 3 4 5 6 
#
# 1 0.011495 -0.003712 -0.001825 0.004723 0.002531 -0.002500
# 2 -0.003712 0.013796 -0.002735 -0.000040 0.001012 0.003510
# 3 -0.001825 -0.002735 0.009654 -0.000840 0.002383 -0.000428
# 4 0.004723 -0.000040 -0.000840 0.031989 0.001062 -0.002930
# 5 0.002531 0.001012 0.002383 0.001062 0.023989 0.004669
# 6 -0.002500 0.003510 -0.000428 -0.002930 0.004669 0.027686
#
#
# Mechanical properties :
#
#
# Convention : Reuss Voigt Hill
#
# Bulk Modulus (GPa) = 54.34445 61.44113 57.89279
# Shear Modulus (GPa) = 35.38936 39.12277 37.25607
#
# Velocity S-wave (km/s) = 3.96981 4.17396 4.07317
# Velocity P-wave (km/s) = 6.72406 7.11266 6.92109
#
# Compressibility (1/GPa) = 0.01840114
#
# Stress axis : x y z
#
# Youngs Moduli (GPa) = 86.99362 72.48495 103.58859
#
# Poissons Ratio (x) = 0.26907 0.18906
# Poissons Ratio (y) = 0.32292 0.28328
# Poissons Ratio (z) = 0.15877 0.19822
#
# Static dielectric constant tensor:
#      x y z
#    x 4.394400 -0.498150 -0.104920 
#    y -0.498150 4.182940 -0.191340 
#    z -0.104920 -0.191340 4.210840 
# 
# 
# High freq. dielectric constant tensor:
#      x y z
#    x 1.896740 -0.022190 -0.000770 
#    y -0.022190 1.880940 -0.003560 
#    z -0.000770 -0.003560 1.892390 
# 
# From -- ./inp_files/306137.got.cif
#   From: 2010.06.25/outbox.cif.g09.slc.cpg/sg2_154_cif.got.tgz:306137.got - 2010.06.27 13:26:56.
