data_PCOD8025900
_publ_section_title
;
Structure prediction by ZEFSAII (Michael W. Deem and Ramdas Pophale) SiO2 
 PCOD8025900
Probable space group: P -1
;
_chemical_formula_sum "Si O2"
_cell_formula_units_Z 16
_cell_length_a 5.507073
_cell_length_b 14.707872
_cell_length_c 17.569605
_cell_angle_alpha 150.339033
_cell_angle_beta 91.106044
_cell_angle_gamma 78.650774
_cell_volume 655.852785
_symmetry_space_group_name_H-M "P -1"
_symmetry_group_IT_number 2
_symmetry_cell_setting 'triclinic'
loop_
_space_group_symop_operation_xyz
x,y,z
-x,-y,-z
loop_
_atom_site_type_symbol
_atom_site_label
_atom_site_fract_x
_atom_site_fract_y
_atom_site_fract_z
Si Si1 0.861412 0.472540 0.904322
Si Si2 0.720064 0.740795 0.378265
Si Si3 0.516255 0.804319 0.900155
Si Si4 0.006805 0.553706 0.386610
Si Si5 0.092014 0.895583 0.705182
Si Si6 0.735013 0.134563 0.632604
Si Si7 0.500818 0.877208 0.127082
Si Si8 0.733173 0.370769 0.353750
O O1 0.751845 0.306086 0.812209
O O2 0.049210 0.373821 0.762458
O O3 0.636409 0.672558 0.022547
O O4 0.000000 0.500000 0.000000
O O5 0.776167 0.644641 0.390915
O O6 0.453326 0.733387 0.338840
O O7 0.640694 0.979155 0.562702
O O8 0.347269 0.701222 0.778605
O O9 0.812126 0.654953 0.796720
O O10 0.434495 0.848451 0.018708
O O11 0.500000 0.000000 0.000000
O O12 0.166148 0.698996 0.509559
O O13 0.888908 0.513454 0.436607
O O14 0.095344 0.826465 0.742779
O O15 0.794060 0.021604 0.768564
O O16 0.306699 0.998342 0.770312
O O17 0.000000 0.000000 0.500000
O O18 0.500000 0.500000 0.500000
#
# Coordination Sequence:
#
# PCOD8025900 Si02
#       8
#     2   2   2   2   2   2   2   2
#     4  11  26  45  74 106 152 195 247 320 391 450
#     4  10  23  46  72 107 140 195 258 305 381 460
#     4  12  26  45  75 108 152 202 251 317 386 449
#     4  12  27  44  79 102 149 208 254 317 372 469
#     4  12  28  50  73 111 158 201 260 316 385 459
#     4   9  22  44  71 101 144 185 247 313 373 455
#     4  12  29  49  75 117 156 202 257 321 387 466
#     4  12  26  47  74 110 152 201 256 312 389 451
#
# _framework density 24.395717999999999
#
# number of rings (size 3 to 8) (size 9 to 14) (size 15 to 20)
#    0.000    0.750    3.750    1.875    7.000    4.500 
#    0.000    0.000    0.000    0.000    0.000    0.000 
#    0.000    0.000    0.000    0.000    0.000    0.000 
#
# Total GULP energy -198255.617104 kJ/mol
# GULP energy per Si atom -12390.976069 kJ/mol
# Density = 2.434019 g / cm^3
# Si number density = 24.395718 Si / 1000 Ang^3
#
#
#
# Elastic Constant Matrix: (Units=GPa)
#
#
# Indices 1 2 3 4 5 6 
#
# 1 96.6984 7.7016 35.9837 18.3038 8.2145 -22.0440
# 2 7.7016 110.5507 29.8589 25.5030 2.2280 -30.9024
# 3 35.9837 29.8589 128.3830 21.6063 24.1520 -9.6554
# 4 18.3038 25.5030 21.6063 40.5482 -8.4873 -4.6317
# 5 8.2145 2.2280 24.1520 -8.4873 36.3226 1.4880
# 6 -22.0440 -30.9024 -9.6554 -4.6317 1.4880 41.3430
#
#
#
# Elastic Compliance Matrix: (Units=1/GPa)
#
#
# Indices 1 2 3 4 5 6 
#
# 1 0.015014 0.004296 -0.002266 -0.008066 -0.004445 0.009943
# 2 0.004296 0.014880 -0.001355 -0.009991 -0.003814 0.012115
# 3 -0.002266 -0.001355 0.011290 -0.005869 -0.008285 0.000057
# 4 -0.008066 -0.009991 -0.005869 0.040023 0.016070 -0.009234
# 5 -0.004445 -0.003814 -0.008285 0.016070 0.038310 -0.006734
# 6 0.009943 0.012115 0.000057 -0.009234 -0.006734 0.037766
#
#
# Mechanical properties :
#
#
# Convention : Reuss Voigt Hill
#
# Bulk Modulus (GPa) = 23.51020 53.63561 38.57291
# Shear Modulus (GPa) = 29.39265 41.11529 35.25397
#
# Velocity S-wave (km/s) = 3.47483 4.10975 3.80556
# Velocity P-wave (km/s) = 5.07515 6.67484 5.92919
#
# Compressibility (1/GPa) = 0.04253472
#
# Stress axis : x y z
#
# Youngs Moduli (GPa) = 66.60625 67.20250 88.57458
#
# Poissons Ratio (x) = -0.28870 0.20069
# Poissons Ratio (y) = -0.28614 0.12000
# Poissons Ratio (z) = 0.15091 0.09105
#
# Static dielectric constant tensor:
#      x y z
#    x 4.347340 -0.251810 0.256770 
#    y -0.251810 4.489730 0.300680 
#    z 0.256770 0.300680 4.886090 
# 
# 
# High freq. dielectric constant tensor:
#      x y z
#    x 1.963440 -0.023430 0.009870 
#    y -0.023430 1.976190 0.013720 
#    z 0.009870 0.013720 1.986620 
# 
# From -- ./inp_files/52259.got.cif
#   From: 2010.06.25/outbox.cif.g09.slc.cpg/sg2_27_cif.got.tgz:52259.got - 2010.06.27 13:26:56.
