data_PCOD8025895
_publ_section_title
;
Structure prediction by ZEFSAII (Michael W. Deem and Ramdas Pophale) SiO2 
 PCOD8025895
Probable space group: P -1
;
_chemical_formula_sum "Si O2"
_cell_formula_units_Z 14
_cell_length_a 19.354876
_cell_length_b 9.659686
_cell_length_c 5.141161
_cell_angle_alpha 50.589194
_cell_angle_beta 119.979177
_cell_angle_gamma 132.935443
_cell_volume 539.847999
_symmetry_space_group_name_H-M "P -1"
_symmetry_group_IT_number 2
_symmetry_cell_setting 'triclinic'
loop_
_space_group_symop_operation_xyz
x,y,z
-x,-y,-z
loop_
_atom_site_type_symbol
_atom_site_label
_atom_site_fract_x
_atom_site_fract_y
_atom_site_fract_z
Si Si1 0.199454 0.570620 0.577656
Si Si2 0.402740 0.938413 0.525540
Si Si3 0.565998 0.824016 0.170586
Si Si4 0.121368 0.819782 0.928306
Si Si5 0.932152 0.520522 0.157461
Si Si6 0.359965 0.461648 0.161604
Si Si7 0.236293 0.321411 0.585597
O O1 0.174145 0.751562 0.315436
O O2 0.138097 0.425929 0.883865
O O3 0.172921 0.417214 0.455403
O O4 0.315223 0.685734 0.683026
O O5 0.417490 0.025997 0.736416
O O6 0.500000 0.000000 0.500000
O O7 0.369548 0.045790 0.117135
O O8 0.452879 0.705284 0.022305
O O9 0.594953 0.664017 0.496463
O O10 0.007837 0.715367 0.881111
O O11 0.132234 0.711697 0.820899
O O12 0.170218 0.071078 0.700791
O O13 0.000000 0.500000 0.500000
O O14 0.288014 0.442527 0.273029
O O15 0.308542 0.360579 0.910323
#
# Coordination Sequence:
#
# PCOD8025895 Si02
#       7
#     2   2   2   2   2   2   2
#     4  11  25  42  71 103 140 186 233 288 349 413
#     4  12  25  40  66 100 141 190 237 284 342 409
#     4  11  23  42  66  89 138 194 235 290 349 394
#     4  10  23  46  72 102 139 181 230 289 354 421
#     4   9  22  45  73 102 135 179 233 285 351 429
#     4  11  24  43  63 101 137 182 243 290 339 415
#     4  12  27  42  71 104 142 178 233 291 346 420
#
# _framework density 25.933223999999999
#
# number of rings (size 3 to 8) (size 9 to 14) (size 15 to 20)
#    0.000    1.143    0.000    5.571   10.000    2.857 
#    0.000    6.429    0.000    0.000    0.000    0.000 
#    0.000    0.000    0.000    0.000    0.000    0.000 
#
# Total GULP energy -173477.262102 kJ/mol
# GULP energy per Si atom -12391.233007 kJ/mol
# Density = 2.587420 g / cm^3
# Si number density = 25.933224 Si / 1000 Ang^3
#
#
#
# Elastic Constant Matrix: (Units=GPa)
#
#
# Indices 1 2 3 4 5 6 
#
# 1 159.9316 55.1835 27.0928 -20.0582 -12.2625 5.0798
# 2 55.1835 169.0739 46.0535 -19.1672 -26.4004 -6.2640
# 3 27.0928 46.0535 76.7526 -13.7142 -25.0081 6.3149
# 4 -20.0582 -19.1672 -13.7142 48.8801 -3.8869 1.2632
# 5 -12.2625 -26.4004 -25.0081 -3.8869 42.3276 7.5825
# 6 5.0798 -6.2640 6.3149 1.2632 7.5825 34.0762
#
#
#
# Elastic Compliance Matrix: (Units=1/GPa)
#
#
# Indices 1 2 3 4 5 6 
#
# 1 0.007431 -0.001896 -0.000563 0.002283 0.001150 -0.001692
# 2 -0.001896 0.008034 -0.003233 0.001609 0.002382 0.001769
# 3 -0.000563 -0.003233 0.020534 0.005379 0.011722 -0.007124
# 4 0.002283 0.001609 0.005379 0.024244 0.007724 -0.003659
# 5 0.001150 0.002382 0.011722 0.007724 0.034862 -0.009949
# 6 -0.001692 0.001769 -0.007124 -0.003659 -0.009949 0.033593
#
#
# Mechanical properties :
#
#
# Convention : Reuss Voigt Hill
#
# Bulk Modulus (GPa) = 40.62791 73.60195 57.11493
# Shear Modulus (GPa) = 33.71831 43.55199 38.63515
#
# Velocity S-wave (km/s) = 3.60974 4.10248 3.86397
# Velocity P-wave (km/s) = 5.75100 7.13326 6.47910
#
# Compressibility (1/GPa) = 0.02461362
#
# Stress axis : x y z
#
# Youngs Moduli (GPa) = 134.57896 124.47048 48.69888
#
# Poissons Ratio (x) = 0.23601 0.02743
# Poissons Ratio (y) = 0.25518 0.15745
# Poissons Ratio (z) = 0.07582 0.40244
#
# Static dielectric constant tensor:
#      x y z
#    x 5.853200 0.539210 -0.136310 
#    y 0.539210 4.826340 -0.081260 
#    z -0.136310 -0.081260 5.044900 
# 
# 
# High freq. dielectric constant tensor:
#      x y z
#    x 2.061870 0.008800 0.008260 
#    y 0.008800 2.029800 0.008770 
#    z 0.008260 0.008770 2.073310 
# 
# From -- ./inp_files/106367.got.cif
#   From: 2010.06.25/outbox.cif.g09.slc.cpg/sg2_54_cif.got.tgz:106367.got - 2010.06.27 13:26:56.
