data_PCOD8025932
_publ_section_title
;
Structure prediction by ZEFSAII (Michael W. Deem and Ramdas Pophale) SiO2 
 PCOD8025932
Probable space group: P -1
;
_chemical_formula_sum "Si O2"
_cell_formula_units_Z 16
_cell_length_a 8.593442
_cell_length_b 8.099732
_cell_length_c 11.169181
_cell_angle_alpha 98.118955
_cell_angle_beta 60.997013
_cell_angle_gamma 113.706169
_cell_volume 621.157744
_symmetry_space_group_name_H-M "P -1"
_symmetry_group_IT_number 2
_symmetry_cell_setting 'triclinic'
loop_
_space_group_symop_operation_xyz
x,y,z
-x,-y,-z
loop_
_atom_site_type_symbol
_atom_site_label
_atom_site_fract_x
_atom_site_fract_y
_atom_site_fract_z
Si Si1 0.453734 0.249731 0.593951
Si Si2 0.492610 0.357696 0.333235
Si Si3 0.112761 0.266460 0.065160
Si Si4 0.782167 0.374597 0.037217
Si Si5 0.873626 0.822964 0.687507
Si Si6 0.292484 0.876674 0.183485
Si Si7 0.147367 0.699622 0.451508
Si Si8 0.707648 0.986733 0.144857
O O1 0.421191 0.219596 0.459577
O O2 0.411016 0.429553 0.651226
O O3 0.672273 0.273527 0.529811
O O4 0.320782 0.085410 0.713132
O O5 0.310136 0.332291 0.317666
O O6 0.648164 0.304484 0.197446
O O7 0.263160 0.467788 0.997778
O O8 0.081534 0.257320 0.216230
O O9 0.220907 0.140884 0.972149
O O10 0.886475 0.188518 0.088508
O O11 0.736033 0.203683 0.947552
O O12 0.000000 0.500000 0.000000
O O13 0.057811 0.848458 0.536770
O O14 0.833568 0.001738 0.745009
O O15 0.204559 0.715147 0.293016
O O16 0.515456 0.986429 0.150833
O O17 0.000000 0.500000 0.500000
#
# Coordination Sequence:
#
# PCOD8025932 Si02
#       8
#     2   2   2   2   2   2   2   2
#     4  10  23  46  75 110 147 193 243 307 364 442
#     4  11  25  44  75 111 151 189 247 301 372 436
#     4  11  26  46  76 107 150 190 250 301 366 443
#     4  12  29  46  77 111 148 197 245 305 371 438
#     4  12  27  44  74 108 149 195 248 304 367 437
#     4  11  28  47  74 107 153 195 248 304 368 440
#     4  11  23  46  74 107 146 194 246 304 369 435
#     4  10  24  48  75 106 149 193 244 303 372 426
#
# _framework density 25.758351000000001
#
# number of rings (size 3 to 8) (size 9 to 14) (size 15 to 20)
#    0.000    1.000    2.500    1.875   10.500    4.000 
#    0.000    2.500    0.000    0.000    0.000    0.000 
#    0.000    0.000    0.000    0.000    0.000    0.000 
#
# Total GULP energy -198324.665857 kJ/mol
# GULP energy per Si atom -12395.291616 kJ/mol
# Density = 2.569972 g / cm^3
# Si number density = 25.758351 Si / 1000 Ang^3
#
#
#
# Elastic Constant Matrix: (Units=GPa)
#
#
# Indices 1 2 3 4 5 6 
#
# 1 97.8503 11.1759 50.7969 13.2415 3.0268 2.3759
# 2 11.1759 130.9659 58.4024 -10.1480 5.1638 -9.3320
# 3 50.7969 58.4024 170.5490 8.6908 2.6166 11.6328
# 4 13.2415 -10.1480 8.6908 43.9486 -4.2688 -7.1227
# 5 3.0268 5.1638 2.6166 -4.2688 48.2911 13.8794
# 6 2.3759 -9.3320 11.6328 -7.1227 13.8794 28.2747
#
#
#
# Elastic Compliance Matrix: (Units=1/GPa)
#
#
# Indices 1 2 3 4 5 6 
#
# 1 0.012537 0.000434 -0.003741 -0.002974 -0.000999 0.000370
# 2 0.000434 0.010554 -0.004436 0.004160 -0.002752 0.007671
# 3 -0.003741 -0.004436 0.009035 -0.002544 0.001837 -0.006410
# 4 -0.002974 0.004160 -0.002544 0.026624 -0.000538 0.009640
# 5 -0.000999 -0.002752 0.001837 -0.000538 0.024928 -0.013952
# 6 0.000370 0.007671 -0.006410 0.009640 -0.013952 0.049782
#
#
# Mechanical properties :
#
#
# Convention : Reuss Voigt Hill
#
# Bulk Modulus (GPa) = 60.09856 71.12394 65.61125
# Shear Modulus (GPa) = 32.36387 42.70222 37.53304
#
# Velocity S-wave (km/s) = 3.54848 4.07603 3.82137
# Velocity P-wave (km/s) = 6.33808 7.05861 6.70802
#
# Compressibility (1/GPa) = 0.01663933
#
# Stress axis : x y z
#
# Youngs Moduli (GPa) = 79.76700 94.74793 110.67594
#
# Poissons Ratio (x) = -0.04108 0.41400
# Poissons Ratio (y) = -0.03458 0.49099
# Poissons Ratio (z) = 0.29838 0.42033
#
# Static dielectric constant tensor:
#      x y z
#    x 4.902630 -0.227950 0.055770 
#    y -0.227950 5.769820 -0.585250 
#    z 0.055770 -0.585250 5.299200 
# 
# 
# High freq. dielectric constant tensor:
#      x y z
#    x 2.044910 -0.018010 0.002320 
#    y -0.018010 2.038200 -0.003960 
#    z 0.002320 -0.003960 2.049690 
# 
# From -- ./inp_files/382538.got.cif
#   From: 2010.06.25/outbox.cif.g09.slc.cpg/sg2_192_cif.got.tgz:382538.got - 2010.06.27 13:26:56.
