data_PCOD8025915
_publ_section_title
;
Structure prediction by ZEFSAII (Michael W. Deem and Ramdas Pophale) SiO2 
 PCOD8025915
Probable space group: P -1
;
_chemical_formula_sum "Si O2"
_cell_formula_units_Z 12
_cell_length_a 5.216391
_cell_length_b 12.908110
_cell_length_c 9.434807
_cell_angle_alpha 130.856277
_cell_angle_beta 72.304678
_cell_angle_gamma 98.092431
_cell_volume 456.273771
_symmetry_space_group_name_H-M "P -1"
_symmetry_group_IT_number 2
_symmetry_cell_setting 'triclinic'
loop_
_space_group_symop_operation_xyz
x,y,z
-x,-y,-z
loop_
_atom_site_type_symbol
_atom_site_label
_atom_site_fract_x
_atom_site_fract_y
_atom_site_fract_z
Si Si1 0.736510 0.418914 0.979442
Si Si2 0.808162 0.979786 0.885200
Si Si3 0.885800 0.929032 0.323623
Si Si4 0.759589 0.446585 0.322631
Si Si5 0.079370 0.692972 0.561146
Si Si6 0.579579 0.202567 0.618778
O O1 0.764841 0.263335 0.769019
O O2 0.500000 0.500000 0.000000
O O3 0.672522 0.399614 0.139557
O O4 0.000000 0.500000 0.000000
O O5 0.873733 0.824898 0.676346
O O6 0.881924 0.092096 0.854302
O O7 0.500000 0.000000 0.000000
O O8 0.000000 0.000000 0.000000
O O9 0.732129 0.791790 0.265660
O O10 0.657981 0.046983 0.413589
O O11 0.000000 0.000000 0.500000
O O12 0.500000 0.500000 0.500000
O O13 0.970580 0.562148 0.384795
O O14 0.892130 0.320799 0.285299
O O15 0.374029 0.705855 0.447621
#
# Coordination Sequence:
#
# PCOD8025915 Si02
#       6
#     2   2   2   2   2   2
#     4  12  27  47  75 111 151 199 253 315 382 460
#     4  11  28  48  74 112 152 197 258 318 388 453
#     4  10  25  45  77 105 142 204 252 316 380 452
#     4  11  25  44  76 112 151 205 255 312 399 461
#     4  10  24  47  74 108 155 204 255 326 385 467
#     4  10  23  46  73 107 149 194 260 313 381 458
#
# _framework density 26.300001000000002
#
# number of rings (size 3 to 8) (size 9 to 14) (size 15 to 20)
#    0.000    1.333    1.667    1.000   14.000    4.000 
#    0.000    0.000    0.000    0.000    0.000    0.000 
#    0.000    0.000    0.000    0.000    0.000    0.000 
#
# Total GULP energy -148701.522164 kJ/mol
# GULP energy per Si atom -12391.793514 kJ/mol
# Density = 2.624014 g / cm^3
# Si number density = 26.300001 Si / 1000 Ang^3
#
#
#
# Elastic Constant Matrix: (Units=GPa)
#
#
# Indices 1 2 3 4 5 6 
#
# 1 139.2273 70.2886 41.5187 -25.1462 5.3009 41.6902
# 2 70.2886 169.4448 65.5803 -37.3385 -5.3372 46.8258
# 3 41.5187 65.5803 137.4568 -33.6830 16.3936 18.5522
# 4 -25.1462 -37.3385 -33.6830 53.0318 0.2408 -7.6907
# 5 5.3009 -5.3372 16.3936 0.2408 48.6002 -9.2929
# 6 41.6902 46.8258 18.5522 -7.6907 -9.2929 54.7846
#
#
#
# Elastic Compliance Matrix: (Units=1/GPa)
#
#
# Indices 1 2 3 4 5 6 
#
# 1 0.010823 -0.002066 -0.000538 0.002424 -0.002455 -0.006364
# 2 -0.002066 0.010175 -0.002741 0.003643 0.001201 -0.005481
# 3 -0.000538 -0.002741 0.010379 0.004306 -0.003922 -0.000824
# 4 0.002424 0.003643 0.004306 0.024839 -0.002067 -0.003280
# 5 -0.002455 0.001201 -0.003922 -0.002067 0.023428 0.005854
# 6 -0.006364 -0.005481 -0.000824 -0.003280 0.005854 0.028593
#
#
# Mechanical properties :
#
#
# Convention : Reuss Voigt Hill
#
# Bulk Modulus (GPa) = 48.33824 88.98934 68.66379
# Shear Modulus (GPa) = 39.73858 49.19942 44.46900
#
# Velocity S-wave (km/s) = 3.89134 4.32985 4.11644
# Velocity P-wave (km/s) = 6.21365 7.67506 6.98269
#
# Compressibility (1/GPa) = 0.02068756
#
# Stress axis : x y z
#
# Youngs Moduli (GPa) = 92.39791 98.28235 96.34577
#
# Poissons Ratio (x) = 0.20303 0.05180
# Poissons Ratio (y) = 0.19087 0.26410
# Poissons Ratio (z) = 0.04968 0.26941
#
# Static dielectric constant tensor:
#      x y z
#    x 5.389310 -0.457190 -0.112140 
#    y -0.457190 6.496910 0.471380 
#    z -0.112140 0.471380 5.502640 
# 
# 
# High freq. dielectric constant tensor:
#      x y z
#    x 2.046790 0.009730 0.003900 
#    y 0.009730 2.077190 -0.011770 
#    z 0.003900 -0.011770 2.052050 
# 
# From -- ./inp_files/131945.got.cif
#   From: 2010.06.25/outbox.cif.g09.slc.cpg/sg2_66_cif.got.tgz:131945.got - 2010.06.27 13:26:56.
