data_PCOD8025144
_publ_section_title
;
Structure prediction by ZEFSAII (Michael W. Deem and Ramdas Pophale) SiO2 
 PCOD8025144
Probable space group: P -1
;
_chemical_formula_sum "Si O2"
_cell_formula_units_Z 16
_cell_length_a 12.883896
_cell_length_b 12.073198
_cell_length_c 11.871690
_cell_angle_alpha 105.003995
_cell_angle_beta 102.424821
_cell_angle_gamma 143.751984
_cell_volume 706.700942
_symmetry_space_group_name_H-M "P -1"
_symmetry_group_IT_number 2
_symmetry_cell_setting 'triclinic'
loop_
_space_group_symop_operation_xyz
x,y,z
-x,-y,-z
loop_
_atom_site_type_symbol
_atom_site_label
_atom_site_fract_x
_atom_site_fract_y
_atom_site_fract_z
Si Si1 0.525861 0.022830 0.198073
Si Si2 0.085212 0.601122 0.802492
Si Si3 0.484135 0.731391 0.185867
Si Si4 0.211932 0.266078 0.372443
Si Si5 0.090173 0.262225 0.804219
Si Si6 0.001837 0.133183 0.504259
Si Si7 0.324584 0.964399 0.341751
Si Si8 0.795581 0.538021 0.731643
O O1 0.591514 0.963967 0.249045
O O2 0.482972 0.069952 0.300736
O O3 0.771680 0.304647 0.252081
O O4 0.264121 0.754830 0.992897
O O5 0.808967 0.266219 0.673026
O O6 0.030696 0.682793 0.794732
O O7 0.236437 0.489287 0.148728
O O8 0.711169 0.881932 0.335205
O O9 0.378609 0.566944 0.003644
O O10 0.500000 0.500000 0.500000
O O11 0.141706 0.272654 0.248746
O O12 0.192249 0.333059 0.493271
O O13 0.001063 0.956510 0.247838
O O14 0.103033 0.301218 0.682491
O O15 0.893149 0.160938 0.786032
O O16 0.000000 0.000000 0.500000
O O17 0.520834 0.227119 0.534525
#
# Coordination Sequence:
#
# PCOD8025144 Si02
#       8
#     2   2   2   2   2   2   2   2
#     4  11  25  42  67 100 144 179 231 292 337 425
#     4  11  24  43  64 103 136 180 237 283 350 413
#     4  12  23  45  71 100 140 183 228 285 352 408
#     4  11  23  46  67 101 139 177 233 286 343 415
#     4  11  24  44  74  98 137 188 225 285 353 404
#     4  10  23  44  69  97 134 175 233 287 335 412
#     4  12  22  44  67 100 137 185 225 284 350 402
#     4  12  24  41  70  98 139 182 232 290 343 414
#
# _framework density 22.640411
#
# number of rings (size 3 to 8) (size 9 to 14) (size 15 to 20)
#    0.000    0.750    5.000    3.000    0.000    4.000 
#    0.000    1.250    0.000    0.000    0.000    0.000 
#    0.000    0.000    0.000    0.000    0.000    0.000 
#
# Total GULP energy -198442.870936 kJ/mol
# GULP energy per Si atom -12402.679433 kJ/mol
# Density = 2.258888 g / cm^3
# Si number density = 22.640411 Si / 1000 Ang^3
#
#
#
# Elastic Constant Matrix: (Units=GPa)
#
#
# Indices 1 2 3 4 5 6 
#
# 1 121.7071 37.2988 32.0955 -9.9966 9.5200 1.2190
# 2 37.2988 99.7941 17.7161 -13.1429 -6.2346 11.0527
# 3 32.0955 17.7161 103.0693 -19.3708 -2.4650 10.0602
# 4 -9.9966 -13.1429 -19.3708 24.2035 -1.5141 1.4905
# 5 9.5200 -6.2346 -2.4650 -1.5141 34.2574 -9.5378
# 6 1.2190 11.0527 10.0602 1.4905 -9.5378 49.1833
#
#
#
# Elastic Compliance Matrix: (Units=1/GPa)
#
#
# Indices 1 2 3 4 5 6 
#
# 1 0.010331 -0.003671 -0.002749 -0.000180 -0.003624 0.000434
# 2 -0.003671 0.012557 0.000413 0.005965 0.002923 -0.002429
# 3 -0.002749 0.000413 0.012536 0.009371 0.001433 -0.002595
# 4 -0.000180 0.005965 0.009371 0.052428 0.002938 -0.004272
# 5 -0.003624 0.002923 0.001433 0.002938 0.032450 0.005344
# 6 0.000434 -0.002429 -0.002595 -0.004272 0.005344 0.022564
#
#
# Mechanical properties :
#
#
# Convention : Reuss Voigt Hill
#
# Bulk Modulus (GPa) = 42.71826 55.42127 49.06977
# Shear Modulus (GPa) = 30.73451 37.35951 34.04701
#
# Velocity S-wave (km/s) = 3.68843 4.06658 3.88211
# Velocity P-wave (km/s) = 6.08675 6.82506 6.46645
#
# Compressibility (1/GPa) = 0.02340919
#
# Stress axis : x y z
#
# Youngs Moduli (GPa) = 96.79769 79.63820 79.77032
#
# Poissons Ratio (x) = 0.29239 0.21927
# Poissons Ratio (y) = 0.35539 -0.03295
# Poissons Ratio (z) = 0.26608 -0.03289
#
# Static dielectric constant tensor:
#      x y z
#    x 4.427640 0.330750 -0.099930 
#    y 0.330750 4.625340 -0.454670 
#    z -0.099930 -0.454670 4.000540 
# 
# 
# High freq. dielectric constant tensor:
#      x y z
#    x 1.909030 0.002800 0.009300 
#    y 0.002800 1.893310 -0.018530 
#    z 0.009300 -0.018530 1.881100 
# 
# From -- ./inp_files/428569.got.cif
#   From: 2010.06.25/outbox.cif.g09.slc.cpg/sg2_215_cif.got.tgz:428569.got - 2010.06.27 13:26:56.
