data_PCOD8025189
_publ_section_title
;
Structure prediction by ZEFSAII (Michael W. Deem and Ramdas Pophale) SiO2 
 PCOD8025189
Probable space group: P -1
;
_chemical_formula_sum "Si O2"
_cell_formula_units_Z 16
_cell_length_a 14.918301
_cell_length_b 9.465879
_cell_length_c 15.432472
_cell_angle_alpha 133.834566
_cell_angle_beta 39.933680
_cell_angle_gamma 101.532115
_cell_volume 705.299650
_symmetry_space_group_name_H-M "P -1"
_symmetry_group_IT_number 2
_symmetry_cell_setting 'triclinic'
loop_
_space_group_symop_operation_xyz
x,y,z
-x,-y,-z
loop_
_atom_site_type_symbol
_atom_site_label
_atom_site_fract_x
_atom_site_fract_y
_atom_site_fract_z
Si Si1 0.953187 0.649910 0.219242
Si Si2 0.500004 0.174074 0.007189
Si Si3 0.631830 0.385417 0.589984
Si Si4 0.983542 0.210435 0.940762
Si Si5 0.411667 0.225404 0.734446
Si Si6 0.078593 0.142567 0.495770
Si Si7 0.690620 0.778318 0.007641
Si Si8 0.626207 0.282546 0.236960
O O1 0.900858 0.808188 0.234980
O O2 0.838096 0.860840 0.474760
O O3 0.912464 0.456785 0.161622
O O4 0.179723 0.468281 0.994825
O O5 0.723297 0.044025 0.788858
O O6 0.342505 0.488630 0.296421
O O7 0.427564 0.186950 0.971615
O O8 0.500000 0.000000 0.000000
O O9 0.498431 0.350482 0.713634
O O10 0.521455 0.602732 0.684982
O O11 0.845760 0.095278 0.272116
O O12 0.796721 0.265947 0.076445
O O13 0.500000 0.000000 0.500000
O O14 0.449498 0.112136 0.756713
O O15 0.904845 0.456809 0.720108
O O16 0.000000 0.000000 0.500000
O O17 0.726699 0.975072 0.056290
O O18 0.500000 0.500000 0.500000
#
# Coordination Sequence:
#
# PCOD8025189 Si02
#       8
#     2   2   2   2   2   2   2   2
#     4  10  23  44  70 108 138 185 243 301 354 432
#     4  12  28  48  72 104 148 194 242 296 358 446
#     4  12  26  46  73 104 143 188 242 298 361 434
#     4  11  26  42  74 105 142 188 237 301 366 426
#     4  11  21  44  73 105 142 180 240 301 357 424
#     4  11  28  48  73 106 147 190 249 302 356 435
#     4  11  28  46  74 106 144 196 239 299 365 432
#     4  12  28  46  72 107 150 190 235 300 373 438
#
# _framework density 22.685395
#
# number of rings (size 3 to 8) (size 9 to 14) (size 15 to 20)
#    0.000    0.750    3.750    2.250    8.750    2.000 
#    0.000    0.000    0.000    0.000    0.000    0.000 
#    0.000    0.000    0.000    0.000    0.000    0.000 
#
# Total GULP energy -198406.179337 kJ/mol
# GULP energy per Si atom -12400.386209 kJ/mol
# Density = 2.263376 g / cm^3
# Si number density = 22.685395 Si / 1000 Ang^3
#
#
#
# Elastic Constant Matrix: (Units=GPa)
#
#
# Indices 1 2 3 4 5 6 
#
# 1 124.8340 43.7073 25.9836 8.2104 22.6977 -3.6514
# 2 43.7073 117.1262 36.0849 14.0841 13.0484 5.9277
# 3 25.9836 36.0849 73.2824 11.8666 11.6064 -0.8264
# 4 8.2104 14.0841 11.8666 39.3686 1.1063 5.9776
# 5 22.6977 13.0484 11.6064 1.1063 39.7391 4.5644
# 6 -3.6514 5.9277 -0.8264 5.9776 4.5644 40.2083
#
#
#
# Elastic Compliance Matrix: (Units=1/GPa)
#
#
# Indices 1 2 3 4 5 6 
#
# 1 0.010276 -0.002901 -0.001298 -0.000885 -0.004743 0.002004
# 2 -0.002901 0.011276 -0.004139 -0.001913 -0.000593 -0.001659
# 3 -0.001298 -0.004139 0.017229 -0.003619 -0.003030 0.001728
# 4 -0.000885 -0.001913 -0.003619 0.027952 0.001900 -0.004244
# 5 -0.004743 -0.000593 -0.003030 0.001900 0.029362 -0.004021
# 6 0.002004 -0.001659 0.001728 -0.004244 -0.004021 0.026420
#
#
# Mechanical properties :
#
#
# Convention : Reuss Voigt Hill
#
# Bulk Modulus (GPa) = 45.23803 58.53268 51.88536
# Shear Modulus (GPa) = 34.11625 37.82766 35.97195
#
# Velocity S-wave (km/s) = 3.88220 4.08792 3.98639
# Velocity P-wave (km/s) = 6.33089 6.93826 6.64152
#
# Compressibility (1/GPa) = 0.02210530
#
# Stress axis : x y z
#
# Youngs Moduli (GPa) = 97.31588 88.68785 58.04086
#
# Poissons Ratio (x) = 0.25732 0.07532
# Poissons Ratio (y) = 0.28235 0.24021
# Poissons Ratio (z) = 0.12629 0.36704
#
# Static dielectric constant tensor:
#      x y z
#    x 4.275960 -0.244610 -0.124350 
#    y -0.244610 4.290770 -0.074460 
#    z -0.124350 -0.074460 3.644440 
# 
# 
# High freq. dielectric constant tensor:
#      x y z
#    x 1.906640 0.003720 0.005710 
#    y 0.003720 1.900220 0.005640 
#    z 0.005710 0.005640 1.898700 
# 
# From -- ./inp_files/530116.got.cif
#   From: 2010.06.25/outbox.cif.g09.slc.cpg/sg2_266_cif.got.tgz:530116.got - 2010.06.27 13:26:56.
