data_PCOD8025735
_publ_section_title
;
Structure prediction by ZEFSAII (Michael W. Deem and Ramdas Pophale) SiO2 
 PCOD8025735
Probable space group: P -1
;
_chemical_formula_sum "Si O2"
_cell_formula_units_Z 12
_cell_length_a 7.881736
_cell_length_b 9.982270
_cell_length_c 12.122481
_cell_angle_alpha 121.779956
_cell_angle_beta 143.601681
_cell_angle_gamma 64.721083
_cell_volume 481.101582
_symmetry_space_group_name_H-M "P -1"
_symmetry_group_IT_number 2
_symmetry_cell_setting 'triclinic'
loop_
_space_group_symop_operation_xyz
x,y,z
-x,-y,-z
loop_
_atom_site_type_symbol
_atom_site_label
_atom_site_fract_x
_atom_site_fract_y
_atom_site_fract_z
Si Si1 0.076657 0.467080 0.703841
Si Si2 0.368954 0.166887 0.972759
Si Si3 0.203500 0.736415 0.350412
Si Si4 0.780536 0.207400 0.024349
Si Si5 0.680783 0.958289 0.685534
Si Si6 0.552960 0.499335 0.288750
O O1 0.138422 0.613070 0.881395
O O2 0.355767 0.434284 0.757033
O O3 0.977865 0.325816 0.668009
O O4 0.822517 0.522170 0.516848
O O5 0.474107 0.206053 0.921821
O O6 0.465545 0.314887 0.162898
O O7 0.500000 0.000000 0.000000
O O8 0.986650 0.869224 0.800588
O O9 0.976744 0.846655 0.212217
O O10 0.301456 0.602509 0.256890
O O11 0.464464 0.837271 0.581238
O O12 0.747695 0.117160 0.854014
O O13 0.500000 0.000000 0.500000
#
# Coordination Sequence:
#
# PCOD8025735 Si02
#       6
#     2   2   2   2   2   2
#     4  10  23  46  74 107 143 190 248 303 371 430
#     4  11  26  45  69 109 150 193 242 309 371 435
#     4  12  25  44  78 110 136 198 252 299 360 450
#     4  10  24  47  68 103 154 194 237 313 371 435
#     4  11  25  44  72 108 149 198 244 303 375 441
#     4  10  23  45  76 104 149 189 240 309 365 437
#
# _framework density 24.942758999999999
#
# number of rings (size 3 to 8) (size 9 to 14) (size 15 to 20)
#    0.000    1.333    1.667    2.000    2.333    8.667 
#    0.000    0.000    0.000    0.000    0.000    0.000 
#    0.000    0.000    0.000    0.000    0.000    0.000 
#
# Total GULP energy -148693.000873 kJ/mol
# GULP energy per Si atom -12391.083406 kJ/mol
# Density = 2.488599 g / cm^3
# Si number density = 24.942759 Si / 1000 Ang^3
#
#
#
# Elastic Constant Matrix: (Units=GPa)
#
#
# Indices 1 2 3 4 5 6 
#
# 1 102.9848 34.7539 33.8533 -10.6475 11.3523 -13.9988
# 2 34.7539 75.6524 27.4333 0.5624 -4.4377 -3.1680
# 3 33.8533 27.4333 118.1162 1.4790 11.5758 -4.1643
# 4 -10.6475 0.5624 1.4790 35.6143 3.0336 7.3938
# 5 11.3523 -4.4377 11.5758 3.0336 27.5752 -6.0881
# 6 -13.9988 -3.1680 -4.1643 7.3938 -6.0881 38.0795
#
#
#
# Elastic Compliance Matrix: (Units=1/GPa)
#
#
# Indices 1 2 3 4 5 6 
#
# 1 0.013756 -0.005851 -0.001990 0.004223 -0.005654 0.002629
# 2 -0.005851 0.017440 -0.002996 -0.002607 0.006888 0.000580
# 3 -0.001990 -0.002996 0.010111 -0.000550 -0.003935 -0.000397
# 4 0.004223 -0.002607 -0.000550 0.031185 -0.006648 -0.005842
# 5 -0.005654 0.006888 -0.003935 -0.006648 0.043476 0.006306
# 6 0.002629 0.000580 -0.000397 -0.005842 0.006306 0.029375
#
#
# Mechanical properties :
#
#
# Convention : Reuss Voigt Hill
#
# Bulk Modulus (GPa) = 50.93106 54.31493 52.62299
# Shear Modulus (GPa) = 28.80871 33.63466 31.22168
#
# Velocity S-wave (km/s) = 3.40221 3.67614 3.54182
# Velocity P-wave (km/s) = 5.99140 6.31204 6.15380
#
# Compressibility (1/GPa) = 0.01963438
#
# Stress axis : x y z
#
# Youngs Moduli (GPa) = 72.69627 57.33923 98.90430
#
# Poissons Ratio (x) = 0.33547 0.19680
# Poissons Ratio (y) = 0.42532 0.29628
# Poissons Ratio (z) = 0.14465 0.17177
#
# Static dielectric constant tensor:
#      x y z
#    x 4.898560 -0.003960 0.451080 
#    y -0.003960 4.516710 0.165550 
#    z 0.451080 0.165550 4.924880 
# 
# 
# High freq. dielectric constant tensor:
#      x y z
#    x 2.002120 -0.011020 0.020210 
#    y -0.011020 1.993300 0.005250 
#    z 0.020210 0.005250 2.002950 
# 
# From -- ./inp_files/193724.got.cif
#   From: 2010.06.25/outbox.cif.g09.slc.cpg/sg2_97_cif.got.tgz:193724.got - 2010.06.27 13:26:56.
