data_PCOD8025688
_publ_section_title
;
Structure prediction by ZEFSAII (Michael W. Deem and Ramdas Pophale) SiO2 
 PCOD8025688
Probable space group: P -1
;
_chemical_formula_sum "Si O2"
_cell_formula_units_Z 14
_cell_length_a 11.003117
_cell_length_b 9.228488
_cell_length_c 5.501593
_cell_angle_alpha 78.824464
_cell_angle_beta 86.834824
_cell_angle_gamma 82.049715
_cell_volume 542.550838
_symmetry_space_group_name_H-M "P -1"
_symmetry_group_IT_number 2
_symmetry_cell_setting 'triclinic'
loop_
_space_group_symop_operation_xyz
x,y,z
-x,-y,-z
loop_
_atom_site_type_symbol
_atom_site_label
_atom_site_fract_x
_atom_site_fract_y
_atom_site_fract_z
Si Si1 0.922494 0.187722 0.674029
Si Si2 0.252477 0.566927 0.626563
Si Si3 0.531975 0.672703 0.378885
Si Si4 0.624666 0.959003 0.352423
Si Si5 0.141272 0.113602 0.315415
Si Si6 0.609569 0.272829 0.110855
Si Si7 0.917389 0.635371 0.085469
O O1 0.801253 0.303819 0.593329
O O2 0.011639 0.167814 0.439835
O O3 0.995059 0.250893 0.862309
O O4 0.877422 0.030332 0.801771
O O5 0.383749 0.486584 0.538063
O O6 0.272176 0.641196 0.867361
O O7 0.164167 0.438223 0.685506
O O8 0.614123 0.804897 0.262140
O O9 0.462313 0.712153 0.626383
O O10 0.454105 0.655382 0.146374
O O11 0.746338 0.935978 0.506381
O O12 0.500000 0.000000 0.500000
O O13 0.642701 0.094372 0.120976
O O14 0.172761 0.258159 0.116425
O O15 0.000000 0.500000 0.000000
#
# Coordination Sequence:
#
# PCOD8025688 Si02
#       7
#     2   2   2   2   2   2   2
#     4  11  25  48  71 105 144 196 248 303 373 450
#     4  12  25  46  72 108 148 193 245 310 379 448
#     4  11  26  45  77 106 156 190 256 308 379 437
#     4  10  23  45  73 105 144 190 252 302 373 441
#     4  11  24  50  71 102 148 192 251 304 373 445
#     4  11  25  50  69 115 145 204 246 311 370 457
#     4  12  27  43  73 109 145 193 246 310 379 448
#
# _framework density 25.804036
#
# number of rings (size 3 to 8) (size 9 to 14) (size 15 to 20)
#    0.000    0.857    2.857    3.000    6.000    1.143 
#    5.143    0.000    0.000    0.000    0.000    0.000 
#    0.000    0.000    0.000    0.000    0.000    0.000 
#
# Total GULP energy -173512.663837 kJ/mol
# GULP energy per Si atom -12393.761703 kJ/mol
# Density = 2.574530 g / cm^3
# Si number density = 25.804036 Si / 1000 Ang^3
#
#
#
# Elastic Constant Matrix: (Units=GPa)
#
#
# Indices 1 2 3 4 5 6 
#
# 1 93.2528 25.9861 20.4182 -7.4591 19.9991 -7.8576
# 2 25.9861 157.6801 36.7584 -29.9249 12.0604 10.6752
# 3 20.4182 36.7584 95.5562 -11.4753 12.9730 -8.6418
# 4 -7.4591 -29.9249 -11.4753 43.9258 -0.1949 16.1053
# 5 19.9991 12.0604 12.9730 -0.1949 33.5973 0.5508
# 6 -7.8576 10.6752 -8.6418 16.1053 0.5508 48.9520
#
#
#
# Elastic Compliance Matrix: (Units=1/GPa)
#
#
# Indices 1 2 3 4 5 6 
#
# 1 0.013047 -0.001534 -0.001057 0.000016 -0.006845 0.002314
# 2 -0.001534 0.008936 -0.002558 0.006958 -0.001186 -0.004922
# 3 -0.001057 -0.002558 0.012391 0.000389 -0.003275 0.002484
# 4 0.000016 0.006958 0.000389 0.031979 -0.002276 -0.011942
# 5 -0.006845 -0.001186 -0.003275 -0.002276 0.035534 -0.001069
# 6 0.002314 -0.004922 0.002484 -0.011942 -0.001069 0.026252
#
#
# Mechanical properties :
#
#
# Convention : Reuss Voigt Hill
#
# Bulk Modulus (GPa) = 41.53702 56.97940 49.25821
# Shear Modulus (GPa) = 34.13864 42.85011 38.49438
#
# Velocity S-wave (km/s) = 3.64125 4.07946 3.86657
# Velocity P-wave (km/s) = 5.81466 6.65724 6.25017
#
# Compressibility (1/GPa) = 0.02407491
#
# Stress axis : x y z
#
# Youngs Moduli (GPa) = 76.64778 111.91222 80.70266
#
# Poissons Ratio (x) = 0.17165 0.08533
# Poissons Ratio (y) = 0.11756 0.20645
# Poissons Ratio (z) = 0.08104 0.28629
#
# Static dielectric constant tensor:
#      x y z
#    x 5.320660 0.737810 0.112410 
#    y 0.737810 6.070490 -0.054620 
#    z 0.112410 -0.054620 4.072210 
# 
# 
# High freq. dielectric constant tensor:
#      x y z
#    x 2.041090 0.011900 0.010230 
#    y 0.011900 2.074000 -0.014840 
#    z 0.010230 -0.014840 2.005380 
# 
# From -- ./inp_files/60471.got.cif
#   From: 2010.06.25/outbox.cif.g09.slc.cpg/sg2_31_cif.got.tgz:60471.got - 2010.06.27 13:26:56.
