data_PCOD8025461
_publ_section_title
;
Structure prediction by ZEFSAII (Michael W. Deem and Ramdas Pophale) SiO2 
 PCOD8025461
Probable space group: P -1
;
_chemical_formula_sum "Si O2"
_cell_formula_units_Z 16
_cell_length_a 14.801365
_cell_length_b 9.496978
_cell_length_c 11.533118
_cell_angle_alpha 139.774861
_cell_angle_beta 108.256168
_cell_angle_gamma 47.841172
_cell_volume 705.715534
_symmetry_space_group_name_H-M "P -1"
_symmetry_group_IT_number 2
_symmetry_cell_setting 'triclinic'
loop_
_space_group_symop_operation_xyz
x,y,z
-x,-y,-z
loop_
_atom_site_type_symbol
_atom_site_label
_atom_site_fract_x
_atom_site_fract_y
_atom_site_fract_z
Si Si1 0.691892 0.650996 0.148085
Si Si2 0.958561 0.630522 0.760865
Si Si3 0.451436 0.654498 0.451831
Si Si4 0.005009 0.871337 0.109795
Si Si5 0.367905 0.344796 0.124179
Si Si6 0.141480 0.466148 0.540880
Si Si7 0.380822 0.351647 0.646333
Si Si8 0.066268 0.693313 0.270985
O O1 0.672588 0.513055 0.160865
O O2 0.635345 0.986627 0.352623
O O3 0.848292 0.421222 0.056323
O O4 0.624675 0.651218 0.009126
O O5 0.849892 0.721848 0.679817
O O6 0.975703 0.442569 0.756064
O O7 0.101690 0.416943 0.615766
O O8 0.913555 0.923459 0.998326
O O9 0.500000 0.500000 0.500000
O O10 0.366494 0.592774 0.327097
O O11 0.577145 0.503423 0.320420
O O12 0.990063 0.784093 0.174640
O O13 0.980354 0.167942 0.301875
O O14 0.228601 0.453987 0.175117
O O15 0.500000 0.000000 0.000000
O O16 0.277753 0.379681 0.544275
O O17 0.500000 0.000000 0.500000
O O18 0.000000 0.000000 0.500000
#
# Coordination Sequence:
#
# PCOD8025461 Si02
#       8
#     2   2   2   2   2   2   2   2
#     4  10  23  45  67  99 138 171 231 285 337 412
#     4  11  24  42  69 100 133 182 221 282 353 403
#     4  11  24  43  72  93 135 187 222 276 350 393
#     4  11  23  44  68  99 139 175 225 286 344 410
#     4  11  25  45  69 100 137 181 235 285 333 415
#     4  11  24  44  68 100 138 173 230 285 342 412
#     4  10  24  45  68  98 135 182 226 283 340 411
#     4  11  25  43  68 102 141 177 230 291 347 411
#
# _framework density 22.672024
#
# number of rings (size 3 to 8) (size 9 to 14) (size 15 to 20)
#    0.000    1.250    3.750    0.750    3.500    1.500 
#    2.250    0.000    0.000    0.000    0.000    0.000 
#    0.000    0.000    0.000    0.000    0.000    0.000 
#
# Total GULP energy -198223.396062 kJ/mol
# GULP energy per Si atom -12388.962254 kJ/mol
# Density = 2.262042 g / cm^3
# Si number density = 22.672024 Si / 1000 Ang^3
#
#
#
# Elastic Constant Matrix: (Units=GPa)
#
#
# Indices 1 2 3 4 5 6 
#
# 1 100.9787 53.8361 26.7899 -9.4296 2.8332 28.2849
# 2 53.8361 126.7057 53.5151 -31.3778 -4.2960 16.8244
# 3 26.7899 53.5151 100.8433 -27.9194 6.0371 1.2262
# 4 -9.4296 -31.3778 -27.9194 49.6285 -3.6578 -6.5727
# 5 2.8332 -4.2960 6.0371 -3.6578 34.6044 -9.3472
# 6 28.2849 16.8244 1.2262 -6.5727 -9.3472 46.3899
#
#
#
# Elastic Compliance Matrix: (Units=1/GPa)
#
#
# Indices 1 2 3 4 5 6 
#
# 1 0.015667 -0.005718 -0.001593 -0.003018 -0.004397 -0.008750
# 2 -0.005718 0.013617 -0.004454 0.005294 0.003530 0.000127
# 3 -0.001593 -0.004454 0.014177 0.005078 -0.001657 0.002598
# 4 -0.003018 0.005294 0.005078 0.026656 0.004017 0.004372
# 5 -0.004397 0.003530 -0.001657 0.004017 0.032736 0.008610
# 6 -0.008750 0.000127 0.002598 0.004372 0.008610 0.029131
#
#
# Mechanical properties :
#
#
# Convention : Reuss Voigt Hill
#
# Bulk Modulus (GPa) = 50.17773 66.31219 58.24496
# Shear Modulus (GPa) = 30.83397 39.08367 34.95882
#
# Velocity S-wave (km/s) = 3.69182 4.15646 3.93101
# Velocity P-wave (km/s) = 6.35238 7.23511 6.80807
#
# Compressibility (1/GPa) = 0.01992916
#
# Stress axis : x y z
#
# Youngs Moduli (GPa) = 63.82819 73.43673 70.53627
#
# Poissons Ratio (x) = 0.41994 0.11239
# Poissons Ratio (y) = 0.36500 0.31419
# Poissons Ratio (z) = 0.10170 0.32711
#
# Static dielectric constant tensor:
#      x y z
#    x 3.997970 0.480710 -0.798100 
#    y 0.480710 3.792620 -0.246970 
#    z -0.798100 -0.246970 4.093260 
# 
# 
# High freq. dielectric constant tensor:
#      x y z
#    x 1.891550 0.013160 -0.002380 
#    y 0.013160 1.905370 -0.020170 
#    z -0.002380 -0.020170 1.899010 
# 
# From -- ./inp_files/271749.got.cif
#   From: 2010.06.25/outbox.cif.g09.slc.cpg/sg2_136_cif.got.tgz:271749.got - 2010.06.27 13:26:56.
