data_PCOD8025094
_publ_section_title
;
Structure prediction by ZEFSAII (Michael W. Deem and Ramdas Pophale) SiO2 
 PCOD8025094
Probable space group: P -1
;
_chemical_formula_sum "Si O2"
_cell_formula_units_Z 14
_cell_length_a 8.456458
_cell_length_b 8.830661
_cell_length_c 14.309450
_cell_angle_alpha 82.974824
_cell_angle_beta 64.391234
_cell_angle_gamma 40.798345
_cell_volume 590.323596
_symmetry_space_group_name_H-M "P -1"
_symmetry_group_IT_number 2
_symmetry_cell_setting 'triclinic'
loop_
_space_group_symop_operation_xyz
x,y,z
-x,-y,-z
loop_
_atom_site_type_symbol
_atom_site_label
_atom_site_fract_x
_atom_site_fract_y
_atom_site_fract_z
Si Si1 0.728103 0.767205 0.587974
Si Si2 0.119693 0.162409 0.982228
Si Si3 0.051969 0.589798 0.693794
Si Si4 0.381589 0.859910 0.520703
Si Si5 0.889123 0.025668 0.717722
Si Si6 0.771050 0.215774 0.927732
Si Si7 0.279930 0.351457 0.836299
O O1 0.447500 0.877677 0.608544
O O2 0.000000 0.500000 0.500000
O O3 0.771877 0.735152 0.692450
O O4 0.722944 0.942513 0.539947
O O5 0.320828 0.162057 0.894187
O O6 0.030678 0.114300 0.923302
O O7 0.852815 0.428932 0.078938
O O8 0.280061 0.931284 0.026180
O O9 0.330842 0.412885 0.570666
O O10 0.095194 0.446094 0.781819
O O11 0.008725 0.781784 0.740328
O O12 0.112184 0.933591 0.591436
O O13 0.849522 0.170361 0.802074
O O14 0.582273 0.208692 0.734658
O O15 0.500000 0.500000 0.000000
#
# Coordination Sequence:
#
# PCOD8025094 Si02
#       7
#     2   2   2   2   2   2   2
#     4   9  21  43  67  92 138 179 226 279 340 402
#     4  10  24  46  68  97 138 181 235 292 336 415
#     4  11  23  42  66 102 138 178 228 284 341 418
#     4  10  23  44  68  99 140 176 229 283 338 417
#     4  12  25  40  69 102 134 184 226 284 351 408
#     4  11  23  45  70  99 135 179 235 292 347 404
#     4  11  24  43  70 102 138 182 234 282 351 409
#
# _framework density 23.715805
#
# number of rings (size 3 to 8) (size 9 to 14) (size 15 to 20)
#    0.000    1.429    2.857    1.286    0.000   10.857 
#    0.000    2.857    0.000    0.000    0.000    0.000 
#    0.000    0.000    0.000    0.000    0.000    0.000 
#
# Total GULP energy -173470.415411 kJ/mol
# GULP energy per Si atom -12390.743958 kJ/mol
# Density = 2.366183 g / cm^3
# Si number density = 23.715805 Si / 1000 Ang^3
#
#
#
# Elastic Constant Matrix: (Units=GPa)
#
#
# Indices 1 2 3 4 5 6 
#
# 1 88.9764 30.9792 32.0678 -6.8762 5.6704 -1.4560
# 2 30.9792 111.3740 19.8322 3.9804 0.4008 11.8579
# 3 32.0678 19.8322 64.1063 7.2506 9.1045 -1.9276
# 4 -6.8762 3.9804 7.2506 35.3914 -0.2993 10.7759
# 5 5.6704 0.4008 9.1045 -0.2993 42.8129 1.3237
# 6 -1.4560 11.8579 -1.9276 10.7759 1.3237 40.3354
#
#
#
# Elastic Compliance Matrix: (Units=1/GPa)
#
#
# Indices 1 2 3 4 5 6 
#
# 1 0.015320 -0.003138 -0.007183 0.004842 -0.000434 -0.000147
# 2 -0.003138 0.010536 -0.001852 -0.000431 0.000807 -0.003210
# 3 -0.007183 -0.001852 0.021116 -0.006504 -0.003665 0.003152
# 4 0.004842 -0.000431 -0.006504 0.033313 0.001255 -0.008950
# 5 -0.000434 0.000807 -0.003665 0.001255 0.024244 -0.001559
# 6 -0.000147 -0.003210 0.003152 -0.008950 -0.001559 0.028324
#
#
# Mechanical properties :
#
#
# Convention : Reuss Voigt Hill
#
# Bulk Modulus (GPa) = 44.19838 47.80169 46.00003
# Shear Modulus (GPa) = 30.35084 35.81310 33.08197
#
# Velocity S-wave (km/s) = 3.58127 3.89021 3.73893
# Velocity P-wave (km/s) = 5.98146 6.35438 6.17073
#
# Compressibility (1/GPa) = 0.02262526
#
# Stress axis : x y z
#
# Youngs Moduli (GPa) = 65.27509 94.91522 47.35714
#
# Poissons Ratio (x) = 0.29785 0.34017
# Poissons Ratio (y) = 0.20483 0.08771
# Poissons Ratio (z) = 0.46888 0.17579
#
# Static dielectric constant tensor:
#      x y z
#    x 4.432650 0.066650 0.481540 
#    y 0.066650 4.275470 -0.041350 
#    z 0.481540 -0.041350 4.061190 
# 
# 
# High freq. dielectric constant tensor:
#      x y z
#    x 1.934290 -0.000150 0.026950 
#    y -0.000150 1.949270 0.012310 
#    z 0.026950 0.012310 1.927280 
# 
# From -- ./inp_files/89614.got.cif
#   From: 2010.06.25/outbox.cif.g09.slc.cpg/sg2_45_cif.got.tgz:89614.got - 2010.06.27 13:26:56.
