data_PCOD8025317
_publ_section_title
;
Structure prediction by ZEFSAII (Michael W. Deem and Ramdas Pophale) SiO2 
 PCOD8025317
Probable space group: P -1
;
_chemical_formula_sum "Si O2"
_cell_formula_units_Z 16
_cell_length_a 10.399385
_cell_length_b 7.880783
_cell_length_c 20.083033
_cell_angle_alpha 68.434074
_cell_angle_beta 145.511070
_cell_angle_gamma 90.142540
_cell_volume 711.802837
_symmetry_space_group_name_H-M "P -1"
_symmetry_group_IT_number 2
_symmetry_cell_setting 'triclinic'
loop_
_space_group_symop_operation_xyz
x,y,z
-x,-y,-z
loop_
_atom_site_type_symbol
_atom_site_label
_atom_site_fract_x
_atom_site_fract_y
_atom_site_fract_z
Si Si1 0.447959 0.523131 0.806456
Si Si2 0.298780 0.438112 0.448383
Si Si3 0.327945 0.041877 0.355244
Si Si4 0.240068 0.862387 0.915306
Si Si5 0.491322 0.875557 0.829271
Si Si6 0.077551 0.381157 0.620213
Si Si7 0.790134 0.718153 0.106427
Si Si8 0.708698 0.687149 0.818983
O O1 0.365758 0.725678 0.793462
O O2 0.524620 0.583911 0.759351
O O3 0.207925 0.486162 0.703058
O O4 0.716879 0.288914 0.980881
O O5 0.500000 0.500000 0.500000
O O6 0.174841 0.562395 0.448503
O O7 0.067879 0.493964 0.284641
O O8 0.488688 0.175714 0.580792
O O9 0.284491 0.242783 0.263036
O O10 0.034938 0.087425 0.245305
O O11 0.500000 0.000000 0.500000
O O12 0.193393 0.091824 0.881046
O O13 0.516447 0.727181 0.007903
O O14 0.580397 0.890359 0.789701
O O15 0.767494 0.745446 0.012754
O O16 0.274735 0.116183 0.733952
O O17 0.000000 0.500000 0.500000
O O18 0.000000 0.500000 0.000000
#
# Coordination Sequence:
#
# PCOD8025317 Si02
#       8
#     2   2   2   2   2   2   2   2
#     4  10  23  44  73 105 139 193 261 303 348 471
#     4  12  27  46  68 112 154 184 254 327 372 450
#     4  12  27  45  71 110 156 193 238 321 397 426
#     4  11  21  45  73 104 143 197 249 301 360 469
#     4  10  24  43  76 103 138 198 249 300 369 446
#     4  12  25  49  71 102 151 200 248 309 386 440
#     4  11  22  44  74 101 145 192 258 295 373 457
#     4  10  23  47  69 108 151 185 257 306 359 471
#
# _framework density 22.478133
#
# number of rings (size 3 to 8) (size 9 to 14) (size 15 to 20)
#    0.750    0.250    5.000    1.500    3.500    3.000 
#    0.000    1.250    0.000    0.000    0.000    0.000 
#    0.000    0.000    0.000    0.000    0.000    0.000 
#
# Total GULP energy -198213.769100 kJ/mol
# GULP energy per Si atom -12388.360569 kJ/mol
# Density = 2.242697 g / cm^3
# Si number density = 22.478133 Si / 1000 Ang^3
#
#
#
# Elastic Constant Matrix: (Units=GPa)
#
#
# Indices 1 2 3 4 5 6 
#
# 1 124.6775 31.0465 55.8687 6.4674 1.1203 11.0804
# 2 31.0465 74.8717 32.4499 2.5837 12.3656 17.0603
# 3 55.8687 32.4499 137.8324 4.9199 -1.9940 8.5140
# 4 6.4674 2.5837 4.9199 38.0896 3.3649 -4.0072
# 5 1.1203 12.3656 -1.9940 3.3649 42.0085 0.3672
# 6 11.0804 17.0603 8.5140 -4.0072 0.3672 30.6474
#
#
#
# Elastic Compliance Matrix: (Units=1/GPa)
#
#
# Indices 1 2 3 4 5 6 
#
# 1 0.010404 -0.002457 -0.003485 -0.001354 0.000403 -0.001607
# 2 -0.002457 0.018515 -0.002873 -0.000906 -0.005373 -0.008674
# 3 -0.003485 -0.002873 0.009373 -0.000532 0.001425 0.000168
# 4 -0.001354 -0.000906 -0.000532 0.027284 -0.001949 0.004732
# 5 0.000403 -0.005373 0.001425 -0.001949 0.025583 0.001888
# 6 -0.001607 -0.008674 0.000168 0.004732 0.001888 0.038588
#
#
# Mechanical properties :
#
#
# Convention : Reuss Voigt Hill
#
# Bulk Modulus (GPa) = 48.39676 64.01240 56.20458
# Shear Modulus (GPa) = 32.41185 36.68356 34.54771
#
# Velocity S-wave (km/s) = 3.80139 4.04414 3.92465
# Velocity P-wave (km/s) = 6.39099 7.09551 6.75245
#
# Compressibility (1/GPa) = 0.02066254
#
# Stress axis : x y z
#
# Youngs Moduli (GPa) = 96.11945 54.00970 106.68564
#
# Poissons Ratio (x) = 0.13271 0.37181
# Poissons Ratio (y) = 0.23618 0.30647
# Poissons Ratio (z) = 0.33498 0.15515
#
# Static dielectric constant tensor:
#      x y z
#    x 4.487220 0.345050 0.330890 
#    y 0.345050 4.575540 0.169230 
#    z 0.330890 0.169230 4.833420 
# 
# 
# High freq. dielectric constant tensor:
#      x y z
#    x 1.879600 0.010000 -0.004440 
#    y 0.010000 1.882000 -0.009840 
#    z -0.004440 -0.009840 1.890600 
# 
# From -- ./inp_files/593552.got.cif
#   From: 2010.06.25/outbox.cif.g09.slc.cpg/sg2_297_cif.got.tgz:593552.got - 2010.06.27 13:26:56.
