data_PCOD8025077
_publ_section_title
;
Structure prediction by ZEFSAII (Michael W. Deem and Ramdas Pophale) SiO2 
 PCOD8025077
Probable space group: P -1
;
_chemical_formula_sum "Si O2"
_cell_formula_units_Z 14
_cell_length_a 19.501190
_cell_length_b 11.257132
_cell_length_c 11.565115
_cell_angle_alpha 128.878164
_cell_angle_beta 159.143550
_cell_angle_gamma 42.896316
_cell_volume 598.053668
_symmetry_space_group_name_H-M "P -1"
_symmetry_group_IT_number 2
_symmetry_cell_setting 'triclinic'
loop_
_space_group_symop_operation_xyz
x,y,z
-x,-y,-z
loop_
_atom_site_type_symbol
_atom_site_label
_atom_site_fract_x
_atom_site_fract_y
_atom_site_fract_z
Si Si1 0.677304 0.505801 0.700574
Si Si2 0.072166 0.181847 0.640001
Si Si3 0.506375 0.136307 0.258248
Si Si4 0.325283 0.442622 0.729871
Si Si5 0.918429 0.946468 0.181395
Si Si6 0.814957 0.812640 0.706592
Si Si7 0.403865 0.696439 0.717549
O O1 0.500000 0.500000 0.500000
O O2 0.629865 0.704875 0.763095
O O3 0.613015 0.474560 0.451918
O O4 0.932621 0.340701 0.028765
O O5 0.176119 0.079252 0.863327
O O6 0.932155 0.392902 0.575072
O O7 0.299032 0.112539 0.876434
O O8 0.898566 0.139611 0.273659
O O9 0.600229 0.191213 0.331468
O O10 0.714208 0.960343 0.536425
O O11 0.329621 0.284323 0.563559
O O12 0.500000 0.500000 0.000000
O O13 0.376339 0.371039 0.898826
O O14 0.188896 0.812359 0.530503
O O15 0.805439 0.913251 0.872254
#
# Coordination Sequence:
#
# PCOD8025077 Si02
#       7
#     2   2   2   2   2   2   2
#     4   9  21  43  65 102 138 175 223 277 333 410
#     4  11  24  44  67  99 141 174 233 281 334 405
#     4  11  24  44  69 103 140 176 226 288 332 410
#     4  12  25  44  69 100 135 184 228 282 338 406
#     4  10  24  44  66 100 133 182 226 279 338 408
#     4  11  25  44  71 102 136 180 228 277 350 393
#     4  10  23  44  68  97 139 179 224 278 349 396
#
# _framework density 23.409269999999999
#
# number of rings (size 3 to 8) (size 9 to 14) (size 15 to 20)
#    0.000    1.429    2.857    0.857    4.000   10.286 
#    2.571    0.000    0.000    0.000    0.000    0.000 
#    0.000    0.000    0.000    0.000    0.000    0.000 
#
# Total GULP energy -173466.276814 kJ/mol
# GULP energy per Si atom -12390.448344 kJ/mol
# Density = 2.335599 g / cm^3
# Si number density = 23.409270 Si / 1000 Ang^3
#
#
#
# Elastic Constant Matrix: (Units=GPa)
#
#
# Indices 1 2 3 4 5 6 
#
# 1 55.9666 23.1223 26.7011 12.7559 -1.2749 -0.2958
# 2 23.1223 113.6264 41.6498 14.0775 -21.3162 -1.0876
# 3 26.7011 41.6498 108.9573 12.2559 -12.2679 8.2231
# 4 12.7559 14.0775 12.2559 39.3491 -7.2779 4.4130
# 5 -1.2749 -21.3162 -12.2679 -7.2779 38.9510 1.1119
# 6 -0.2958 -1.0876 8.2231 4.4130 1.1119 24.2511
#
#
#
# Elastic Compliance Matrix: (Units=1/GPa)
#
#
# Indices 1 2 3 4 5 6 
#
# 1 0.022377 -0.002847 -0.004332 -0.005825 -0.003359 0.002828
# 2 -0.002847 0.011674 -0.003154 -0.001532 0.004970 0.001609
# 3 -0.004332 -0.003154 0.012033 -0.000368 0.001976 -0.004298
# 4 -0.005825 -0.001532 -0.000368 0.029424 0.004512 -0.005576
# 5 -0.003359 0.004970 0.001976 0.004512 0.029825 -0.002677
# 6 0.002828 0.001609 -0.004298 -0.005576 -0.002677 0.043937
#
#
# Mechanical properties :
#
#
# Convention : Reuss Voigt Hill
#
# Bulk Modulus (GPa) = 39.34275 51.27742 45.31009
# Shear Modulus (GPa) = 28.02549 32.98204 30.50377
#
# Velocity S-wave (km/s) = 3.46381 3.75764 3.61371
# Velocity P-wave (km/s) = 5.73064 6.38583 6.06709
#
# Compressibility (1/GPa) = 0.02541765
#
# Stress axis : x y z
#
# Youngs Moduli (GPa) = 44.68938 85.66106 83.10173
#
# Poissons Ratio (x) = 0.24389 0.35998
# Poissons Ratio (y) = 0.12724 0.26212
# Poissons Ratio (z) = 0.19358 0.27020
#
# Static dielectric constant tensor:
#      x y z
#    x 4.060660 -0.691810 -0.162810 
#    y -0.691810 5.913790 0.697570 
#    z -0.162810 0.697570 4.319040 
# 
# 
# High freq. dielectric constant tensor:
#      x y z
#    x 1.903480 -0.010090 0.010440 
#    y -0.010090 1.948540 0.014760 
#    z 0.010440 0.014760 1.929290 
# 
# From -- ./inp_files/244563.got.cif
#   From: 2010.06.25/outbox.cif.g09.slc.cpg/sg2_123_cif.got.tgz:244563.got - 2010.06.27 13:26:56.
