data_PCOD8025357
_publ_section_title
;
Structure prediction by ZEFSAII (Michael W. Deem and Ramdas Pophale) SiO2 
 PCOD8025357
Probable space group: P -1
;
_chemical_formula_sum "Si O2"
_cell_formula_units_Z 10
_cell_length_a 9.272350
_cell_length_b 7.530628
_cell_length_c 10.352752
_cell_angle_alpha 136.301134
_cell_angle_beta 58.628138
_cell_angle_gamma 101.061528
_cell_volume 405.015355
_symmetry_space_group_name_H-M "P -1"
_symmetry_group_IT_number 2
_symmetry_cell_setting 'triclinic'
loop_
_space_group_symop_operation_xyz
x,y,z
-x,-y,-z
loop_
_atom_site_type_symbol
_atom_site_label
_atom_site_fract_x
_atom_site_fract_y
_atom_site_fract_z
Si Si1 0.384080 0.578801 0.969819
Si Si2 0.936711 0.941274 0.182735
Si Si3 0.394575 0.590849 0.463264
Si Si4 0.802421 0.834348 0.691146
Si Si5 0.007590 0.386610 0.769217
O O1 0.200702 0.529966 0.061946
O O2 0.356782 0.892228 0.116817
O O3 0.500000 0.500000 0.000000
O O4 0.470143 0.400413 0.710164
O O5 0.891169 0.824032 0.278522
O O6 0.750663 0.114593 0.296096
O O7 0.044285 0.678404 0.907916
O O8 0.070420 0.122635 0.230130
O O9 0.500000 0.500000 0.500000
O O10 0.288163 0.392456 0.356471
O O11 0.934024 0.759652 0.468835
#
# Coordination Sequence:
#
# PCOD8025357 Si02
#       5
#     2   2   2   2   2
#     4  11  24  46  73 101 141 186 231 287 346 411
#     4  10  23  45  70  95 138 186 235 272 343 417
#     4  12  28  43  68 109 147 176 223 297 358 399
#     4  11  24  46  70 100 139 184 235 279 348 415
#     4  10  23  44  75  98 129 186 248 275 328 422
#
# _framework density 24.69042
#
# number of rings (size 3 to 8) (size 9 to 14) (size 15 to 20)
#    0.000    1.200    0.000    6.000   11.200    1.600 
#    3.600    0.000    0.000    0.000    0.000    0.000 
#    0.000    0.000    0.000    0.000    0.000    0.000 
#
# Total GULP energy -123987.241521 kJ/mol
# GULP energy per Si atom -12398.724152 kJ/mol
# Density = 2.463422 g / cm^3
# Si number density = 24.690420 Si / 1000 Ang^3
#
#
#
# Elastic Constant Matrix: (Units=GPa)
#
#
# Indices 1 2 3 4 5 6 
#
# 1 125.6342 41.6338 30.2854 9.0785 -15.6404 -30.6356
# 2 41.6338 41.3141 22.1497 -1.2421 -11.6379 -7.1928
# 3 30.2854 22.1497 71.7331 10.6133 -6.8315 -20.5788
# 4 9.0785 -1.2421 10.6133 47.0751 -3.1778 3.3167
# 5 -15.6404 -11.6379 -6.8315 -3.1778 40.5815 9.9011
# 6 -30.6356 -7.1928 -20.5788 3.3167 9.9011 52.3839
#
#
#
# Elastic Compliance Matrix: (Units=1/GPa)
#
#
# Indices 1 2 3 4 5 6 
#
# 1 0.014313 -0.013828 0.000795 -0.003827 -0.000345 0.007092
# 2 -0.013828 0.045037 -0.010709 0.007408 0.008354 -0.008158
# 3 0.000795 -0.010709 0.019688 -0.005510 -0.001687 0.007396
# 4 -0.003827 0.007408 -0.005510 0.024001 0.002933 -0.005460
# 5 -0.000345 0.008354 -0.001687 0.002933 0.028124 -0.005219
# 6 0.007092 -0.008158 0.007396 -0.005460 -0.005219 0.026355
#
#
# Mechanical properties :
#
#
# Convention : Reuss Voigt Hill
#
# Bulk Modulus (GPa) = 31.69209 47.42437 39.55823
# Shear Modulus (GPa) = 23.19964 37.64891 30.42427
#
# Velocity S-wave (km/s) = 3.06865 3.90915 3.51412
# Velocity P-wave (km/s) = 5.04174 6.29481 5.70280
#
# Compressibility (1/GPa) = 0.03155361
#
# Stress axis : x y z
#
# Youngs Moduli (GPa) = 69.86474 22.20410 50.79160
#
# Poissons Ratio (x) = 0.30703 -0.04036
# Poissons Ratio (y) = 0.96607 0.54394
# Poissons Ratio (z) = -0.05551 0.23779
#
# Static dielectric constant tensor:
#      x y z
#    x 5.069660 0.030770 0.043650 
#    y 0.030770 4.344980 0.246350 
#    z 0.043650 0.246350 4.734770 
# 
# 
# High freq. dielectric constant tensor:
#      x y z
#    x 1.984080 -0.001750 -0.001030 
#    y -0.001750 1.977080 0.010490 
#    z -0.001030 0.010490 1.995310 
# 
# From -- ./inp_files/230117.got.cif
#   From: 2010.06.25/outbox.cif.g09.slc.cpg/sg2_116_cif.got.tgz:230117.got - 2010.06.27 13:26:56.
