data_PCOD8025880
_publ_section_title
;
Structure prediction by ZEFSAII (Michael W. Deem and Ramdas Pophale) SiO2 
 PCOD8025880
Probable space group: P -1
;
_chemical_formula_sum "Si O2"
_cell_formula_units_Z 16
_cell_length_a 8.647353
_cell_length_b 12.410292
_cell_length_c 13.990868
_cell_angle_alpha 101.909453
_cell_angle_beta 66.881632
_cell_angle_gamma 147.608658
_cell_volume 715.458864
_symmetry_space_group_name_H-M "P -1"
_symmetry_group_IT_number 2
_symmetry_cell_setting 'triclinic'
loop_
_space_group_symop_operation_xyz
x,y,z
-x,-y,-z
loop_
_atom_site_type_symbol
_atom_site_label
_atom_site_fract_x
_atom_site_fract_y
_atom_site_fract_z
Si Si1 0.018297 0.569952 0.285053
Si Si2 0.174089 0.685075 0.556248
Si Si3 0.728970 0.394774 0.116930
Si Si4 0.853305 0.711847 0.418673
Si Si5 0.294484 0.126876 0.851961
Si Si6 0.644300 0.686271 0.954036
Si Si7 0.946097 0.023040 0.749015
Si Si8 0.116170 0.898914 0.582488
O O1 0.387770 0.749582 0.241071
O O2 0.816924 0.360239 0.346460
O O3 0.900789 0.522289 0.196796
O O4 0.994250 0.669693 0.365270
O O5 0.009949 0.715426 0.605478
O O6 0.000000 0.500000 0.500000
O O7 0.509236 0.881271 0.458721
O O8 0.421919 0.145443 0.169835
O O9 0.563944 0.406895 0.107083
O O10 0.000000 0.500000 0.000000
O O11 0.500000 0.500000 0.500000
O O12 0.037129 0.878171 0.487350
O O13 0.884417 0.799315 0.331034
O O14 0.378723 0.223011 0.952326
O O15 0.156842 0.144092 0.816741
O O16 0.020573 0.879836 0.877526
O O17 0.500000 0.500000 0.000000
O O18 0.941833 0.894542 0.687243
#
# Coordination Sequence:
#
# PCOD8025880 Si02
#       8
#     2   2   2   2   2   2   2   2
#     4  12  24  42  72 102 142 184 235 284 355 412
#     4  11  23  43  70 104 139 180 234 296 341 419
#     4  11  24  47  66 101 138 183 233 291 347 420
#     4  12  26  43  69 103 144 186 234 290 351 417
#     4  10  24  43  67 102 134 175 237 287 342 420
#     4  10  23  46  71  94 136 181 229 295 349 401
#     4  11  25  44  70 101 144 183 236 283 355 422
#     4  11  24  44  70  99 141 185 233 284 354 414
#
# _framework density 22.363268999999999
#
# number of rings (size 3 to 8) (size 9 to 14) (size 15 to 20)
#    0.000    1.000    2.500    3.375    5.250    3.000 
#    0.000    1.250    0.000    0.000    0.000    0.000 
#    0.000    0.000    0.000    0.000    0.000    0.000 
#
# Total GULP energy -198318.697836 kJ/mol
# GULP energy per Si atom -12394.918615 kJ/mol
# Density = 2.231237 g / cm^3
# Si number density = 22.363269 Si / 1000 Ang^3
#
#
#
# Elastic Constant Matrix: (Units=GPa)
#
#
# Indices 1 2 3 4 5 6 
#
# 1 89.6172 48.7578 39.4474 -17.5077 7.2164 0.5127
# 2 48.7578 102.4323 37.1346 -23.2976 4.9707 2.7558
# 3 39.4474 37.1346 109.0784 -20.6691 7.3189 3.6138
# 4 -17.5077 -23.2976 -20.6691 41.5807 2.9623 8.8545
# 5 7.2164 4.9707 7.3189 2.9623 52.6671 -7.4667
# 6 0.5127 2.7558 3.6138 8.8545 -7.4667 45.2467
#
#
#
# Elastic Compliance Matrix: (Units=1/GPa)
#
#
# Indices 1 2 3 4 5 6 
#
# 1 0.016463 -0.006085 -0.003418 0.001949 -0.001337 -0.000145
# 2 -0.006085 0.014532 -0.001638 0.005222 -0.000866 -0.001850
# 3 -0.003418 -0.001638 0.011894 0.004059 -0.001522 -0.001857
# 4 0.001949 0.005222 0.004059 0.031722 -0.004180 -0.007562
# 5 -0.001337 -0.000866 -0.001522 -0.004180 0.020317 0.004360
# 6 -0.000145 -0.001850 -0.001857 -0.007562 0.004360 0.024563
#
#
# Mechanical properties :
#
#
# Convention : Reuss Voigt Hill
#
# Bulk Modulus (GPa) = 48.52657 61.31194 54.91925
# Shear Modulus (GPa) = 33.63749 39.61809 36.62779
#
# Velocity S-wave (km/s) = 3.88253 4.21357 4.05143
# Velocity P-wave (km/s) = 6.46878 7.15179 6.81884
#
# Compressibility (1/GPa) = 0.02060727
#
# Stress axis : x y z
#
# Youngs Moduli (GPa) = 60.74127 68.81215 84.07361
#
# Poissons Ratio (x) = 0.41873 0.28739
# Poissons Ratio (y) = 0.36962 0.13770
# Poissons Ratio (z) = 0.20763 0.11270
#
# Static dielectric constant tensor:
#      x y z
#    x 4.121300 0.160200 0.258810 
#    y 0.160200 4.084460 -0.027310 
#    z 0.258810 -0.027310 4.427420 
# 
# 
# High freq. dielectric constant tensor:
#      x y z
#    x 1.877480 0.019950 0.013900 
#    y 0.019950 1.877980 -0.008260 
#    z 0.013900 -0.008260 1.900360 
# 
# From -- ./inp_files/112821.got.cif
#   From: 2010.06.25/outbox.cif.g09.slc.cpg/sg2_57_cif.got.tgz:112821.got - 2010.06.27 13:26:56.
