data_PCOD8025062
_publ_section_title
;
Structure prediction by ZEFSAII (Michael W. Deem and Ramdas Pophale) SiO2 
 PCOD8025062
Probable space group: P -1
;
_chemical_formula_sum "Si O2"
_cell_formula_units_Z 16
_cell_length_a 15.046754
_cell_length_b 9.049955
_cell_length_c 6.365277
_cell_angle_alpha 93.362045
_cell_angle_beta 116.140922
_cell_angle_gamma 98.604773
_cell_volume 761.743432
_symmetry_space_group_name_H-M "P -1"
_symmetry_group_IT_number 2
_symmetry_cell_setting 'triclinic'
loop_
_space_group_symop_operation_xyz
x,y,z
-x,-y,-z
loop_
_atom_site_type_symbol
_atom_site_label
_atom_site_fract_x
_atom_site_fract_y
_atom_site_fract_z
Si Si1 0.056440 0.652206 0.455239
Si Si2 0.964974 0.087907 0.275772
Si Si3 0.720853 0.359064 0.405271
Si Si4 0.916336 0.789055 0.990243
Si Si5 0.302712 0.392747 0.290356
Si Si6 0.414893 0.548231 0.057271
Si Si7 0.547894 0.796758 0.475112
Si Si8 0.444602 0.915147 0.735392
O O1 0.089615 0.783869 0.675269
O O2 0.158916 0.622351 0.459203
O O3 0.000000 0.500000 0.500000
O O4 0.992250 0.713315 0.207723
O O5 0.897039 0.952573 0.062786
O O6 0.000000 0.000000 0.500000
O O7 0.049167 0.182626 0.214046
O O8 0.688831 0.445361 0.580243
O O9 0.663389 0.186027 0.326814
O O10 0.685902 0.437191 0.170458
O O11 0.812199 0.673547 0.885763
O O12 0.375359 0.414992 0.166339
O O13 0.353841 0.276778 0.466456
O O14 0.457553 0.705496 0.232021
O O15 0.500000 0.500000 0.000000
O O16 0.512671 0.808663 0.682641
O O17 0.582330 0.966105 0.446441
O O18 0.500000 0.000000 0.000000
#
# Coordination Sequence:
#
# PCOD8025062 Si02
#       8
#     2   2   2   2   2   2   2   2
#     4  11  24  43  65 100 137 171 224 280 331 398
#     4   9  21  44  68  91 134 171 218 274 335 393
#     4  12  25  41  68  95 128 179 219 272 336 396
#     4  10  23  44  68  95 132 178 217 280 331 397
#     4  12  25  41  68  97 128 174 230 261 336 402
#     4  12  23  43  67  94 131 174 220 278 330 388
#     4  11  24  42  64  93 133 167 218 275 325 399
#     4  11  24  43  64  95 135 171 215 275 333 394
#
# _framework density 21.004449000000001
#
# number of rings (size 3 to 8) (size 9 to 14) (size 15 to 20)
#    0.000    1.000    3.750    2.625    0.000    8.000 
#    0.000    0.000    0.000    0.000    0.000    0.000 
#    0.000    0.000    0.000    0.000    0.000    0.000 
#
# Total GULP energy -198277.986485 kJ/mol
# GULP energy per Si atom -12392.374155 kJ/mol
# Density = 2.095664 g / cm^3
# Si number density = 21.004449 Si / 1000 Ang^3
#
#
#
# Elastic Constant Matrix: (Units=GPa)
#
#
# Indices 1 2 3 4 5 6 
#
# 1 121.6054 57.1030 57.5686 -0.8856 2.6909 1.8770
# 2 57.1030 120.8852 38.1206 1.4757 -2.3699 6.1255
# 3 57.5686 38.1206 99.8525 6.9563 -4.3855 1.7141
# 4 -0.8856 1.4757 6.9563 37.0021 -1.2903 0.3791
# 5 2.6909 -2.3699 -4.3855 -1.2903 41.6723 0.5901
# 6 1.8770 6.1255 1.7141 0.3791 0.5901 32.7778
#
#
#
# Elastic Compliance Matrix: (Units=1/GPa)
#
#
# Indices 1 2 3 4 5 6 
#
# 1 0.013238 -0.004387 -0.006149 0.001584 -0.001708 0.000396
# 2 -0.004387 0.010945 -0.001572 -0.000202 0.000758 -0.001723
# 3 -0.006149 -0.001572 0.014429 -0.002735 0.001743 -0.000108
# 4 0.001584 -0.000202 -0.002735 0.027604 0.000456 -0.000237
# 5 -0.001708 0.000758 0.001743 0.000456 0.024356 -0.000579
# 6 0.000396 -0.001723 -0.000108 -0.000237 -0.000579 0.030827
#
#
# Mechanical properties :
#
#
# Convention : Reuss Voigt Hill
#
# Bulk Modulus (GPa) = 69.46919 71.99195 70.73057
# Shear Modulus (GPa) = 33.24157 34.92717 34.08437
#
# Velocity S-wave (km/s) = 3.98250 4.08223 4.03267
# Velocity P-wave (km/s) = 7.36834 7.52120 7.44516
#
# Compressibility (1/GPa) = 0.01439487
#
# Stress axis : x y z
#
# Youngs Moduli (GPa) = 75.54222 91.36578 69.30311
#
# Poissons Ratio (x) = 0.40080 0.42617
# Poissons Ratio (y) = 0.33139 0.10897
# Poissons Ratio (z) = 0.46454 0.14366
#
# Static dielectric constant tensor:
#      x y z
#    x 3.696940 -0.002420 -0.290080 
#    y -0.002420 4.153610 0.079080 
#    z -0.290080 0.079080 4.003510 
# 
# 
# High freq. dielectric constant tensor:
#      x y z
#    x 1.809230 0.001420 -0.017430 
#    y 0.001420 1.845520 0.004340 
#    z -0.017430 0.004340 1.828200 
# 
# From -- ./inp_files/48350.got.cif
#   From: 2010.06.25/outbox.cif.g09.slc.cpg/sg2_25_cif.got.tgz:48350.got - 2010.06.27 13:26:56.
