data_PCOD8025469
_publ_section_title
;
Structure prediction by ZEFSAII (Michael W. Deem and Ramdas Pophale) SiO2 
 PCOD8025469
Probable space group: P -1
;
_chemical_formula_sum "Si O2"
_cell_formula_units_Z 16
_cell_length_a 11.945634
_cell_length_b 8.882353
_cell_length_c 14.904847
_cell_angle_alpha 73.845083
_cell_angle_beta 59.540086
_cell_angle_gamma 123.540222
_cell_volume 715.098433
_symmetry_space_group_name_H-M "P -1"
_symmetry_group_IT_number 2
_symmetry_cell_setting 'triclinic'
loop_
_space_group_symop_operation_xyz
x,y,z
-x,-y,-z
loop_
_atom_site_type_symbol
_atom_site_label
_atom_site_fract_x
_atom_site_fract_y
_atom_site_fract_z
Si Si1 0.179419 0.764141 0.452389
Si Si2 0.389260 0.060452 0.029028
Si Si3 0.424639 0.249196 0.550282
Si Si4 0.886833 0.004554 0.448369
Si Si5 0.154372 0.548671 0.674410
Si Si6 0.427091 0.674525 0.904337
Si Si7 0.070184 0.675055 0.856789
Si Si8 0.622937 0.567575 0.768524
O O1 0.072181 0.819719 0.521685
O O2 0.237006 0.718299 0.522812
O O3 0.000000 0.500000 0.500000
O O4 0.430138 0.049370 0.255205
O O5 0.453694 0.222147 0.064378
O O6 0.498364 0.270887 0.867446
O O7 0.110047 0.779690 0.177009
O O8 0.500000 0.000000 0.000000
O O9 0.500000 0.500000 0.500000
O O10 0.664344 0.410188 0.391634
O O11 0.225783 0.042098 0.587753
O O12 0.289210 0.020855 0.725466
O O13 0.150715 0.201730 0.292705
O O14 0.714440 0.695230 0.609407
O O15 0.166033 0.664594 0.739061
O O16 0.436255 0.513521 0.881368
O O17 0.158462 0.459024 0.059195
O O18 0.000000 0.500000 0.000000
#
# Coordination Sequence:
#
# PCOD8025469 Si02
#       8
#     2   2   2   2   2   2   2   2
#     4  11  22  42  75 107 140 180 237 294 364 432
#     4  12  23  42  66 106 139 175 229 300 359 418
#     4  12  29  47  72 100 147 200 246 291 357 436
#     4  10  23  45  68 101 142 190 233 291 357 436
#     4  12  26  45  72 101 146 188 238 294 356 435
#     4  11  24  41  71 103 138 183 230 297 368 423
#     4  12  27  48  74 102 144 192 246 298 361 426
#     4  10  24  40  71  98 141 178 230 297 366 418
#
# _framework density 22.374541000000001
#
# number of rings (size 3 to 8) (size 9 to 14) (size 15 to 20)
#    0.000    0.750    3.750    3.000    7.000    2.000 
#    0.000    1.250    0.000    0.000    0.000    0.000 
#    0.000    0.000    0.000    0.000    0.000    0.000 
#
# Total GULP energy -198385.035454 kJ/mol
# GULP energy per Si atom -12399.064716 kJ/mol
# Density = 2.232362 g / cm^3
# Si number density = 22.374541 Si / 1000 Ang^3
#
#
#
# Elastic Constant Matrix: (Units=GPa)
#
#
# Indices 1 2 3 4 5 6 
#
# 1 115.7624 34.0580 55.5783 -5.3614 -4.8451 -13.8476
# 2 34.0580 90.7638 48.4918 -8.7965 2.5868 -16.1516
# 3 55.5783 48.4918 140.6866 -24.0535 2.7340 -21.1730
# 4 -5.3614 -8.7965 -24.0535 37.3148 -4.7406 5.3026
# 5 -4.8451 2.5868 2.7340 -4.7406 48.9705 -0.8044
# 6 -13.8476 -16.1516 -21.1730 5.3026 -0.8044 37.9041
#
#
#
# Elastic Compliance Matrix: (Units=1/GPa)
#
#
# Indices 1 2 3 4 5 6 
#
# 1 0.011219 -0.002140 -0.003751 -0.001327 0.001325 0.001305
# 2 -0.002140 0.014347 -0.003550 0.000229 -0.000695 0.003302
# 3 -0.003751 -0.003550 0.011129 0.005402 -0.000240 0.002573
# 4 -0.001327 0.000229 0.005402 0.030691 0.002500 -0.001610
# 5 0.001325 -0.000695 -0.000240 0.002500 0.020846 0.000147
# 6 0.001305 0.003302 0.002573 -0.001610 0.000147 0.029932
#
#
# Mechanical properties :
#
#
# Convention : Reuss Voigt Hill
#
# Bulk Modulus (GPa) = 56.13909 69.27434 62.70672
# Shear Modulus (GPa) = 34.96938 38.77686 36.87312
#
# Velocity S-wave (km/s) = 3.95765 4.16754 4.06395
# Velocity P-wave (km/s) = 6.78448 7.36114 7.07868
#
# Compressibility (1/GPa) = 0.01781290
#
# Stress axis : x y z
#
# Youngs Moduli (GPa) = 89.13571 69.70157 89.85730
#
# Poissons Ratio (x) = 0.14916 0.33702
# Poissons Ratio (y) = 0.19075 0.31901
# Poissons Ratio (z) = 0.33431 0.24745
#
# Static dielectric constant tensor:
#      x y z
#    x 4.120790 -0.143510 0.173380 
#    y -0.143510 3.869370 -0.116000 
#    z 0.173380 -0.116000 4.387460 
# 
# 
# High freq. dielectric constant tensor:
#      x y z
#    x 1.890480 -0.013430 0.002930 
#    y -0.013430 1.857810 -0.009080 
#    z 0.002930 -0.009080 1.904210 
# 
# From -- ./inp_files/206315.got.cif
#   From: 2010.06.25/outbox.cif.g09.slc.cpg/sg2_104_cif.got.tgz:206315.got - 2010.06.27 13:26:56.
