data_PCOD8025354
_publ_section_title
;
Structure prediction by ZEFSAII (Michael W. Deem and Ramdas Pophale) SiO2 
 PCOD8025354
Probable space group: P -1
;
_chemical_formula_sum "Si O2"
_cell_formula_units_Z 16
_cell_length_a 9.300287
_cell_length_b 11.825331
_cell_length_c 14.429156
_cell_angle_alpha 41.813393
_cell_angle_beta 72.157046
_cell_angle_gamma 46.419078
_cell_volume 692.150908
_symmetry_space_group_name_H-M "P -1"
_symmetry_group_IT_number 2
_symmetry_cell_setting 'triclinic'
loop_
_space_group_symop_operation_xyz
x,y,z
-x,-y,-z
loop_
_atom_site_type_symbol
_atom_site_label
_atom_site_fract_x
_atom_site_fract_y
_atom_site_fract_z
Si Si1 0.517520 0.608697 0.842781
Si Si2 0.894656 0.846987 0.432566
Si Si3 0.954142 0.781022 0.257383
Si Si4 0.545514 0.269911 0.946919
Si Si5 0.868841 0.578091 0.728320
Si Si6 0.643437 0.322013 0.716183
Si Si7 0.052097 0.591058 0.855664
Si Si8 0.757299 0.165219 0.588488
O O1 0.591050 0.434955 0.847584
O O2 0.687616 0.627304 0.795429
O O3 0.270237 0.868314 0.727249
O O4 0.500000 0.500000 0.000000
O O5 0.948141 0.707617 0.408493
O O6 0.777192 0.819408 0.546678
O O7 0.106716 0.768847 0.481618
O O8 0.018478 0.608676 0.265441
O O9 0.122962 0.798877 0.220125
O O10 0.706053 0.038030 0.124736
O O11 0.581542 0.217277 0.861891
O O12 0.298411 0.441303 0.922598
O O13 0.048407 0.496672 0.815957
O O14 0.670581 0.204599 0.685243
O O15 0.455782 0.624045 0.563513
O O16 0.890800 0.887909 0.701128
O O17 0.000000 0.500000 0.000000
#
# Coordination Sequence:
#
# PCOD8025354 Si02
#       8
#     2   2   2   2   2   2   2   2
#     4  12  24  44  73 105 143 186 242 295 360 429
#     4  11  24  46  74 106 143 189 243 303 356 430
#     4  11  25  45  73 106 149 186 243 295 360 432
#     4  12  24  45  73 102 140 198 235 294 361 431
#     4  12  28  44  71 109 146 191 242 299 363 422
#     4  10  23  44  75 106 135 191 245 293 358 433
#     4  12  29  48  70 105 146 190 244 302 358 429
#     4  10  24  47  73 100 146 190 240 297 361 433
#
# _framework density 23.116347999999999
#
# number of rings (size 3 to 8) (size 9 to 14) (size 15 to 20)
#    0.000    0.750    3.750    2.625    3.500    2.500 
#    6.750    0.000    0.000    0.000    0.000    0.000 
#    0.000    0.000    0.000    0.000    0.000    0.000 
#
# Total GULP energy -198225.494039 kJ/mol
# GULP energy per Si atom -12389.093377 kJ/mol
# Density = 2.306373 g / cm^3
# Si number density = 23.116348 Si / 1000 Ang^3
#
#
#
# Elastic Constant Matrix: (Units=GPa)
#
#
# Indices 1 2 3 4 5 6 
#
# 1 83.1854 29.1393 45.6740 6.2246 6.2559 -7.9744
# 2 29.1393 71.3060 27.4613 19.1695 -1.0602 -7.7415
# 3 45.6740 27.4613 105.3156 30.2418 -2.6831 -18.6199
# 4 6.2246 19.1695 30.2418 42.6428 -11.4285 3.8926
# 5 6.2559 -1.0602 -2.6831 -11.4285 37.2139 2.1006
# 6 -7.9744 -7.7415 -18.6199 3.8926 2.1006 44.8535
#
#
#
# Elastic Compliance Matrix: (Units=1/GPa)
#
#
# Indices 1 2 3 4 5 6 
#
# 1 0.018231 -0.005940 -0.008258 0.005458 -0.002064 -0.001589
# 2 -0.005940 0.018874 0.000735 -0.008790 -0.001298 0.003330
# 3 -0.008258 0.000735 0.017821 -0.012873 -0.001668 0.007252
# 4 0.005458 -0.008790 -0.012873 0.039465 0.010578 -0.009811
# 5 -0.002064 -0.001298 -0.001668 0.010578 0.030515 -0.003631
# 6 -0.001589 0.003330 0.007252 -0.009811 -0.003631 0.026619
#
#
# Mechanical properties :
#
#
# Convention : Reuss Voigt Hill
#
# Bulk Modulus (GPa) = 35.71643 51.59513 43.65578
# Shear Modulus (GPa) = 26.62608 35.44420 31.03514
#
# Velocity S-wave (km/s) = 3.39754 3.91998 3.66807
# Velocity P-wave (km/s) = 5.55656 6.54649 6.07173
#
# Compressibility (1/GPa) = 0.02799832
#
# Stress axis : x y z
#
# Youngs Moduli (GPa) = 54.85167 52.98294 56.11236
#
# Poissons Ratio (x) = 0.31473 0.46340
# Poissons Ratio (y) = 0.32583 -0.04122
# Poissons Ratio (z) = 0.45299 -0.03892
#
# Static dielectric constant tensor:
#      x y z
#    x 4.211890 0.166680 0.061460 
#    y 0.166680 4.430500 0.113880 
#    z 0.061460 0.113880 4.301930 
# 
# 
# High freq. dielectric constant tensor:
#      x y z
#    x 1.907860 -0.001630 0.011640 
#    y -0.001630 1.927100 0.016410 
#    z 0.011640 0.016410 1.918310 
# 
# From -- ./inp_files/499865.got.cif
#   From: 2010.06.25/outbox.cif.g09.slc.cpg/sg2_250_cif.got.tgz:499865.got - 2010.06.27 13:26:56.
