data_PCOD8025363
_publ_section_title
;
Structure prediction by ZEFSAII (Michael W. Deem and Ramdas Pophale) SiO2 
 PCOD8025363
Probable space group: P -1
;
_chemical_formula_sum "Si O2"
_cell_formula_units_Z 16
_cell_length_a 8.855435
_cell_length_b 18.974197
_cell_length_c 15.293124
_cell_angle_alpha 37.896424
_cell_angle_beta 142.038269
_cell_angle_gamma 151.601420
_cell_volume 710.517532
_symmetry_space_group_name_H-M "P -1"
_symmetry_group_IT_number 2
_symmetry_cell_setting 'triclinic'
loop_
_space_group_symop_operation_xyz
x,y,z
-x,-y,-z
loop_
_atom_site_type_symbol
_atom_site_label
_atom_site_fract_x
_atom_site_fract_y
_atom_site_fract_z
Si Si1 0.836210 0.397143 0.652274
Si Si2 0.241939 0.176637 0.263546
Si Si3 0.737528 0.477756 0.841060
Si Si4 0.705678 0.170380 0.962423
Si Si5 0.992337 0.374108 0.360276
Si Si6 0.520808 0.647574 0.631861
Si Si7 0.797146 0.863612 0.112100
Si Si8 0.877263 0.089193 0.607547
O O1 0.745960 0.274399 0.802388
O O2 0.571899 0.309547 0.538497
O O3 0.833929 0.522404 0.573718
O O4 0.202595 0.490877 0.688885
O O5 0.593776 0.271353 0.281835
O O6 0.286110 0.202700 0.362643
O O7 0.017270 0.991302 0.320079
O O8 0.068794 0.238383 0.090618
O O9 0.746073 0.611916 0.743436
O O10 0.369157 0.300764 0.849612
O O11 0.865893 0.509423 0.769608
O O12 0.000000 0.500000 0.000000
O O13 0.510367 0.160924 0.965064
O O14 0.500000 0.000000 0.000000
O O15 0.088924 0.269472 0.499825
O O16 0.063098 0.912637 0.260398
O O17 0.000000 0.000000 0.000000
O O18 0.500000 0.000000 0.500000
#
# Coordination Sequence:
#
# PCOD8025363 Si02
#       8
#     2   2   2   2   2   2   2   2
#     4  10  23  45  68 101 132 183 232 283 348 417
#     4  10  23  46  68 105 137 187 230 287 354 421
#     4  12  27  42  71 110 143 185 239 298 357 417
#     4  12  25  44  70  98 139 184 231 279 357 423
#     4  10  23  44  76  96 141 183 239 287 354 423
#     4  10  24  42  70 100 141 177 231 292 346 409
#     4  12  28  47  71 105 144 187 240 296 357 421
#     4  10  23  46  74  99 139 191 236 286 358 425
#
# _framework density 22.518795999999998
#
# number of rings (size 3 to 8) (size 9 to 14) (size 15 to 20)
#    0.000    1.250    2.500    1.500    8.750    3.000 
#    0.000    1.250    0.000    0.000    0.000    0.000 
#    0.000    0.000    0.000    0.000    0.000    0.000 
#
# Total GULP energy -198393.176504 kJ/mol
# GULP energy per Si atom -12399.573532 kJ/mol
# Density = 2.246754 g / cm^3
# Si number density = 22.518796 Si / 1000 Ang^3
#
#
#
# Elastic Constant Matrix: (Units=GPa)
#
#
# Indices 1 2 3 4 5 6 
#
# 1 101.7185 33.7149 59.1051 -5.3976 -12.1405 -6.3444
# 2 33.7149 106.4636 70.3852 3.9901 -14.4519 -20.5203
# 3 59.1051 70.3852 158.7136 4.0209 -15.7951 -8.3975
# 4 -5.3976 3.9901 4.0209 38.7706 -3.7304 -5.0349
# 5 -12.1405 -14.4519 -15.7951 -3.7304 38.1876 -2.9996
# 6 -6.3444 -20.5203 -8.3975 -5.0349 -2.9996 38.4007
#
#
#
# Elastic Compliance Matrix: (Units=1/GPa)
#
#
# Indices 1 2 3 4 5 6 
#
# 1 0.013112 -0.000847 -0.004262 0.002765 0.002460 0.001337
# 2 -0.000847 0.015325 -0.005738 0.000183 0.003734 0.007110
# 3 -0.004262 -0.005738 0.010432 -0.001242 0.000541 -0.001609
# 4 0.002765 0.000183 -0.001242 0.027149 0.003409 0.004109
# 5 0.002460 0.003734 0.000541 0.003409 0.029352 0.005260
# 6 0.001337 0.007110 -0.001609 0.004109 0.005260 0.030659
#
#
# Mechanical properties :
#
#
# Convention : Reuss Voigt Hill
#
# Bulk Modulus (GPa) = 58.21890 77.03401 67.62646
# Shear Modulus (GPa) = 32.58459 36.65115 34.61787
#
# Velocity S-wave (km/s) = 3.80807 4.03870 3.92508
# Velocity P-wave (km/s) = 6.72642 7.48540 7.11604
#
# Compressibility (1/GPa) = 0.01717655
#
# Stress axis : x y z
#
# Youngs Moduli (GPa) = 76.26693 65.25423 95.85506
#
# Poissons Ratio (x) = 0.05525 0.40852
# Poissons Ratio (y) = 0.06457 0.54998
# Poissons Ratio (z) = 0.32504 0.37441
#
# Static dielectric constant tensor:
#      x y z
#    x 4.190510 -0.321730 0.229750 
#    y -0.321730 4.445370 -0.024790 
#    z 0.229750 -0.024790 4.342050 
# 
# 
# High freq. dielectric constant tensor:
#      x y z
#    x 1.887140 -0.013830 0.006570 
#    y -0.013830 1.897710 0.006810 
#    z 0.006570 0.006810 1.892560 
# 
# From -- ./inp_files/457016.got.cif
#   From: 2010.06.25/outbox.cif.g09.slc.cpg/sg2_229_cif.got.tgz:457016.got - 2010.06.27 13:26:56.
