data_PCOD8025195
_publ_section_title
;
Structure prediction by ZEFSAII (Michael W. Deem and Ramdas Pophale) SiO2 
 PCOD8025195
Probable space group: P -1
;
_chemical_formula_sum "Si O2"
_cell_formula_units_Z 12
_cell_length_a 13.356486
_cell_length_b 15.935391
_cell_length_c 8.784314
_cell_angle_alpha 133.166834
_cell_angle_beta 38.044190
_cell_angle_gamma 153.258472
_cell_volume 517.215909
_symmetry_space_group_name_H-M "P -1"
_symmetry_group_IT_number 2
_symmetry_cell_setting 'triclinic'
loop_
_space_group_symop_operation_xyz
x,y,z
-x,-y,-z
loop_
_atom_site_type_symbol
_atom_site_label
_atom_site_fract_x
_atom_site_fract_y
_atom_site_fract_z
Si Si1 0.541050 0.643304 0.785644
Si Si2 0.331152 0.947279 0.493748
Si Si3 0.745220 0.603942 0.732109
Si Si4 0.450546 0.118206 0.050254
Si Si5 0.149705 0.240471 0.736969
Si Si6 0.544054 0.770114 0.496117
O O1 0.762131 0.712126 0.716235
O O2 0.502504 0.759115 0.985645
O O3 0.257689 0.424967 0.891937
O O4 0.640412 0.681671 0.543636
O O5 0.024734 0.765307 0.684674
O O6 0.500000 0.000000 0.500000
O O7 0.405941 0.118737 0.569372
O O8 0.379021 0.895751 0.222878
O O9 0.699537 0.451285 0.526617
O O10 0.500000 0.500000 0.000000
O O11 0.534376 0.201284 0.223036
O O12 0.142909 0.912373 0.163066
O O13 0.191118 0.161571 0.713958
#
# Coordination Sequence:
#
# PCOD8025195 Si02
#       6
#     2   2   2   2   2   2
#     4   9  19  37  66  97 125 168 218 261 321 383
#     4  12  29  43  63 100 137 175 213 267 335 386
#     4  11  26  45  68  93 134 177 219 265 323 395
#     4  11  22  40  70  99 131 164 216 278 323 380
#     4   9  18  37  68 100 125 161 217 273 317 380
#     4  10  23  44  70  95 129 175 220 265 325 389
#
# _framework density 23.201143999999999
#
# number of rings (size 3 to 8) (size 9 to 14) (size 15 to 20)
#    0.000    1.667    0.000    5.500    7.000    3.333 
#    0.000    0.000    0.000    0.000    0.000    0.000 
#    0.000    0.000    0.000    0.000    0.000    0.000 
#
# Total GULP energy -148744.431105 kJ/mol
# GULP energy per Si atom -12395.369259 kJ/mol
# Density = 2.314834 g / cm^3
# Si number density = 23.201144 Si / 1000 Ang^3
#
#
#
# Elastic Constant Matrix: (Units=GPa)
#
#
# Indices 1 2 3 4 5 6 
#
# 1 134.0961 66.6738 15.6749 -10.2746 -9.7655 -5.3869
# 2 66.6738 120.0835 35.7797 -4.7813 -10.3886 -4.6615
# 3 15.6749 35.7797 63.3062 -4.2309 -4.0071 -5.5748
# 4 -10.2746 -4.7813 -4.2309 18.6479 -0.5541 0.2608
# 5 -9.7655 -10.3886 -4.0071 -0.5541 23.4781 8.1906
# 6 -5.3869 -4.6615 -5.5748 0.2608 8.1906 41.2100
#
#
#
# Elastic Compliance Matrix: (Units=1/GPa)
#
#
# Indices 1 2 3 4 5 6 
#
# 1 0.010821 -0.005981 0.001187 0.004751 0.002005 0.000470
# 2 -0.005981 0.013659 -0.006196 -0.001111 0.002682 -0.000601
# 3 0.001187 -0.006196 0.019439 0.003462 0.000464 0.001970
# 4 0.004751 -0.001111 0.003462 0.056847 0.003445 -0.000081
# 5 0.002005 0.002682 0.000464 0.003445 0.047883 -0.008910
# 6 0.000470 -0.000601 0.001970 -0.000081 -0.008910 0.026297
#
#
# Mechanical properties :
#
#
# Convention : Reuss Voigt Hill
#
# Bulk Modulus (GPa) = 45.58326 61.52697 53.55511
# Shear Modulus (GPa) = 24.48094 29.95768 27.21931
#
# Velocity S-wave (km/s) = 3.25185 3.59725 3.42890
# Velocity P-wave (km/s) = 5.81283 6.62043 6.22973
#
# Compressibility (1/GPa) = 0.02193788
#
# Stress axis : x y z
#
# Youngs Moduli (GPa) = 92.40947 73.21111 51.44382
#
# Poissons Ratio (x) = 0.43788 -0.06105
# Poissons Ratio (y) = 0.55271 0.31877
# Poissons Ratio (z) = -0.10967 0.45365
#
# Static dielectric constant tensor:
#      x y z
#    x 4.409430 -0.329840 -0.074680 
#    y -0.329840 4.469150 0.397760 
#    z -0.074680 0.397760 3.952760 
# 
# 
# High freq. dielectric constant tensor:
#      x y z
#    x 1.923140 -0.012750 0.000480 
#    y -0.012750 1.923930 0.015590 
#    z 0.000480 0.015590 1.889310 
# 
# From -- ./inp_files/187726.got.cif
#   From: 2010.06.25/outbox.cif.g09.slc.cpg/sg2_94_cif.got.tgz:187726.got - 2010.06.27 13:26:56.
