data_PCOD8025097
_publ_section_title
;
Structure prediction by ZEFSAII (Michael W. Deem and Ramdas Pophale) SiO2 
 PCOD8025097
Probable space group: P -1
;
_chemical_formula_sum "Si O2"
_cell_formula_units_Z 16
_cell_length_a 12.099440
_cell_length_b 12.405975
_cell_length_c 11.964129
_cell_angle_alpha 49.440411
_cell_angle_beta 31.646639
_cell_angle_gamma 50.224793
_cell_volume 698.913508
_symmetry_space_group_name_H-M "P -1"
_symmetry_group_IT_number 2
_symmetry_cell_setting 'triclinic'
loop_
_space_group_symop_operation_xyz
x,y,z
-x,-y,-z
loop_
_atom_site_type_symbol
_atom_site_label
_atom_site_fract_x
_atom_site_fract_y
_atom_site_fract_z
Si Si1 0.955326 0.053089 0.873966
Si Si2 0.665768 0.615151 0.496990
Si Si3 0.232184 0.808638 0.673141
Si Si4 0.754972 0.076815 0.645980
Si Si5 0.940108 0.375820 0.709216
Si Si6 0.436645 0.879588 0.979371
Si Si7 0.387487 0.442559 0.977462
Si Si8 0.004340 0.558124 0.077919
O O1 0.932151 0.225596 0.757277
O O2 0.732621 0.027168 0.027028
O O3 0.151864 0.969893 0.684060
O O4 0.000000 0.000000 0.000000
O O5 0.462928 0.747258 0.571555
O O6 0.597845 0.488778 0.713537
O O7 0.765023 0.556104 0.331824
O O8 0.869498 0.670726 0.333656
O O9 0.255865 0.801810 0.522950
O O10 0.058505 0.717567 0.923366
O O11 0.669777 0.145952 0.791709
O O12 0.000000 0.000000 0.500000
O O13 0.621667 0.964689 0.787838
O O14 0.000000 0.500000 0.500000
O O15 0.705546 0.447148 0.915531
O O16 0.537917 0.724970 0.938296
O O17 0.193816 0.447822 0.053381
O O18 0.000000 0.500000 0.000000
#
# Coordination Sequence:
#
# PCOD8025097 Si02
#       8
#     2   2   2   2   2   2   2   2
#     4  12  26  47  72 104 146 187 241 298 352 428
#     4  10  23  44  68  99 141 183 228 296 354 420
#     4  11  26  43  69 103 143 181 245 286 359 431
#     4  11  26  46  69 102 143 187 236 292 354 432
#     4  11  26  46  71 102 144 186 241 299 351 424
#     4  11  27  44  72 104 142 188 233 295 357 422
#     4  10  24  44  67 102 137 183 240 285 354 428
#     4  10  24  40  68 101 139 181 231 293 352 424
#
# _framework density 22.892675000000001
#
# number of rings (size 3 to 8) (size 9 to 14) (size 15 to 20)
#    0.000    1.250    1.250    3.000   10.500    5.500 
#    0.000    0.000    0.000    0.000    0.000    0.000 
#    0.000    0.000    0.000    0.000    0.000    0.000 
#
# Total GULP energy -198340.196306 kJ/mol
# GULP energy per Si atom -12396.262269 kJ/mol
# Density = 2.284057 g / cm^3
# Si number density = 22.892675 Si / 1000 Ang^3
#
#
#
# Elastic Constant Matrix: (Units=GPa)
#
#
# Indices 1 2 3 4 5 6 
#
# 1 86.3610 29.3597 32.3200 1.9115 0.8944 -5.4309
# 2 29.3597 111.8698 38.5869 13.2511 -9.3010 -0.1804
# 3 32.3200 38.5869 144.7189 11.8651 -0.7569 0.9489
# 4 1.9115 13.2511 11.8651 28.4860 -4.4481 9.0669
# 5 0.8944 -9.3010 -0.7569 -4.4481 44.9439 2.4374
# 6 -5.4309 -0.1804 0.9489 9.0669 2.4374 33.7175
#
#
#
# Elastic Compliance Matrix: (Units=1/GPa)
#
#
# Indices 1 2 3 4 5 6 
#
# 1 0.013569 -0.002905 -0.002322 0.000572 -0.000970 0.002152
# 2 -0.002905 0.011006 -0.001951 -0.004006 0.001874 0.000588
# 3 -0.002322 -0.001951 0.008145 -0.002424 -0.000464 0.000072
# 4 0.000572 -0.004006 -0.002424 0.042211 0.003920 -0.011495
# 5 -0.000970 0.001874 -0.000464 0.003920 0.023193 -0.002864
# 6 0.002152 0.000588 0.000072 -0.011495 -0.002864 0.033304
#
#
# Mechanical properties :
#
#
# Convention : Reuss Voigt Hill
#
# Bulk Modulus (GPa) = 54.45815 60.38700 57.42257
# Shear Modulus (GPa) = 32.91560 37.60836 35.26198
#
# Velocity S-wave (km/s) = 3.79598 4.05756 3.92895
# Velocity P-wave (km/s) = 6.56145 6.95610 6.76166
#
# Compressibility (1/GPa) = 0.01836272
#
# Stress axis : x y z
#
# Youngs Moduli (GPa) = 73.70003 90.86145 122.78083
#
# Poissons Ratio (x) = 0.26396 0.28506
# Poissons Ratio (y) = 0.21410 0.23958
# Poissons Ratio (z) = 0.17111 0.17730
#
# Static dielectric constant tensor:
#      x y z
#    x 4.561510 -0.035420 0.119720 
#    y -0.035420 3.763760 0.433890 
#    z 0.119720 0.433890 4.010100 
# 
# 
# High freq. dielectric constant tensor:
#      x y z
#    x 1.919860 -0.007670 -0.002860 
#    y -0.007670 1.895830 0.010470 
#    z -0.002860 0.010470 1.911480 
# 
# From -- ./inp_files/427692.got.cif
#   From: 2010.06.25/outbox.cif.g09.slc.cpg/sg2_214_cif.got.tgz:427692.got - 2010.06.27 13:26:56.
