data_PCOD8025777
_publ_section_title
;
Structure prediction by ZEFSAII (Michael W. Deem and Ramdas Pophale) SiO2 
 PCOD8025777
Probable space group: P -1
;
_chemical_formula_sum "Si O2"
_cell_formula_units_Z 14
_cell_length_a 23.475359
_cell_length_b 5.317535
_cell_length_c 9.033208
_cell_angle_alpha 88.744433
_cell_angle_beta 143.406040
_cell_angle_gamma 102.434249
_cell_volume 633.998782
_symmetry_space_group_name_H-M "P -1"
_symmetry_group_IT_number 2
_symmetry_cell_setting 'triclinic'
loop_
_space_group_symop_operation_xyz
x,y,z
-x,-y,-z
loop_
_atom_site_type_symbol
_atom_site_label
_atom_site_fract_x
_atom_site_fract_y
_atom_site_fract_z
Si Si1 0.508622 0.558642 0.688139
Si Si2 0.222607 0.988917 0.320160
Si Si3 0.291694 0.022194 0.790619
Si Si4 0.026126 0.763357 0.744514
Si Si5 0.666453 0.433522 0.507646
Si Si6 0.561543 0.235918 0.018999
Si Si7 0.092430 0.835603 0.551498
O O1 0.500000 0.500000 0.500000
O O2 0.422359 0.684423 0.552175
O O3 0.482580 0.292329 0.738971
O O4 0.623731 0.711933 0.975536
O O5 0.278515 0.785262 0.386296
O O6 0.236440 0.053869 0.522752
O O7 0.259259 0.269230 0.301416
O O8 0.104126 0.849692 0.041830
O O9 0.209334 0.920344 0.748648
O O10 0.350144 0.813303 0.892214
O O11 0.088200 0.814643 0.720053
O O12 0.965256 0.450027 0.639482
O O13 0.952117 0.937554 0.598570
O O14 0.615540 0.473270 0.243975
O O15 0.500000 0.000000 0.000000
#
# Coordination Sequence:
#
# PCOD8025777 Si02
#       7
#     2   2   2   2   2   2   2
#     4  12  26  41  64 102 141 181 229 287 338 402
#     4  11  24  41  72  97 129 178 232 272 336 409
#     4  11  25  41  66 101 134 177 227 284 334 403
#     4  10  23  46  67  95 131 178 221 279 350 409
#     4  11  23  42  65  97 135 184 222 272 335 413
#     4  11  22  45  67  90 143 186 225 274 340 405
#     4  10  24  43  68  96 136 171 219 284 349 406
#
# _framework density 22.082060999999999
#
# number of rings (size 3 to 8) (size 9 to 14) (size 15 to 20)
#    0.000    1.143    2.857    3.000    4.000    2.857 
#    0.000    0.000    0.000    0.000    0.000    0.000 
#    0.000    0.000    0.000    0.000    0.000    0.000 
#
# Total GULP energy -173545.781185 kJ/mol
# GULP energy per Si atom -12396.127228 kJ/mol
# Density = 2.203180 g / cm^3
# Si number density = 22.082061 Si / 1000 Ang^3
#
#
#
# Elastic Constant Matrix: (Units=GPa)
#
#
# Indices 1 2 3 4 5 6 
#
# 1 129.6129 37.3250 32.7031 0.8960 11.3582 -9.5086
# 2 37.3250 108.3235 25.3122 20.6226 -4.6562 -7.4002
# 3 32.7031 25.3122 106.5644 15.0676 -13.1745 0.1984
# 4 0.8960 20.6226 15.0676 28.0999 5.1905 -0.1233
# 5 11.3582 -4.6562 -13.1745 5.1905 40.9587 4.4109
# 6 -9.5086 -7.4002 0.1984 -0.1233 4.4109 23.2357
#
#
#
# Elastic Compliance Matrix: (Units=1/GPa)
#
#
# Indices 1 2 3 4 5 6 
#
# 1 0.010546 -0.003748 -0.003852 0.005562 -0.005755 0.004277
# 2 -0.003748 0.012671 -0.000043 -0.009799 0.003516 0.001783
# 3 -0.003852 -0.000043 0.012460 -0.007716 0.006366 -0.002946
# 4 0.005562 -0.009799 -0.007716 0.048872 -0.011511 0.001665
# 5 -0.005755 0.003516 0.006366 -0.011511 0.030690 -0.007177
# 6 0.004277 0.001783 -0.002946 0.001665 -0.007177 0.046752
#
#
# Mechanical properties :
#
#
# Convention : Reuss Voigt Hill
#
# Bulk Modulus (GPa) = 49.03914 59.46460 54.25187
# Shear Modulus (GPa) = 27.16308 35.06955 31.11631
#
# Velocity S-wave (km/s) = 3.51108 3.98948 3.75790
# Velocity P-wave (km/s) = 6.22035 6.94324 6.59172
#
# Compressibility (1/GPa) = 0.02039187
#
# Stress axis : x y z
#
# Youngs Moduli (GPa) = 94.82175 78.91795 80.25799
#
# Poissons Ratio (x) = 0.29576 0.30916
# Poissons Ratio (y) = 0.35537 0.00344
# Poissons Ratio (z) = 0.36526 0.00339
#
# Static dielectric constant tensor:
#      x y z
#    x 3.910850 -0.183000 0.048150 
#    y -0.183000 4.062940 0.007840 
#    z 0.048150 0.007840 4.272560 
# 
# 
# High freq. dielectric constant tensor:
#      x y z
#    x 1.864980 -0.011860 0.004790 
#    y -0.011860 1.873810 0.009780 
#    z 0.004790 0.009780 1.867760 
# 
# From -- ./inp_files/51676.got.cif
#   From: 2010.06.25/outbox.cif.g09.slc.cpg/sg2_26_cif.got.tgz:51676.got - 2010.06.27 13:26:56.
