data_PCOD8025590
_publ_section_title
;
Structure prediction by ZEFSAII (Michael W. Deem and Ramdas Pophale) SiO2 
 PCOD8025590
Probable space group: P -1
;
_chemical_formula_sum "Si O2"
_cell_formula_units_Z 16
_cell_length_a 12.636395
_cell_length_b 5.392942
_cell_length_c 20.604958
_cell_angle_alpha 53.355749
_cell_angle_beta 143.496597
_cell_angle_gamma 120.375030
_cell_volume 669.222048
_symmetry_space_group_name_H-M "P -1"
_symmetry_group_IT_number 2
_symmetry_cell_setting 'triclinic'
loop_
_space_group_symop_operation_xyz
x,y,z
-x,-y,-z
loop_
_atom_site_type_symbol
_atom_site_label
_atom_site_fract_x
_atom_site_fract_y
_atom_site_fract_z
Si Si1 0.313672 0.816288 0.323216
Si Si2 0.699116 0.871651 0.534080
Si Si3 0.628633 0.215217 0.882709
Si Si4 0.892595 0.206218 0.462632
Si Si5 0.046181 0.092985 0.231215
Si Si6 0.871035 0.270320 0.880004
Si Si7 0.331954 0.161281 0.920461
Si Si8 0.430048 0.682792 0.800617
O O1 0.500480 0.003632 0.405903
O O2 0.317023 0.496378 0.413471
O O3 0.299805 0.808025 0.239217
O O4 0.127488 0.964314 0.225538
O O5 0.797228 0.989525 0.628982
O O6 0.822753 0.973118 0.519798
O O7 0.788275 0.365976 0.893900
O O8 0.571518 0.485516 0.860650
O O9 0.488177 0.038771 0.791321
O O10 0.691751 0.922948 0.002146
O O11 0.734098 0.342211 0.324030
O O12 0.000000 0.500000 0.500000
O O13 0.000000 0.000000 0.500000
O O14 0.017001 0.452482 0.144923
O O15 0.859201 0.945913 0.188641
O O16 0.000000 0.000000 0.000000
O O17 0.370952 0.521708 0.865719
O O18 0.500000 0.000000 0.000000
#
# Coordination Sequence:
#
# PCOD8025590 Si02
#       8
#     2   2   2   2   2   2   2   2
#     4  10  23  45  70 103 138 190 239 300 358 435
#     4  10  24  44  71 102 142 186 245 295 364 425
#     4  11  25  45  71 101 140 185 233 295 357 434
#     4  12  27  45  71 107 143 188 239 303 358 426
#     4  11  24  45  72 101 139 188 239 300 360 436
#     4  11  26  41  69 105 144 184 237 300 368 428
#     4  10  24  44  70  99 139 186 239 291 358 431
#     4  11  25  47  70 102 138 190 237 292 358 427
#
# _framework density 23.908358
#
# number of rings (size 3 to 8) (size 9 to 14) (size 15 to 20)
#    0.000    1.250    0.000    3.750   10.500    2.000 
#    4.500    0.000    0.000    0.000    0.000    0.000 
#    0.000    0.000    0.000    0.000    0.000    0.000 
#
# Total GULP energy -198234.069336 kJ/mol
# GULP energy per Si atom -12389.629334 kJ/mol
# Density = 2.385394 g / cm^3
# Si number density = 23.908358 Si / 1000 Ang^3
#
#
#
# Elastic Constant Matrix: (Units=GPa)
#
#
# Indices 1 2 3 4 5 6 
#
# 1 130.3985 22.0723 30.4470 -1.5719 2.1365 13.8426
# 2 22.0723 69.0004 8.8716 13.3198 17.5292 0.8482
# 3 30.4470 8.8716 92.1417 -2.3794 4.3101 11.5391
# 4 -1.5719 13.3198 -2.3794 30.6255 9.7990 3.3763
# 5 2.1365 17.5292 4.3101 9.7990 39.1107 -1.4473
# 6 13.8426 0.8482 11.5391 3.3763 -1.4473 36.7803
#
#
#
# Elastic Compliance Matrix: (Units=1/GPa)
#
#
# Indices 1 2 3 4 5 6 
#
# 1 0.009028 -0.003036 -0.002333 0.001713 0.000594 -0.002730
# 2 -0.003036 0.018385 -0.000796 -0.006324 -0.006354 0.001299
# 3 -0.002333 -0.000796 0.012219 0.002000 -0.001481 -0.003179
# 4 0.001713 -0.006324 0.002000 0.038533 -0.007317 -0.004952
# 5 0.000594 -0.006354 -0.001481 -0.007317 0.030464 0.002258
# 6 -0.002730 0.001299 -0.003179 -0.004952 0.002258 0.029727
#
#
# Mechanical properties :
#
#
# Convention : Reuss Voigt Hill
#
# Bulk Modulus (GPa) = 36.62495 46.03582 41.33038
# Shear Modulus (GPa) = 31.29164 36.64661 33.96912
#
# Velocity S-wave (km/s) = 3.62168 3.91934 3.77345
# Velocity P-wave (km/s) = 5.73070 6.30702 6.02576
#
# Compressibility (1/GPa) = 0.02730379
#
# Stress axis : x y z
#
# Youngs Moduli (GPa) = 110.76537 54.39128 81.83773
#
# Poissons Ratio (x) = 0.16515 0.19089
# Poissons Ratio (y) = 0.33631 0.06511
# Poissons Ratio (z) = 0.25837 0.04327
#
# Static dielectric constant tensor:
#      x y z
#    x 4.244070 0.241710 -0.513900 
#    y 0.241710 4.410190 0.275430 
#    z -0.513900 0.275430 4.615380 
# 
# 
# High freq. dielectric constant tensor:
#      x y z
#    x 1.953310 0.016530 -0.014170 
#    y 0.016530 1.938740 0.005520 
#    z -0.014170 0.005520 1.962570 
# 
# From -- ./inp_files/364587.got.cif
#   From: 2010.06.25/outbox.cif.g09.slc.cpg/sg2_183_cif.got.tgz:364587.got - 2010.06.27 13:26:56.
