data_PCOD8025587
_publ_section_title
;
Structure prediction by ZEFSAII (Michael W. Deem and Ramdas Pophale) SiO2 
 PCOD8025587
Probable space group: P -1
;
_chemical_formula_sum "Si O2"
_cell_formula_units_Z 14
_cell_length_a 15.467847
_cell_length_b 5.443749
_cell_length_c 11.491109
_cell_angle_alpha 115.825308
_cell_angle_beta 46.320547
_cell_angle_gamma 91.913877
_cell_volume 574.266952
_symmetry_space_group_name_H-M "P -1"
_symmetry_group_IT_number 2
_symmetry_cell_setting 'triclinic'
loop_
_space_group_symop_operation_xyz
x,y,z
-x,-y,-z
loop_
_atom_site_type_symbol
_atom_site_label
_atom_site_fract_x
_atom_site_fract_y
_atom_site_fract_z
Si Si1 0.977765 0.229256 0.735673
Si Si2 0.590175 0.190970 0.594737
Si Si3 0.119206 0.591579 0.378165
Si Si4 0.376711 0.288349 0.216762
Si Si5 0.207143 0.338968 0.609001
Si Si6 0.620229 0.007027 0.281576
Si Si7 0.766967 0.362726 0.134604
O O1 0.872247 0.385892 0.764660
O O2 0.057019 0.433652 0.730684
O O3 0.906471 0.183500 0.906898
O O4 0.087839 0.911704 0.529506
O O5 0.560504 0.475765 0.763153
O O6 0.499606 0.017700 0.683390
O O7 0.742587 0.966251 0.424537
O O8 0.565279 0.247581 0.489826
O O9 0.264651 0.374373 0.239192
O O10 0.000000 0.500000 0.500000
O O11 0.305275 0.257520 0.392865
O O12 0.500000 0.000000 0.000000
O O13 0.212283 0.600937 0.739786
O O14 0.702346 0.675517 0.189779
O O15 0.692919 0.139810 0.150736
#
# Coordination Sequence:
#
# PCOD8025587 Si02
#       7
#     2   2   2   2   2   2   2
#     4  11  25  46  74 104 149 202 256 311 392 461
#     4  10  23  45  70 102 154 200 242 317 385 460
#     4  11  25  48  71 102 152 204 256 317 375 464
#     4  12  26  45  75 111 153 205 261 315 387 463
#     4  11  23  46  71 110 151 192 251 322 387 460
#     4  10  24  43  73 111 154 192 252 313 397 463
#     4  11  25  44  77 117 147 197 250 326 393 463
#
# _framework density 24.378903999999999
#
# number of rings (size 3 to 8) (size 9 to 14) (size 15 to 20)
#    0.000    1.143    4.286    0.429    4.000    4.571 
#    0.000    2.857    0.000    0.000    0.000    0.000 
#    0.000    0.000    0.000    0.000    0.000    0.000 
#
# Total GULP energy -173514.578945 kJ/mol
# GULP energy per Si atom -12393.898496 kJ/mol
# Density = 2.432342 g / cm^3
# Si number density = 24.378904 Si / 1000 Ang^3
#
#
#
# Elastic Constant Matrix: (Units=GPa)
#
#
# Indices 1 2 3 4 5 6 
#
# 1 159.2461 52.5199 71.4228 3.8228 -13.3095 19.1681
# 2 52.5199 112.8704 52.2798 -12.9550 -1.9634 22.4829
# 3 71.4228 52.2798 122.6827 -24.4746 -6.5106 5.0230
# 4 3.8228 -12.9550 -24.4746 41.3888 1.4030 -7.4876
# 5 -13.3095 -1.9634 -6.5106 1.4030 28.5196 1.6269
# 6 19.1681 22.4829 5.0230 -7.4876 1.6269 44.5022
#
#
#
# Elastic Compliance Matrix: (Units=1/GPa)
#
#
# Indices 1 2 3 4 5 6 
#
# 1 0.010690 -0.001887 -0.006270 -0.006167 0.003966 -0.004126
# 2 -0.001887 0.012642 -0.003936 0.000931 -0.000672 -0.004948
# 3 -0.006270 -0.003936 0.015085 0.009103 -0.000460 0.004535
# 4 -0.006167 0.000931 0.009103 0.031688 -0.002670 0.006587
# 5 0.003966 -0.000672 -0.000460 -0.002670 0.037073 -0.003121
# 6 -0.004126 -0.004948 0.004535 0.006587 -0.003121 0.027459
#
#
# Mechanical properties :
#
#
# Convention : Reuss Voigt Hill
#
# Bulk Modulus (GPa) = 70.27178 83.02714 76.64946
# Shear Modulus (GPa) = 30.56878 37.45389 34.01134
#
# Velocity S-wave (km/s) = 3.54489 3.92385 3.73917
# Velocity P-wave (km/s) = 6.75592 7.39322 7.08174
#
# Compressibility (1/GPa) = 0.01423046
#
# Stress axis : x y z
#
# Youngs Moduli (GPa) = 93.54154 79.10379 66.29206
#
# Poissons Ratio (x) = 0.14926 0.41568
# Poissons Ratio (y) = 0.17651 0.26091
# Poissons Ratio (z) = 0.58655 0.31134
#
# Static dielectric constant tensor:
#      x y z
#    x 4.791490 0.127690 0.074340 
#    y 0.127690 4.257640 -0.043170 
#    z 0.074340 -0.043170 4.193890 
# 
# 
# High freq. dielectric constant tensor:
#      x y z
#    x 1.986900 0.007820 0.002360 
#    y 0.007820 1.960080 -0.002650 
#    z 0.002360 -0.002650 1.956180 
# 
# From -- ./inp_files/124326.got.cif
#   From: 2010.06.25/outbox.cif.g09.slc.cpg/sg2_63_cif.got.tgz:124326.got - 2010.06.27 13:26:56.
