data_PCOD8025376
_publ_section_title
;
Structure prediction by ZEFSAII (Michael W. Deem and Ramdas Pophale) SiO2 
 PCOD8025376
Probable space group: P -1
;
_chemical_formula_sum "Si O2"
_cell_formula_units_Z 14
_cell_length_a 14.258351
_cell_length_b 9.264412
_cell_length_c 15.296025
_cell_angle_alpha 39.719948
_cell_angle_beta 30.356637
_cell_angle_gamma 43.510270
_cell_volume 640.590824
_symmetry_space_group_name_H-M "P -1"
_symmetry_group_IT_number 2
_symmetry_cell_setting 'triclinic'
loop_
_space_group_symop_operation_xyz
x,y,z
-x,-y,-z
loop_
_atom_site_type_symbol
_atom_site_label
_atom_site_fract_x
_atom_site_fract_y
_atom_site_fract_z
Si Si1 0.058442 0.424311 0.164441
Si Si2 0.907458 0.056242 0.362659
Si Si3 0.869511 0.369204 0.520604
Si Si4 0.534216 0.744225 0.127670
Si Si5 0.504573 0.244526 0.649025
Si Si6 0.096977 0.128104 0.731451
Si Si7 0.797265 0.911992 0.148605
O O1 0.979010 0.319864 0.363784
O O2 0.956422 0.684227 0.110324
O O3 0.284803 0.406905 0.996600
O O4 0.015544 0.267694 0.190582
O O5 0.852119 0.042797 0.311503
O O6 0.043079 0.821905 0.391081
O O7 0.716695 0.101856 0.551402
O O8 0.647262 0.371721 0.686638
O O9 0.894255 0.614089 0.425148
O O10 0.586498 0.747247 0.186385
O O11 0.500000 0.000000 0.000000
O O12 0.500000 0.500000 0.500000
O O13 0.395919 0.106145 0.734284
O O14 0.239465 0.052438 0.734157
O O15 0.883849 0.121319 0.940571
#
# Coordination Sequence:
#
# PCOD8025376 Si02
#       7
#     2   2   2   2   2   2   2
#     4  11  22  42  72  96 132 176 218 283 336 383
#     4  12  22  40  69  94 133 175 217 271 338 384
#     4  11  23  47  63 100 139 171 220 279 328 405
#     4  12  24  40  72 104 129 171 229 277 334 392
#     4  12  24  41  68 104 134 171 224 285 330 395
#     4  10  24  44  64  89 136 181 213 275 332 399
#     4  10  23  45  63  94 135 169 229 273 324 404
#
# _framework density 21.854825000000002
#
# number of rings (size 3 to 8) (size 9 to 14) (size 15 to 20)
#    0.000    0.857    4.286    3.429    2.000    1.714 
#    7.714    0.714    0.000    0.000    0.000    0.000 
#    0.000    0.000    0.000    0.000    0.000    0.000 
#
# Total GULP energy -173638.451120 kJ/mol
# GULP energy per Si atom -12402.746509 kJ/mol
# Density = 2.180508 g / cm^3
# Si number density = 21.854825 Si / 1000 Ang^3
#
#
#
# Elastic Constant Matrix: (Units=GPa)
#
#
# Indices 1 2 3 4 5 6 
#
# 1 109.1639 23.5290 43.4420 -2.9577 -10.8560 10.8178
# 2 23.5290 58.7361 27.5388 5.9210 -2.6323 4.7197
# 3 43.4420 27.5388 116.6754 6.1849 -13.3451 -0.2310
# 4 -2.9577 5.9210 6.1849 40.0855 -1.8702 -8.8554
# 5 -10.8560 -2.6323 -13.3451 -1.8702 42.1759 4.4968
# 6 10.8178 4.7197 -0.2310 -8.8554 4.4968 37.8173
#
#
#
# Elastic Compliance Matrix: (Units=1/GPa)
#
#
# Indices 1 2 3 4 5 6 
#
# 1 0.011711 -0.002834 -0.003525 0.001268 0.002095 -0.002970
# 2 -0.002834 0.020368 -0.003643 -0.003219 -0.000493 -0.002449
# 3 -0.003525 -0.003643 0.011056 -0.001102 0.002207 0.001010
# 4 0.001268 -0.003219 -0.001102 0.027101 0.000302 0.006342
# 5 0.002095 -0.000493 0.002207 0.000302 0.025300 -0.003462
# 6 -0.002970 -0.002449 0.001010 0.006342 -0.003462 0.029501
#
#
# Mechanical properties :
#
#
# Convention : Reuss Voigt Hill
#
# Bulk Modulus (GPa) = 43.23127 52.62168 47.92647
# Shear Modulus (GPa) = 32.73314 36.68679 34.70996
#
# Velocity S-wave (km/s) = 3.87428 4.10159 3.98955
# Velocity P-wave (km/s) = 6.31169 6.82355 6.57260
#
# Compressibility (1/GPa) = 0.02313141
#
# Stress axis : x y z
#
# Youngs Moduli (GPa) = 85.38849 49.09732 90.44940
#
# Poissons Ratio (x) = 0.13914 0.31884
# Poissons Ratio (y) = 0.24198 0.32948
# Poissons Ratio (z) = 0.30100 0.17885
#
# Static dielectric constant tensor:
#      x y z
#    x 4.046570 0.145740 -0.117270 
#    y 0.145740 3.765860 -0.034530 
#    z -0.117270 -0.034530 4.031880 
# 
# 
# High freq. dielectric constant tensor:
#      x y z
#    x 1.865460 0.010170 -0.004220 
#    y 0.010170 1.842710 -0.008980 
#    z -0.004220 -0.008980 1.869240 
# 
# From -- ./inp_files/391887.got.cif
#   From: 2010.06.25/outbox.cif.g09.slc.cpg/sg2_196_cif.got.tgz:391887.got - 2010.06.27 13:26:56.
