data_PCOD8025336
_publ_section_title
;
Structure prediction by ZEFSAII (Michael W. Deem and Ramdas Pophale) SiO2 
 PCOD8025336
Probable space group: P -1
;
_chemical_formula_sum "Si O2"
_cell_formula_units_Z 14
_cell_length_a 15.038451
_cell_length_b 8.974624
_cell_length_c 8.397210
_cell_angle_alpha 64.178692
_cell_angle_beta 80.831247
_cell_angle_gamma 39.535036
_cell_volume 617.783809
_symmetry_space_group_name_H-M "P -1"
_symmetry_group_IT_number 2
_symmetry_cell_setting 'triclinic'
loop_
_space_group_symop_operation_xyz
x,y,z
-x,-y,-z
loop_
_atom_site_type_symbol
_atom_site_label
_atom_site_fract_x
_atom_site_fract_y
_atom_site_fract_z
Si Si1 0.668998 0.739084 0.528062
Si Si2 0.135080 0.961162 0.650348
Si Si3 0.347675 0.375632 0.756979
Si Si4 0.324179 0.085197 0.071140
Si Si5 0.890548 0.153934 0.812437
Si Si6 0.835224 0.919489 0.090475
Si Si7 0.860899 0.703873 0.666275
O O1 0.687061 0.674961 0.368174
O O2 0.747842 0.477533 0.727395
O O3 0.749916 0.793415 0.522761
O O4 0.500000 0.000000 0.500000
O O5 0.246345 0.682114 0.655643
O O6 0.211787 0.911764 0.815925
O O7 0.099430 0.165974 0.449467
O O8 0.982840 0.081123 0.666081
O O9 0.513585 0.203390 0.787925
O O10 0.320932 0.288314 0.951520
O O11 0.207886 0.205641 0.181799
O O12 0.280662 0.054408 0.934331
O O13 0.838873 0.037493 0.879726
O O14 0.000000 0.000000 0.000000
O O15 0.993346 0.616030 0.228469
#
# Coordination Sequence:
#
# PCOD8025336 Si02
#       7
#     2   2   2   2   2   2   2
#     4  12  25  46  75 101 140 183 229 289 348 409
#     4  11  25  42  71 103 140 174 235 290 342 408
#     4  11  27  45  69 103 140 184 230 283 350 415
#     4  11  26  46  69  99 143 184 233 280 350 415
#     4  10  23  44  74 102 138 181 237 277 347 409
#     4  11  24  46  71  99 139 186 230 284 345 414
#     4  12  24  45  70 103 137 183 235 287 342 412
#
# _framework density 22.661649000000001
#
# number of rings (size 3 to 8) (size 9 to 14) (size 15 to 20)
#    0.000    0.857    4.286    2.571    6.000    2.857 
#    0.000    0.000    0.000    0.000    0.000    0.000 
#    0.000    0.000    0.000    0.000    0.000    0.000 
#
# Total GULP energy -173623.435403 kJ/mol
# GULP energy per Si atom -12401.673957 kJ/mol
# Density = 2.261007 g / cm^3
# Si number density = 22.661649 Si / 1000 Ang^3
#
#
#
# Elastic Constant Matrix: (Units=GPa)
#
#
# Indices 1 2 3 4 5 6 
#
# 1 78.8576 19.0743 23.3257 -8.4322 -0.3890 5.2452
# 2 19.0743 115.4477 44.3111 -14.7569 -4.7844 9.8365
# 3 23.3257 44.3111 96.0835 -14.3314 -16.8397 -6.3348
# 4 -8.4322 -14.7569 -14.3314 48.0743 4.1577 6.7592
# 5 -0.3890 -4.7844 -16.8397 4.1577 50.9630 -0.1687
# 6 5.2452 9.8365 -6.3348 6.7592 -0.1687 27.8193
#
#
#
# Elastic Compliance Matrix: (Units=1/GPa)
#
#
# Indices 1 2 3 4 5 6 
#
# 1 0.014266 -0.000538 -0.003386 0.001962 -0.001233 -0.003755
# 2 -0.000538 0.011635 -0.005373 0.002788 -0.000934 -0.005919
# 3 -0.003386 -0.005373 0.015006 0.001048 0.004362 0.005728
# 4 0.001962 0.002788 0.001048 0.023384 -0.001307 -0.006807
# 5 -0.001233 -0.000934 0.004362 -0.001307 0.021079 0.002002
# 6 -0.003755 -0.005919 0.005728 -0.006807 0.002002 0.041718
#
#
# Mechanical properties :
#
#
# Convention : Reuss Voigt Hill
#
# Bulk Modulus (GPa) = 44.81761 51.53458 48.17609
# Shear Modulus (GPa) = 32.65391 38.94983 35.80187
#
# Velocity S-wave (km/s) = 3.80008 4.15029 3.97904
# Velocity P-wave (km/s) = 6.25091 6.76437 6.51271
#
# Compressibility (1/GPa) = 0.02231266
#
# Stress axis : x y z
#
# Youngs Moduli (GPa) = 70.09507 85.94561 66.63948
#
# Poissons Ratio (x) = 0.04621 0.22567
# Poissons Ratio (y) = 0.03768 0.35809
# Poissons Ratio (z) = 0.23737 0.46183
#
# Static dielectric constant tensor:
#      x y z
#    x 4.527730 0.071290 -0.345130 
#    y 0.071290 3.983640 -0.094100 
#    z -0.345130 -0.094100 4.370830 
# 
# 
# High freq. dielectric constant tensor:
#      x y z
#    x 1.901520 0.004880 -0.004210 
#    y 0.004880 1.886010 -0.002910 
#    z -0.004210 -0.002910 1.900630 
# 
# From -- ./inp_files/297620.got.cif
#   From: 2010.06.25/outbox.cif.g09.slc.cpg/sg2_149_cif.got.tgz:297620.got - 2010.06.27 13:26:56.
