data_PCOD8025578
_publ_section_title
;
Structure prediction by ZEFSAII (Michael W. Deem and Ramdas Pophale) SiO2 
 PCOD8025578
Probable space group: P -1
;
_chemical_formula_sum "Si O2"
_cell_formula_units_Z 16
_cell_length_a 6.889555
_cell_length_b 20.199999
_cell_length_c 7.853514
_cell_angle_alpha 72.325960
_cell_angle_beta 62.263106
_cell_angle_gamma 48.825774
_cell_volume 728.149400
_symmetry_space_group_name_H-M "P -1"
_symmetry_group_IT_number 2
_symmetry_cell_setting 'triclinic'
loop_
_space_group_symop_operation_xyz
x,y,z
-x,-y,-z
loop_
_atom_site_type_symbol
_atom_site_label
_atom_site_fract_x
_atom_site_fract_y
_atom_site_fract_z
Si Si1 0.339645 0.547270 0.859806
Si Si2 0.732415 0.705070 0.952212
Si Si3 0.514859 0.092154 0.602089
Si Si4 0.533421 0.372003 0.754614
Si Si5 0.395304 0.895493 0.062493
Si Si6 0.291873 0.406552 0.472938
Si Si7 0.777321 0.988023 0.261351
Si Si8 0.167487 0.283743 0.477650
O O1 0.374306 0.474602 0.779067
O O2 0.459835 0.593565 0.694014
O O3 0.019329 0.621173 0.979730
O O4 0.500000 0.500000 0.000000
O O5 0.801646 0.728269 0.727430
O O6 0.519473 0.679989 0.045451
O O7 0.611873 0.789848 0.053629
O O8 0.593694 0.067909 0.787737
O O9 0.767849 0.032007 0.411444
O O10 0.384808 0.192834 0.554537
O O11 0.294784 0.078554 0.635737
O O12 0.377256 0.370700 0.656699
O O13 0.857515 0.325485 0.633784
O O14 0.435583 0.940744 0.852118
O O15 0.092545 0.924329 0.123080
O O16 0.264249 0.342163 0.430164
O O17 0.000000 0.500000 0.500000
#
# Coordination Sequence:
#
# PCOD8025578 Si02
#       8
#     2   2   2   2   2   2   2   2
#     4  12  25  44  68  99 137 188 233 286 348 410
#     4  12  25  45  67 104 140 180 235 291 341 418
#     4  11  23  43  72 100 136 182 225 285 349 420
#     4  12  25  45  68  94 140 184 230 292 343 406
#     4  11  23  44  69 102 139 176 228 287 346 418
#     4  12  23  43  69  94 133 186 230 286 347 406
#     4  10  23  45  70 101 135 179 226 281 360 410
#     4  12  25  45  69 104 139 182 236 286 349 412
#
# _framework density 21.973511999999999
#
# number of rings (size 3 to 8) (size 9 to 14) (size 15 to 20)
#    0.000    0.500    3.750    5.250    1.750    0.000 
#    2.250    1.250    0.000    0.000    0.000    0.000 
#    0.000    0.000    0.000    0.000    0.000    0.000 
#
# Total GULP energy -198376.834749 kJ/mol
# GULP energy per Si atom -12398.552172 kJ/mol
# Density = 2.192350 g / cm^3
# Si number density = 21.973512 Si / 1000 Ang^3
#
#
#
# Elastic Constant Matrix: (Units=GPa)
#
#
# Indices 1 2 3 4 5 6 
#
# 1 66.3025 17.1222 29.1000 8.9798 6.6080 7.7175
# 2 17.1222 97.0038 31.4151 13.7497 -3.4818 16.2741
# 3 29.1000 31.4151 111.4857 2.5658 -0.5378 3.8423
# 4 8.9798 13.7497 2.5658 31.6429 2.5504 -1.0521
# 5 6.6080 -3.4818 -0.5378 2.5504 49.7414 -3.6607
# 6 7.7175 16.2741 3.8423 -1.0521 -3.6607 28.5657
#
#
#
# Elastic Compliance Matrix: (Units=1/GPa)
#
#
# Indices 1 2 3 4 5 6 
#
# 1 0.018604 -0.000495 -0.004462 -0.004643 -0.002659 -0.004656
# 2 -0.000495 0.013523 -0.003295 -0.005769 0.000739 -0.007245
# 3 -0.004462 -0.003295 0.010964 0.001826 0.000515 0.001742
# 4 -0.004643 -0.005769 0.001826 0.035556 -0.001189 0.005453
# 5 -0.002659 0.000739 0.000515 -0.001189 0.020785 0.002848
# 6 -0.004656 -0.007245 0.001742 0.005453 0.002848 0.040724
#
#
# Mechanical properties :
#
#
# Convention : Reuss Voigt Hill
#
# Bulk Modulus (GPa) = 37.61363 47.78518 42.69941
# Shear Modulus (GPa) = 30.20715 35.13363 32.67039
#
# Velocity S-wave (km/s) = 3.71173 4.00297 3.86010
# Velocity P-wave (km/s) = 5.96021 6.56955 6.27228
#
# Compressibility (1/GPa) = 0.02658611
#
# Stress axis : x y z
#
# Youngs Moduli (GPa) = 53.75052 73.94679 91.21147
#
# Poissons Ratio (x) = 0.03660 0.40700
# Poissons Ratio (y) = 0.02660 0.30058
# Poissons Ratio (z) = 0.23984 0.24369
#
# Static dielectric constant tensor:
#      x y z
#    x 3.869860 0.069000 0.144480 
#    y 0.069000 4.215260 -0.369240 
#    z 0.144480 -0.369240 5.576880 
# 
# 
# High freq. dielectric constant tensor:
#      x y z
#    x 1.858490 0.004660 -0.000960 
#    y 0.004660 1.868380 -0.003890 
#    z -0.000960 -0.003890 1.882010 
# 
# From -- ./inp_files/135381.got.cif
#   From: 2010.06.25/outbox.cif.g09.slc.cpg/sg2_68_cif.got.tgz:135381.got - 2010.06.27 13:26:56.
