data_PCOD8025172
_publ_section_title
;
Structure prediction by ZEFSAII (Michael W. Deem and Ramdas Pophale) SiO2 
 PCOD8025172
Probable space group: P -1
;
_chemical_formula_sum "Si O2"
_cell_formula_units_Z 12
_cell_length_a 5.290489
_cell_length_b 17.086007
_cell_length_c 5.480908
_cell_angle_alpha 89.317769
_cell_angle_beta 78.478277
_cell_angle_gamma 119.324429
_cell_volume 419.742223
_symmetry_space_group_name_H-M "P -1"
_symmetry_group_IT_number 2
_symmetry_cell_setting 'triclinic'
loop_
_space_group_symop_operation_xyz
x,y,z
-x,-y,-z
loop_
_atom_site_type_symbol
_atom_site_label
_atom_site_fract_x
_atom_site_fract_y
_atom_site_fract_z
Si Si1 0.309948 0.210642 0.603079
Si Si2 0.344979 0.568466 0.911902
Si Si3 0.360196 0.397279 0.638430
Si Si4 0.262513 0.721044 0.064658
Si Si5 0.832191 0.926623 0.737655
Si Si6 0.774022 0.117574 0.003292
O O1 0.417349 0.315509 0.568254
O O2 0.377302 0.173206 0.342302
O O3 0.483189 0.202366 0.808154
O O4 0.950443 0.141179 0.709491
O O5 0.488149 0.438851 0.880199
O O6 0.467796 0.540859 0.641708
O O7 0.393084 0.670037 0.877414
O O8 0.000000 0.500000 0.000000
O O9 0.004774 0.357615 0.715583
O O10 0.146450 0.779276 0.930858
O O11 0.591024 0.947308 0.922869
O O12 0.081995 0.927367 0.857654
O O13 0.000000 0.000000 0.500000
#
# Coordination Sequence:
#
# PCOD8025172 Si02
#       6
#     2   2   2   2   2   2
#     4  10  24  43  70  98 133 188 237 299 350 437
#     4  11  24  44  67 106 149 188 238 301 364 428
#     4  10  24  40  71 100 140 192 242 294 361 431
#     4  10  23  44  70 102 134 193 244 296 355 437
#     4  12  27  43  70 104 142 182 234 301 367 429
#     4  11  24  46  67  98 139 183 238 289 358 429
#
# _framework density 28.588977
#
# number of rings (size 3 to 8) (size 9 to 14) (size 15 to 20)
#    0.000    1.333    1.667    2.000    9.333    5.333 
#    0.000    0.000    0.000    0.000    0.000    0.000 
#    0.000    0.000    0.000    0.000    0.000    0.000 
#
# Total GULP energy -148707.268780 kJ/mol
# GULP energy per Si atom -12392.272398 kJ/mol
# Density = 2.852391 g / cm^3
# Si number density = 28.588977 Si / 1000 Ang^3
#
#
#
# Elastic Constant Matrix: (Units=GPa)
#
#
# Indices 1 2 3 4 5 6 
#
# 1 166.3545 50.6471 68.5587 -1.8068 -13.6841 -1.8091
# 2 50.6471 57.5910 19.8962 -8.6514 -2.6791 2.1831
# 3 68.5587 19.8962 137.7750 16.4304 -23.5166 2.4660
# 4 -1.8068 -8.6514 16.4304 61.1034 13.8805 -0.6369
# 5 -13.6841 -2.6791 -23.5166 13.8805 42.9989 -9.0363
# 6 -1.8091 2.1831 2.4660 -0.6369 -9.0363 63.4258
#
#
#
# Elastic Compliance Matrix: (Units=1/GPa)
#
#
# Indices 1 2 3 4 5 6 
#
# 1 0.009869 -0.007368 -0.003739 0.000086 0.000775 0.000792
# 2 -0.007368 0.024685 -0.000867 0.004159 -0.002918 -0.001400
# 3 -0.003739 -0.000867 0.010846 -0.004562 0.006233 0.000344
# 4 0.000086 0.004159 -0.004562 0.020206 -0.008949 -0.001035
# 5 0.000775 -0.002918 0.006233 -0.008949 0.030488 0.004134
# 6 0.000792 -0.001400 0.000344 -0.001035 0.004134 0.016402
#
#
# Mechanical properties :
#
#
# Convention : Reuss Voigt Hill
#
# Bulk Modulus (GPa) = 46.61758 71.10272 58.86015
# Shear Modulus (GPa) = 34.82034 48.34686 41.58360
#
# Velocity S-wave (km/s) = 3.49372 4.11676 3.81797
# Velocity P-wave (km/s) = 5.71107 6.89359 6.33001
#
# Compressibility (1/GPa) = 0.02145113
#
# Stress axis : x y z
#
# Youngs Moduli (GPa) = 101.33033 40.51000 92.20275
#
# Poissons Ratio (x) = 0.29848 0.34473
# Poissons Ratio (y) = 0.74662 0.07996
# Poissons Ratio (z) = 0.37886 0.03513
#
# Static dielectric constant tensor:
#      x y z
#    x 5.277760 -0.420100 -0.411970 
#    y -0.420100 6.018730 0.260070 
#    z -0.411970 0.260070 5.525440 
# 
# 
# High freq. dielectric constant tensor:
#      x y z
#    x 2.151140 -0.023330 -0.037910 
#    y -0.023330 2.217740 -0.004950 
#    z -0.037910 -0.004950 2.166840 
# 
# From -- ./inp_files/3674.got.cif
#   From: 2010.06.25/outbox.cif.g09.slc.cpg/sg2_2_cif.got.tgz:3674.got - 2010.06.27 13:26:56.
