data_PCOD8025360
_publ_section_title
;
Structure prediction by ZEFSAII (Michael W. Deem and Ramdas Pophale) SiO2 
 PCOD8025360
Probable space group: P -1
;
_chemical_formula_sum "Si O2"
_cell_formula_units_Z 14
_cell_length_a 17.607287
_cell_length_b 8.844433
_cell_length_c 12.276388
_cell_angle_alpha 39.099161
_cell_angle_beta 145.285341
_cell_angle_gamma 139.808449
_cell_volume 642.999515
_symmetry_space_group_name_H-M "P -1"
_symmetry_group_IT_number 2
_symmetry_cell_setting 'triclinic'
loop_
_space_group_symop_operation_xyz
x,y,z
-x,-y,-z
loop_
_atom_site_type_symbol
_atom_site_label
_atom_site_fract_x
_atom_site_fract_y
_atom_site_fract_z
Si Si1 0.147512 0.574856 0.569932
Si Si2 0.855742 0.763333 0.447326
Si Si3 0.298556 0.166656 0.443320
Si Si4 0.845413 0.514013 0.801610
Si Si5 0.663974 0.081796 0.971489
Si Si6 0.432976 0.602583 0.961413
Si Si7 0.464604 0.590411 0.249659
O O1 0.120095 0.428495 0.505460
O O2 0.261749 0.488972 0.819998
O O3 0.000000 0.500000 0.500000
O O4 0.219618 0.878915 0.471684
O O5 0.811071 0.589993 0.598800
O O6 0.737476 0.882473 0.208005
O O7 0.000000 0.000000 0.500000
O O8 0.171083 0.280041 0.246452
O O9 0.411663 0.316833 0.400506
O O10 0.384062 0.222932 0.628082
O O11 0.734866 0.233391 0.861276
O O12 0.000000 0.500000 0.000000
O O13 0.655056 0.275022 0.949112
O O14 0.498052 0.911189 0.846530
O O15 0.500000 0.500000 0.000000
O O16 0.482003 0.536623 0.173734
#
# Coordination Sequence:
#
# PCOD8025360 Si02
#       7
#     2   2   2   2   2   2   2
#     4  12  28  44  67 104 146 184 233 297 353 423
#     4  12  25  45  73 102 143 189 236 294 358 421
#     4  10  23  45  69 105 138 180 240 287 357 417
#     4  11  24  42  71 101 138 185 238 286 352 428
#     4  11  23  44  72 104 136 183 237 290 348 429
#     4  12  25  43  67 106 142 182 236 288 357 417
#     4  10  23  44  76 101 137 186 230 295 350 425
#
# _framework density 21.772956000000001
#
# number of rings (size 3 to 8) (size 9 to 14) (size 15 to 20)
#    0.000    0.857    4.286    2.143    4.000    1.143 
#    0.000    2.857    0.000    0.000    0.000    0.000 
#    0.000    0.000    0.000    0.000    0.000    0.000 
#
# Total GULP energy -173506.080686 kJ/mol
# GULP energy per Si atom -12393.291478 kJ/mol
# Density = 2.172340 g / cm^3
# Si number density = 21.772956 Si / 1000 Ang^3
#
#
#
# Elastic Constant Matrix: (Units=GPa)
#
#
# Indices 1 2 3 4 5 6 
#
# 1 143.1066 61.6485 65.2342 6.3271 -12.3091 -3.4997
# 2 61.6485 144.0971 50.5055 5.7076 -10.8613 -1.4520
# 3 65.2342 50.5055 105.8600 -5.9945 -9.2476 2.0124
# 4 6.3271 5.7076 -5.9945 28.0569 5.2806 4.0151
# 5 -12.3091 -10.8613 -9.2476 5.2806 48.4996 0.8015
# 6 -3.4997 -1.4520 2.0124 4.0151 0.8015 44.4135
#
#
#
# Elastic Compliance Matrix: (Units=1/GPa)
#
#
# Indices 1 2 3 4 5 6 
#
# 1 0.010952 -0.002414 -0.005697 -0.003677 0.001531 0.001347
# 2 -0.002414 0.009174 -0.002925 -0.002218 0.001119 0.000423
# 3 -0.005697 -0.002925 0.014695 0.005231 0.000159 -0.001686
# 4 -0.003677 -0.002218 0.005231 0.039503 -0.004666 -0.004086
# 5 0.001531 0.001119 0.000159 -0.004666 0.021793 0.000178
# 6 0.001347 0.000423 -0.001686 -0.004086 0.000178 0.023078
#
#
# Mechanical properties :
#
#
# Convention : Reuss Voigt Hill
#
# Bulk Modulus (GPa) = 78.44347 83.09335 80.76841
# Shear Modulus (GPa) = 34.35993 38.57236 36.46615
#
# Velocity S-wave (km/s) = 3.97684 4.21357 4.09692
# Velocity P-wave (km/s) = 7.56262 7.86884 7.71725
#
# Compressibility (1/GPa) = 0.01274803
#
# Stress axis : x y z
#
# Youngs Moduli (GPa) = 91.30759 109.00009 68.04985
#
# Poissons Ratio (x) = 0.26313 0.38770
# Poissons Ratio (y) = 0.22042 0.19907
# Poissons Ratio (z) = 0.52021 0.31886
#
# Static dielectric constant tensor:
#      x y z
#    x 4.150470 0.100400 0.202850 
#    y 0.100400 4.290350 0.006270 
#    z 0.202850 0.006270 4.214640 
# 
# 
# High freq. dielectric constant tensor:
#      x y z
#    x 1.873680 0.010790 0.016780 
#    y 0.010790 1.852560 -0.008960 
#    z 0.016780 -0.008960 1.852680 
# 
# From -- ./inp_files/278462.got.cif
#   From: 2010.06.25/outbox.cif.g09.slc.cpg/sg2_140_cif.got.tgz:278462.got - 2010.06.27 13:26:56.
