data_PCOD8025142
_publ_section_title
;
Structure prediction by ZEFSAII (Michael W. Deem and Ramdas Pophale) SiO2 
 PCOD8025142
Probable space group: P -1
;
_chemical_formula_sum "Si O2"
_cell_formula_units_Z 16
_cell_length_a 17.879431
_cell_length_b 15.384652
_cell_length_c 12.014947
_cell_angle_alpha 49.018699
_cell_angle_beta 28.899110
_cell_angle_gamma 30.140198
_cell_volume 728.752687
_symmetry_space_group_name_H-M "P -1"
_symmetry_group_IT_number 2
_symmetry_cell_setting 'triclinic'
loop_
_space_group_symop_operation_xyz
x,y,z
-x,-y,-z
loop_
_atom_site_type_symbol
_atom_site_label
_atom_site_fract_x
_atom_site_fract_y
_atom_site_fract_z
Si Si1 0.440250 0.920197 0.711045
Si Si2 0.904207 0.933907 0.145276
Si Si3 0.298902 0.464074 0.318047
Si Si4 0.220578 0.110629 0.284398
Si Si5 0.467911 0.835924 0.377379
Si Si6 0.192647 0.156748 0.042030
Si Si7 0.591729 0.456095 0.098922
Si Si8 0.635584 0.476282 0.447133
O O1 0.673419 0.690827 0.585550
O O2 0.500000 0.000000 0.500000
O O3 0.177255 0.024223 0.913388
O O4 0.401515 0.967964 0.852626
O O5 0.655514 0.047670 0.444897
O O6 0.129742 0.713218 0.066060
O O7 0.000000 0.000000 0.000000
O O8 0.496973 0.398450 0.205087
O O9 0.004583 0.674344 0.551322
O O10 0.400187 0.442783 0.082100
O O11 0.263817 0.978274 0.423045
O O12 0.141630 0.117369 0.257158
O O13 0.500000 0.000000 0.000000
O O14 0.722416 0.764200 0.097264
O O15 0.517023 0.671961 0.457802
O O16 0.936053 0.315061 0.170269
O O17 0.402928 0.581982 0.344907
O O18 0.500000 0.500000 0.500000
#
# Coordination Sequence:
#
# PCOD8025142 Si02
#       8
#     2   2   2   2   2   2   2   2
#     4  12  26  43  69 107 136 180 228 288 346 405
#     4  12  21  41  70  96 137 172 236 276 334 409
#     4  11  23  44  70 100 134 178 234 281 336 415
#     4  10  23  44  69  97 130 185 228 276 347 410
#     4  11  23  43  70  96 132 189 228 282 345 414
#     4  11  25  45  66  99 142 178 228 289 353 408
#     4  11  23  41  69  98 130 185 228 277 339 410
#     4  12  25  42  67 104 139 179 232 288 347 409
#
# _framework density 21.955323
#
# number of rings (size 3 to 8) (size 9 to 14) (size 15 to 20)
#    0.000    0.750    6.250    1.125    0.000    3.000 
#    0.000    6.875    0.000    0.000    0.000    0.000 
#    0.000    0.000    0.000    0.000    0.000    0.000 
#
# Total GULP energy -198275.114409 kJ/mol
# GULP energy per Si atom -12392.194651 kJ/mol
# Density = 2.190535 g / cm^3
# Si number density = 21.955323 Si / 1000 Ang^3
#
#
#
# Elastic Constant Matrix: (Units=GPa)
#
#
# Indices 1 2 3 4 5 6 
#
# 1 125.2091 32.7293 40.9766 -4.0119 7.9913 -10.2955
# 2 32.7293 96.5527 45.7118 6.2898 3.4911 -4.0396
# 3 40.9766 45.7118 96.6445 7.1172 8.5344 -0.2751
# 4 -4.0119 6.2898 7.1172 34.7795 -8.1060 -1.6850
# 5 7.9913 3.4911 8.5344 -8.1060 45.2373 0.7476
# 6 -10.2955 -4.0396 -0.2751 -1.6850 0.7476 28.3208
#
#
#
# Elastic Compliance Matrix: (Units=1/GPa)
#
#
# Indices 1 2 3 4 5 6 
#
# 1 0.009982 -0.001686 -0.003531 0.002202 -0.000630 0.003502
# 2 -0.001686 0.013766 -0.005688 -0.001455 0.000028 0.001208
# 3 -0.003531 -0.005688 0.014956 -0.003070 -0.002275 -0.002072
# 4 0.002202 -0.001455 -0.003070 0.031380 0.005888 0.002275
# 5 -0.000630 0.000028 -0.002275 0.005888 0.023708 -0.000523
# 6 0.003502 0.001208 -0.002072 0.002275 -0.000523 0.036884
#
#
# Mechanical properties :
#
#
# Convention : Reuss Voigt Hill
#
# Bulk Modulus (GPa) = 59.19684 61.91573 60.55629
# Shear Modulus (GPa) = 31.62216 34.93343 33.27779
#
# Velocity S-wave (km/s) = 3.79924 3.99320 3.89743
# Velocity P-wave (km/s) = 6.80195 7.03725 6.92060
#
# Compressibility (1/GPa) = 0.01689279
#
# Stress axis : x y z
#
# Youngs Moduli (GPa) = 100.18352 72.64364 66.86320
#
# Poissons Ratio (x) = 0.12247 0.23611
# Poissons Ratio (y) = 0.16890 0.38033
# Poissons Ratio (z) = 0.35378 0.41321
#
# Static dielectric constant tensor:
#      x y z
#    x 3.986180 -0.411550 1.947160 
#    y -0.411550 3.926100 -0.353010 
#    z 1.947160 -0.353010 -2.954910 
# 
# 
# High freq. dielectric constant tensor:
#      x y z
#    x 1.871330 -0.024270 0.008040 
#    y -0.024270 1.842320 0.004630 
#    z 0.008040 0.004630 1.870200 
# 
# From -- ./inp_files/392058.got.cif
#   From: 2010.06.25/outbox.cif.g09.slc.cpg/sg2_197_cif.got.tgz:392058.got - 2010.06.27 13:26:56.
