data_PCOD8025844
_publ_section_title
;
Structure prediction by ZEFSAII (Michael W. Deem and Ramdas Pophale) SiO2 
 PCOD8025844
Probable space group: P -1
;
_chemical_formula_sum "Si O2"
_cell_formula_units_Z 16
_cell_length_a 9.130568
_cell_length_b 10.956909
_cell_length_c 14.023120
_cell_angle_alpha 147.158986
_cell_angle_beta 111.829577
_cell_angle_gamma 76.425794
_cell_volume 697.792301
_symmetry_space_group_name_H-M "P -1"
_symmetry_group_IT_number 2
_symmetry_cell_setting 'triclinic'
loop_
_space_group_symop_operation_xyz
x,y,z
-x,-y,-z
loop_
_atom_site_type_symbol
_atom_site_label
_atom_site_fract_x
_atom_site_fract_y
_atom_site_fract_z
Si Si1 0.827639 0.368281 0.841682
Si Si2 0.533526 0.593366 0.882216
Si Si3 0.723719 0.962512 0.691001
Si Si4 0.458702 0.214063 0.185218
Si Si5 0.587561 0.078091 0.305160
Si Si6 0.168179 0.931382 0.008865
Si Si7 0.199029 0.434400 0.664285
Si Si8 0.914646 0.189666 0.555020
O O1 0.685469 0.515283 0.918888
O O2 0.835393 0.329864 0.706136
O O3 0.775837 0.128797 0.724157
O O4 0.000000 0.500000 0.000000
O O5 0.536845 0.585113 0.760318
O O6 0.366138 0.431146 0.761503
O O7 0.521110 0.841707 0.081853
O O8 0.530777 0.903438 0.621141
O O9 0.797004 0.730483 0.534600
O O10 0.803514 0.093445 0.888000
O O11 0.571579 0.269433 0.344144
O O12 0.279681 0.150753 0.138448
O O13 0.500000 0.000000 0.000000
O O14 0.771070 0.083712 0.381472
O O15 0.191456 0.697110 0.805313
O O16 0.000000 0.000000 0.000000
O O17 0.046157 0.357984 0.641366
O O18 0.000000 0.000000 0.500000
#
# Coordination Sequence:
#
# PCOD8025844 Si02
#       8
#     2   2   2   2   2   2   2   2
#     4  12  27  44  72 106 141 193 239 297 364 427
#     4  11  24  45  78 100 142 198 235 290 364 430
#     4  11  25  47  70 104 143 185 248 289 362 429
#     4   9  19  44  71  97 136 187 238 281 355 430
#     4  10  23  46  70 102 142 189 234 301 350 431
#     4  11  25  46  72 103 146 186 235 300 357 429
#     4  12  25  47  71 108 140 188 240 294 361 419
#     4  12  26  45  66 103 147 181 241 301 355 422
#
# _framework density 22.929456999999999
#
# number of rings (size 3 to 8) (size 9 to 14) (size 15 to 20)
#    0.000    1.000    5.000    2.250    5.250    3.000 
#    2.250    1.875    0.000    0.000    0.000    0.000 
#    0.000    0.000    0.000    0.000    0.000    0.000 
#
# Total GULP energy -198297.082160 kJ/mol
# GULP energy per Si atom -12393.567635 kJ/mol
# Density = 2.287727 g / cm^3
# Si number density = 22.929457 Si / 1000 Ang^3
#
#
#
# Elastic Constant Matrix: (Units=GPa)
#
#
# Indices 1 2 3 4 5 6 
#
# 1 148.1511 53.8635 40.8269 -10.3951 18.4638 -6.7007
# 2 53.8635 79.4575 36.8296 -7.3025 12.9647 -6.8915
# 3 40.8269 36.8296 85.5872 0.5625 4.2856 1.6504
# 4 -10.3951 -7.3025 0.5625 27.7610 -8.7347 -1.7078
# 5 18.4638 12.9647 4.2856 -8.7347 48.0760 -2.2360
# 6 -6.7007 -6.8915 1.6504 -1.7078 -2.2360 47.1249
#
#
#
# Elastic Compliance Matrix: (Units=1/GPa)
#
#
# Indices 1 2 3 4 5 6 
#
# 1 0.009558 -0.004838 -0.002414 0.001838 -0.001783 0.000718
# 2 -0.004838 0.019497 -0.006035 0.002885 -0.002227 0.002373
# 3 -0.002414 -0.006035 0.015456 -0.002730 0.000595 -0.001838
# 4 0.001838 0.002885 -0.002730 0.039587 0.006068 0.002501
# 5 -0.001783 -0.002227 0.000595 0.006068 0.023169 0.000719
# 6 0.000718 0.002373 -0.001838 0.002501 0.000719 0.021859
#
#
# Mechanical properties :
#
#
# Convention : Reuss Voigt Hill
#
# Bulk Modulus (GPa) = 55.75280 64.02620 59.88950
# Shear Modulus (GPa) = 30.92559 36.70410 33.81485
#
# Velocity S-wave (km/s) = 3.67649 4.00527 3.84439
# Velocity P-wave (km/s) = 6.51074 7.02661 6.77359
#
# Compressibility (1/GPa) = 0.01793632
#
# Stress axis : x y z
#
# Youngs Moduli (GPa) = 104.62663 51.29072 64.69925
#
# Poissons Ratio (x) = 0.24814 0.15619
# Poissons Ratio (y) = 0.50618 0.39047
# Poissons Ratio (z) = 0.25257 0.30955
#
# Static dielectric constant tensor:
#      x y z
#    x 4.480460 0.594740 0.263330 
#    y 0.594740 5.504830 1.151380 
#    z 0.263330 1.151380 5.261180 
# 
# 
# High freq. dielectric constant tensor:
#      x y z
#    x 1.929880 0.002140 -0.001310 
#    y 0.002140 1.887460 -0.000830 
#    z -0.001310 -0.000830 1.902870 
# 
# From -- ./inp_files/501273.got.cif
#   From: 2010.06.25/outbox.cif.g09.slc.cpg/sg2_251_cif.got.tgz:501273.got - 2010.06.27 13:26:56.
