data_PCOD8025557
_publ_section_title
;
Structure prediction by ZEFSAII (Michael W. Deem and Ramdas Pophale) SiO2 
 PCOD8025557
Probable space group: P -1
;
_chemical_formula_sum "Si O2"
_cell_formula_units_Z 14
_cell_length_a 8.990945
_cell_length_b 9.939538
_cell_length_c 20.976930
_cell_angle_alpha 131.091206
_cell_angle_beta 31.012148
_cell_angle_gamma 134.411146
_cell_volume 681.467346
_symmetry_space_group_name_H-M "P -1"
_symmetry_group_IT_number 2
_symmetry_cell_setting 'triclinic'
loop_
_space_group_symop_operation_xyz
x,y,z
-x,-y,-z
loop_
_atom_site_type_symbol
_atom_site_label
_atom_site_fract_x
_atom_site_fract_y
_atom_site_fract_z
Si Si1 0.355423 0.535240 0.384112
Si Si2 0.636022 0.217729 0.183497
Si Si3 0.601484 0.309677 0.714231
Si Si4 0.440685 0.089492 0.984466
Si Si5 0.285576 0.570198 0.557033
Si Si6 0.765769 0.102286 0.238671
Si Si7 0.189029 0.491007 0.990455
O O1 0.407713 0.334747 0.296970
O O2 0.523968 0.668960 0.304379
O O3 0.467110 0.632596 0.442226
O O4 0.000000 0.500000 0.500000
O O5 0.662890 0.167011 0.230695
O O6 0.490596 0.025515 0.135854
O O7 0.975344 0.342692 0.072969
O O8 0.470259 0.423491 0.848187
O O9 0.970057 0.393389 0.607189
O O10 0.497386 0.090298 0.702506
O O11 0.672676 0.305930 0.962075
O O12 0.087303 0.071174 0.104306
O O13 0.500000 0.000000 0.000000
O O14 0.500000 0.500000 0.500000
O O15 0.207987 0.744344 0.668714
O O16 0.000000 0.500000 0.000000
#
# Coordination Sequence:
#
# PCOD8025557 Si02
#       7
#     2   2   2   2   2   2   2
#     4  10  23  45  69  94 135 182 225 276 328 403
#     4  12  25  44  68 104 139 172 228 280 341 403
#     4  11  23  44  70  97 136 178 226 282 336 400
#     4  12  24  41  69 101 136 179 221 276 342 405
#     4  11  24  47  70  95 138 183 226 279 337 394
#     4  12  26  44  68 104 139 174 228 284 337 401
#     4  12  22  41  70 100 138 175 219 281 344 402
#
# _framework density 20.543904000000001
#
# number of rings (size 3 to 8) (size 9 to 14) (size 15 to 20)
#    0.000    0.571    7.143    0.429    2.000    2.857 
#    0.000    0.000    0.000    0.000    0.000    0.000 
#    0.000    0.000    0.000    0.000    0.000    0.000 
#
# Total GULP energy -173642.230350 kJ/mol
# GULP energy per Si atom -12403.016454 kJ/mol
# Density = 2.049714 g / cm^3
# Si number density = 20.543904 Si / 1000 Ang^3
#
#
#
# Elastic Constant Matrix: (Units=GPa)
#
#
# Indices 1 2 3 4 5 6 
#
# 1 119.1364 58.3407 44.9370 -0.6140 15.5913 -12.5246
# 2 58.3407 135.6746 32.4299 -10.0501 18.2809 -4.8532
# 3 44.9370 32.4299 111.6473 11.5333 10.4182 -6.2600
# 4 -0.6140 -10.0501 11.5333 26.7009 1.5134 1.2730
# 5 15.5913 18.2809 10.4182 1.5134 46.1705 3.9318
# 6 -12.5246 -4.8532 -6.2600 1.2730 3.9318 40.7322
#
#
#
# Elastic Compliance Matrix: (Units=1/GPa)
#
#
# Indices 1 2 3 4 5 6 
#
# 1 0.012243 -0.004056 -0.003418 0.000205 -0.002015 0.002944
# 2 -0.004056 0.010147 -0.001569 0.004550 -0.002427 -0.000187
# 3 -0.003418 -0.001569 0.011477 -0.005624 -0.000695 0.000769
# 4 0.000205 0.004550 -0.005624 0.041770 -0.001853 -0.001386
# 5 -0.002015 -0.002427 -0.000695 -0.001853 0.023795 -0.003255
# 6 0.002944 -0.000187 0.000769 -0.001386 -0.003255 0.025909
#
#
# Mechanical properties :
#
#
# Convention : Reuss Voigt Hill
#
# Bulk Modulus (GPa) = 63.36243 70.87482 67.11863
# Shear Modulus (GPa) = 33.62763 38.10409 35.86586
#
# Velocity S-wave (km/s) = 4.05021 4.31137 4.18283
# Velocity P-wave (km/s) = 7.26510 7.70441 7.48798
#
# Compressibility (1/GPa) = 0.01578222
#
# Stress axis : x y z
#
# Youngs Moduli (GPa) = 81.67783 98.55129 87.12967
#
# Poissons Ratio (x) = 0.39969 0.29779
# Poissons Ratio (y) = 0.33126 0.13671
# Poissons Ratio (z) = 0.27916 0.15463
#
# Static dielectric constant tensor:
#      x y z
#    x 4.454630 -0.125170 0.351520 
#    y -0.125170 3.826050 0.068670 
#    z 0.351520 0.068670 3.811930 
# 
# 
# High freq. dielectric constant tensor:
#      x y z
#    x 1.813060 -0.008940 0.004970 
#    y -0.008940 1.797700 0.010420 
#    z 0.004970 0.010420 1.818570 
# 
# From -- ./inp_files/169119.got.cif
#   From: 2010.06.25/outbox.cif.g09.slc.cpg/sg2_85_cif.got.tgz:169119.got - 2010.06.27 13:26:56.
