data_PCOD8025760
_publ_section_title
;
Structure prediction by ZEFSAII (Michael W. Deem and Ramdas Pophale) SiO2 
 PCOD8025760
Probable space group: P -1
;
_chemical_formula_sum "Si O2"
_cell_formula_units_Z 14
_cell_length_a 10.947226
_cell_length_b 8.705488
_cell_length_c 7.691328
_cell_angle_alpha 80.656899
_cell_angle_beta 63.006195
_cell_angle_gamma 97.387588
_cell_volume 627.185387
_symmetry_space_group_name_H-M "P -1"
_symmetry_group_IT_number 2
_symmetry_cell_setting 'triclinic'
loop_
_space_group_symop_operation_xyz
x,y,z
-x,-y,-z
loop_
_atom_site_type_symbol
_atom_site_label
_atom_site_fract_x
_atom_site_fract_y
_atom_site_fract_z
Si Si1 0.856140 0.873478 0.659127
Si Si2 0.554872 0.859376 0.901702
Si Si3 0.732837 0.281429 0.030562
Si Si4 0.154142 0.478101 0.388874
Si Si5 0.683612 0.410714 0.382768
Si Si6 0.850755 0.977093 0.013665
Si Si7 0.599199 0.723201 0.256149
O O1 0.851734 0.707709 0.598200
O O2 0.857472 0.862122 0.867739
O O3 0.707807 0.922705 0.696222
O O4 0.000000 0.000000 0.500000
O O5 0.437072 0.778482 0.854031
O O6 0.572758 0.735612 0.064372
O O7 0.500000 0.000000 0.000000
O O8 0.771819 0.423322 0.840986
O O9 0.817475 0.146351 0.952145
O O10 0.771749 0.336933 0.194302
O O11 0.228603 0.537479 0.510299
O O12 0.000000 0.500000 0.500000
O O13 0.644020 0.559047 0.286516
O O14 0.544283 0.277491 0.548034
O O15 0.719266 0.872865 0.227512
O O16 0.000000 0.000000 0.000000
#
# Coordination Sequence:
#
# PCOD8025760 Si02
#       7
#     2   2   2   2   2   2   2
#     4  11  26  46  72 106 143 193 238 300 369 428
#     4  11  22  46  76 104 149 190 244 300 359 437
#     4  12  25  47  76 107 141 192 244 303 364 431
#     4  12  29  48  74 106 148 191 246 304 365 440
#     4  11  27  44  73 106 142 185 242 302 362 431
#     4  11  26  46  72 102 148 191 240 302 360 433
#     4  10  23  46  66 105 144 186 240 292 362 429
#
# _framework density 22.321949
#
# number of rings (size 3 to 8) (size 9 to 14) (size 15 to 20)
#    0.000    0.857    4.286    2.571   10.000    2.286 
#    0.000    0.000    0.000    0.000    0.000    0.000 
#    0.000    0.000    0.000    0.000    0.000    0.000 
#
# Total GULP energy -173519.123630 kJ/mol
# GULP energy per Si atom -12394.223116 kJ/mol
# Density = 2.227114 g / cm^3
# Si number density = 22.321949 Si / 1000 Ang^3
#
#
#
# Elastic Constant Matrix: (Units=GPa)
#
#
# Indices 1 2 3 4 5 6 
#
# 1 166.5442 60.9402 70.4061 0.8406 -21.6078 14.3874
# 2 60.9402 110.4519 60.4534 2.8677 -13.6723 16.5243
# 3 70.4061 60.4534 120.6716 5.9317 -8.2615 14.0710
# 4 0.8406 2.8677 5.9317 39.8688 3.6709 0.1653
# 5 -21.6078 -13.6723 -8.2615 3.6709 45.0631 5.8285
# 6 14.3874 16.5243 14.0710 0.1653 5.8285 37.1600
#
#
#
# Elastic Compliance Matrix: (Units=1/GPa)
#
#
# Indices 1 2 3 4 5 6 
#
# 1 0.008937 -0.002314 -0.003678 0.000247 0.003086 -0.001523
# 2 -0.002314 0.013999 -0.005001 -0.000452 0.002758 -0.003866
# 3 -0.003678 -0.005001 0.013110 -0.001453 -0.000602 -0.001215
# 4 0.000247 -0.000452 -0.001453 0.025551 -0.002487 0.000932
# 5 0.003086 0.002758 -0.000602 -0.002487 0.025397 -0.006166
# 6 -0.001523 -0.003866 -0.001215 0.000932 -0.006166 0.030643
#
#
# Mechanical properties :
#
#
# Convention : Reuss Voigt Hill
#
# Bulk Modulus (GPa) = 71.12691 86.80746 78.96719
# Shear Modulus (GPa) = 34.64744 38.14292 36.39518
#
# Velocity S-wave (km/s) = 3.94403 4.13820 4.04228
# Velocity P-wave (km/s) = 7.25767 7.86169 7.56571
#
# Compressibility (1/GPa) = 0.01405938
#
# Stress axis : x y z
#
# Youngs Moduli (GPa) = 111.89699 71.43192 76.27520
#
# Poissons Ratio (x) = 0.16530 0.28055
# Poissons Ratio (y) = 0.25895 0.38147
# Poissons Ratio (z) = 0.41157 0.35725
#
# Static dielectric constant tensor:
#      x y z
#    x 4.521620 0.167340 -0.314810 
#    y 0.167340 4.029040 -0.075900 
#    z -0.314810 -0.075900 4.409940 
# 
# 
# High freq. dielectric constant tensor:
#      x y z
#    x 1.890150 0.006870 -0.014210 
#    y 0.006870 1.877710 -0.002530 
#    z -0.014210 -0.002530 1.883970 
# 
# From -- ./inp_files/238160.got.cif
#   From: 2010.06.25/outbox.cif.g09.slc.cpg/sg2_120_cif.got.tgz:238160.got - 2010.06.27 13:26:56.
