data_PCOD8025487
_publ_section_title
;
Structure prediction by ZEFSAII (Michael W. Deem and Ramdas Pophale) SiO2 
 PCOD8025487
Probable space group: P -1
;
_chemical_formula_sum "Si O2"
_cell_formula_units_Z 16
_cell_length_a 19.862294
_cell_length_b 9.259478
_cell_length_c 9.341284
_cell_angle_alpha 120.324877
_cell_angle_beta 98.644774
_cell_angle_gamma 132.193203
_cell_volume 707.199528
_symmetry_space_group_name_H-M "P -1"
_symmetry_group_IT_number 2
_symmetry_cell_setting 'triclinic'
loop_
_space_group_symop_operation_xyz
x,y,z
-x,-y,-z
loop_
_atom_site_type_symbol
_atom_site_label
_atom_site_fract_x
_atom_site_fract_y
_atom_site_fract_z
Si Si1 0.170916 0.222821 0.108798
Si Si2 0.003862 0.886543 0.154918
Si Si3 0.678948 0.674824 0.181275
Si Si4 0.159173 0.290719 0.659420
Si Si5 0.795554 0.278422 0.993295
Si Si6 0.592289 0.734096 0.428733
Si Si7 0.432073 0.979659 0.582116
Si Si8 0.272172 0.088714 0.976003
O O1 0.242638 0.218425 0.059002
O O2 0.100021 0.179204 0.937099
O O3 0.295360 0.595051 0.413711
O O4 0.051808 0.913687 0.031485
O O5 0.925932 0.578140 0.073583
O O6 0.149541 0.256410 0.466426
O O7 0.800089 0.799458 0.306784
O O8 0.644478 0.693878 0.326889
O O9 0.730194 0.924780 0.205574
O O10 0.540427 0.275203 0.885287
O O11 0.257668 0.652877 0.932885
O O12 0.000000 0.000000 0.500000
O O13 0.673355 0.906427 0.692429
O O14 0.836493 0.262010 0.144304
O O15 0.631906 0.996618 0.504582
O O16 0.425907 0.362194 0.216035
O O17 0.500000 0.000000 0.500000
#
# Coordination Sequence:
#
# PCOD8025487 Si02
#       8
#     2   2   2   2   2   2   2   2
#     4  11  22  42  71  98 130 178 231 270 338 400
#     4  10  24  44  66  98 131 180 231 279 316 408
#     4  11  24  42  69 104 138 172 224 281 332 399
#     4  10  23  45  68  91 136 182 226 267 331 401
#     4  11  23  44  67  94 140 177 218 273 341 394
#     4  11  23  41  67 105 139 170 223 281 337 399
#     4  11  19  39  73  98 129 176 221 271 338 399
#     4  11  23  40  67 100 138 172 222 273 344 399
#
# _framework density 22.624448999999998
#
# number of rings (size 3 to 8) (size 9 to 14) (size 15 to 20)
#    0.000    1.250    3.750    4.125    1.750    2.500 
#    2.250    4.375    0.000    0.000    0.000    0.000 
#    0.000    0.000    0.000    0.000    0.000    0.000 
#
# Total GULP energy -198238.097186 kJ/mol
# GULP energy per Si atom -12389.881074 kJ/mol
# Density = 2.257295 g / cm^3
# Si number density = 22.624449 Si / 1000 Ang^3
#
#
#
# Elastic Constant Matrix: (Units=GPa)
#
#
# Indices 1 2 3 4 5 6 
#
# 1 102.8225 33.6544 34.1123 -4.1508 -4.4747 -1.9077
# 2 33.6544 129.0594 31.9139 1.0136 7.3941 -7.8166
# 3 34.1123 31.9139 100.4803 -21.8138 -6.0025 -5.1663
# 4 -4.1508 1.0136 -21.8138 24.3575 -0.9974 -0.3670
# 5 -4.4747 7.3941 -6.0025 -0.9974 31.4591 -1.5174
# 6 -1.9077 -7.8166 -5.1663 -0.3670 -1.5174 24.0679
#
#
#
# Elastic Compliance Matrix: (Units=1/GPa)
#
#
# Indices 1 2 3 4 5 6 
#
# 1 0.011608 -0.002313 -0.003324 -0.000847 0.001511 -0.000462
# 2 -0.002313 0.009446 -0.003098 -0.003661 -0.003162 0.001964
# 3 -0.003324 -0.003098 0.015343 0.013493 0.003730 0.002465
# 4 -0.000847 -0.003661 0.013493 0.053400 0.005142 0.002778
# 5 0.001511 -0.003162 0.003730 0.005142 0.033721 0.002098
# 6 -0.000462 0.001964 0.002465 0.002778 0.002098 0.042854
#
#
# Mechanical properties :
#
#
# Convention : Reuss Voigt Hill
#
# Bulk Modulus (GPa) = 52.82907 59.08039 55.95473
# Shear Modulus (GPa) = 26.29478 31.48901 28.89190
#
# Velocity S-wave (km/s) = 3.41285 3.73475 3.57742
# Velocity P-wave (km/s) = 6.23948 6.69089 6.46912
#
# Compressibility (1/GPa) = 0.01892897
#
# Stress axis : x y z
#
# Youngs Moduli (GPa) = 86.14572 105.85977 65.17499
#
# Poissons Ratio (x) = 0.24487 0.21662
# Poissons Ratio (y) = 0.19926 0.20190
# Poissons Ratio (z) = 0.28631 0.32793
#
# Static dielectric constant tensor:
#      x y z
#    x 4.004110 0.001300 -0.146900 
#    y 0.001300 4.026890 -0.217410 
#    z -0.146900 -0.217410 4.604190 
# 
# 
# High freq. dielectric constant tensor:
#      x y z
#    x 1.888370 0.000380 -0.002250 
#    y 0.000380 1.889460 -0.013840 
#    z -0.002250 -0.013840 1.885540 
# 
# From -- ./inp_files/343779.got.cif
#   From: 2010.06.25/outbox.cif.g09.slc.cpg/sg2_172_cif.got.tgz:343779.got - 2010.06.27 13:26:56.
