data_PCOD8025250
_publ_section_title
;
Structure prediction by ZEFSAII (Michael W. Deem and Ramdas Pophale) SiO2 
 PCOD8025250
Probable space group: P -1
;
_chemical_formula_sum "Si O2"
_cell_formula_units_Z 16
_cell_length_a 15.380523
_cell_length_b 12.378362
_cell_length_c 14.227273
_cell_angle_alpha 48.308647
_cell_angle_beta 151.771212
_cell_angle_gamma 140.250805
_cell_volume 818.547761
_symmetry_space_group_name_H-M "P -1"
_symmetry_group_IT_number 2
_symmetry_cell_setting 'triclinic'
loop_
_space_group_symop_operation_xyz
x,y,z
-x,-y,-z
loop_
_atom_site_type_symbol
_atom_site_label
_atom_site_fract_x
_atom_site_fract_y
_atom_site_fract_z
Si Si1 0.694229 0.009739 0.736092
Si Si2 0.535926 0.385625 0.833395
Si Si3 0.372442 0.878381 0.862486
Si Si4 0.943311 0.854099 0.454820
Si Si5 0.659332 0.117157 0.841403
Si Si6 0.496316 0.332847 0.618924
Si Si7 0.832269 0.783991 0.906242
Si Si8 0.047551 0.097522 0.257430
O O1 0.632421 0.013495 0.782005
O O2 0.500000 0.000000 0.500000
O O3 0.712233 0.846875 0.824571
O O4 0.936416 0.172552 0.855734
O O5 0.283438 0.316701 0.642156
O O6 0.589792 0.347835 0.802852
O O7 0.676577 0.584715 0.868231
O O8 0.598118 0.282275 0.022932
O O9 0.119070 0.801719 0.666883
O O10 0.461246 0.988525 0.790256
O O11 0.500000 0.000000 0.000000
O O12 0.000000 0.000000 0.500000
O O13 0.930403 0.910635 0.301471
O O14 0.634638 0.282306 0.711010
O O15 0.890820 0.172845 0.074377
O O16 0.500000 0.500000 0.500000
O O17 0.246978 0.193009 0.461497
O O18 0.872735 0.881297 0.787543
#
# Coordination Sequence:
#
# PCOD8025250 Si02
#       8
#     2   2   2   2   2   2   2   2
#     4  10  23  44  71  87 118 164 224 263 322 370
#     4  12  24  38  61  95 137 161 208 258 312 374
#     4  12  21  37  59  91 133 168 206 243 305 388
#     4  12  21  35  61  89 127 179 201 239 303 388
#     4  11  22  39  65  93 119 169 213 255 313 373
#     4  12  23  36  59  95 136 164 203 259 308 379
#     4  10  24  44  64  95 121 161 209 281 313 358
#     4  11  20  38  62  89 126 166 211 243 316 375
#
# _framework density 19.546813
#
# number of rings (size 3 to 8) (size 9 to 14) (size 15 to 20)
#    0.000    0.750    7.500    0.750    0.000    1.500 
#    2.250    0.625    0.000    1.500    0.000    0.000 
#    0.000    0.000    0.000    0.000    0.000    0.000 
#
# Total GULP energy -198263.724272 kJ/mol
# GULP energy per Si atom -12391.482767 kJ/mol
# Density = 1.950232 g / cm^3
# Si number density = 19.546813 Si / 1000 Ang^3
#
#
#
# Elastic Constant Matrix: (Units=GPa)
#
#
# Indices 1 2 3 4 5 6 
#
# 1 103.8110 57.9676 40.7822 -5.4373 14.1852 -12.6105
# 2 57.9676 107.8735 50.1331 9.2393 2.6388 -9.4641
# 3 40.7822 50.1331 151.3794 4.6953 23.8982 -12.5829
# 4 -5.4373 9.2393 4.6953 32.8806 3.3646 -0.3230
# 5 14.1852 2.6388 23.8982 3.3646 30.0147 -2.4379
# 6 -12.6105 -9.4641 -12.5829 -0.3230 -2.4379 22.8966
#
#
#
# Elastic Compliance Matrix: (Units=1/GPa)
#
#
# Indices 1 2 3 4 5 6 
#
# 1 0.016385 -0.008621 -0.000238 0.005936 -0.007083 0.004660
# 2 -0.008621 0.016057 -0.003782 -0.006047 0.006385 0.000405
# 3 -0.000238 -0.003782 0.009188 0.000423 -0.006703 0.002647
# 4 0.005936 -0.006047 0.000423 0.033688 -0.006322 0.000805
# 5 -0.007083 0.006385 -0.006703 -0.006322 0.042104 -0.000552
# 6 0.004660 0.000405 0.002647 0.000805 -0.000552 0.047816
#
#
# Mechanical properties :
#
#
# Convention : Reuss Voigt Hill
#
# Bulk Modulus (GPa) = 61.16549 73.42552 67.29550
# Shear Modulus (GPa) = 25.51426 31.43711 28.47569
#
# Velocity S-wave (km/s) = 3.61680 4.01471 3.82094
# Velocity P-wave (km/s) = 6.98580 7.68999 7.34634
#
# Compressibility (1/GPa) = 0.01634909
#
# Stress axis : x y z
#
# Youngs Moduli (GPa) = 61.03203 62.27622 108.84219
#
# Poissons Ratio (x) = 0.53685 0.02588
# Poissons Ratio (y) = 0.52613 0.41165
# Poissons Ratio (z) = 0.01451 0.23554
#
# Static dielectric constant tensor:
#      x y z
#    x 3.980610 0.034640 0.011780 
#    y 0.034640 3.532190 -0.102310 
#    z 0.011780 -0.102310 4.026710 
# 
# 
# High freq. dielectric constant tensor:
#      x y z
#    x 1.757020 0.007460 0.012530 
#    y 0.007460 1.733830 -0.002100 
#    z 0.012530 -0.002100 1.782640 
# 
# From -- ./inp_files/455920.got.cif
#   From: 2010.06.25/outbox.cif.g09.slc.cpg/sg2_228_cif.got.tgz:455920.got - 2010.06.27 13:26:56.
