data_PCOD8025212
_publ_section_title
;
Structure prediction by ZEFSAII (Michael W. Deem and Ramdas Pophale) SiO2 
 PCOD8025212
Probable space group: P -1
;
_chemical_formula_sum "Si O2"
_cell_formula_units_Z 14
_cell_length_a 28.517991
_cell_length_b 15.688110
_cell_length_c 15.821924
_cell_angle_alpha 161.508854
_cell_angle_beta 14.837400
_cell_angle_gamma 161.402685
_cell_volume 531.280766
_symmetry_space_group_name_H-M "P -1"
_symmetry_group_IT_number 2
_symmetry_cell_setting 'triclinic'
loop_
_space_group_symop_operation_xyz
x,y,z
-x,-y,-z
loop_
_atom_site_type_symbol
_atom_site_label
_atom_site_fract_x
_atom_site_fract_y
_atom_site_fract_z
Si Si1 0.352273 0.308055 0.004204
Si Si2 0.197616 0.749437 0.263081
Si Si3 0.273197 0.437663 0.082055
Si Si4 0.808964 0.356486 0.300920
Si Si5 0.778427 0.816858 0.237653
Si Si6 0.743970 0.475928 0.346804
Si Si7 0.607828 0.962941 0.977619
O O1 0.392152 0.383609 0.905190
O O2 0.167493 0.406675 0.442625
O O3 0.500000 0.500000 0.000000
O O4 0.307751 0.970178 0.771559
O O5 0.961698 0.677803 0.603673
O O6 0.302596 0.993359 0.381517
O O7 0.300113 0.859607 0.099407
O O8 0.236707 0.464257 0.947078
O O9 0.335306 0.283024 0.747781
O O10 0.365766 0.787514 0.230408
O O11 0.680401 0.412663 0.497851
O O12 0.019683 0.379947 0.924582
O O13 0.000000 0.000000 0.000000
O O14 0.683020 0.701477 0.612804
O O15 0.669306 0.164492 0.140769
#
# Coordination Sequence:
#
# PCOD8025212 Si02
#       7
#     2   2   2   2   2   2   2
#     4  12  25  41  64  99 135 175 225 271 327 397
#     4  11  24  45  69  98 134 172 221 273 329 397
#     4  11  25  43  70  97 134 177 217 275 335 385
#     4  11  23  41  65  88 132 183 221 275 333 377
#     4  10  23  44  70  99 132 173 221 272 330 396
#     4  11  23  42  63  95 132 173 227 275 322 394
#     4  12  26  42  67 100 132 170 223 271 329 400
#
# _framework density 26.351416
#
# number of rings (size 3 to 8) (size 9 to 14) (size 15 to 20)
#    0.000    0.857    0.000    8.143    0.000   12.571 
#    0.000    0.000    0.000    0.000    0.000    0.000 
#    0.000    0.000    0.000    0.000    0.000    0.000 
#
# Total GULP energy -173558.171076 kJ/mol
# GULP energy per Si atom -12397.012220 kJ/mol
# Density = 2.629144 g / cm^3
# Si number density = 26.351416 Si / 1000 Ang^3
#
#
#
# Elastic Constant Matrix: (Units=GPa)
#
#
# Indices 1 2 3 4 5 6 
#
# 1 185.6689 77.8666 38.9195 -3.6244 23.7765 -16.5127
# 2 77.8666 148.3015 28.2053 19.0137 9.5367 -17.5822
# 3 38.9195 28.2053 68.0781 20.0645 13.8833 -9.7773
# 4 -3.6244 19.0137 20.0645 39.1275 -1.9012 -2.3261
# 5 23.7765 9.5367 13.8833 -1.9012 51.8222 1.1694
# 6 -16.5127 -17.5822 -9.7773 -2.3261 1.1694 51.9900
#
#
#
# Elastic Compliance Matrix: (Units=1/GPa)
#
#
# Indices 1 2 3 4 5 6 
#
# 1 0.008292 -0.003987 -0.003986 0.004706 -0.001848 0.000788
# 2 -0.003987 0.009697 0.000032 -0.005000 -0.000188 0.001800
# 3 -0.003986 0.000032 0.021604 -0.011537 -0.004442 0.002392
# 4 0.004706 -0.005000 -0.011537 0.034438 0.003135 -0.000895
# 5 -0.001848 -0.000188 -0.004442 0.003135 0.021526 -0.001830
# 6 0.000788 0.001800 0.002392 -0.000895 -0.001830 0.020544
#
#
# Mechanical properties :
#
#
# Convention : Reuss Voigt Hill
#
# Bulk Modulus (GPa) = 42.17290 76.89236 59.53263
# Shear Modulus (GPa) = 35.74348 45.72507 40.73428
#
# Velocity S-wave (km/s) = 3.68695 4.17010 3.93594
# Velocity P-wave (km/s) = 5.84496 7.24080 6.58000
#
# Compressibility (1/GPa) = 0.02371191
#
# Stress axis : x y z
#
# Youngs Moduli (GPa) = 120.59705 103.12759 46.28799
#
# Poissons Ratio (x) = 0.41116 0.18449
# Poissons Ratio (y) = 0.48081 -0.00149
# Poissons Ratio (z) = 0.48067 -0.00333
#
# Static dielectric constant tensor:
#      x y z
#    x 5.362150 0.167100 0.465440 
#    y 0.167100 4.843760 -0.049730 
#    z 0.465440 -0.049730 5.632290 
# 
# 
# High freq. dielectric constant tensor:
#      x y z
#    x 2.080610 -0.000330 0.003090 
#    y -0.000330 2.077630 -0.008810 
#    z 0.003090 -0.008810 2.078390 
# 
# From -- ./inp_files/535706.got.cif
#   From: 2010.06.25/outbox.cif.g09.slc.cpg/sg2_268_cif.got.tgz:535706.got - 2010.06.27 13:26:56.
