data_PCOD8025708
_publ_section_title
;
Structure prediction by ZEFSAII (Michael W. Deem and Ramdas Pophale) SiO2 
 PCOD8025708
Probable space group: P -1
;
_chemical_formula_sum "Si O2"
_cell_formula_units_Z 16
_cell_length_a 11.169465
_cell_length_b 16.192125
_cell_length_c 8.150044
_cell_angle_alpha 134.517450
_cell_angle_beta 44.387775
_cell_angle_gamma 136.008979
_cell_volume 660.962375
_symmetry_space_group_name_H-M "P -1"
_symmetry_group_IT_number 2
_symmetry_cell_setting 'triclinic'
loop_
_space_group_symop_operation_xyz
x,y,z
-x,-y,-z
loop_
_atom_site_type_symbol
_atom_site_label
_atom_site_fract_x
_atom_site_fract_y
_atom_site_fract_z
Si Si1 0.610661 0.378175 0.787555
Si Si2 0.091574 0.831552 0.851084
Si Si3 0.074481 0.381826 0.014141
Si Si4 0.251482 0.555043 0.608030
Si Si5 0.751779 0.695155 0.808900
Si Si6 0.586176 0.935391 0.954598
Si Si7 0.356209 0.296488 0.429610
Si Si8 0.606036 0.147177 0.649314
O O1 0.657665 0.365685 0.536775
O O2 0.526360 0.236338 0.758546
O O3 0.790926 0.482296 0.849561
O O4 0.421465 0.400049 0.033223
O O5 0.181439 0.802167 0.557934
O O6 0.893536 0.820330 0.950540
O O7 0.037499 0.717083 0.872626
O O8 0.226720 0.963523 0.992332
O O9 0.193367 0.330097 0.711462
O O10 0.909444 0.403925 0.107973
O O11 0.153404 0.401087 0.463503
O O12 0.429261 0.588598 0.605614
O O13 0.686047 0.739491 0.770053
O O14 0.648093 0.833445 0.663326
O O15 0.414683 0.850381 0.129616
O O16 0.500000 0.000000 0.000000
O O17 0.500000 0.000000 0.500000
#
# Coordination Sequence:
#
# PCOD8025708 Si02
#       8
#     2   2   2   2   2   2   2   2
#     4  12  22  46  74 107 150 191 248 304 372 437
#     4  11  24  47  73 110 139 195 256 295 372 438
#     4  12  25  45  76 112 147 198 248 307 372 448
#     4  12  24  44  75 107 149 198 242 307 377 435
#     4  12  25  44  72 110 154 191 247 313 368 446
#     4  11  26  51  78 104 150 199 245 312 377 442
#     4  12  28  46  68 112 154 195 248 309 376 440
#     4  10  23  45  74 104 139 192 247 300 360 436
#
# _framework density 24.207125000000001
#
# number of rings (size 3 to 8) (size 9 to 14) (size 15 to 20)
#    0.000    0.500    5.000    3.375    1.750    3.500 
#    0.000    0.000    0.000    0.000    0.000    0.000 
#    0.000    0.000    0.000    0.000    0.000    0.000 
#
# Total GULP energy -198255.453881 kJ/mol
# GULP energy per Si atom -12390.965868 kJ/mol
# Density = 2.415203 g / cm^3
# Si number density = 24.207125 Si / 1000 Ang^3
#
#
#
# Elastic Constant Matrix: (Units=GPa)
#
#
# Indices 1 2 3 4 5 6 
#
# 1 93.9907 6.4126 22.9572 -5.6765 4.6753 24.1973
# 2 6.4126 82.6739 16.1338 -0.5467 8.0912 20.2921
# 3 22.9572 16.1338 102.4139 -1.8817 -21.8762 13.6464
# 4 -5.6765 -0.5467 -1.8817 39.8525 1.1586 -0.1293
# 5 4.6753 8.0912 -21.8762 1.1586 34.9782 -6.6258
# 6 24.1973 20.2921 13.6464 -0.1293 -6.6258 41.4034
#
#
#
# Elastic Compliance Matrix: (Units=1/GPa)
#
#
# Indices 1 2 3 4 5 6 
#
# 1 0.014268 0.002616 -0.003747 0.002056 -0.006715 -0.009454
# 2 0.002616 0.015641 -0.003494 0.000623 -0.007937 -0.009311
# 3 -0.003747 -0.003494 0.013071 -0.000243 0.009710 0.001147
# 4 0.002056 0.000623 -0.000243 0.025427 -0.001720 -0.001623
# 5 -0.006715 -0.007937 0.009710 -0.001720 0.039524 0.010934
# 6 -0.009454 -0.009311 0.001147 -0.001623 0.010934 0.035608
#
#
# Mechanical properties :
#
#
# Convention : Reuss Voigt Hill
#
# Bulk Modulus (GPa) = 29.64713 41.12064 35.38389
# Shear Modulus (GPa) = 30.48175 38.81846 34.65010
#
# Velocity S-wave (km/s) = 3.55238 4.00884 3.78749
# Velocity P-wave (km/s) = 5.39442 6.20093 5.81168
#
# Compressibility (1/GPa) = 0.03373008
#
# Stress axis : x y z
#
# Youngs Moduli (GPa) = 70.08622 63.93486 76.50312
#
# Poissons Ratio (x) = -0.16724 0.28668
# Poissons Ratio (y) = -0.18333 0.26727
# Poissons Ratio (z) = 0.26263 0.22336
#
# Static dielectric constant tensor:
#      x y z
#    x 4.377440 -0.069620 -0.117180 
#    y -0.069620 4.536770 -0.291410 
#    z -0.117180 -0.291410 4.680460 
# 
# 
# High freq. dielectric constant tensor:
#      x y z
#    x 1.957370 -0.003760 -0.009290 
#    y -0.003760 1.968080 -0.004850 
#    z -0.009290 -0.004850 1.966630 
# 
# From -- ./inp_files/280045.got.cif
#   From: 2010.06.25/outbox.cif.g09.slc.cpg/sg2_141_cif.got.tgz:280045.got - 2010.06.27 13:26:56.
