data_PCOD8025439
_publ_section_title
;
Structure prediction by ZEFSAII (Michael W. Deem and Ramdas Pophale) SiO2 
 PCOD8025439
Probable space group: P -1
;
_chemical_formula_sum "Si O2"
_cell_formula_units_Z 16
_cell_length_a 5.415371
_cell_length_b 14.690688
_cell_length_c 12.594843
_cell_angle_alpha 44.553792
_cell_angle_beta 100.611897
_cell_angle_gamma 89.638884
_cell_volume 677.070098
_symmetry_space_group_name_H-M "P -1"
_symmetry_group_IT_number 2
_symmetry_cell_setting 'triclinic'
loop_
_space_group_symop_operation_xyz
x,y,z
-x,-y,-z
loop_
_atom_site_type_symbol
_atom_site_label
_atom_site_fract_x
_atom_site_fract_y
_atom_site_fract_z
Si Si1 0.313440 0.219019 0.774231
Si Si2 0.505762 0.259163 0.427755
Si Si3 0.768536 0.817247 0.872609
Si Si4 0.715378 0.584451 0.920376
Si Si5 0.364794 0.031427 0.748796
Si Si6 0.145288 0.723842 0.149845
Si Si7 0.650076 0.559093 0.552340
Si Si8 0.100470 0.967999 0.418562
O O1 0.369794 0.081736 0.827902
O O2 0.579302 0.240087 0.832250
O O3 0.209966 0.335736 0.582870
O O4 0.077171 0.214493 0.836237
O O5 0.325740 0.335822 0.259369
O O6 0.402856 0.139133 0.573721
O O7 0.539559 0.364970 0.434014
O O8 0.768519 0.187273 0.451171
O O9 0.693325 0.683619 0.935722
O O10 0.570015 0.893193 0.881075
O O11 0.733573 0.920141 0.685072
O O12 0.050253 0.779756 0.980328
O O13 0.500000 0.500000 0.000000
O O14 0.000000 0.500000 0.000000
O O15 0.095428 0.998773 0.722229
O O16 0.156072 0.565067 0.278347
O O17 0.500000 0.500000 0.500000
O O18 0.000000 0.000000 0.500000
#
# Coordination Sequence:
#
# PCOD8025439 Si02
#       8
#     2   2   2   2   2   2   2   2
#     4  10  24  42  70 102 142 187 239 284 356 417
#     4  10  23  45  67 106 135 186 239 295 354 415
#     4  11  27  45  70 103 142 184 243 290 368 417
#     4  12  29  47  71 103 144 183 232 292 359 430
#     4  10  24  43  73 101 138 189 241 301 345 427
#     4  11  24  43  68 104 146 187 228 294 351 428
#     4   9  20  41  67  97 138 183 232 280 347 424
#     4  11  24  44  77  98 138 188 247 301 351 420
#
# _framework density 23.631229999999999
#
# number of rings (size 3 to 8) (size 9 to 14) (size 15 to 20)
#    0.000    1.500    0.000    2.625   14.000    5.000 
#    2.250    0.000    0.000    0.000    0.000    0.000 
#    0.000    0.000    0.000    0.000    0.000    0.000 
#
# Total GULP energy -198245.250289 kJ/mol
# GULP energy per Si atom -12390.328143 kJ/mol
# Density = 2.357744 g / cm^3
# Si number density = 23.631230 Si / 1000 Ang^3
#
#
#
# Elastic Constant Matrix: (Units=GPa)
#
#
# Indices 1 2 3 4 5 6 
#
# 1 95.7482 46.3175 29.2521 -10.1262 8.5935 -11.1039
# 2 46.3175 197.1297 54.2177 -13.8265 5.3506 -14.7834
# 3 29.2521 54.2177 119.0483 -6.1915 20.8360 -7.9628
# 4 -10.1262 -13.8265 -6.1915 31.3400 -6.1296 4.4586
# 5 8.5935 5.3506 20.8360 -6.1296 34.6476 2.0181
# 6 -11.1039 -14.7834 -7.9628 4.4586 2.0181 35.4361
#
#
#
# Elastic Compliance Matrix: (Units=1/GPa)
#
#
# Indices 1 2 3 4 5 6 
#
# 1 0.012628 -0.002155 -0.001555 0.002143 -0.001633 0.002532
# 2 -0.002155 0.006428 -0.002449 0.001735 0.001254 0.001166
# 3 -0.001555 -0.002449 0.011015 -0.000798 -0.006084 0.001413
# 4 0.002143 0.001735 -0.000798 0.034894 0.006059 -0.003519
# 5 -0.001633 0.001254 -0.006084 0.006059 0.034040 -0.004057
# 6 0.002532 0.001166 0.001413 -0.003519 -0.004057 0.030491
#
#
# Mechanical properties :
#
#
# Convention : Reuss Voigt Hill
#
# Bulk Modulus (GPa) = 56.32744 74.61120 65.46932
# Shear Modulus (GPa) = 33.84493 39.09398 36.46946
#
# Velocity S-wave (km/s) = 3.78856 4.07176 3.93271
# Velocity P-wave (km/s) = 6.55937 7.33126 6.95603
#
# Compressibility (1/GPa) = 0.01775334
#
# Stress axis : x y z
#
# Youngs Moduli (GPa) = 79.18670 155.57326 90.78333
#
# Poissons Ratio (x) = 0.33526 0.14117
# Poissons Ratio (y) = 0.17065 0.22233
# Poissons Ratio (z) = 0.12314 0.38101
#
# Static dielectric constant tensor:
#      x y z
#    x 4.696950 -0.125280 -0.088140 
#    y -0.125280 4.624960 -0.371800 
#    z -0.088140 -0.371800 4.727310 
# 
# 
# High freq. dielectric constant tensor:
#      x y z
#    x 1.911540 -0.007010 0.000830 
#    y -0.007010 1.953330 -0.007980 
#    z 0.000830 -0.007980 1.956990 
# 
# From -- ./inp_files/367527.got.cif
#   From: 2010.06.25/outbox.cif.g09.slc.cpg/sg2_184_cif.got.tgz:367527.got - 2010.06.27 13:26:56.
