data_PCOD8025442
_publ_section_title
;
Structure prediction by ZEFSAII (Michael W. Deem and Ramdas Pophale) SiO2 
 PCOD8025442
Probable space group: P -1
;
_chemical_formula_sum "Si O2"
_cell_formula_units_Z 16
_cell_length_a 9.173681
_cell_length_b 15.664446
_cell_length_c 8.482293
_cell_angle_alpha 61.527156
_cell_angle_beta 131.447837
_cell_angle_gamma 89.813545
_cell_volume 702.848343
_symmetry_space_group_name_H-M "P -1"
_symmetry_group_IT_number 2
_symmetry_cell_setting 'triclinic'
loop_
_space_group_symop_operation_xyz
x,y,z
-x,-y,-z
loop_
_atom_site_type_symbol
_atom_site_label
_atom_site_fract_x
_atom_site_fract_y
_atom_site_fract_z
Si Si1 0.593500 0.850286 0.474593
Si Si2 0.753941 0.387600 0.456910
Si Si3 0.829261 0.178944 0.862575
Si Si4 0.545421 0.367639 0.027886
Si Si5 0.770807 0.702526 0.008533
Si Si6 0.233394 0.847153 0.815001
Si Si7 0.221375 0.056982 0.724030
Si Si8 0.302125 0.076757 0.125872
O O1 0.357959 0.855469 0.270454
O O2 0.714599 0.860263 0.396467
O O3 0.769313 0.739793 0.792125
O O4 0.515765 0.959003 0.438683
O O5 0.718727 0.307200 0.620884
O O6 0.559765 0.512911 0.236750
O O7 0.989329 0.378807 0.675812
O O8 0.749366 0.351503 0.301776
O O9 0.062711 0.105347 0.004076
O O10 0.882353 0.165438 0.097824
O O11 0.365939 0.363510 0.021524
O O12 0.592537 0.275747 0.010103
O O13 0.654672 0.818668 0.920428
O O14 0.042277 0.896913 0.501647
O O15 0.332792 0.931829 0.836503
O O16 0.305852 0.047622 0.968824
#
# Coordination Sequence:
#
# PCOD8025442 Si02
#       8
#     2   2   2   2   2   2   2   2
#     4  12  23  39  61  96 133 168 218 257 323 380
#     4  10  23  45  67  94 127 166 220 275 317 381
#     4  11  23  41  64  93 131 173 215 267 315 383
#     4  11  23  43  70  95 124 172 217 268 329 377
#     4  11  23  39  68  96 128 166 218 263 322 385
#     4  11  24  40  63  92 133 170 216 259 326 381
#     4  11  24  39  62  96 136 170 209 265 317 385
#     4  11  23  40  64  94 131 176 215 255 318 389
#
# _framework density 22.764512
#
# number of rings (size 3 to 8) (size 9 to 14) (size 15 to 20)
#    0.000    1.000    2.500    5.250    1.750    1.500 
#    0.000    0.000    0.000    1.500    0.000    0.000 
#    0.000    0.000    0.000    0.000    0.000    0.000 
#
# Total GULP energy -198270.120592 kJ/mol
# GULP energy per Si atom -12391.882537 kJ/mol
# Density = 2.271270 g / cm^3
# Si number density = 22.764512 Si / 1000 Ang^3
#
#
#
# Elastic Constant Matrix: (Units=GPa)
#
#
# Indices 1 2 3 4 5 6 
#
# 1 76.8369 13.8695 10.9355 -4.8557 -8.4021 15.2966
# 2 13.8695 58.5572 -7.7028 -17.4133 -1.9326 -0.2441
# 3 10.9355 -7.7028 85.2565 -16.9421 1.6583 5.0416
# 4 -4.8557 -17.4133 -16.9421 32.7202 10.4439 -3.3060
# 5 -8.4021 -1.9326 1.6583 10.4439 28.3862 1.1557
# 6 15.2966 -0.2441 5.0416 -3.3060 1.1557 29.9476
#
#
#
# Elastic Compliance Matrix: (Units=1/GPa)
#
#
# Indices 1 2 3 4 5 6 
#
# 1 0.016774 -0.005889 -0.003409 -0.005609 0.007191 -0.008939
# 2 -0.005889 0.024568 0.006509 0.018378 -0.007393 0.004427
# 3 -0.003409 0.006509 0.015417 0.013041 -0.006301 0.000882
# 4 -0.005609 0.018378 0.013041 0.053822 -0.021281 0.007582
# 5 0.007191 -0.007393 -0.006301 -0.021281 0.045327 -0.006771
# 6 -0.008939 0.004427 0.000882 0.007582 -0.006771 0.038943
#
#
# Mechanical properties :
#
#
# Convention : Reuss Voigt Hill
#
# Bulk Modulus (GPa) = 19.53896 28.31722 23.92809
# Shear Modulus (GPa) = 22.98957 31.78069 27.38513
#
# Velocity S-wave (km/s) = 3.18132 3.74045 3.47216
# Velocity P-wave (km/s) = 4.70065 5.57860 5.15834
#
# Compressibility (1/GPa) = 0.05117979
#
# Stress axis : x y z
#
# Youngs Moduli (GPa) = 59.61526 40.70317 64.86519
#
# Poissons Ratio (x) = 0.23971 0.22116
# Poissons Ratio (y) = 0.35109 -0.42222
# Poissons Ratio (z) = 0.20326 -0.26495
#
# Static dielectric constant tensor:
#      x y z
#    x 3.932470 0.228900 -0.140440 
#    y 0.228900 4.065160 0.162420 
#    z -0.140440 0.162420 4.305930 
# 
# 
# High freq. dielectric constant tensor:
#      x y z
#    x 1.883110 0.024420 -0.010070 
#    y 0.024420 1.891850 0.015250 
#    z -0.010070 0.015250 1.920290 
# 
# From -- ./inp_files/214801.got.cif
#   From: 2010.06.25/outbox.cif.g09.slc.cpg/sg2_108_cif.got.tgz:214801.got - 2010.06.27 13:26:56.
