data_PCOD8025800
_publ_section_title
;
Structure prediction by ZEFSAII (Michael W. Deem and Ramdas Pophale) SiO2 
 PCOD8025800
Probable space group: P -1
;
_chemical_formula_sum "Si O2"
_cell_formula_units_Z 12
_cell_length_a 8.241830
_cell_length_b 7.303720
_cell_length_c 13.432654
_cell_angle_alpha 63.259911
_cell_angle_beta 63.631066
_cell_angle_gamma 102.435364
_cell_volume 553.069935
_symmetry_space_group_name_H-M "P -1"
_symmetry_group_IT_number 2
_symmetry_cell_setting 'triclinic'
loop_
_space_group_symop_operation_xyz
x,y,z
-x,-y,-z
loop_
_atom_site_type_symbol
_atom_site_label
_atom_site_fract_x
_atom_site_fract_y
_atom_site_fract_z
Si Si1 0.119207 0.153015 0.566668
Si Si2 0.279957 0.823561 0.053461
Si Si3 0.794041 0.242556 0.128866
Si Si4 0.460665 0.625707 0.698690
Si Si5 0.112764 0.175685 0.782301
Si Si6 0.819453 0.643042 0.700797
O O1 0.354573 0.195457 0.472208
O O2 0.115257 0.265299 0.646592
O O3 0.071003 0.286821 0.456902
O O4 0.941735 0.871880 0.683682
O O5 0.162785 0.566844 0.202520
O O6 0.115151 0.915825 0.082751
O O7 0.332225 0.811258 0.927258
O O8 0.500000 0.000000 0.000000
O O9 0.650479 0.239042 0.259269
O O10 0.855123 0.046703 0.182747
O O11 0.000000 0.500000 0.000000
O O12 0.295072 0.383398 0.747413
O O13 0.571688 0.562247 0.774424
#
# Coordination Sequence:
#
# PCOD8025800 Si02
#       6
#     2   2   2   2   2   2
#     4   9  22  44  70 100 131 170 227 277 327 394
#     4  12  27  42  68 100 136 178 220 274 331 399
#     4  12  26  44  68  96 138 181 218 275 326 399
#     4  10  23  46  68  98 131 175 220 275 331 390
#     4  12  25  44  67 102 133 171 228 274 329 395
#     4   9  22  46  66 101 129 177 222 271 336 386
#
# _framework density 21.697075999999999
#
# number of rings (size 3 to 8) (size 9 to 14) (size 15 to 20)
#    1.000    0.333    1.667    3.000    4.667    2.000 
#    3.000    0.000    0.000    0.000    0.000    0.000 
#    0.000    0.000    0.000    0.000    0.000    0.000 
#
# Total GULP energy -148761.362552 kJ/mol
# GULP energy per Si atom -12396.780213 kJ/mol
# Density = 2.164769 g / cm^3
# Si number density = 21.697076 Si / 1000 Ang^3
#
#
#
# Elastic Constant Matrix: (Units=GPa)
#
#
# Indices 1 2 3 4 5 6 
#
# 1 89.2116 47.6767 10.7639 -5.3710 -19.5940 18.6147
# 2 47.6767 114.1481 30.1322 9.7191 -8.6549 8.6255
# 3 10.7639 30.1322 59.9447 5.9142 -3.2756 9.2445
# 4 -5.3710 9.7191 5.9142 34.6019 -2.6468 2.9661
# 5 -19.5940 -8.6549 -3.2756 -2.6468 41.6177 -9.1008
# 6 18.6147 8.6255 9.2445 2.9661 -9.1008 42.9664
#
#
#
# Elastic Compliance Matrix: (Units=1/GPa)
#
#
# Indices 1 2 3 4 5 6 
#
# 1 0.017836 -0.007339 0.001131 0.005582 0.006092 -0.005592
# 2 -0.007339 0.013382 -0.005312 -0.004213 -0.000982 0.001719
# 3 0.001131 -0.005312 0.019845 -0.001409 0.000119 -0.003571
# 4 0.005582 -0.004213 -0.001409 0.031664 0.003040 -0.002811
# 5 0.006092 -0.000982 0.000119 0.003040 0.027587 0.003166
# 6 -0.005592 0.001719 -0.003571 -0.002811 0.003166 0.026985
#
#
# Mechanical properties :
#
#
# Convention : Reuss Voigt Hill
#
# Bulk Modulus (GPa) = 35.68443 48.93888 42.31166
# Shear Modulus (GPa) = 29.46699 35.48598 32.47649
#
# Velocity S-wave (km/s) = 3.68925 4.04854 3.87307
# Velocity P-wave (km/s) = 5.88471 6.66774 6.28842
#
# Compressibility (1/GPa) = 0.02802343
#
# Stress axis : x y z
#
# Youngs Moduli (GPa) = 56.06663 74.72484 50.38931
#
# Poissons Ratio (x) = 0.54840 -0.05699
# Poissons Ratio (y) = 0.41147 0.26768
# Poissons Ratio (z) = -0.06341 0.39695
#
# Static dielectric constant tensor:
#      x y z
#    x 3.948670 0.226350 0.100860 
#    y 0.226350 3.607220 -0.180910 
#    z 0.100860 -0.180910 3.444740 
# 
# 
# High freq. dielectric constant tensor:
#      x y z
#    x 1.856190 0.023230 0.002230 
#    y 0.023230 1.850010 0.003510 
#    z 0.002230 0.003510 1.847530 
# 
# From -- ./inp_files/38268.got.cif
#   From: 2010.06.25/outbox.cif.g09.slc.cpg/sg2_20_cif.got.tgz:38268.got - 2010.06.27 13:26:56.
