data_PCOD8025087
_publ_section_title
;
Structure prediction by ZEFSAII (Michael W. Deem and Ramdas Pophale) SiO2 
 PCOD8025087
Probable space group: P -1
;
_chemical_formula_sum "Si O2"
_cell_formula_units_Z 14
_cell_length_a 9.031592
_cell_length_b 8.814624
_cell_length_c 9.282950
_cell_angle_alpha 117.180351
_cell_angle_beta 82.818597
_cell_angle_gamma 98.480245
_cell_volume 648.824329
_symmetry_space_group_name_H-M "P -1"
_symmetry_group_IT_number 2
_symmetry_cell_setting 'triclinic'
loop_
_space_group_symop_operation_xyz
x,y,z
-x,-y,-z
loop_
_atom_site_type_symbol
_atom_site_label
_atom_site_fract_x
_atom_site_fract_y
_atom_site_fract_z
Si Si1 0.956677 0.478279 0.661127
Si Si2 0.900118 0.846649 0.518548
Si Si3 0.026832 0.852959 0.818841
Si Si4 0.446498 0.167929 0.508478
Si Si5 0.366600 0.892462 0.795848
Si Si6 0.474778 0.748237 0.003970
Si Si7 0.627636 0.430852 0.784424
O O1 0.782201 0.413094 0.675777
O O2 0.000000 0.500000 0.500000
O O3 0.054550 0.328667 0.637225
O O4 0.995655 0.663231 0.814245
O O5 0.728773 0.862250 0.511365
O O6 0.920688 0.858341 0.694341
O O7 0.000000 0.000000 0.500000
O O8 0.197154 0.878336 0.753957
O O9 0.000000 0.000000 0.000000
O O10 0.532961 0.210396 0.366445
O O11 0.487251 0.330121 0.675947
O O12 0.500000 0.000000 0.500000
O O13 0.370076 0.811537 0.918948
O O14 0.429247 0.090755 0.867215
O O15 0.596464 0.628387 0.878053
O O16 0.364605 0.647637 0.089863
#
# Coordination Sequence:
#
# PCOD8025087 Si02
#       7
#     2   2   2   2   2   2   2
#     4  10  23  44  68  98 139 177 225 278 340 407
#     4  11  26  44  67  99 136 178 226 282 341 405
#     4  11  25  44  69  99 138 178 223 279 345 403
#     4  12  24  42  71  98 132 179 231 278 334 403
#     4  11  24  43  69  98 137 177 231 271 345 401
#     4  10  25  41  71  99 134 174 228 285 333 396
#     4  11  23  45  70  97 137 173 232 278 339 399
#
# _framework density 21.577487999999999
#
# number of rings (size 3 to 8) (size 9 to 14) (size 15 to 20)
#    0.000    1.143    1.429    4.286   10.000    0.571 
#    0.000    1.429    0.000    0.000    0.000    0.000 
#    0.000    0.000    0.000    0.000    0.000    0.000 
#
# Total GULP energy -173625.594277 kJ/mol
# GULP energy per Si atom -12401.828163 kJ/mol
# Density = 2.152838 g / cm^3
# Si number density = 21.577488 Si / 1000 Ang^3
#
#
#
# Elastic Constant Matrix: (Units=GPa)
#
#
# Indices 1 2 3 4 5 6 
#
# 1 164.4398 34.8461 41.0978 -8.4684 -16.8413 -0.6807
# 2 34.8461 112.4421 40.0129 13.7475 -11.0043 -8.9705
# 3 41.0978 40.0129 106.8058 14.2338 -9.5615 -3.6248
# 4 -8.4684 13.7475 14.2338 33.6682 0.2579 -10.4500
# 5 -16.8413 -11.0043 -9.5615 0.2579 32.9606 -3.4084
# 6 -0.6807 -8.9705 -3.6248 -10.4500 -3.4084 28.1003
#
#
#
# Elastic Compliance Matrix: (Units=1/GPa)
#
#
# Indices 1 2 3 4 5 6 
#
# 1 0.007533 -0.001551 -0.002565 0.003949 0.002675 0.001149
# 2 -0.001551 0.011194 -0.002902 -0.003032 0.002367 0.002321
# 3 -0.002565 -0.002902 0.012165 -0.004960 0.001172 -0.001122
# 4 0.003949 -0.003032 -0.004960 0.037960 0.000580 0.012675
# 5 0.002675 0.002367 0.001172 0.000580 0.033373 0.005235
# 6 0.001149 0.002321 -0.001122 0.012675 0.005235 0.041560
#
#
# Mechanical properties :
#
#
# Convention : Reuss Voigt Hill
#
# Bulk Modulus (GPa) = 59.32840 68.40014 63.86427
# Shear Modulus (GPa) = 30.59214 36.79454 33.69334
#
# Velocity S-wave (km/s) = 3.76943 4.13392 3.95587
# Velocity P-wave (km/s) = 6.81909 7.38609 7.10825
#
# Compressibility (1/GPa) = 0.01685533
#
# Stress axis : x y z
#
# Youngs Moduli (GPa) = 132.74623 89.33051 82.20206
#
# Poissons Ratio (x) = 0.13855 0.21088
# Poissons Ratio (y) = 0.20588 0.23858
# Poissons Ratio (z) = 0.34055 0.25927
#
# Static dielectric constant tensor:
#      x y z
#    x 3.849520 -0.190220 -0.015240 
#    y -0.190220 4.562230 0.217860 
#    z -0.015240 0.217860 4.059190 
# 
# 
# High freq. dielectric constant tensor:
#      x y z
#    x 1.843870 0.004950 -0.007750 
#    y 0.004950 1.862740 0.010180 
#    z -0.007750 0.010180 1.850210 
# 
# From -- ./inp_files/158579.got.cif
#   From: 2010.06.25/outbox.cif.g09.slc.cpg/sg2_80_cif.got.tgz:158579.got - 2010.06.27 13:26:56.
