data_PCOD8025945
_publ_section_title
;
Structure prediction by ZEFSAII (Michael W. Deem and Ramdas Pophale) SiO2 
 PCOD8025945
Probable space group: P -1
;
_chemical_formula_sum "Si O2"
_cell_formula_units_Z 16
_cell_length_a 18.141612
_cell_length_b 27.183421
_cell_length_c 15.188532
_cell_angle_alpha 19.810517
_cell_angle_beta 19.949516
_cell_angle_gamma 20.216459
_cell_volume 765.759564
_symmetry_space_group_name_H-M "P -1"
_symmetry_group_IT_number 2
_symmetry_cell_setting 'triclinic'
loop_
_space_group_symop_operation_xyz
x,y,z
-x,-y,-z
loop_
_atom_site_type_symbol
_atom_site_label
_atom_site_fract_x
_atom_site_fract_y
_atom_site_fract_z
Si Si1 0.473988 0.781634 0.422654
Si Si2 0.492206 0.933433 0.526434
Si Si3 0.095820 0.101056 0.560547
Si Si4 0.903028 0.520078 0.477283
Si Si5 0.834888 0.856527 0.783407
Si Si6 0.267900 0.607418 0.826565
Si Si7 0.728122 0.297259 0.787721
Si Si8 0.965865 0.215815 0.834717
O O1 0.656629 0.691444 0.451050
O O2 0.344031 0.678402 0.706096
O O3 0.261871 0.952791 0.407282
O O4 0.632552 0.803366 0.129417
O O5 0.760613 0.849877 0.326718
O O6 0.500000 0.000000 0.500000
O O7 0.320454 0.077774 0.409745
O O8 0.390796 0.805388 0.863216
O O9 0.118591 0.179686 0.311608
O O10 0.846151 0.227334 0.677897
O O11 0.111293 0.924020 0.822552
O O12 0.824358 0.379760 0.776237
O O13 0.000000 0.500000 0.500000
O O14 0.119488 0.511904 0.185137
O O15 0.096669 0.755969 0.705212
O O16 0.515101 0.484400 0.703662
O O17 0.934178 0.271572 0.673142
#
# Coordination Sequence:
#
# PCOD8025945 Si02
#       8
#     2   2   2   2   2   2   2   2
#     4  10  23  47  64  82 126 164 204 263 307 364
#     4  11  19  37  60  89 129 165 191 244 312 366
#     4  11  24  37  63  98 123 162 211 248 296 380
#     4  11  25  38  64 103 122 155 208 255 314 367
#     4  10  25  44  62  88 117 166 219 249 302 361
#     4  11  23  42  66  84 126 168 202 254 313 358
#     4  11  21  38  62  94 126 163 202 246 317 366
#     4  11  21  38  60  92 134 159 193 253 315 368
#
# _framework density 20.894286999999998
#
# number of rings (size 3 to 8) (size 9 to 14) (size 15 to 20)
#    0.000    1.250    5.000    1.125    3.500    2.000 
#    0.000    0.625    0.000    0.000    0.000    0.000 
#    0.000    0.000    0.000    0.000    0.000    0.000 
#
# Total GULP energy -198367.987916 kJ/mol
# GULP energy per Si atom -12397.999245 kJ/mol
# Density = 2.084673 g / cm^3
# Si number density = 20.894287 Si / 1000 Ang^3
#
#
#
# Elastic Constant Matrix: (Units=GPa)
#
#
# Indices 1 2 3 4 5 6 
#
# 1 140.5199 50.8611 32.7861 -5.0808 7.7477 -15.2472
# 2 50.8611 132.0754 24.5701 -5.1134 5.4923 -20.6491
# 3 32.7861 24.5701 36.7587 -0.7458 -4.2527 -3.8938
# 4 -5.0808 -5.1134 -0.7458 27.7283 3.8225 -8.6286
# 5 7.7477 5.4923 -4.2527 3.8225 34.9447 -0.9902
# 6 -15.2472 -20.6491 -3.8938 -8.6286 -0.9902 36.1735
#
#
#
# Elastic Compliance Matrix: (Units=1/GPa)
#
#
# Indices 1 2 3 4 5 6 
#
# 1 0.010194 -0.001747 -0.007917 0.002704 -0.003160 0.003006
# 2 -0.001747 0.010191 -0.004858 0.003358 -0.002023 0.005304
# 3 -0.007917 -0.004858 0.038036 -0.003144 0.007419 -0.002563
# 4 0.002704 0.003358 -0.003144 0.041782 -0.005725 0.012528
# 5 -0.003160 -0.002023 0.007419 -0.005725 0.031102 -0.002202
# 6 0.003006 0.005304 -0.002563 0.012528 -0.002202 0.034591
#
#
# Mechanical properties :
#
#
# Convention : Reuss Voigt Hill
#
# Bulk Modulus (GPa) = 34.03945 58.42099 46.23022
# Shear Modulus (GPa) = 24.42207 33.17840 28.80023
#
# Velocity S-wave (km/s) = 3.42254 3.98919 3.71668
# Velocity P-wave (km/s) = 5.65199 7.01706 6.37119
#
# Compressibility (1/GPa) = 0.02937768
#
# Stress axis : x y z
#
# Youngs Moduli (GPa) = 98.09682 98.12392 26.29085
#
# Poissons Ratio (x) = 0.17140 0.20814
# Poissons Ratio (y) = 0.17135 0.12772
# Poissons Ratio (z) = 0.77663 0.47668
#
# Static dielectric constant tensor:
#      x y z
#    x 3.814580 -0.204490 -0.169110 
#    y -0.204490 4.087610 0.016140 
#    z -0.169110 0.016140 3.569920 
# 
# 
# High freq. dielectric constant tensor:
#      x y z
#    x 1.817640 -0.009550 -0.016670 
#    y -0.009550 1.829590 0.001650 
#    z -0.016670 0.001650 1.797180 
# 
# From -- ./inp_files/66357.got.cif
#   From: 2010.06.25/outbox.cif.g09.slc.cpg/sg2_34_cif.got.tgz:66357.got - 2010.06.27 13:26:56.
