data_PCOD8025736
_publ_section_title
;
Structure prediction by ZEFSAII (Michael W. Deem and Ramdas Pophale) SiO2 
 PCOD8025736
Probable space group: P -1
;
_chemical_formula_sum "Si O2"
_cell_formula_units_Z 16
_cell_length_a 12.400491
_cell_length_b 11.411953
_cell_length_c 11.965765
_cell_angle_alpha 67.363498
_cell_angle_beta 143.143390
_cell_angle_gamma 84.554215
_cell_volume 642.976537
_symmetry_space_group_name_H-M "P -1"
_symmetry_group_IT_number 2
_symmetry_cell_setting 'triclinic'
loop_
_space_group_symop_operation_xyz
x,y,z
-x,-y,-z
loop_
_atom_site_type_symbol
_atom_site_label
_atom_site_fract_x
_atom_site_fract_y
_atom_site_fract_z
Si Si1 0.841919 0.236408 0.258679
Si Si2 0.102634 0.720818 0.126172
Si Si3 0.094810 0.235127 0.670375
Si Si4 0.366234 0.021501 0.190490
Si Si5 0.423431 0.350377 0.413374
Si Si6 0.402893 0.378419 0.140796
Si Si7 0.835130 0.982421 0.604928
Si Si8 0.345075 0.355421 0.860519
O O1 0.049277 0.173680 0.546492
O O2 0.003410 0.089643 0.348054
O O3 0.651496 0.444632 0.979673
O O4 0.652543 0.226755 0.156316
O O5 0.207188 0.529082 0.245840
O O6 0.329456 0.682881 0.391414
O O7 0.033466 0.839321 0.917445
O O8 0.845679 0.831431 0.946130
O O9 0.292222 0.248882 0.795703
O O10 0.824376 0.443417 0.408416
O O11 0.220842 0.085755 0.927308
O O12 0.494465 0.820447 0.395875
O O13 0.594394 0.007997 0.384172
O O14 0.301336 0.383845 0.176439
O O15 0.714076 0.183095 0.461536
O O16 0.264478 0.382523 0.916629
#
# Coordination Sequence:
#
# PCOD8025736 Si02
#       8
#     2   2   2   2   2   2   2   2
#     4  11  26  47  76 105 148 198 239 299 363 422
#     4  11  26  46  70 109 141 186 243 296 360 444
#     4  10  23  47  74 110 146 191 246 295 364 433
#     4  12  26  46  72 104 147 189 229 306 365 424
#     4  11  26  45  75 107 139 188 241 299 367 433
#     4  11  22  45  72 104 143 185 240 291 365 425
#     4  12  26  45  70 107 145 187 247 293 358 442
#     4  10  23  45  76 106 143 198 240 301 356 430
#
# _framework density 24.884269
#
# number of rings (size 3 to 8) (size 9 to 14) (size 15 to 20)
#    0.000    1.000    3.750    2.250    3.500    2.500 
#    2.250    1.250    0.000    0.000    0.000    0.000 
#    0.000    0.000    0.000    0.000    0.000    0.000 
#
# Total GULP energy -198374.374955 kJ/mol
# GULP energy per Si atom -12398.398435 kJ/mol
# Density = 2.482763 g / cm^3
# Si number density = 24.884269 Si / 1000 Ang^3
#
#
#
# Elastic Constant Matrix: (Units=GPa)
#
#
# Indices 1 2 3 4 5 6 
#
# 1 66.4224 32.7585 44.9813 -2.7978 -22.7398 -15.1598
# 2 32.7585 105.9619 49.9141 -28.9595 -6.4984 -12.0045
# 3 44.9813 49.9141 114.8803 -15.0985 -24.2545 0.4834
# 4 -2.7978 -28.9595 -15.0985 51.8116 4.3391 -5.6209
# 5 -22.7398 -6.4984 -24.2545 4.3391 47.5765 -1.0975
# 6 -15.1598 -12.0045 0.4834 -5.6209 -1.0975 25.9956
#
#
#
# Elastic Compliance Matrix: (Units=1/GPa)
#
#
# Indices 1 2 3 4 5 6 
#
# 1 0.029041 -0.003220 -0.008203 -0.001744 0.009779 0.015637
# 2 -0.003220 0.015674 -0.005053 0.008098 -0.002549 0.007098
# 3 -0.008203 -0.005053 0.014718 0.000004 0.002725 -0.007275
# 4 -0.001744 0.008098 0.000004 0.024752 -0.001798 0.007998
# 5 0.009779 -0.002549 0.002725 -0.001798 0.027018 0.005227
# 6 0.015637 0.007098 -0.007275 0.007998 0.005227 0.052950
#
#
# Mechanical properties :
#
#
# Convention : Reuss Voigt Hill
#
# Bulk Modulus (GPa) = 37.76065 60.28582 49.02323
# Shear Modulus (GPa) = 24.27973 35.71744 29.99859
#
# Velocity S-wave (km/s) = 3.12702 3.79270 3.47583
# Velocity P-wave (km/s) = 5.31461 6.59231 5.98764
#
# Compressibility (1/GPa) = 0.02648260
#
# Stress axis : x y z
#
# Youngs Moduli (GPa) = 34.43386 63.79964 67.94229
#
# Poissons Ratio (x) = 0.20542 0.55730
# Poissons Ratio (y) = 0.11087 0.34333
# Poissons Ratio (z) = 0.28244 0.32240
#
# Static dielectric constant tensor:
#      x y z
#    x 4.315190 0.001050 -0.291640 
#    y 0.001050 4.550260 -0.159390 
#    z -0.291640 -0.159390 4.837370 
# 
# 
# High freq. dielectric constant tensor:
#      x y z
#    x 1.978270 0.002620 -0.021290 
#    y 0.002620 1.994340 -0.009500 
#    z -0.021290 -0.009500 2.010680 
# 
# From -- ./inp_files/428033.got.cif
#   From: 2010.06.25/outbox.cif.g09.slc.cpg/sg2_215_cif.got.tgz:428033.got - 2010.06.27 13:26:56.
