data_PCOD8025089
_publ_section_title
;
Structure prediction by ZEFSAII (Michael W. Deem and Ramdas Pophale) SiO2 
 PCOD8025089
Probable space group: P -1
;
_chemical_formula_sum "Si O2"
_cell_formula_units_Z 12
_cell_length_a 9.890659
_cell_length_b 9.436506
_cell_length_c 9.532045
_cell_angle_alpha 71.613125
_cell_angle_beta 134.923234
_cell_angle_gamma 119.245271
_cell_volume 549.002604
_symmetry_space_group_name_H-M "P -1"
_symmetry_group_IT_number 2
_symmetry_cell_setting 'triclinic'
loop_
_space_group_symop_operation_xyz
x,y,z
-x,-y,-z
loop_
_atom_site_type_symbol
_atom_site_label
_atom_site_fract_x
_atom_site_fract_y
_atom_site_fract_z
Si Si1 0.232722 0.125209 0.118837
Si Si2 0.273907 0.804458 0.858140
Si Si3 0.463359 0.937624 0.227880
Si Si4 0.380144 0.327619 0.898740
Si Si5 0.492149 0.657851 0.519560
Si Si6 0.117087 0.445758 0.481950
O O1 0.308182 0.256331 0.259834
O O2 0.388804 0.031281 0.262425
O O3 0.236439 0.212689 0.947940
O O4 0.000000 0.000000 0.000000
O O5 0.048824 0.663240 0.718270
O O6 0.322577 0.937835 0.727186
O O7 0.282249 0.883165 0.992561
O O8 0.454049 0.736581 0.018837
O O9 0.495607 0.785345 0.363936
O O10 0.235269 0.338576 0.663053
O O11 0.500000 0.500000 0.000000
O O12 0.500000 0.500000 0.500000
O O13 0.281387 0.603975 0.474570
O O14 0.000000 0.500000 0.500000
#
# Coordination Sequence:
#
# PCOD8025089 Si02
#       6
#     2   2   2   2   2   2
#     4  11  26  43  67  99 137 182 222 282 350 400
#     4  10  23  44  68  99 134 185 226 283 350 404
#     4  10  24  46  67  96 142 175 229 288 338 418
#     4  11  21  43  65  99 140 171 231 286 331 417
#     4  12  27  45  70 106 139 177 235 289 341 412
#     4  12  24  40  72 101 135 187 227 279 355 405
#
# _framework density 21.857818000000002
#
# number of rings (size 3 to 8) (size 9 to 14) (size 15 to 20)
#    0.000    1.000    3.333    2.500    7.000    0.667 
#    0.000    3.333    0.000    0.000    0.000    0.000 
#    0.000    0.000    0.000    0.000    0.000    0.000 
#
# Total GULP energy -148825.080611 kJ/mol
# GULP energy per Si atom -12402.090051 kJ/mol
# Density = 2.180807 g / cm^3
# Si number density = 21.857818 Si / 1000 Ang^3
#
#
#
# Elastic Constant Matrix: (Units=GPa)
#
#
# Indices 1 2 3 4 5 6 
#
# 1 84.3652 38.0961 28.8975 1.9877 0.6939 12.4062
# 2 38.0961 118.1312 39.2948 -0.4244 4.7407 7.0154
# 3 28.8975 39.2948 108.0616 7.0876 7.6262 11.8837
# 4 1.9877 -0.4244 7.0876 64.4934 4.3482 -0.7216
# 5 0.6939 4.7407 7.6262 4.3482 23.9836 9.7601
# 6 12.4062 7.0154 11.8837 -0.7216 9.7601 44.4737
#
#
#
# Elastic Compliance Matrix: (Units=1/GPa)
#
#
# Indices 1 2 3 4 5 6 
#
# 1 0.014933 -0.003939 -0.002330 -0.000444 0.002591 -0.003498
# 2 -0.003939 0.010708 -0.002834 0.000604 -0.001409 0.000486
# 3 -0.002330 -0.002834 0.011291 -0.001057 -0.002177 -0.001459
# 4 -0.000444 0.000604 -0.001057 0.015867 -0.003160 0.001262
# 5 0.002591 -0.001409 -0.002177 -0.003160 0.047383 -0.010369
# 6 -0.003498 0.000486 -0.001459 0.001262 -0.010369 0.026070
#
#
# Mechanical properties :
#
#
# Convention : Reuss Voigt Hill
#
# Bulk Modulus (GPa) = 53.40049 58.12608 55.76328
# Shear Modulus (GPa) = 33.17826 40.20812 36.69319
#
# Velocity S-wave (km/s) = 3.90027 4.29363 4.10167
# Velocity P-wave (km/s) = 6.69079 7.15757 6.92811
#
# Compressibility (1/GPa) = 0.01872642
#
# Stress axis : x y z
#
# Youngs Moduli (GPa) = 66.96368 93.38897 88.56437
#
# Poissons Ratio (x) = 0.36782 0.20639
# Poissons Ratio (y) = 0.26374 0.25100
# Poissons Ratio (z) = 0.15605 0.26468
#
# Static dielectric constant tensor:
#      x y z
#    x 4.670770 -1.059450 1.161440 
#    y -1.059450 5.932060 -1.967200 
#    z 1.161440 -1.967200 6.584020 
# 
# 
# High freq. dielectric constant tensor:
#      x y z
#    x 1.855230 0.002060 -0.014310 
#    y 0.002060 1.879410 0.006240 
#    z -0.014310 0.006240 1.853690 
# 
# From -- ./inp_files/156481.got.cif
#   From: 2010.06.25/outbox.cif.g09.slc.cpg/sg2_79_cif.got.tgz:156481.got - 2010.06.27 13:26:56.
