data_PCOD8025909
_publ_section_title
;
Structure prediction by ZEFSAII (Michael W. Deem and Ramdas Pophale) SiO2 
 PCOD8025909
Probable space group: P -1
;
_chemical_formula_sum "Si O2"
_cell_formula_units_Z 16
_cell_length_a 8.988839
_cell_length_b 14.934250
_cell_length_c 15.804010
_cell_angle_alpha 28.516246
_cell_angle_beta 99.936784
_cell_angle_gamma 80.707108
_cell_volume 744.344963
_symmetry_space_group_name_H-M "P -1"
_symmetry_group_IT_number 2
_symmetry_cell_setting 'triclinic'
loop_
_space_group_symop_operation_xyz
x,y,z
-x,-y,-z
loop_
_atom_site_type_symbol
_atom_site_label
_atom_site_fract_x
_atom_site_fract_y
_atom_site_fract_z
Si Si1 0.882412 0.607303 0.509590
Si Si2 0.428737 0.971860 0.428391
Si Si3 0.780275 0.485376 0.771881
Si Si4 0.324891 0.295910 0.752495
Si Si5 0.997842 0.317968 0.094601
Si Si6 0.358932 0.812738 0.009586
Si Si7 0.215981 0.776981 0.739881
Si Si8 0.478861 0.286246 0.077418
O O1 0.806896 0.596491 0.601370
O O2 0.775422 0.561871 0.465625
O O3 0.128436 0.391276 0.709599
O O4 0.805125 0.882805 0.251781
O O5 0.582243 0.702391 0.625123
O O6 0.500000 0.000000 0.500000
O O7 0.215962 0.038035 0.365331
O O8 0.370976 0.183643 0.179346
O O9 0.764568 0.279018 0.917162
O O10 0.969324 0.371235 0.946948
O O11 0.455855 0.347157 0.770892
O O12 0.500000 0.000000 0.000000
O O13 0.809826 0.347844 0.081661
O O14 0.000000 0.500000 0.000000
O O15 0.472425 0.749840 0.985351
O O16 0.318706 0.874874 0.709938
O O17 0.349615 0.578159 0.843528
O O18 0.000000 0.000000 0.500000
#
# Coordination Sequence:
#
# PCOD8025909 Si02
#       8
#     2   2   2   2   2   2   2   2
#     4  10  23  46  73 100 130 171 208 261 341 396
#     4  12  24  41  62  86 130 181 222 273 322 368
#     4  12  26  42  65  98 135 175 222 270 319 387
#     4   9  22  46  76 101 131 165 206 267 334 404
#     4  12  24  39  56  88 123 170 230 266 316 375
#     4  11  24  43  65 101 135 164 220 273 319 397
#     4  11  24  38  59  85 124 176 222 276 328 367
#     4  11  23  40  58  90 127 167 227 272 317 385
#
# _framework density 21.495408000000001
#
# number of rings (size 3 to 8) (size 9 to 14) (size 15 to 20)
#    0.000    1.000    5.000    0.750    5.250    2.500 
#    0.000    5.625    0.000    0.000    0.000    0.000 
#    0.000    0.000    0.000    0.000    0.000    0.000 
#
# Total GULP energy -198263.578111 kJ/mol
# GULP energy per Si atom -12391.473632 kJ/mol
# Density = 2.144648 g / cm^3
# Si number density = 21.495408 Si / 1000 Ang^3
#
#
#
# Elastic Constant Matrix: (Units=GPa)
#
#
# Indices 1 2 3 4 5 6 
#
# 1 89.3154 36.4088 38.1872 -1.2267 19.4661 4.7265
# 2 36.4088 107.4005 42.4524 5.1082 14.8631 3.1954
# 3 38.1872 42.4524 87.7088 3.6457 24.0877 6.2993
# 4 -1.2267 5.1082 3.6457 31.3104 -0.0251 8.8480
# 5 19.4661 14.8631 24.0877 -0.0251 46.6779 -0.0681
# 6 4.7265 3.1954 6.2993 8.8480 -0.0681 40.6022
#
#
#
# Elastic Compliance Matrix: (Units=1/GPa)
#
#
# Indices 1 2 3 4 5 6 
#
# 1 0.015007 -0.003054 -0.004185 0.001934 -0.003127 -0.001284
# 2 -0.003054 0.012221 -0.004460 -0.001725 -0.000316 0.000461
# 3 -0.004185 -0.004460 0.017092 -0.000976 -0.005658 -0.001610
# 4 0.001934 -0.001725 -0.000976 0.034517 0.000254 -0.007460
# 5 -0.003127 -0.000316 -0.005658 0.000254 0.025750 0.001255
# 6 -0.001284 0.000461 -0.001610 -0.007460 0.001255 0.026620
#
#
# Mechanical properties :
#
#
# Convention : Reuss Voigt Hill
#
# Bulk Modulus (GPa) = 47.79646 57.61348 52.70497
# Shear Modulus (GPa) = 30.94460 34.87652 32.91056
#
# Velocity S-wave (km/s) = 3.79831 4.03241 3.91711
# Velocity P-wave (km/s) = 6.44361 6.96716 6.71049
#
# Compressibility (1/GPa) = 0.02092205
#
# Stress axis : x y z
#
# Youngs Moduli (GPa) = 66.63773 81.82395 58.50643
#
# Poissons Ratio (x) = 0.24990 0.24484
# Poissons Ratio (y) = 0.20352 0.26094
# Poissons Ratio (z) = 0.27886 0.36494
#
# Static dielectric constant tensor:
#      x y z
#    x 3.938860 0.973710 0.181270 
#    y 0.973710 2.953460 0.027720 
#    z 0.181270 0.027720 3.994240 
# 
# 
# High freq. dielectric constant tensor:
#      x y z
#    x 1.844830 -0.004820 0.018660 
#    y -0.004820 1.848990 0.006050 
#    z 0.018660 0.006050 1.842160 
# 
# From -- ./inp_files/299699.got.cif
#   From: 2010.06.25/outbox.cif.g09.slc.cpg/sg2_150_cif.got.tgz:299699.got - 2010.06.27 13:26:56.
