data_PCOD8025976
_publ_section_title
;
Structure prediction by ZEFSAII (Michael W. Deem and Ramdas Pophale) SiO2 
 PCOD8025976
Probable space group: P -1
;
_chemical_formula_sum "Si O2"
_cell_formula_units_Z 14
_cell_length_a 15.725549
_cell_length_b 11.335494
_cell_length_c 9.820242
_cell_angle_alpha 116.571934
_cell_angle_beta 142.512828
_cell_angle_gamma 38.757984
_cell_volume 595.600745
_symmetry_space_group_name_H-M "P -1"
_symmetry_group_IT_number 2
_symmetry_cell_setting 'triclinic'
loop_
_space_group_symop_operation_xyz
x,y,z
-x,-y,-z
loop_
_atom_site_type_symbol
_atom_site_label
_atom_site_fract_x
_atom_site_fract_y
_atom_site_fract_z
Si Si1 0.598562 0.649978 0.282370
Si Si2 0.740646 0.698403 0.238018
Si Si3 0.143677 0.775876 0.508629
Si Si4 0.132951 0.063745 0.996259
Si Si5 0.499894 0.126793 0.249291
Si Si6 0.220541 0.284306 0.234705
Si Si7 0.312677 0.732998 0.438254
O O1 0.598803 0.703493 0.156252
O O2 0.728369 0.413685 0.321465
O O3 0.719459 0.666563 0.539549
O O4 0.348458 0.813408 0.108429
O O5 0.000000 0.500000 0.500000
O O6 0.670647 0.900332 0.280442
O O7 0.692027 0.698358 0.017503
O O8 0.325760 0.710187 0.606951
O O9 0.000000 0.000000 0.500000
O O10 0.974695 0.811247 0.221367
O O11 0.938947 0.123467 0.859643
O O12 0.196792 0.153439 0.198708
O O13 0.404280 0.139419 0.274284
O O14 0.635900 0.156394 0.483737
O O15 0.000000 0.500000 0.000000
O O16 0.500000 0.500000 0.500000
#
# Coordination Sequence:
#
# PCOD8025976 Si02
#       7
#     2   2   2   2   2   2   2
#     4  12  24  44  74 106 132 182 252 285 343 421
#     4  11  27  42  71 104 140 180 232 291 350 410
#     4  10  25  43  70  97 144 185 230 283 362 416
#     4  10  24  41  70 102 137 181 236 292 342 421
#     4  11  25  46  69 100 145 177 228 290 354 411
#     4  12  21  44  76  98 136 186 234 292 344 413
#     4  10  23  47  68  97 143 191 223 282 366 416
#
# _framework density 23.505680000000002
#
# number of rings (size 3 to 8) (size 9 to 14) (size 15 to 20)
#    0.857    0.286    2.857    3.000    4.000    0.571 
#    2.571    1.429    0.000    0.000    0.000    0.000 
#    0.000    0.000    0.000    0.000    0.000    0.000 
#
# Total GULP energy -173501.693086 kJ/mol
# GULP energy per Si atom -12392.978078 kJ/mol
# Density = 2.345218 g / cm^3
# Si number density = 23.505680 Si / 1000 Ang^3
#
#
#
# Elastic Constant Matrix: (Units=GPa)
#
#
# Indices 1 2 3 4 5 6 
#
# 1 47.9720 22.8992 13.1684 8.2778 15.3653 -5.6556
# 2 22.8992 144.2357 29.9833 -13.2561 22.6701 4.5674
# 3 13.1684 29.9833 96.4516 -9.1391 25.8994 2.3761
# 4 8.2778 -13.2561 -9.1391 42.4592 0.0158 1.8195
# 5 15.3653 22.6701 25.8994 0.0158 41.8679 -2.3498
# 6 -5.6556 4.5674 2.3761 1.8195 -2.3498 36.1897
#
#
#
# Elastic Compliance Matrix: (Units=1/GPa)
#
#
# Indices 1 2 3 4 5 6 
#
# 1 0.026907 -0.003694 -0.001503 -0.006921 -0.006679 0.004684
# 2 -0.003694 0.008525 -0.001064 0.003236 -0.002711 -0.001922
# 3 -0.001503 -0.001064 0.013112 0.002853 -0.007072 -0.001564
# 4 -0.006921 0.003236 0.002853 0.026659 -0.001161 -0.003093
# 5 -0.006679 -0.002711 -0.007072 -0.001161 0.032287 0.001917
# 6 0.004684 -0.001922 -0.001564 -0.003093 0.001917 0.028989
#
#
# Mechanical properties :
#
#
# Convention : Reuss Voigt Hill
#
# Bulk Modulus (GPa) = 27.76018 46.75122 37.25570
# Shear Modulus (GPa) = 31.05438 38.94393 34.99916
#
# Velocity S-wave (km/s) = 3.63870 4.07478 3.86290
# Velocity P-wave (km/s) = 5.43039 6.48621 5.98164
#
# Compressibility (1/GPa) = 0.03602282
#
# Stress axis : x y z
#
# Youngs Moduli (GPa) = 37.16481 117.29993 76.26815
#
# Poissons Ratio (x) = 0.43330 0.11462
# Poissons Ratio (y) = 0.13729 0.08113
# Poissons Ratio (z) = 0.05585 0.12478
#
# Static dielectric constant tensor:
#      x y z
#    x 4.165000 -0.074110 -0.064140 
#    y -0.074110 4.118660 -0.026120 
#    z -0.064140 -0.026120 4.396250 
# 
# 
# High freq. dielectric constant tensor:
#      x y z
#    x 1.918070 -0.002680 0.004060 
#    y -0.002680 1.937040 -0.006250 
#    z 0.004060 -0.006250 1.934660 
# 
# From -- ./inp_files/464758.got.cif
#   From: 2010.06.25/outbox.cif.g09.slc.cpg/sg2_233_cif.got.tgz:464758.got - 2010.06.27 13:26:56.
