data_PCOD8025599
_publ_section_title
;
Structure prediction by ZEFSAII (Michael W. Deem and Ramdas Pophale) SiO2 
 PCOD8025599
Probable space group: P -1
;
_chemical_formula_sum "Si O2"
_cell_formula_units_Z 12
_cell_length_a 8.768435
_cell_length_b 10.352423
_cell_length_c 10.649339
_cell_angle_alpha 119.322785
_cell_angle_beta 138.672875
_cell_angle_gamma 80.392472
_cell_volume 521.600105
_symmetry_space_group_name_H-M "P -1"
_symmetry_group_IT_number 2
_symmetry_cell_setting 'triclinic'
loop_
_space_group_symop_operation_xyz
x,y,z
-x,-y,-z
loop_
_atom_site_type_symbol
_atom_site_label
_atom_site_fract_x
_atom_site_fract_y
_atom_site_fract_z
Si Si1 0.801027 0.113315 0.372471
Si Si2 0.577810 0.118547 0.490129
Si Si3 0.074086 0.349170 0.994717
Si Si4 0.297205 0.230380 0.873301
Si Si5 0.830036 0.324501 0.272873
Si Si6 0.883579 0.813163 0.804291
O O1 0.601157 0.052481 0.334189
O O2 0.720313 0.227428 0.285799
O O3 0.087718 0.216902 0.632764
O O4 0.775039 0.950692 0.207929
O O5 0.400501 0.222128 0.424916
O O6 0.855329 0.212185 0.733607
O O7 0.500000 0.000000 0.500000
O O8 0.301029 0.348740 0.047921
O O9 0.111001 0.309425 0.142051
O O10 0.000000 0.500000 0.000000
O O11 0.579884 0.310048 0.033287
O O12 0.000000 0.500000 0.500000
O O13 0.981417 0.231655 0.250229
O O14 0.000000 0.000000 0.000000
#
# Coordination Sequence:
#
# PCOD8025599 Si02
#       6
#     2   2   2   2   2   2
#     4  10  23  45  72  96 134 184 232 283 343 415
#     4  11  24  44  74 100 132 178 238 284 341 415
#     4  11  26  44  70 101 137 183 228 291 348 400
#     4  10  23  45  70  93 136 182 233 276 347 414
#     4  12  28  42  68 106 142 180 224 292 356 405
#     4  12  25  44  72 101 139 182 238 280 339 423
#
# _framework density 23.006131
#
# number of rings (size 3 to 8) (size 9 to 14) (size 15 to 20)
#    0.000    1.000    1.667    3.500   11.667    1.333 
#    0.000    0.000    0.000    0.000    0.000    0.000 
#    0.000    0.000    0.000    0.000    0.000    0.000 
#
# Total GULP energy -148668.147005 kJ/mol
# GULP energy per Si atom -12389.012250 kJ/mol
# Density = 2.295377 g / cm^3
# Si number density = 23.006131 Si / 1000 Ang^3
#
#
#
# Elastic Constant Matrix: (Units=GPa)
#
#
# Indices 1 2 3 4 5 6 
#
# 1 131.5996 59.2212 31.5625 -1.5806 -5.0912 -22.0305
# 2 59.2212 137.5415 7.1825 -7.2567 -14.0087 0.1195
# 3 31.5625 7.1825 76.1117 -10.2837 5.8414 -15.7344
# 4 -1.5806 -7.2567 -10.2837 37.3074 -14.4350 -1.6813
# 5 -5.0912 -14.0087 5.8414 -14.4350 31.9460 -8.2066
# 6 -22.0305 0.1195 -15.7344 -1.6813 -8.2066 40.0572
#
#
#
# Elastic Compliance Matrix: (Units=1/GPa)
#
#
# Indices 1 2 3 4 5 6 
#
# 1 0.011426 -0.004618 -0.003405 -0.000524 0.001531 0.005252
# 2 -0.004618 0.009915 0.000904 0.003835 0.004910 -0.001047
# 3 -0.003405 0.000904 0.016059 0.004779 0.000282 0.004691
# 4 -0.000524 0.003835 0.004779 0.036524 0.019028 0.007009
# 5 0.001531 0.004910 0.000282 0.019028 0.045065 0.010969
# 6 0.005252 -0.001047 0.004691 0.007009 0.010969 0.032240
#
#
# Mechanical properties :
#
#
# Convention : Reuss Voigt Hill
#
# Bulk Modulus (GPa) = 43.17350 60.13169 51.65259
# Shear Modulus (GPa) = 28.87067 38.34790 33.60929
#
# Velocity S-wave (km/s) = 3.54632 4.08714 3.82630
# Velocity P-wave (km/s) = 5.96450 6.96182 6.48237
#
# Compressibility (1/GPa) = 0.02316236
#
# Stress axis : x y z
#
# Youngs Moduli (GPa) = 87.52190 100.85666 62.27044
#
# Poissons Ratio (x) = 0.46576 0.21202
# Poissons Ratio (y) = 0.40418 -0.05630
# Poissons Ratio (z) = 0.29800 -0.09119
#
# Static dielectric constant tensor:
#      x y z
#    x 4.335030 -0.203370 -0.042290 
#    y -0.203370 4.056680 -0.290930 
#    z -0.042290 -0.290930 4.267280 
# 
# 
# High freq. dielectric constant tensor:
#      x y z
#    x 1.915590 -0.016210 0.007160 
#    y -0.016210 1.903940 -0.017480 
#    z 0.007160 -0.017480 1.912330 
# 
# From -- ./inp_files/175952.got.cif
#   From: 2010.06.25/outbox.cif.g09.slc.cpg/sg2_88_cif.got.tgz:175952.got - 2010.06.27 13:26:56.
