data_PCOD8025416
_publ_section_title
;
Structure prediction by ZEFSAII (Michael W. Deem and Ramdas Pophale) SiO2 
 PCOD8025416
Probable space group: P -1
;
_chemical_formula_sum "Si O2"
_cell_formula_units_Z 12
_cell_length_a 12.367817
_cell_length_b 18.928681
_cell_length_c 9.168567
_cell_angle_alpha 130.370712
_cell_angle_beta 129.791311
_cell_angle_gamma 17.770646
_cell_volume 496.619859
_symmetry_space_group_name_H-M "P -1"
_symmetry_group_IT_number 2
_symmetry_cell_setting 'triclinic'
loop_
_space_group_symop_operation_xyz
x,y,z
-x,-y,-z
loop_
_atom_site_type_symbol
_atom_site_label
_atom_site_fract_x
_atom_site_fract_y
_atom_site_fract_z
Si Si1 0.214915 0.777831 0.410329
Si Si2 0.293815 0.440334 0.228298
Si Si3 0.214299 0.961370 0.086129
Si Si4 0.846717 0.370348 0.207316
Si Si5 0.902894 0.782151 0.094934
Si Si6 0.722098 0.773719 0.418049
O O1 0.462611 0.630822 0.572657
O O2 0.447593 0.622595 0.257634
O O3 0.925570 0.871310 0.301743
O O4 0.000000 0.000000 0.500000
O O5 0.073271 0.612201 0.132478
O O6 0.010661 0.572928 0.275301
O O7 0.546404 0.205684 0.072798
O O8 0.454610 0.847493 0.282288
O O9 0.980285 0.191217 0.146925
O O10 0.000000 0.000000 0.000000
O O11 0.076323 0.323331 0.388189
O O12 0.844999 0.374089 0.037454
O O13 0.500000 0.000000 0.000000
O O14 0.500000 0.000000 0.500000
#
# Coordination Sequence:
#
# PCOD8025416 Si02
#       6
#     2   2   2   2   2   2
#     4  11  25  46  69  96 133 180 226 275 332 397
#     4  11  24  42  69 100 134 178 224 273 332 400
#     4  11  22  39  68 101 130 172 227 280 332 393
#     4  10  23  45  66  93 134 177 219 277 335 395
#     4  12  25  43  68 102 137 174 221 277 335 398
#     4   9  20  41  65  92 130 175 219 268 327 391
#
# _framework density 24.163350999999999
#
# number of rings (size 3 to 8) (size 9 to 14) (size 15 to 20)
#    0.000    1.333    0.000    5.500    0.000    8.000 
#    0.000    1.667    0.000    0.000    0.000    0.000 
#    0.000    0.000    0.000    0.000    0.000    0.000 
#
# Total GULP energy -148718.935924 kJ/mol
# GULP energy per Si atom -12393.244660 kJ/mol
# Density = 2.410835 g / cm^3
# Si number density = 24.163351 Si / 1000 Ang^3
#
#
#
# Elastic Constant Matrix: (Units=GPa)
#
#
# Indices 1 2 3 4 5 6 
#
# 1 56.9815 35.6568 55.2890 -16.5548 21.9424 2.1575
# 2 35.6568 131.0861 49.5007 5.0649 6.6576 -12.4662
# 3 55.2890 49.5007 136.6934 -19.7457 21.7733 -16.2121
# 4 -16.5548 5.0649 -19.7457 66.5257 -10.5215 1.5519
# 5 21.9424 6.6576 21.7733 -10.5215 51.9260 -15.9779
# 6 2.1575 -12.4662 -16.2121 1.5519 -15.9779 27.4257
#
#
#
# Elastic Compliance Matrix: (Units=1/GPa)
#
#
# Indices 1 2 3 4 5 6 
#
# 1 0.050752 -0.009683 -0.016412 0.005786 -0.021711 -0.031072
# 2 -0.009683 0.011028 -0.000226 -0.002747 0.004873 0.008635
# 3 -0.016412 -0.000226 0.014901 0.000818 0.004805 0.012750
# 4 0.005786 -0.002747 0.000818 0.017035 0.000419 -0.001940
# 5 -0.021711 0.004873 0.004805 0.000419 0.034057 0.026581
# 6 -0.031072 0.008635 0.012750 -0.001940 0.026581 0.065964
#
#
# Mechanical properties :
#
#
# Convention : Reuss Voigt Hill
#
# Bulk Modulus (GPa) = 41.60111 67.29487 54.44799
# Shear Modulus (GPa) = 19.65477 41.46313 30.55895
#
# Velocity S-wave (km/s) = 2.85513 4.14690 3.56009
# Velocity P-wave (km/s) = 5.30312 7.13018 6.28341
#
# Compressibility (1/GPa) = 0.02403782
#
# Stress axis : x y z
#
# Youngs Moduli (GPa) = 19.70368 90.68166 67.11120
#
# Poissons Ratio (x) = 0.87810 1.10145
# Poissons Ratio (y) = 0.19080 0.01514
# Poissons Ratio (z) = 0.32338 0.02046
#
# Static dielectric constant tensor:
#      x y z
#    x 4.757590 -0.494140 0.708270 
#    y -0.494140 4.660750 -0.253900 
#    z 0.708270 -0.253900 5.705530 
# 
# 
# High freq. dielectric constant tensor:
#      x y z
#    x 1.925220 -0.019230 0.010610 
#    y -0.019230 1.968810 -0.005970 
#    z 0.010610 -0.005970 1.997540 
# 
# From -- ./inp_files/279961.got.cif
#   From: 2010.06.25/outbox.cif.g09.slc.cpg/sg2_140_cif.got.tgz:279961.got - 2010.06.27 13:26:56.
