data_PCOD8025030
_publ_section_title
;
Structure prediction by ZEFSAII (Michael W. Deem and Ramdas Pophale) SiO2 
 PCOD8025030
Probable space group: P -1
;
_chemical_formula_sum "Si O2"
_cell_formula_units_Z 16
_cell_length_a 22.719303
_cell_length_b 8.693294
_cell_length_c 9.618393
_cell_angle_alpha 93.747121
_cell_angle_beta 129.114523
_cell_angle_gamma 129.337474
_cell_volume 719.995572
_symmetry_space_group_name_H-M "P -1"
_symmetry_group_IT_number 2
_symmetry_cell_setting 'triclinic'
loop_
_space_group_symop_operation_xyz
x,y,z
-x,-y,-z
loop_
_atom_site_type_symbol
_atom_site_label
_atom_site_fract_x
_atom_site_fract_y
_atom_site_fract_z
Si Si1 0.151364 0.841946 0.680157
Si Si2 0.643560 0.946127 0.796016
Si Si3 0.134946 0.657796 0.371808
Si Si4 0.138943 0.300820 0.326535
Si Si5 0.325051 0.666461 0.159856
Si Si6 0.143743 0.187675 0.640142
Si Si7 0.693555 0.561098 0.634295
Si Si8 0.789306 0.064737 0.772128
O O1 0.209232 0.840167 0.638184
O O2 0.000000 0.500000 0.500000
O O3 0.134664 0.988221 0.620530
O O4 0.284715 0.062812 0.006304
O O5 0.742749 0.281793 0.962898
O O6 0.649858 0.890169 0.645673
O O7 0.476123 0.685439 0.590937
O O8 0.141148 0.487065 0.352995
O O9 0.237902 0.922191 0.422701
O O10 0.960468 0.419460 0.098265
O O11 0.134736 0.220303 0.468371
O O12 0.297372 0.525232 0.498137
O O13 0.000000 0.000000 0.000000
O O14 0.232883 0.409061 0.127232
O O15 0.500000 0.000000 0.500000
O O16 0.301354 0.530729 0.971398
O O17 0.000000 0.000000 0.500000
O O18 0.796291 0.892988 0.780504
#
# Coordination Sequence:
#
# PCOD8025030 Si02
#       8
#     2   2   2   2   2   2   2   2
#     4  12  24  43  66 100 140 178 230 291 344 412
#     4  11  23  42  68  97 137 180 226 282 349 412
#     4  11  24  40  66  98 135 178 226 286 344 401
#     4  12  24  43  68 100 141 180 235 290 344 413
#     4  10  23  44  67  99 139 183 231 279 346 418
#     4  12  26  42  71 104 137 180 238 292 348 413
#     4  11  23  43  68 101 136 184 231 281 344 418
#     4  11  22  39  64  97 134 173 230 277 342 404
#
# _framework density 22.222356000000001
#
# number of rings (size 3 to 8) (size 9 to 14) (size 15 to 20)
#    0.000    0.750    2.500    5.625    1.750    1.000 
#    0.000   10.625    0.000    0.000    0.000    0.000 
#    0.000    0.000    0.000    0.000    0.000    0.000 
#
# Total GULP energy -198299.577086 kJ/mol
# GULP energy per Si atom -12393.723568 kJ/mol
# Density = 2.217178 g / cm^3
# Si number density = 22.222356 Si / 1000 Ang^3
#
#
#
# Elastic Constant Matrix: (Units=GPa)
#
#
# Indices 1 2 3 4 5 6 
#
# 1 166.8157 68.6575 37.0208 -3.0236 -13.7246 16.9910
# 2 68.6575 181.9448 40.9706 -28.5369 -19.0078 -3.6849
# 3 37.0208 40.9706 84.4616 -9.0961 -15.9680 15.4535
# 4 -3.0236 -28.5369 -9.0961 30.0738 3.7240 -10.4509
# 5 -13.7246 -19.0078 -15.9680 3.7240 42.2485 4.7654
# 6 16.9910 -3.6849 15.4535 -10.4509 4.7654 54.1677
#
#
#
# Elastic Compliance Matrix: (Units=1/GPa)
#
#
# Indices 1 2 3 4 5 6 
#
# 1 0.008029 -0.003237 -0.001557 -0.003998 0.001274 -0.003178
# 2 -0.003237 0.008770 -0.002488 0.008503 0.000765 0.003895
# 3 -0.001557 -0.002488 0.015445 0.000006 0.004720 -0.004501
# 4 -0.003998 0.008503 0.000006 0.044981 -0.002647 0.010742
# 5 0.001274 0.000765 0.004720 -0.002647 0.026961 -0.004577
# 6 -0.003178 0.003895 -0.004501 0.010742 -0.004577 0.023482
#
#
# Mechanical properties :
#
#
# Convention : Reuss Voigt Hill
#
# Bulk Modulus (GPa) = 56.55913 80.72445 68.64179
# Shear Modulus (GPa) = 33.75502 44.40286 39.07894
#
# Velocity S-wave (km/s) = 3.90162 4.47488 4.19805
# Velocity P-wave (km/s) = 6.76783 7.94380 7.37928
#
# Compressibility (1/GPa) = 0.01768061
#
# Stress axis : x y z
#
# Youngs Moduli (GPa) = 124.55477 114.01927 64.74421
#
# Poissons Ratio (x) = 0.36911 0.10080
# Poissons Ratio (y) = 0.40322 0.16106
# Poissons Ratio (z) = 0.19393 0.28364
#
# Static dielectric constant tensor:
#      x y z
#    x 4.549280 -0.884460 0.276190 
#    y -0.884460 6.933390 -1.368320 
#    z 0.276190 -1.368320 4.557800 
# 
# 
# High freq. dielectric constant tensor:
#      x y z
#    x 1.888260 -0.007910 -0.007810 
#    y -0.007910 1.899740 -0.012370 
#    z -0.007810 -0.012370 1.847970 
# 
# From -- ./inp_files/343672.got.cif
#   From: 2010.06.25/outbox.cif.g09.slc.cpg/sg2_172_cif.got.tgz:343672.got - 2010.06.27 13:26:56.
