data_PCOD8025763
_publ_section_title
;
Structure prediction by ZEFSAII (Michael W. Deem and Ramdas Pophale) SiO2 
 PCOD8025763
Probable space group: P -1
;
_chemical_formula_sum "Si O2"
_cell_formula_units_Z 16
_cell_length_a 15.742568
_cell_length_b 10.907601
_cell_length_c 9.695114
_cell_angle_alpha 97.342934
_cell_angle_beta 57.685183
_cell_angle_gamma 140.119697
_cell_volume 769.910725
_symmetry_space_group_name_H-M "P -1"
_symmetry_group_IT_number 2
_symmetry_cell_setting 'triclinic'
loop_
_space_group_symop_operation_xyz
x,y,z
-x,-y,-z
loop_
_atom_site_type_symbol
_atom_site_label
_atom_site_fract_x
_atom_site_fract_y
_atom_site_fract_z
Si Si1 0.241772 0.452934 0.288022
Si Si2 0.569346 0.962201 0.338451
Si Si3 0.060145 0.226386 0.129148
Si Si4 0.951550 0.369619 0.153462
Si Si5 0.747988 0.752778 0.243037
Si Si6 0.019810 0.612998 0.373996
Si Si7 0.391741 0.521572 0.428058
Si Si8 0.423860 0.032431 0.982120
O O1 0.125929 0.280176 0.237185
O O2 0.107776 0.402406 0.485386
O O3 0.302210 0.407067 0.337370
O O4 0.427072 0.705243 0.103792
O O5 0.758485 0.107146 0.256301
O O6 0.500000 0.000000 0.500000
O O7 0.430845 0.707223 0.426000
O O8 0.600321 0.038870 0.164652
O O9 0.090215 0.399098 0.075199
O O10 0.159539 0.221948 0.958904
O O11 0.848351 0.974178 0.255185
O O12 0.932963 0.448917 0.301465
O O13 0.000000 0.500000 0.000000
O O14 0.561107 0.605222 0.316180
O O15 0.741778 0.645027 0.354485
O O16 0.000000 0.500000 0.500000
O O17 0.227351 0.869402 0.194539
O O18 0.500000 0.000000 0.000000
#
# Coordination Sequence:
#
# PCOD8025763 Si02
#       8
#     2   2   2   2   2   2   2   2
#     4  11  25  43  67 100 134 175 224 275 339 406
#     4  11  24  38  65  99 131 172 222 274 336 407
#     4  11  24  45  67  97 129 176 226 273 335 399
#     4  12  23  39  65  98 134 173 218 267 338 404
#     4  10  24  46  70  89 130 175 226 284 324 391
#     4  12  23  41  63  98 145 178 211 271 342 414
#     4  10  23  46  66  95 131 170 225 283 333 391
#     4  11  22  40  59  93 143 179 210 267 335 404
#
# _framework density 20.781631000000001
#
# number of rings (size 3 to 8) (size 9 to 14) (size 15 to 20)
#    0.000    1.000    5.000    1.500    3.500    1.000 
#    6.750    0.000    0.000    0.000    0.000    0.000 
#    0.000    0.000    0.000    0.000    0.000    0.000 
#
# Total GULP energy -198274.850086 kJ/mol
# GULP energy per Si atom -12392.178130 kJ/mol
# Density = 2.073433 g / cm^3
# Si number density = 20.781631 Si / 1000 Ang^3
#
#
#
# Elastic Constant Matrix: (Units=GPa)
#
#
# Indices 1 2 3 4 5 6 
#
# 1 134.1575 40.7307 46.4079 12.8036 28.8683 14.7372
# 2 40.7307 86.7343 50.9305 23.6468 1.7370 15.0480
# 3 46.4079 50.9305 113.5908 6.1408 18.6677 5.1935
# 4 12.8036 23.6468 6.1408 38.3053 10.5627 7.0242
# 5 28.8683 1.7370 18.6677 10.5627 30.3945 1.6272
# 6 14.7372 15.0480 5.1935 7.0242 1.6272 32.3046
#
#
#
# Elastic Compliance Matrix: (Units=1/GPa)
#
#
# Indices 1 2 3 4 5 6 
#
# 1 0.011739 -0.005285 -0.000586 0.003112 -0.011414 -0.002901
# 2 -0.005285 0.024927 -0.010535 -0.015342 0.015663 -0.004960
# 3 -0.000586 -0.010535 0.015050 0.006872 -0.010569 0.001793
# 4 0.003112 -0.015342 0.006872 0.039452 -0.019852 -0.002956
# 5 -0.011414 0.015663 -0.010569 -0.019852 0.056178 0.001097
# 6 -0.002901 -0.004960 0.001793 -0.002956 0.001097 0.034888
#
#
# Mechanical properties :
#
#
# Convention : Reuss Voigt Hill
#
# Bulk Modulus (GPa) = 52.90073 67.84678 60.37375
# Shear Modulus (GPa) = 22.58886 33.29510 27.94198
#
# Velocity S-wave (km/s) = 3.30049 4.00702 3.67079
# Velocity P-wave (km/s) = 6.32733 7.35708 6.86155
#
# Compressibility (1/GPa) = 0.01890333
#
# Stress axis : x y z
#
# Youngs Moduli (GPa) = 85.18669 40.11661 66.44464
#
# Poissons Ratio (x) = 0.21202 0.03895
# Poissons Ratio (y) = 0.45021 0.70001
# Poissons Ratio (z) = 0.04994 0.42264
#
# Static dielectric constant tensor:
#      x y z
#    x 3.212770 0.000520 0.634460 
#    y 0.000520 3.876970 0.008260 
#    z 0.634460 0.008260 3.583730 
# 
# 
# High freq. dielectric constant tensor:
#      x y z
#    x 1.823890 0.021420 0.010880 
#    y 0.021420 1.813580 -0.003570 
#    z 0.010880 -0.003570 1.813830 
# 
# From -- ./inp_files/305363.got.cif
#   From: 2010.06.25/outbox.cif.g09.slc.cpg/sg2_153_cif.got.tgz:305363.got - 2010.06.27 13:26:56.
