data_PCOD8025421
_publ_section_title
;
Structure prediction by ZEFSAII (Michael W. Deem and Ramdas Pophale) SiO2 
 PCOD8025421
Probable space group: P -1
;
_chemical_formula_sum "Si O2"
_cell_formula_units_Z 16
_cell_length_a 12.147347
_cell_length_b 8.604564
_cell_length_c 9.404001
_cell_angle_alpha 66.126816
_cell_angle_beta 66.846886
_cell_angle_gamma 104.767060
_cell_volume 719.300638
_symmetry_space_group_name_H-M "P -1"
_symmetry_group_IT_number 2
_symmetry_cell_setting 'triclinic'
loop_
_space_group_symop_operation_xyz
x,y,z
-x,-y,-z
loop_
_atom_site_type_symbol
_atom_site_label
_atom_site_fract_x
_atom_site_fract_y
_atom_site_fract_z
Si Si1 0.909341 0.925593 0.266073
Si Si2 0.538991 0.843308 0.094087
Si Si3 0.654316 0.203636 0.553406
Si Si4 0.616525 0.395780 0.244143
Si Si5 0.205629 0.159369 0.950236
Si Si6 0.335604 0.524064 0.129188
Si Si7 0.869989 0.513877 0.518763
Si Si8 0.325728 0.163464 0.378033
O O1 0.846709 0.933118 0.143479
O O2 0.907899 0.723188 0.361165
O O3 0.816845 0.954764 0.420008
O O4 0.068399 0.098161 0.137037
O O5 0.466350 0.778775 0.309580
O O6 0.702763 0.930046 0.997300
O O7 0.483037 0.662484 0.078450
O O8 0.500000 0.000000 0.000000
O O9 0.650139 0.250557 0.371803
O O10 0.799107 0.359029 0.487059
O O11 0.638448 0.989132 0.659376
O O12 0.695391 0.608259 0.196917
O O13 0.451370 0.307495 0.364315
O O14 0.667585 0.402116 0.054619
O O15 0.221982 0.539991 0.273509
O O16 0.310113 0.302803 0.217697
O O17 0.000000 0.500000 0.500000
#
# Coordination Sequence:
#
# PCOD8025421 Si02
#       8
#     2   2   2   2   2   2   2   2
#     4  10  24  45  66  99 132 186 221 277 343 401
#     4  11  24  42  70 103 133 178 227 281 335 397
#     4  11  25  42  70 102 134 176 230 278 343 393
#     4  12  23  42  70 103 134 176 223 288 335 398
#     4  11  24  42  70  98 139 175 230 277 339 408
#     4  10  24  41  68  99 134 174 226 275 344 391
#     4  10  23  45  66  95 135 182 226 278 332 411
#     4  11  23  43  69  98 138 173 226 277 339 403
#
# _framework density 22.243827
#
# number of rings (size 3 to 8) (size 9 to 14) (size 15 to 20)
#    0.000    1.250    2.500    2.250    5.250    3.000 
#    2.250    3.750    0.000    0.000    0.000    0.000 
#    0.000    0.000    0.000    0.000    0.000    0.000 
#
# Total GULP energy -198426.520828 kJ/mol
# GULP energy per Si atom -12401.657552 kJ/mol
# Density = 2.219320 g / cm^3
# Si number density = 22.243827 Si / 1000 Ang^3
#
#
#
# Elastic Constant Matrix: (Units=GPa)
#
#
# Indices 1 2 3 4 5 6 
#
# 1 134.6806 15.8623 40.8710 3.6468 -4.0314 10.7739
# 2 15.8623 71.6672 11.2774 -2.3619 3.5045 -1.5114
# 3 40.8710 11.2774 103.6960 9.8116 6.6668 5.9151
# 4 3.6468 -2.3619 9.8116 33.3949 6.2236 0.3096
# 5 -4.0314 3.5045 6.6668 6.2236 44.7034 -6.8814
# 6 10.7739 -1.5114 5.9151 0.3096 -6.8814 29.1052
#
#
#
# Elastic Compliance Matrix: (Units=1/GPa)
#
#
# Indices 1 2 3 4 5 6 
#
# 1 0.008817 -0.001561 -0.003206 -0.000307 0.001063 -0.002439
# 2 -0.001561 0.014619 -0.001138 0.001744 -0.001164 0.001274
# 3 -0.003206 -0.001138 0.011498 -0.002763 -0.001776 -0.001600
# 4 -0.000307 0.001744 -0.002763 0.031712 -0.004256 -0.000578
# 5 0.001063 -0.001164 -0.001776 -0.004256 0.024291 0.005696
# 6 -0.002439 0.001274 -0.001600 -0.000578 0.005696 0.037005
#
#
# Mechanical properties :
#
#
# Convention : Reuss Voigt Hill
#
# Bulk Modulus (GPa) = 43.24153 49.56280 46.40216
# Shear Modulus (GPa) = 33.90817 37.57624 35.74220
#
# Velocity S-wave (km/s) = 3.90857 4.11455 4.01289
# Velocity P-wave (km/s) = 6.31279 6.70095 6.50976
#
# Compressibility (1/GPa) = 0.02312592
#
# Stress axis : x y z
#
# Youngs Moduli (GPa) = 113.42056 68.40389 86.97493
#
# Poissons Ratio (x) = 0.10675 0.27880
# Poissons Ratio (y) = 0.17700 0.09895
# Poissons Ratio (z) = 0.36357 0.07782
#
# Static dielectric constant tensor:
#      x y z
#    x 3.988550 0.126290 -0.095480 
#    y 0.126290 3.830410 -0.151110 
#    z -0.095480 -0.151110 4.248080 
# 
# 
# High freq. dielectric constant tensor:
#      x y z
#    x 1.875660 0.003520 0.001470 
#    y 0.003520 1.866500 -0.005380 
#    z 0.001470 -0.005380 1.886580 
# 
# From -- ./inp_files/242949.got.cif
#   From: 2010.06.25/outbox.cif.g09.slc.cpg/sg2_122_cif.got.tgz:242949.got - 2010.06.27 13:26:56.
