data_PCOD8025910
_publ_section_title
;
Structure prediction by ZEFSAII (Michael W. Deem and Ramdas Pophale) SiO2 
 PCOD8025910
Probable space group: P -1
;
_chemical_formula_sum "Si O2"
_cell_formula_units_Z 16
_cell_length_a 5.181166
_cell_length_b 11.670276
_cell_length_c 11.534387
_cell_angle_alpha 108.352747
_cell_angle_beta 68.832681
_cell_angle_gamma 99.712590
_cell_volume 616.103902
_symmetry_space_group_name_H-M "P -1"
_symmetry_group_IT_number 2
_symmetry_cell_setting 'triclinic'
loop_
_space_group_symop_operation_xyz
x,y,z
-x,-y,-z
loop_
_atom_site_type_symbol
_atom_site_label
_atom_site_fract_x
_atom_site_fract_y
_atom_site_fract_z
Si Si1 0.535316 0.142899 0.514448
Si Si2 0.585262 0.023867 0.863743
Si Si3 0.890084 0.109729 0.244059
Si Si4 0.646052 0.296743 0.952431
Si Si5 0.960033 0.677769 0.882462
Si Si6 0.303269 0.648409 0.289462
Si Si7 0.245334 0.325079 0.491315
Si Si8 0.571889 0.468455 0.318474
O O1 0.814978 0.171578 0.399383
O O2 0.543488 0.220894 0.656804
O O3 0.285180 0.188995 0.488642
O O4 0.500000 0.000000 0.500000
O O5 0.552825 0.162278 0.885722
O O6 0.394594 0.947552 0.780382
O O7 0.903012 0.991958 0.788846
O O8 0.500000 0.000000 0.000000
O O9 0.031424 0.202415 0.159088
O O10 0.786231 0.354290 0.831745
O O11 0.871336 0.299675 0.018159
O O12 0.362666 0.359987 0.053187
O O13 0.113111 0.572772 0.756570
O O14 0.482516 0.529740 0.232053
O O15 0.052970 0.631596 0.415931
O O16 0.355109 0.351898 0.349405
O O17 0.461050 0.418609 0.553893
#
# Coordination Sequence:
#
# PCOD8025910 Si02
#       8
#     2   2   2   2   2   2   2   2
#     4  11  26  44  70 108 144 182 235 302 361 428
#     4  12  23  43  67 100 146 186 233 285 358 429
#     4  12  24  43  71 104 139 187 242 294 352 426
#     4  12  28  44  71 103 147 191 238 294 359 436
#     4  12  25  45  71 106 140 186 249 294 350 427
#     4  11  27  46  71 101 144 196 232 297 372 422
#     4  10  23  46  73 100 140 185 242 293 371 421
#     4  10  24  46  71 103 137 186 245 306 350 425
#
# _framework density 25.969645
#
# number of rings (size 3 to 8) (size 9 to 14) (size 15 to 20)
#    0.000    0.750    3.750    2.250    8.750    2.500 
#    0.000    0.000    0.000    0.000    0.000    0.000 
#    0.000    0.000    0.000    0.000    0.000    0.000 
#
# Total GULP energy -198302.858653 kJ/mol
# GULP energy per Si atom -12393.928666 kJ/mol
# Density = 2.591054 g / cm^3
# Si number density = 25.969645 Si / 1000 Ang^3
#
#
#
# Elastic Constant Matrix: (Units=GPa)
#
#
# Indices 1 2 3 4 5 6 
#
# 1 87.0292 19.0308 19.2422 4.7751 -13.3395 -16.1003
# 2 19.0308 124.9402 23.1587 0.4216 3.2479 -23.0878
# 3 19.2422 23.1587 104.2683 -0.2789 -5.8141 -8.1685
# 4 4.7751 0.4216 -0.2789 37.2091 -8.1028 -6.0142
# 5 -13.3395 3.2479 -5.8141 -8.1028 44.0197 8.5940
# 6 -16.1003 -23.0878 -8.1685 -6.0142 8.5940 28.2247
#
#
#
# Elastic Compliance Matrix: (Units=1/GPa)
#
#
# Indices 1 2 3 4 5 6 
#
# 1 0.013531 -0.000757 -0.001728 -0.000214 0.002774 0.005709
# 2 -0.000757 0.010005 -0.001582 0.000729 -0.002655 0.008258
# 3 -0.001728 -0.001582 0.010360 0.000618 0.000967 0.000556
# 4 -0.000214 0.000729 0.000618 0.028696 0.004172 0.005497
# 5 0.002774 -0.002655 0.000967 0.004172 0.026087 -0.007363
# 6 0.005709 0.008258 0.000556 0.005497 -0.007363 0.049016
#
#
# Mechanical properties :
#
#
# Convention : Reuss Voigt Hill
#
# Bulk Modulus (GPa) = 38.81531 48.78901 43.80216
# Shear Modulus (GPa) = 32.38035 38.87777 35.62906
#
# Velocity S-wave (km/s) = 3.53491 3.87337 3.70800
# Velocity P-wave (km/s) = 5.62492 6.23151 5.93596
#
# Compressibility (1/GPa) = 0.02576303
#
# Stress axis : x y z
#
# Youngs Moduli (GPa) = 73.90424 99.95153 96.52637
#
# Poissons Ratio (x) = 0.07569 0.16675
# Poissons Ratio (y) = 0.05597 0.15266
# Poissons Ratio (z) = 0.12767 0.15808
#
# Static dielectric constant tensor:
#      x y z
#    x 4.559830 -0.499140 0.113420 
#    y -0.499140 4.816820 -0.041240 
#    z 0.113420 -0.041240 4.859090 
# 
# 
# High freq. dielectric constant tensor:
#      x y z
#    x 2.033760 -0.015150 0.005040 
#    y -0.015150 2.045920 0.007450 
#    z 0.005040 0.007450 2.047140 
# 
# From -- ./inp_files/81659.got.cif
#   From: 2010.06.25/outbox.cif.g09.slc.cpg/sg2_41_cif.got.tgz:81659.got - 2010.06.27 13:26:56.
