data_PCOD8025894
_publ_section_title
;
Structure prediction by ZEFSAII (Michael W. Deem and Ramdas Pophale) SiO2 
 PCOD8025894
Probable space group: P -1
;
_chemical_formula_sum "Si O2"
_cell_formula_units_Z 16
_cell_length_a 15.356029
_cell_length_b 9.060744
_cell_length_c 15.713480
_cell_angle_alpha 112.968535
_cell_angle_beta 151.962440
_cell_angle_gamma 86.329222
_cell_volume 720.742986
_symmetry_space_group_name_H-M "P -1"
_symmetry_group_IT_number 2
_symmetry_cell_setting 'triclinic'
loop_
_space_group_symop_operation_xyz
x,y,z
-x,-y,-z
loop_
_atom_site_type_symbol
_atom_site_label
_atom_site_fract_x
_atom_site_fract_y
_atom_site_fract_z
Si Si1 0.186191 0.511371 0.357082
Si Si2 0.408796 0.130605 0.541773
Si Si3 0.026149 0.938025 0.914892
Si Si4 0.242218 0.309475 0.771932
Si Si5 0.797050 0.544506 0.052283
Si Si6 0.729417 0.306340 0.694178
Si Si7 0.670028 0.790077 0.912796
Si Si8 0.732592 0.008615 0.188405
O O1 0.985765 0.259039 0.126706
O O2 0.327869 0.599361 0.408814
O O3 0.378958 0.599036 0.618853
O O4 0.054361 0.606985 0.273079
O O5 0.182343 0.122017 0.342196
O O6 0.542715 0.232227 0.590995
O O7 0.313009 0.898304 0.421799
O O8 0.583127 0.291988 0.803041
O O9 0.000000 0.000000 0.000000
O O10 0.265051 0.110412 0.104041
O O11 0.205614 0.390924 0.842125
O O12 0.010334 0.229236 0.493624
O O13 0.275588 0.140138 0.783945
O O14 0.500000 0.500000 0.000000
O O15 0.786226 0.681665 0.005259
O O16 0.000000 0.500000 0.000000
O O17 0.730055 0.949643 0.075032
O O18 0.500000 0.000000 0.000000
#
# Coordination Sequence:
#
# PCOD8025894 Si02
#       8
#     2   2   2   2   2   2   2   2
#     4  12  25  42  66  96 132 175 227 270 330 390
#     4  11  24  41  65  92 132 174 223 272 331 389
#     4  12  27  41  63  99 134 177 228 271 329 394
#     4  10  24  44  71 102 135 173 220 279 342 408
#     4  11  24  45  66  99 135 173 221 275 333 400
#     4  11  23  41  65  94 128 177 225 275 326 386
#     4  11  26  45  67  99 138 176 219 278 331 398
#     4  10  23  46  72 102 136 175 223 277 344 407
#
# _framework density 22.199314999999999
#
# number of rings (size 3 to 8) (size 9 to 14) (size 15 to 20)
#    0.000    1.000    2.500    3.000    7.000    2.500 
#    2.250    0.000    0.000    0.000    0.000    0.000 
#    0.000    0.000    0.000    0.000    0.000    0.000 
#
# Total GULP energy -198266.523441 kJ/mol
# GULP energy per Si atom -12391.657715 kJ/mol
# Density = 2.214879 g / cm^3
# Si number density = 22.199315 Si / 1000 Ang^3
#
#
#
# Elastic Constant Matrix: (Units=GPa)
#
#
# Indices 1 2 3 4 5 6 
#
# 1 80.4839 43.4713 48.2636 6.6410 -9.1769 -3.3662
# 2 43.4713 107.0878 45.9909 9.6706 -1.0115 -7.9957
# 3 48.2636 45.9909 145.2608 1.4228 -0.8417 -8.6968
# 4 6.6410 9.6706 1.4228 42.0072 -4.3756 6.8945
# 5 -9.1769 -1.0115 -0.8417 -4.3756 36.4115 0.7536
# 6 -3.3662 -7.9957 -8.6968 6.8945 0.7536 36.7034
#
#
#
# Elastic Compliance Matrix: (Units=1/GPa)
#
#
# Indices 1 2 3 4 5 6 
#
# 1 0.018643 -0.005573 -0.004422 -0.000989 0.004332 -0.000455
# 2 -0.005573 0.012878 -0.002071 -0.002544 -0.001448 0.002311
# 3 -0.004422 -0.002071 0.009070 0.000576 -0.000918 0.001203
# 4 -0.000989 -0.002544 0.000576 0.025715 0.002895 -0.005398
# 5 0.004332 -0.001448 -0.000918 0.002895 0.028869 -0.001272
# 6 -0.000455 0.002311 0.001203 -0.005398 -0.001272 0.029032
#
#
# Mechanical properties :
#
#
# Convention : Reuss Voigt Hill
#
# Bulk Modulus (GPa) = 60.75370 67.58712 64.17041
# Shear Modulus (GPa) = 32.50407 36.03153 34.26780
#
# Velocity S-wave (km/s) = 3.83063 4.03313 3.93318
# Velocity P-wave (km/s) = 6.85505 7.22495 7.04243
#
# Compressibility (1/GPa) = 0.01645990
#
# Stress axis : x y z
#
# Youngs Moduli (GPa) = 53.63879 77.65005 110.24970
#
# Poissons Ratio (x) = 0.43271 0.48757
# Poissons Ratio (y) = 0.29890 0.22833
# Poissons Ratio (z) = 0.23722 0.16081
#
# Static dielectric constant tensor:
#      x y z
#    x 3.486110 -0.510410 -0.566780 
#    y -0.510410 3.592530 -0.651620 
#    z -0.566780 -0.651620 3.393030 
# 
# 
# High freq. dielectric constant tensor:
#      x y z
#    x 1.864820 -0.003740 0.001230 
#    y -0.003740 1.873830 0.000460 
#    z 0.001230 0.000460 1.898530 
# 
# From -- ./inp_files/314919.got.cif
#   From: 2010.06.25/outbox.cif.g09.slc.cpg/sg2_158_cif.got.tgz:314919.got - 2010.06.27 13:26:56.
