data_PCOD8025411
_publ_section_title
;
Structure prediction by ZEFSAII (Michael W. Deem and Ramdas Pophale) SiO2 
 PCOD8025411
Probable space group: P -1
;
_chemical_formula_sum "Si O2"
_cell_formula_units_Z 16
_cell_length_a 9.012265
_cell_length_b 11.645391
_cell_length_c 11.489841
_cell_angle_alpha 129.687658
_cell_angle_beta 92.148025
_cell_angle_gamma 59.598393
_cell_volume 722.432000
_symmetry_space_group_name_H-M "P -1"
_symmetry_group_IT_number 2
_symmetry_cell_setting 'triclinic'
loop_
_space_group_symop_operation_xyz
x,y,z
-x,-y,-z
loop_
_atom_site_type_symbol
_atom_site_label
_atom_site_fract_x
_atom_site_fract_y
_atom_site_fract_z
Si Si1 0.578275 0.484592 0.621852
Si Si2 0.933420 0.207196 0.604809
Si Si3 0.664825 0.025793 0.785782
Si Si4 0.263622 0.532085 0.781180
Si Si5 0.284411 0.683799 0.105792
Si Si6 0.302325 0.170604 0.553325
Si Si7 0.397955 0.212727 0.093962
Si Si8 0.059226 0.335625 0.301926
O O1 0.500000 0.500000 0.500000
O O2 0.803046 0.309728 0.548657
O O3 0.470423 0.452634 0.692978
O O4 0.526241 0.690671 0.772260
O O5 0.812972 0.329644 0.793998
O O6 0.118302 0.193782 0.600044
O O7 0.000000 0.000000 0.500000
O O8 0.733658 0.123778 0.774225
O O9 0.659540 0.878318 0.614147
O O10 0.821809 0.881733 0.791920
O O11 0.458181 0.192117 0.946343
O O12 0.269894 0.359185 0.712458
O O13 0.126067 0.629339 0.729459
O O14 0.191153 0.678344 0.981039
O O15 0.500000 0.500000 0.000000
O O16 0.500000 0.000000 0.500000
O O17 0.172448 0.342514 0.200953
O O18 0.500000 0.000000 0.000000
O O19 0.000000 0.500000 0.500000
#
# Coordination Sequence:
#
# PCOD8025411 Si02
#       8
#     2   2   2   2   2   2   2   2
#     4  12  26  44  74 106 142 184 240 292 357 428
#     4  12  26  49  75 104 144 193 236 297 364 422
#     4  11  23  45  70  95 146 187 227 299 355 416
#     4  12  25  42  71 106 138 184 235 294 355 424
#     4  12  24  47  70 101 145 185 235 297 351 426
#     4  12  26  44  71 103 139 186 244 290 354 429
#     4  10  23  45  66 100 140 190 228 290 360 418
#     4  11  23  43  70 103 144 182 238 294 356 420
#
# _framework density 22.147414000000001
#
# number of rings (size 3 to 8) (size 9 to 14) (size 15 to 20)
#    0.000    0.500    5.000    3.000    3.500    2.000 
#    4.500    0.000    0.000    0.000    0.000    0.000 
#    0.000    0.000    0.000    0.000    0.000    0.000 
#
# Total GULP energy -198245.401705 kJ/mol
# GULP energy per Si atom -12390.337607 kJ/mol
# Density = 2.209701 g / cm^3
# Si number density = 22.147414 Si / 1000 Ang^3
#
#
#
# Elastic Constant Matrix: (Units=GPa)
#
#
# Indices 1 2 3 4 5 6 
#
# 1 134.0809 39.2014 35.1312 5.9865 -11.1401 -0.2344
# 2 39.2014 109.9294 20.1446 12.0386 0.3045 -11.4433
# 3 35.1312 20.1446 108.4642 -5.4882 -3.6489 2.4724
# 4 5.9865 12.0386 -5.4882 42.4638 5.6366 4.7478
# 5 -11.1401 0.3045 -3.6489 5.6366 46.4491 2.8061
# 6 -0.2344 -11.4433 2.4724 4.7478 2.8061 40.6117
#
#
#
# Elastic Compliance Matrix: (Units=1/GPa)
#
#
# Indices 1 2 3 4 5 6 
#
# 1 0.009124 -0.002769 -0.002406 -0.001033 0.002180 -0.000611
# 2 -0.002769 0.011081 -0.001431 -0.003251 -0.000673 0.003620
# 3 -0.002406 -0.001431 0.010409 0.002229 0.000059 -0.001315
# 4 -0.001033 -0.003251 0.002229 0.025727 -0.002940 -0.003862
# 5 0.002180 -0.000673 0.000059 -0.002940 0.022502 -0.001392
# 6 -0.000611 0.003620 -0.001315 -0.003862 -0.001392 0.026268
#
#
# Mechanical properties :
#
#
# Convention : Reuss Voigt Hill
#
# Bulk Modulus (GPa) = 57.46218 60.15876 58.81047
# Shear Modulus (GPa) = 40.28188 43.10474 41.69331
#
# Velocity S-wave (km/s) = 4.26937 4.41644 4.34353
# Velocity P-wave (km/s) = 7.09261 7.29578 7.19491
#
# Compressibility (1/GPa) = 0.01740275
#
# Stress axis : x y z
#
# Youngs Moduli (GPa) = 109.59533 90.24192 96.06655
#
# Poissons Ratio (x) = 0.24992 0.23114
# Poissons Ratio (y) = 0.30352 0.13745
# Poissons Ratio (z) = 0.26369 0.12912
#
# Static dielectric constant tensor:
#      x y z
#    x 4.315360 0.164080 -0.186030 
#    y 0.164080 3.926520 -0.089350 
#    z -0.186030 -0.089350 4.515150 
# 
# 
# High freq. dielectric constant tensor:
#      x y z
#    x 1.876220 0.009690 -0.004970 
#    y 0.009690 1.872930 0.005310 
#    z -0.004970 0.005310 1.885480 
# 
# From -- ./inp_files/207600.got.cif
#   From: 2010.06.25/outbox.cif.g09.slc.cpg/sg2_104_cif.got.tgz:207600.got - 2010.06.27 13:26:56.
