data_PCOD8025707
_publ_section_title
;
Structure prediction by ZEFSAII (Michael W. Deem and Ramdas Pophale) SiO2 
 PCOD8025707
Probable space group: P -1
;
_chemical_formula_sum "Si O2"
_cell_formula_units_Z 14
_cell_length_a 13.919319
_cell_length_b 11.639798
_cell_length_c 9.923860
_cell_angle_alpha 49.442091
_cell_angle_beta 117.187274
_cell_angle_gamma 148.442011
_cell_volume 619.938214
_symmetry_space_group_name_H-M "P -1"
_symmetry_group_IT_number 2
_symmetry_cell_setting 'triclinic'
loop_
_space_group_symop_operation_xyz
x,y,z
-x,-y,-z
loop_
_atom_site_type_symbol
_atom_site_label
_atom_site_fract_x
_atom_site_fract_y
_atom_site_fract_z
Si Si1 0.173796 0.375594 0.468089
Si Si2 0.720286 0.373742 0.150349
Si Si3 0.982912 0.655820 0.860790
Si Si4 0.578815 0.759948 0.848393
Si Si5 0.994753 0.828204 0.189848
Si Si6 0.711625 0.793307 0.436009
Si Si7 0.424205 0.127769 0.528154
O O1 0.084296 0.395793 0.296922
O O2 0.161014 0.209389 0.494053
O O3 0.389259 0.664578 0.418900
O O4 0.052875 0.218993 0.646482
O O5 0.531088 0.259807 0.100231
O O6 0.839484 0.551324 0.224440
O O7 0.681043 0.150957 0.305961
O O8 0.834654 0.546982 0.957420
O O9 0.187951 0.970773 0.781566
O O10 0.000000 0.500000 0.000000
O O11 0.519983 0.777259 0.660806
O O12 0.802587 0.019543 0.818274
O O13 0.500000 0.500000 0.000000
O O14 0.000000 0.000000 0.000000
O O15 0.500000 0.500000 0.500000
O O16 0.710028 0.883274 0.508029
#
# Coordination Sequence:
#
# PCOD8025707 Si02
#       7
#     2   2   2   2   2   2   2
#     4  11  25  46  78 104 152 197 252 308 371 452
#     4  12  27  48  74 109 158 188 250 312 376 451
#     4  12  26  48  74 114 151 196 252 311 379 446
#     4  12  26  45  77 107 149 194 249 313 372 443
#     4  12  25  48  78 112 143 194 257 306 376 450
#     4  10  23  45  74 103 145 196 245 305 370 441
#     4  11  24  49  71 111 147 195 251 310 377 440
#
# _framework density 22.582896000000002
#
# number of rings (size 3 to 8) (size 9 to 14) (size 15 to 20)
#    0.000    0.571    4.286    2.571    2.000    3.429 
#    5.143    0.000    0.000    0.000    0.000    0.000 
#    0.000    0.000    0.000    0.000    0.000    0.000 
#
# Total GULP energy -173494.272284 kJ/mol
# GULP energy per Si atom -12392.448020 kJ/mol
# Density = 2.253150 g / cm^3
# Si number density = 22.582896 Si / 1000 Ang^3
#
#
#
# Elastic Constant Matrix: (Units=GPa)
#
#
# Indices 1 2 3 4 5 6 
#
# 1 141.4243 59.6013 51.7454 -1.3183 -16.2993 9.8702
# 2 59.6013 137.9328 57.2698 -17.5619 8.1689 9.4507
# 3 51.7454 57.2698 156.4576 -9.6024 -5.3182 4.3780
# 4 -1.3183 -17.5619 -9.6024 41.0776 1.2788 4.7073
# 5 -16.2993 8.1689 -5.3182 1.2788 43.9216 -11.2626
# 6 9.8702 9.4507 4.3780 4.7073 -11.2626 33.2681
#
#
#
# Elastic Compliance Matrix: (Units=1/GPa)
#
#
# Indices 1 2 3 4 5 6 
#
# 1 0.009897 -0.004066 -0.001765 -0.001991 0.004324 0.000197
# 2 -0.004066 0.011237 -0.002540 0.004701 -0.005078 -0.004036
# 3 -0.001765 -0.002540 0.007963 0.000646 0.000865 0.000399
# 4 -0.001991 0.004701 0.000646 0.027248 -0.003865 -0.005994
# 5 0.004324 -0.005078 0.000865 -0.003865 0.028128 0.010115
# 6 0.000197 -0.004036 0.000399 -0.005994 0.010115 0.035367
#
#
# Mechanical properties :
#
#
# Convention : Reuss Voigt Hill
#
# Bulk Modulus (GPa) = 80.94523 85.89421 83.41972
# Shear Modulus (GPa) = 35.53644 41.46669 38.50156
#
# Velocity S-wave (km/s) = 3.97117 4.28974 4.13352
# Velocity P-wave (km/s) = 7.54641 7.91539 7.73310
#
# Compressibility (1/GPa) = 0.01235403
#
# Stress axis : x y z
#
# Youngs Moduli (GPa) = 101.04507 88.98990 125.58270
#
# Poissons Ratio (x) = 0.36186 0.22170
# Poissons Ratio (y) = 0.41089 0.31893
# Poissons Ratio (z) = 0.17838 0.22600
#
# Static dielectric constant tensor:
#      x y z
#    x 4.834910 -0.103750 -0.407410 
#    y -0.103750 4.326590 -0.163530 
#    z -0.407410 -0.163530 4.224650 
# 
# 
# High freq. dielectric constant tensor:
#      x y z
#    x 1.915860 0.008270 -0.009920 
#    y 0.008270 1.894520 -0.023290 
#    z -0.009920 -0.023290 1.888350 
# 
# From -- ./inp_files/306562.got.cif
#   From: 2010.06.25/outbox.cif.g09.slc.cpg/sg2_154_cif.got.tgz:306562.got - 2010.06.27 13:26:56.
