data_PCOD8025922
_publ_section_title
;
Structure prediction by ZEFSAII (Michael W. Deem and Ramdas Pophale) SiO2 
 PCOD8025922
Probable space group: P -1
;
_chemical_formula_sum "Si O2"
_cell_formula_units_Z 14
_cell_length_a 8.937603
_cell_length_b 20.215804
_cell_length_c 11.682451
_cell_angle_alpha 28.798558
_cell_angle_beta 64.428469
_cell_angle_gamma 44.595431
_cell_volume 587.190464
_symmetry_space_group_name_H-M "P -1"
_symmetry_group_IT_number 2
_symmetry_cell_setting 'triclinic'
loop_
_space_group_symop_operation_xyz
x,y,z
-x,-y,-z
loop_
_atom_site_type_symbol
_atom_site_label
_atom_site_fract_x
_atom_site_fract_y
_atom_site_fract_z
Si Si1 0.607654 0.287747 0.896713
Si Si2 0.214553 0.538639 0.110052
Si Si3 0.657414 0.013680 0.150134
Si Si4 0.648926 0.954730 0.632915
Si Si5 0.323857 0.247504 0.705119
Si Si6 0.575994 0.305246 0.132825
Si Si7 0.100973 0.662000 0.362424
O O1 0.385323 0.448787 0.633728
O O2 0.854786 0.233046 0.891225
O O3 0.727194 0.064388 0.159583
O O4 0.470548 0.384735 0.917750
O O5 0.342618 0.352936 0.441400
O O6 0.341444 0.440255 0.093272
O O7 0.245920 0.677005 0.927737
O O8 0.911128 0.698802 0.950184
O O9 0.531718 0.955908 0.331783
O O10 0.444639 0.227044 0.814504
O O11 0.916303 0.810495 0.305603
O O12 0.500000 0.000000 0.500000
O O13 0.732184 0.061837 0.446382
O O14 0.025928 0.379326 0.610656
O O15 0.500000 0.000000 0.000000
#
# Coordination Sequence:
#
# PCOD8025922 Si02
#       7
#     2   2   2   2   2   2   2
#     4  11  24  41  68 103 139 183 231 284 354 418
#     4  11  27  49  74 101 146 193 235 298 351 423
#     4  11  24  45  70 102 138 179 233 295 352 405
#     4  12  26  46  73 109 141 188 241 289 354 429
#     4  10  23  46  74 103 136 183 240 290 356 420
#     4  11  26  48  69 106 145 192 239 286 356 427
#     4  10  24  42  65 103 138 181 228 291 348 417
#
# _framework density 23.842348999999999
#
# number of rings (size 3 to 8) (size 9 to 14) (size 15 to 20)
#    0.000    1.143    1.429    3.429    8.000    1.714 
#   10.286    0.000    0.000    0.000    0.000    0.000 
#    0.000    0.000    0.000    0.000    0.000    0.000 
#
# Total GULP energy -173483.621734 kJ/mol
# GULP energy per Si atom -12391.687267 kJ/mol
# Density = 2.378808 g / cm^3
# Si number density = 23.842349 Si / 1000 Ang^3
#
#
#
# Elastic Constant Matrix: (Units=GPa)
#
#
# Indices 1 2 3 4 5 6 
#
# 1 124.3449 60.3544 38.9965 8.8987 -16.9802 8.0030
# 2 60.3544 115.5191 34.9956 20.8783 -4.5129 -0.5693
# 3 38.9965 34.9956 92.5765 14.3451 -9.3982 -5.9828
# 4 8.8987 20.8783 14.3451 36.8318 -8.6492 0.4212
# 5 -16.9802 -4.5129 -9.3982 -8.6492 32.9561 2.8032
# 6 8.0030 -0.5693 -5.9828 0.4212 2.8032 45.6089
#
#
#
# Elastic Compliance Matrix: (Units=1/GPa)
#
#
# Indices 1 2 3 4 5 6 
#
# 1 0.012751 -0.006030 -0.003158 0.002987 0.005892 -0.003117
# 2 -0.006030 0.013356 -0.001818 -0.006253 -0.003545 0.001262
# 3 -0.003158 -0.001818 0.013573 -0.003300 0.000934 0.002285
# 4 0.002987 -0.006253 -0.003300 0.033309 0.008643 -0.001874
# 5 0.005892 -0.003545 0.000934 0.008643 0.035704 -0.003230
# 6 -0.003117 0.001262 0.002285 -0.001874 -0.003230 0.023004
#
#
# Mechanical properties :
#
#
# Convention : Reuss Voigt Hill
#
# Bulk Modulus (GPa) = 56.59983 66.79261 61.69622
# Shear Modulus (GPa) = 31.32884 36.28562 33.80723
#
# Velocity S-wave (km/s) = 3.62885 3.90538 3.76965
# Velocity P-wave (km/s) = 6.43030 6.95781 6.69925
#
# Compressibility (1/GPa) = 0.01766790
#
# Stress axis : x y z
#
# Youngs Moduli (GPa) = 78.42591 74.87423 73.67553
#
# Poissons Ratio (x) = 0.45151 0.23264
# Poissons Ratio (y) = 0.47293 0.13394
# Poissons Ratio (z) = 0.24764 0.13612
#
# Static dielectric constant tensor:
#      x y z
#    x 5.040240 0.074240 -0.116070 
#    y 0.074240 4.223180 0.218290 
#    z -0.116070 0.218290 4.263090 
# 
# 
# High freq. dielectric constant tensor:
#      x y z
#    x 1.957940 0.007880 -0.014040 
#    y 0.007880 1.955570 0.006030 
#    z -0.014040 0.006030 1.937880 
# 
# From -- ./inp_files/405260.got.cif
#   From: 2010.06.25/outbox.cif.g09.slc.cpg/sg2_203_cif.got.tgz:405260.got - 2010.06.27 13:26:56.
