data_PCOD8025470
_publ_section_title
;
Structure prediction by ZEFSAII (Michael W. Deem and Ramdas Pophale) SiO2 
 PCOD8025470
Probable space group: P -1
;
_chemical_formula_sum "Si O2"
_cell_formula_units_Z 14
_cell_length_a 19.449600
_cell_length_b 14.536358
_cell_length_c 8.344093
_cell_angle_alpha 52.732659
_cell_angle_beta 33.606559
_cell_angle_gamma 31.487130
_cell_volume 635.700105
_symmetry_space_group_name_H-M "P -1"
_symmetry_group_IT_number 2
_symmetry_cell_setting 'triclinic'
loop_
_space_group_symop_operation_xyz
x,y,z
-x,-y,-z
loop_
_atom_site_type_symbol
_atom_site_label
_atom_site_fract_x
_atom_site_fract_y
_atom_site_fract_z
Si Si1 0.610329 0.343016 0.583460
Si Si2 0.198231 0.139900 0.718896
Si Si3 0.990830 0.519195 0.808086
Si Si4 0.794657 0.400903 0.726769
Si Si5 0.596951 0.925377 0.065178
Si Si6 0.930946 0.177178 0.387762
Si Si7 0.173535 0.041803 0.527571
O O1 0.500000 0.500000 0.500000
O O2 0.782392 0.284006 0.410616
O O3 0.725387 0.157080 0.462615
O O4 0.439489 0.425479 0.951226
O O5 0.194260 0.076546 0.626711
O O6 0.052332 0.357546 0.768497
O O7 0.425376 0.024014 0.427814
O O8 0.134057 0.098624 0.027423
O O9 0.132618 0.520918 0.479314
O O10 0.762189 0.703362 0.996066
O O11 0.000000 0.500000 0.000000
O O12 0.810442 0.338479 0.583880
O O13 0.934786 0.214857 0.763160
O O14 0.711446 0.964011 0.824552
O O15 0.500000 0.000000 0.000000
O O16 0.000000 0.000000 0.500000
#
# Coordination Sequence:
#
# PCOD8025470 Si02
#       7
#     2   2   2   2   2   2   2
#     4  12  27  44  70  99 131 182 234 269 327 399
#     4  11  24  43  71 100 138 173 222 282 329 401
#     4  11  23  43  68 104 133 170 223 274 342 393
#     4  11  24  47  70  96 140 175 221 284 331 395
#     4   9  22  41  68  97 132 171 216 269 338 391
#     4  12  26  45  68  98 138 183 221 271 338 394
#     4  10  23  45  68 102 134 176 222 279 337 392
#
# _framework density 22.022963000000001
#
# number of rings (size 3 to 8) (size 9 to 14) (size 15 to 20)
#    0.000    1.143    2.857    2.143    2.000   12.571 
#    0.000    0.000    0.000    0.000    0.000    0.000 
#    0.000    0.000    0.000    0.000    0.000    0.000 
#
# Total GULP energy -173585.493085 kJ/mol
# GULP energy per Si atom -12398.963792 kJ/mol
# Density = 2.197284 g / cm^3
# Si number density = 22.022963 Si / 1000 Ang^3
#
#
#
# Elastic Constant Matrix: (Units=GPa)
#
#
# Indices 1 2 3 4 5 6 
#
# 1 84.2846 31.0230 -9.0946 3.8373 14.5012 7.5484
# 2 31.0230 139.5089 24.7821 -2.0334 2.4692 13.9104
# 3 -9.0946 24.7821 88.7136 -2.7043 4.6417 0.4675
# 4 3.8373 -2.0334 -2.7043 31.8085 -0.2558 1.4342
# 5 14.5012 2.4692 4.6417 -0.2558 29.1099 9.3694
# 6 7.5484 13.9104 0.4675 1.4342 9.3694 39.2439
#
#
#
# Elastic Compliance Matrix: (Units=1/GPa)
#
#
# Indices 1 2 3 4 5 6 
#
# 1 0.014952 -0.003770 0.002931 -0.001873 -0.007721 0.000337
# 2 -0.003770 0.008795 -0.002934 0.000924 0.002575 -0.003006
# 3 0.002931 -0.002934 0.012588 0.000448 -0.003590 0.001167
# 4 -0.001873 0.000924 0.000448 0.031842 0.001548 -0.001506
# 5 -0.007721 0.002575 -0.003590 0.001548 0.041582 -0.009369
# 6 0.000337 -0.003006 0.001167 -0.001506 -0.009369 0.028760
#
#
# Mechanical properties :
#
#
# Convention : Reuss Voigt Hill
#
# Bulk Modulus (GPa) = 34.73570 45.10312 39.91941
# Shear Modulus (GPa) = 32.12114 37.75224 34.93669
#
# Velocity S-wave (km/s) = 3.82321 4.14481 3.98725
# Velocity P-wave (km/s) = 5.94104 6.59018 6.27401
#
# Compressibility (1/GPa) = 0.02878882
#
# Stress axis : x y z
#
# Youngs Moduli (GPa) = 66.88136 113.69916 79.44263
#
# Poissons Ratio (x) = 0.42862 -0.23285
# Poissons Ratio (y) = 0.25213 0.23310
# Poissons Ratio (z) = -0.19603 0.33361
#
# Static dielectric constant tensor:
#      x y z
#    x 3.856270 0.020830 -0.220670 
#    y 0.020830 4.064090 0.004230 
#    z -0.220670 0.004230 4.705320 
# 
# 
# High freq. dielectric constant tensor:
#      x y z
#    x 1.862820 0.002600 -0.003210 
#    y 0.002600 1.870910 0.002850 
#    z -0.003210 0.002850 1.881670 
# 
# From -- ./inp_files/60729.got.cif
#   From: 2010.06.25/outbox.cif.g09.slc.cpg/sg2_31_cif.got.tgz:60729.got - 2010.06.27 13:26:56.
