data_PCOD8025132
_publ_section_title
;
Structure prediction by ZEFSAII (Michael W. Deem and Ramdas Pophale) SiO2 
 PCOD8025132
Probable space group: P -1
;
_chemical_formula_sum "Si O2"
_cell_formula_units_Z 16
_cell_length_a 17.979245
_cell_length_b 9.719096
_cell_length_c 10.900581
_cell_angle_alpha 69.114526
_cell_angle_beta 64.356192
_cell_angle_gamma 24.811763
_cell_volume 717.261462
_symmetry_space_group_name_H-M "P -1"
_symmetry_group_IT_number 2
_symmetry_cell_setting 'triclinic'
loop_
_space_group_symop_operation_xyz
x,y,z
-x,-y,-z
loop_
_atom_site_type_symbol
_atom_site_label
_atom_site_fract_x
_atom_site_fract_y
_atom_site_fract_z
Si Si1 0.951441 0.795346 0.249032
Si Si2 0.250019 0.088430 0.222408
Si Si3 0.777198 0.054097 0.041480
Si Si4 0.968498 0.817281 0.754476
Si Si5 0.340935 0.874131 0.493132
Si Si6 0.310455 0.222115 0.536467
Si Si7 0.193809 0.609379 0.282427
Si Si8 0.517471 0.251151 0.062682
O O1 0.065259 0.476574 0.219138
O O2 0.080440 0.728033 0.208723
O O3 0.809214 0.057339 0.156450
O O4 0.844843 0.919065 0.409395
O O5 0.193659 0.011313 0.256315
O O6 0.334557 0.961205 0.337861
O O7 0.396625 0.923912 0.075483
O O8 0.677766 0.052682 0.104814
O O9 0.642020 0.376369 0.962263
O O10 0.963836 0.768761 0.916136
O O11 0.173612 0.452206 0.677241
O O12 0.917130 0.070853 0.692710
O O13 0.500000 0.500000 0.500000
O O14 0.361971 0.970617 0.547729
O O15 0.198331 0.478232 0.425095
O O16 0.500000 0.000000 0.500000
O O17 0.408099 0.290588 0.190601
#
# Coordination Sequence:
#
# PCOD8025132 Si02
#       8
#     2   2   2   2   2   2   2   2
#     4  12  24  42  69  99 132 175 220 280 328 391
#     4  11  22  44  69  94 129 175 225 271 326 394
#     4   9  21  42  69  97 130 179 224 258 327 400
#     4  10  23  44  69  94 132 177 215 269 327 399
#     4  12  27  45  68  94 131 177 224 276 329 397
#     4  12  27  44  65 101 131 173 225 276 330 396
#     4  11  25  43  68 101 138 171 213 279 337 384
#     4   9  21  41  67  99 133 173 218 268 325 399
#
# _framework density 22.307068000000001
#
# number of rings (size 3 to 8) (size 9 to 14) (size 15 to 20)
#    0.000    1.250    2.500    3.000    5.250    5.500 
#    2.250    0.000    0.000    0.000    0.000    0.000 
#    0.000    0.000    0.000    0.000    0.000    0.000 
#
# Total GULP energy -198379.444688 kJ/mol
# GULP energy per Si atom -12398.715293 kJ/mol
# Density = 2.225630 g / cm^3
# Si number density = 22.307068 Si / 1000 Ang^3
#
#
#
# Elastic Constant Matrix: (Units=GPa)
#
#
# Indices 1 2 3 4 5 6 
#
# 1 110.4937 41.8931 24.4700 5.2055 -0.6349 3.5901
# 2 41.8931 89.6334 27.6481 21.4214 -2.4999 16.9495
# 3 24.4700 27.6481 85.4923 29.9118 -1.5736 -0.1050
# 4 5.2055 21.4214 29.9118 40.8333 -4.7392 -1.1144
# 5 -0.6349 -2.4999 -1.5736 -4.7392 34.8544 0.8087
# 6 3.5901 16.9495 -0.1050 -1.1144 0.8087 34.9083
#
#
#
# Elastic Compliance Matrix: (Units=1/GPa)
#
#
# Indices 1 2 3 4 5 6 
#
# 1 0.011615 -0.005771 -0.002711 0.003594 0.000124 0.001711
# 2 -0.005771 0.017694 -0.001367 -0.007742 0.000241 -0.008254
# 3 -0.002711 -0.001367 0.016887 -0.011400 -0.000950 0.000651
# 4 0.003594 -0.007742 -0.011400 0.037021 0.003926 0.004446
# 5 0.000124 0.000241 -0.000950 0.003926 0.029217 -0.000684
# 6 0.001711 -0.008254 0.000651 0.004446 -0.000684 0.032638
#
#
# Mechanical properties :
#
#
# Convention : Reuss Voigt Hill
#
# Bulk Modulus (GPa) = 37.74106 52.62685 45.18396
# Shear Modulus (GPa) = 28.80141 34.89307 31.84724
#
# Velocity S-wave (km/s) = 3.59713 3.95931 3.78256
# Velocity P-wave (km/s) = 5.84877 6.67418 6.27506
#
# Compressibility (1/GPa) = 0.02649634
#
# Stress axis : x y z
#
# Youngs Moduli (GPa) = 86.09816 56.51767 59.21734
#
# Poissons Ratio (x) = 0.32618 0.16054
# Poissons Ratio (y) = 0.49690 0.08095
# Poissons Ratio (z) = 0.23342 0.07726
#
# Static dielectric constant tensor:
#      x y z
#    x 3.969820 0.017710 -0.276600 
#    y 0.017710 3.930960 0.280110 
#    z -0.276600 0.280110 4.802280 
# 
# 
# High freq. dielectric constant tensor:
#      x y z
#    x 1.872120 0.001570 -0.002190 
#    y 0.001570 1.872150 0.014920 
#    z -0.002190 0.014920 1.890050 
# 
# From -- ./inp_files/461165.got.cif
#   From: 2010.06.25/outbox.cif.g09.slc.cpg/sg2_231_cif.got.tgz:461165.got - 2010.06.27 13:26:56.
