data_PCOD8025383
_publ_section_title
;
Structure prediction by ZEFSAII (Michael W. Deem and Ramdas Pophale) SiO2 
 PCOD8025383
Probable space group: P -1
;
_chemical_formula_sum "Si O2"
_cell_formula_units_Z 14
_cell_length_a 7.063750
_cell_length_b 20.969903
_cell_length_c 6.878365
_cell_angle_alpha 68.175050
_cell_angle_beta 59.122899
_cell_angle_gamma 47.220647
_cell_volume 641.396777
_symmetry_space_group_name_H-M "P -1"
_symmetry_group_IT_number 2
_symmetry_cell_setting 'triclinic'
loop_
_space_group_symop_operation_xyz
x,y,z
-x,-y,-z
loop_
_atom_site_type_symbol
_atom_site_label
_atom_site_fract_x
_atom_site_fract_y
_atom_site_fract_z
Si Si1 0.018071 0.769341 0.204217
Si Si2 0.497620 0.385257 0.110603
Si Si3 0.237239 0.959871 0.082156
Si Si4 0.436731 0.506782 0.300610
Si Si5 0.177251 0.103907 0.167081
Si Si6 0.181981 0.334381 0.527781
Si Si7 0.718794 0.201421 0.618029
O O1 0.195205 0.776042 0.259505
O O2 0.851289 0.739391 0.434496
O O3 0.207805 0.699087 0.018189
O O4 0.824649 0.858358 0.086056
O O5 0.530841 0.414732 0.272950
O O6 0.282310 0.362442 0.262186
O O7 0.390637 0.464949 0.928576
O O8 0.300177 0.875165 0.242340
O O9 0.144399 0.029156 0.225396
O O10 0.519452 0.935414 0.858434
O O11 0.000000 0.000000 0.000000
O O12 0.500000 0.500000 0.500000
O O13 0.108679 0.578841 0.342338
O O14 0.937118 0.173921 0.360636
O O15 0.418974 0.290205 0.619484
#
# Coordination Sequence:
#
# PCOD8025383 Si02
#       7
#     2   2   2   2   2   2   2
#     4  11  24  43  65 101 135 173 225 273 327 398
#     4  10  23  45  65 100 136 166 223 273 324 397
#     4  11  24  45  69  97 135 180 222 275 338 388
#     4  10  24  46  70  99 134 173 224 271 329 401
#     4  11  24  44  67  98 138 169 229 280 318 406
#     4  11  24  43  69  98 135 176 220 272 334 394
#     4  12  25  43  69  98 135 179 222 274 338 388
#
# _framework density 21.827362999999998
#
# number of rings (size 3 to 8) (size 9 to 14) (size 15 to 20)
#    0.000    1.143    4.286    0.857    4.000    3.429 
#    7.714    0.000    0.000    0.000    0.000    0.000 
#    0.000    0.000    0.000    0.000    0.000    0.000 
#
# Total GULP energy -173555.712516 kJ/mol
# GULP energy per Si atom -12396.836608 kJ/mol
# Density = 2.177768 g / cm^3
# Si number density = 21.827363 Si / 1000 Ang^3
#
#
#
# Elastic Constant Matrix: (Units=GPa)
#
#
# Indices 1 2 3 4 5 6 
#
# 1 146.8890 61.5509 60.7054 0.6408 1.5835 -0.1581
# 2 61.5509 106.1344 46.3549 -3.3645 2.5390 5.4508
# 3 60.7054 46.3549 107.9987 -9.1979 -3.7396 7.8906
# 4 0.6408 -3.3645 -9.1979 35.8004 11.9819 -9.0195
# 5 1.5835 2.5390 -3.7396 11.9819 37.6842 -7.4498
# 6 -0.1581 5.4508 7.8906 -9.0195 -7.4498 40.6983
#
#
#
# Elastic Compliance Matrix: (Units=1/GPa)
#
#
# Indices 1 2 3 4 5 6 
#
# 1 0.010328 -0.004274 -0.004170 -0.001411 0.000112 0.001129
# 2 -0.004274 0.013455 -0.003272 0.000681 -0.001528 -0.001313
# 3 -0.004170 -0.003272 0.013360 0.002629 0.000594 -0.001477
# 4 -0.001411 0.000681 0.002629 0.033057 -0.009242 0.005028
# 5 0.000112 -0.001528 0.000594 -0.009242 0.030343 0.003596
# 6 0.001129 -0.001313 -0.001477 0.005028 0.003596 0.026810
#
#
# Mechanical properties :
#
#
# Convention : Reuss Voigt Hill
#
# Bulk Modulus (GPa) = 72.92743 77.58272 75.25508
# Shear Modulus (GPa) = 32.18430 35.66397 33.92413
#
# Velocity S-wave (km/s) = 3.84408 4.04655 3.94661
# Velocity P-wave (km/s) = 7.29288 7.57982 7.43774
#
# Compressibility (1/GPa) = 0.01371226
#
# Stress axis : x y z
#
# Youngs Moduli (GPa) = 96.82284 74.32110 74.85127
#
# Poissons Ratio (x) = 0.31764 0.31211
# Poissons Ratio (y) = 0.41381 0.24490
# Poissons Ratio (z) = 0.40373 0.24317
#
# Static dielectric constant tensor:
#      x y z
#    x 3.924210 0.183090 -0.352310 
#    y 0.183090 4.187270 -0.264750 
#    z -0.352310 -0.264750 3.958000 
# 
# 
# High freq. dielectric constant tensor:
#      x y z
#    x 1.853950 0.009870 -0.017610 
#    y 0.009870 1.875000 -0.015020 
#    z -0.017610 -0.015020 1.848480 
# 
# From -- ./inp_files/10517.got.cif
#   From: 2010.06.25/outbox.cif.g09.slc.cpg/sg2_6_cif.got.tgz:10517.got - 2010.06.27 13:26:56.
