data_PCOD8025167
_publ_section_title
;
Structure prediction by ZEFSAII (Michael W. Deem and Ramdas Pophale) SiO2 
 PCOD8025167
Probable space group: P -1
;
_chemical_formula_sum "Si O2"
_cell_formula_units_Z 16
_cell_length_a 8.450616
_cell_length_b 12.104623
_cell_length_c 22.630992
_cell_angle_alpha 35.293791
_cell_angle_beta 131.680928
_cell_angle_gamma 148.687322
_cell_volume 691.073932
_symmetry_space_group_name_H-M "P -1"
_symmetry_group_IT_number 2
_symmetry_cell_setting 'triclinic'
loop_
_space_group_symop_operation_xyz
x,y,z
-x,-y,-z
loop_
_atom_site_type_symbol
_atom_site_label
_atom_site_fract_x
_atom_site_fract_y
_atom_site_fract_z
Si Si1 0.783028 0.073859 0.565179
Si Si2 0.948216 0.071518 0.731859
Si Si3 0.597135 0.041080 0.758342
Si Si4 0.217075 0.459111 0.941864
Si Si5 0.216148 0.696515 0.189006
Si Si6 0.637087 0.638406 0.639307
Si Si7 0.862256 0.208562 0.076225
Si Si8 0.557537 0.363952 0.531548
O O1 0.741839 0.012955 0.651739
O O2 0.077308 0.402860 0.489663
O O3 0.500000 0.000000 0.500000
O O4 0.817575 0.894133 0.617929
O O5 0.796739 0.020950 0.779080
O O6 0.284603 0.382573 0.681669
O O7 0.971212 0.858565 0.819822
O O8 0.788627 0.274052 0.754722
O O9 0.451276 0.099440 0.651797
O O10 0.340312 0.755027 0.855254
O O11 0.077715 0.379084 0.875915
O O12 0.500000 0.500000 0.000000
O O13 0.937678 0.228047 0.017013
O O14 0.190565 0.452454 0.278454
O O15 0.504804 0.969168 0.106022
O O16 0.640575 0.740269 0.531350
O O17 0.000000 0.500000 0.000000
O O18 0.500000 0.500000 0.500000
#
# Coordination Sequence:
#
# PCOD8025167 Si02
#       8
#     2   2   2   2   2   2   2   2
#     4  11  24  43  69  99 135 185 231 268 340 410
#     4  10  24  44  69 100 140 178 226 287 337 401
#     4  12  24  45  69 102 143 175 231 284 344 405
#     4  12  27  48  68 102 138 181 229 289 349 403
#     4  11  26  43  74 103 133 181 233 279 349 415
#     4  10  23  44  70 101 137 182 232 274 338 414
#     4  11  23  48  70  99 133 180 230 288 344 404
#     4  11  24  42  66 102 145 177 220 286 340 396
#
# _framework density 23.152370999999999
#
# number of rings (size 3 to 8) (size 9 to 14) (size 15 to 20)
#    0.000    1.000    3.750    1.875    3.500    6.000 
#    0.000    0.000    0.000    0.000    0.000    0.000 
#    0.000    0.000    0.000    0.000    0.000    0.000 
#
# Total GULP energy -198363.743181 kJ/mol
# GULP energy per Si atom -12397.733949 kJ/mol
# Density = 2.309967 g / cm^3
# Si number density = 23.152371 Si / 1000 Ang^3
#
#
#
# Elastic Constant Matrix: (Units=GPa)
#
#
# Indices 1 2 3 4 5 6 
#
# 1 95.8662 27.8630 30.9775 12.0913 4.1636 -6.6378
# 2 27.8630 81.1722 42.5925 16.0445 4.3363 -2.4313
# 3 30.9775 42.5925 136.8315 8.1048 9.8716 7.4047
# 4 12.0913 16.0445 8.1048 39.5390 -8.5836 6.7624
# 5 4.1636 4.3363 9.8716 -8.5836 40.0073 6.2705
# 6 -6.6378 -2.4313 7.4047 6.7624 6.2705 34.4925
#
#
#
# Elastic Compliance Matrix: (Units=1/GPa)
#
#
# Indices 1 2 3 4 5 6 
#
# 1 0.012534 -0.002369 -0.001955 -0.003516 -0.001899 0.003699
# 2 -0.002369 0.016899 -0.004357 -0.006331 -0.002393 0.003347
# 3 -0.001955 -0.004357 0.009285 0.000680 -0.001059 -0.002617
# 4 -0.003516 -0.006331 0.000680 0.032407 0.009297 -0.009313
# 5 -0.001899 -0.002393 -0.001059 0.009297 0.028865 -0.007377
# 6 0.003699 0.003347 -0.002617 -0.009313 -0.007377 0.033668
#
#
# Mechanical properties :
#
#
# Convention : Reuss Voigt Hill
#
# Bulk Modulus (GPa) = 46.82915 57.41511 52.12213
# Shear Modulus (GPa) = 31.61786 36.97021 34.29403
#
# Velocity S-wave (km/s) = 3.69947 4.00036 3.85285
# Velocity P-wave (km/s) = 6.20633 6.79631 6.50801
#
# Compressibility (1/GPa) = 0.02135422
#
# Stress axis : x y z
#
# Youngs Moduli (GPa) = 79.78573 59.17632 107.70194
#
# Poissons Ratio (x) = 0.14021 0.21055
# Poissons Ratio (y) = 0.18904 0.46928
# Poissons Ratio (z) = 0.15597 0.25785
#
# Static dielectric constant tensor:
#      x y z
#    x 4.122820 -0.028340 -0.159240 
#    y -0.028340 4.219660 -0.171580 
#    z -0.159240 -0.171580 4.384750 
# 
# 
# High freq. dielectric constant tensor:
#      x y z
#    x 1.913740 -0.002590 -0.000870 
#    y -0.002590 1.903880 -0.003110 
#    z -0.000870 -0.003110 1.936760 
# 
# From -- ./inp_files/39446.got.cif
#   From: 2010.06.25/outbox.cif.g09.slc.cpg/sg2_20_cif.got.tgz:39446.got - 2010.06.27 13:26:56.
