data_PCOD8025287
_publ_section_title
;
Structure prediction by ZEFSAII (Michael W. Deem and Ramdas Pophale) SiO2 
 PCOD8025287
Probable space group: P -1
;
_chemical_formula_sum "Si O2"
_cell_formula_units_Z 16
_cell_length_a 11.775817
_cell_length_b 11.496300
_cell_length_c 8.980232
_cell_angle_alpha 128.226217
_cell_angle_beta 61.263339
_cell_angle_gamma 86.056385
_cell_volume 709.221473
_symmetry_space_group_name_H-M "P -1"
_symmetry_group_IT_number 2
_symmetry_cell_setting 'triclinic'
loop_
_space_group_symop_operation_xyz
x,y,z
-x,-y,-z
loop_
_atom_site_type_symbol
_atom_site_label
_atom_site_fract_x
_atom_site_fract_y
_atom_site_fract_z
Si Si1 0.333057 0.301153 0.036563
Si Si2 0.202276 0.131087 0.164990
Si Si3 0.424770 0.271343 0.613059
Si Si4 0.866870 0.300819 0.548607
Si Si5 0.382723 0.997409 0.242103
Si Si6 0.757439 0.189300 0.279927
Si Si7 0.820688 0.128905 0.698801
Si Si8 0.668359 0.410399 0.257264
O O1 0.224572 0.230636 0.094090
O O2 0.245526 0.505332 0.288863
O O3 0.371662 0.267276 0.810199
O O4 0.478333 0.203283 0.978484
O O5 0.340371 0.058578 0.143259
O O6 0.035890 0.261571 0.447537
O O7 0.183800 0.982367 0.988479
O O8 0.429019 0.116814 0.395691
O O9 0.588569 0.251545 0.499086
O O10 0.307425 0.452475 0.742316
O O11 0.870978 0.160591 0.319544
O O12 0.786676 0.282250 0.729271
O O13 0.238992 0.999322 0.409215
O O14 0.765915 0.333248 0.285844
O O15 0.723276 0.233590 0.988255
O O16 0.000000 0.000000 0.500000
O O17 0.500000 0.500000 0.500000
#
# Coordination Sequence:
#
# PCOD8025287 Si02
#       8
#     2   2   2   2   2   2   2   2
#     4  12  27  45  72 107 143 185 245 296 358 428
#     4  12  26  48  68 106 149 193 234 291 369 435
#     4  11  25  46  69 107 139 182 239 305 359 421
#     4  12  27  46  72 106 146 190 238 298 361 427
#     4  12  26  44  77 102 142 192 239 298 364 431
#     4  11  24  44  73 103 141 184 244 293 360 422
#     4  12  24  48  74 104 145 190 241 297 365 433
#     4  10  23  44  72 106 146 181 244 304 351 429
#
# _framework density 22.559950000000001
#
# number of rings (size 3 to 8) (size 9 to 14) (size 15 to 20)
#    0.000    0.500    5.000    2.250    7.000    1.000 
#    0.000    1.250    0.000    0.000    0.000    0.000 
#    0.000    0.000    0.000    0.000    0.000    0.000 
#
# Total GULP energy -198234.156884 kJ/mol
# GULP energy per Si atom -12389.634805 kJ/mol
# Density = 2.250860 g / cm^3
# Si number density = 22.559950 Si / 1000 Ang^3
#
#
#
# Elastic Constant Matrix: (Units=GPa)
#
#
# Indices 1 2 3 4 5 6 
#
# 1 91.4775 35.2777 31.7630 2.2640 1.8890 -9.9464
# 2 35.2777 176.4206 37.8092 -14.1311 -4.3998 -3.0656
# 3 31.7630 37.8092 93.6563 -5.0273 6.7483 -13.6240
# 4 2.2640 -14.1311 -5.0273 41.0032 -0.0288 -1.2655
# 5 1.8890 -4.3998 6.7483 -0.0288 21.7844 -4.0714
# 6 -9.9464 -3.0656 -13.6240 -1.2655 -4.0714 17.4097
#
#
#
# Elastic Compliance Matrix: (Units=1/GPa)
#
#
# Indices 1 2 3 4 5 6 
#
# 1 0.013359 -0.002047 -0.003120 -0.001678 0.000285 0.004775
# 2 -0.002047 0.006757 -0.002224 0.002137 0.002030 -0.001090
# 3 -0.003120 -0.002224 0.014129 0.001392 -0.003006 0.008281
# 4 -0.001678 0.002137 0.001392 0.025466 0.000649 0.002509
# 5 0.000285 0.002030 -0.003006 0.000649 0.049031 0.009681
# 6 0.004775 -0.001090 0.008281 0.002509 0.009681 0.068902
#
#
# Mechanical properties :
#
#
# Convention : Reuss Voigt Hill
#
# Bulk Modulus (GPa) = 51.37853 63.47268 57.42560
# Shear Modulus (GPa) = 25.13641 33.15310 29.14476
#
# Velocity S-wave (km/s) = 3.34159 3.83764 3.59817
# Velocity P-wave (km/s) = 6.14101 6.91613 6.54006
#
# Compressibility (1/GPa) = 0.01946338
#
# Stress axis : x y z
#
# Youngs Moduli (GPa) = 74.85399 147.99429 70.77540
#
# Poissons Ratio (x) = 0.30294 0.22085
# Poissons Ratio (y) = 0.15322 0.15738
# Poissons Ratio (z) = 0.23358 0.32910
#
# Static dielectric constant tensor:
#      x y z
#    x 3.733670 -0.242850 -0.074310 
#    y -0.242850 4.687010 -0.021250 
#    z -0.074310 -0.021250 3.925160 
# 
# 
# High freq. dielectric constant tensor:
#      x y z
#    x 1.871510 -0.006060 -0.006680 
#    y -0.006060 1.920400 -0.004790 
#    z -0.006680 -0.004790 1.883910 
# 
# From -- ./inp_files/263321.got.cif
#   From: 2010.06.25/outbox.cif.g09.slc.cpg/sg2_132_cif.got.tgz:263321.got - 2010.06.27 13:26:56.
