data_PCOD8025828
_publ_section_title
;
Structure prediction by ZEFSAII (Michael W. Deem and Ramdas Pophale) SiO2 
 PCOD8025828
Probable space group: P -1
;
_chemical_formula_sum "Si O2"
_cell_formula_units_Z 16
_cell_length_a 11.877049
_cell_length_b 13.702995
_cell_length_c 9.073589
_cell_angle_alpha 91.195163
_cell_angle_beta 33.650145
_cell_angle_gamma 76.853085
_cell_volume 733.899580
_symmetry_space_group_name_H-M "P -1"
_symmetry_group_IT_number 2
_symmetry_cell_setting 'triclinic'
loop_
_space_group_symop_operation_xyz
x,y,z
-x,-y,-z
loop_
_atom_site_type_symbol
_atom_site_label
_atom_site_fract_x
_atom_site_fract_y
_atom_site_fract_z
Si Si1 0.923291 0.749393 0.973089
Si Si2 0.425597 0.121821 0.404605
Si Si3 0.635429 0.263418 0.057000
Si Si4 0.121357 0.063951 0.170356
Si Si5 0.088371 0.452818 0.165355
Si Si6 0.644994 0.564552 0.836216
Si Si7 0.123041 0.071203 0.501257
Si Si8 0.270624 0.593143 0.811977
O O1 0.976550 0.813901 0.784200
O O2 0.850068 0.660976 0.985492
O O3 0.145145 0.687718 0.831268
O O4 0.719110 0.843157 0.287907
O O5 0.472414 0.223613 0.316793
O O6 0.282340 0.099720 0.432696
O O7 0.665364 0.016508 0.164363
O O8 0.513706 0.312892 0.037168
O O9 0.665027 0.356457 0.116989
O O10 0.876808 0.169105 0.754506
O O11 0.222311 0.050860 0.226420
O O12 0.913760 0.029937 0.395270
O O13 0.266092 0.427042 0.101078
O O14 0.836691 0.504466 0.503827
O O15 0.105618 0.539579 0.036345
O O16 0.500000 0.500000 0.000000
O O17 0.500000 0.500000 0.500000
#
# Coordination Sequence:
#
# PCOD8025828 Si02
#       8
#     2   2   2   2   2   2   2   2
#     4  12  25  43  70  99 137 179 223 276 336 413
#     4  11  23  46  68  98 133 177 221 280 344 403
#     4  11  23  40  71  96 132 182 224 270 344 396
#     4  10  25  44  68 101 129 170 230 279 341 395
#     4  11  26  43  66 101 139 178 233 278 331 399
#     4  11  24  43  68  99 137 180 230 288 325 397
#     4  10  23  46  69  97 135 171 221 287 334 405
#     4  12  24  44  66  97 145 184 221 274 337 404
#
# _framework density 21.801348000000001
#
# number of rings (size 3 to 8) (size 9 to 14) (size 15 to 20)
#    0.000    1.000    2.500    3.375    3.500    0.500 
#    4.500    0.000    0.000    0.000    0.000    0.000 
#    0.000    0.000    0.000    0.000    0.000    0.000 
#
# Total GULP energy -198438.177711 kJ/mol
# GULP energy per Si atom -12402.386107 kJ/mol
# Density = 2.175173 g / cm^3
# Si number density = 21.801348 Si / 1000 Ang^3
#
#
#
# Elastic Constant Matrix: (Units=GPa)
#
#
# Indices 1 2 3 4 5 6 
#
# 1 85.1764 47.7310 31.7764 -6.4898 -4.3535 2.5183
# 2 47.7310 139.6193 31.9985 -18.7868 -2.1508 -7.3396
# 3 31.7764 31.9985 87.9082 -10.9027 1.0025 2.7349
# 4 -6.4898 -18.7868 -10.9027 26.4604 8.1281 5.3525
# 5 -4.3535 -2.1508 1.0025 8.1281 27.8493 3.5665
# 6 2.5183 -7.3396 2.7349 5.3525 3.5665 46.5128
#
#
#
# Elastic Compliance Matrix: (Units=1/GPa)
#
#
# Indices 1 2 3 4 5 6 
#
# 1 0.016080 -0.004792 -0.004292 -0.001874 0.003023 -0.001391
# 2 -0.004792 0.009873 -0.001189 0.005605 -0.001756 0.001377
# 3 -0.004292 -0.001189 0.014032 0.004901 -0.002551 -0.001149
# 4 -0.001874 0.005605 0.004901 0.048294 -0.013643 -0.003814
# 5 0.003023 -0.001756 -0.002551 -0.013643 0.040553 -0.001830
# 6 -0.001391 0.001377 -0.001149 -0.003814 -0.001830 0.022439
#
#
# Mechanical properties :
#
#
# Convention : Reuss Voigt Hill
#
# Bulk Modulus (GPa) = 51.44344 59.52397 55.48371
# Shear Modulus (GPa) = 28.04326 33.57770 30.81048
#
# Velocity S-wave (km/s) = 3.59041 3.92875 3.76338
# Velocity P-wave (km/s) = 6.39028 6.92404 6.66251
#
# Compressibility (1/GPa) = 0.01943882
#
# Stress axis : x y z
#
# Youngs Moduli (GPa) = 62.19019 101.28935 71.26411
#
# Poissons Ratio (x) = 0.48541 0.30584
# Poissons Ratio (y) = 0.29803 0.08473
# Poissons Ratio (z) = 0.26690 0.12043
#
# Static dielectric constant tensor:
#      x y z
#    x 4.142040 0.031450 0.049610 
#    y 0.031450 3.713310 -0.114110 
#    z 0.049610 -0.114110 4.026200 
# 
# 
# High freq. dielectric constant tensor:
#      x y z
#    x 1.858310 0.002990 0.001170 
#    y 0.002990 1.869670 -0.002290 
#    z 0.001170 -0.002290 1.864710 
# 
# From -- ./inp_files/273047.got.cif
#   From: 2010.06.25/outbox.cif.g09.slc.cpg/sg2_137_cif.got.tgz:273047.got - 2010.06.27 13:26:56.
