data_PCOD8025937
_publ_section_title
;
Structure prediction by ZEFSAII (Michael W. Deem and Ramdas Pophale) SiO2 
 PCOD8025937
Probable space group: P -1
;
_chemical_formula_sum "Si O2"
_cell_formula_units_Z 16
_cell_length_a 13.837030
_cell_length_b 8.386040
_cell_length_c 11.141127
_cell_angle_alpha 138.249085
_cell_angle_beta 62.789344
_cell_angle_gamma 95.857913
_cell_volume 700.429624
_symmetry_space_group_name_H-M "P -1"
_symmetry_group_IT_number 2
_symmetry_cell_setting 'triclinic'
loop_
_space_group_symop_operation_xyz
x,y,z
-x,-y,-z
loop_
_atom_site_type_symbol
_atom_site_label
_atom_site_fract_x
_atom_site_fract_y
_atom_site_fract_z
Si Si1 0.186488 0.455597 0.041323
Si Si2 0.997932 0.258968 0.086591
Si Si3 0.974193 0.081191 0.755517
Si Si4 0.780401 0.370759 0.634363
Si Si5 0.600795 0.909841 0.732951
Si Si6 0.156678 0.289364 0.399761
Si Si7 0.401753 0.237094 0.621591
Si Si8 0.542439 0.579801 0.769013
O O1 0.130080 0.252561 0.999325
O O2 0.078136 0.734098 0.226074
O O3 0.255423 0.508898 0.144801
O O4 0.275705 0.334530 0.813580
O O5 0.913724 0.509163 0.345812
O O6 0.943614 0.278100 0.995678
O O7 0.000000 0.000000 0.000000
O O8 0.915083 0.876707 0.696017
O O9 0.116649 0.920383 0.577227
O O10 0.825042 0.561611 0.642560
O O11 0.664782 0.357906 0.628295
O O12 0.721081 0.906057 0.720166
O O13 0.613526 0.853374 0.553342
O O14 0.567812 0.690009 0.691535
O O15 0.501503 0.197438 0.978166
O O16 0.444666 0.472252 0.730390
O O17 0.500000 0.000000 0.500000
#
# Coordination Sequence:
#
# PCOD8025937 Si02
#       8
#     2   2   2   2   2   2   2   2
#     4  12  27  44  66 103 140 180 225 280 348 405
#     4  12  25  44  68  98 135 179 231 274 335 414
#     4  12  24  43  68  99 141 176 219 286 337 404
#     4  11  23  43  70  98 138 182 223 277 338 406
#     4  10  23  46  76  98 135 177 231 284 329 402
#     4  11  23  44  72 101 131 181 231 278 342 397
#     4  12  27  45  69 101 139 179 222 284 344 403
#     4  10  24  47  71 102 130 181 234 278 333 398
#
# _framework density 22.843122000000001
#
# number of rings (size 3 to 8) (size 9 to 14) (size 15 to 20)
#    0.000    0.750    2.500    4.500    1.750    3.000 
#    0.000    6.250    0.000    0.000    0.000    0.000 
#    0.000    0.000    0.000    0.000    0.000    0.000 
#
# Total GULP energy -198476.146684 kJ/mol
# GULP energy per Si atom -12404.759168 kJ/mol
# Density = 2.279113 g / cm^3
# Si number density = 22.843122 Si / 1000 Ang^3
#
#
#
# Elastic Constant Matrix: (Units=GPa)
#
#
# Indices 1 2 3 4 5 6 
#
# 1 64.8751 11.8480 33.7572 3.4356 -15.9028 -11.9695
# 2 11.8480 55.9240 27.4710 -9.4803 -13.1838 -12.8640
# 3 33.7572 27.4710 112.2903 -24.3859 -7.5398 -16.7157
# 4 3.4356 -9.4803 -24.3859 35.0277 -8.9855 1.3608
# 5 -15.9028 -13.1838 -7.5398 -8.9855 45.8156 -6.0275
# 6 -11.9695 -12.8640 -16.7157 1.3608 -6.0275 38.6422
#
#
#
# Elastic Compliance Matrix: (Units=1/GPa)
#
#
# Indices 1 2 3 4 5 6 
#
# 1 0.021437 0.000400 -0.006482 -0.005126 0.006156 0.005110
# 2 0.000400 0.024305 -0.002813 0.006581 0.009036 0.008176
# 3 -0.006482 -0.002813 0.014338 0.010172 0.001712 0.003167
# 4 -0.005126 0.006581 0.010172 0.040378 0.010392 0.005202
# 5 0.006156 0.009036 0.001712 0.010392 0.030199 0.010000
# 6 0.005110 0.008176 0.003167 0.005202 0.010000 0.032930
#
#
# Mechanical properties :
#
#
# Convention : Reuss Voigt Hill
#
# Bulk Modulus (GPa) = 23.64605 42.13799 32.89202
# Shear Modulus (GPa) = 25.57895 34.56465 30.07180
#
# Velocity S-wave (km/s) = 3.34992 3.89412 3.63223
# Velocity P-wave (km/s) = 5.03355 6.22138 5.65872
#
# Compressibility (1/GPa) = 0.04229036
#
# Stress axis : x y z
#
# Youngs Moduli (GPa) = 46.64786 41.14359 69.74643
#
# Poissons Ratio (x) = -0.01646 0.45206
# Poissons Ratio (y) = -0.01867 0.19623
# Poissons Ratio (z) = 0.30235 0.11576
#
# Static dielectric constant tensor:
#      x y z
#    x 4.263630 -0.092040 -0.156380 
#    y -0.092040 3.778180 -0.524020 
#    z -0.156380 -0.524020 3.798460 
# 
# 
# High freq. dielectric constant tensor:
#      x y z
#    x 1.910350 -0.002620 0.002500 
#    y -0.002620 1.907800 -0.006150 
#    z 0.002500 -0.006150 1.907800 
# 
# From -- ./inp_files/448313.got.cif
#   From: 2010.06.25/outbox.cif.g09.slc.cpg/sg2_225_cif.got.tgz:448313.got - 2010.06.27 13:26:56.
