data_PCOD8025433
_publ_section_title
;
Structure prediction by ZEFSAII (Michael W. Deem and Ramdas Pophale) SiO2 
 PCOD8025433
Probable space group: P -1
;
_chemical_formula_sum "Si O2"
_cell_formula_units_Z 16
_cell_length_a 5.271380
_cell_length_b 15.051624
_cell_length_c 17.861825
_cell_angle_alpha 148.497168
_cell_angle_beta 106.680008
_cell_angle_gamma 82.078758
_cell_volume 693.018872
_symmetry_space_group_name_H-M "P -1"
_symmetry_group_IT_number 2
_symmetry_cell_setting 'triclinic'
loop_
_space_group_symop_operation_xyz
x,y,z
-x,-y,-z
loop_
_atom_site_type_symbol
_atom_site_label
_atom_site_fract_x
_atom_site_fract_y
_atom_site_fract_z
Si Si1 0.371811 0.533501 0.127974
Si Si2 0.848649 0.669948 0.540784
Si Si3 0.529136 0.867085 0.472526
Si Si4 0.103261 0.855635 0.563862
Si Si5 0.220134 0.657512 0.046045
Si Si6 0.693445 0.279371 0.264267
Si Si7 0.624245 0.006722 0.774100
Si Si8 0.259392 0.966445 0.037694
O O1 0.511494 0.675619 0.301040
O O2 0.311020 0.628705 0.116266
O O3 0.580995 0.409317 0.043400
O O4 0.087837 0.430422 0.062420
O O5 0.655584 0.476866 0.392247
O O6 0.017992 0.681510 0.484772
O O7 0.025125 0.711195 0.661449
O O8 0.668144 0.813514 0.622083
O O9 0.292309 0.846392 0.500376
O O10 0.837122 0.926506 0.571226
O O11 0.500000 0.000000 0.500000
O O12 0.297220 0.991639 0.734514
O O13 0.252386 0.864475 0.190028
O O14 0.461859 0.155017 0.203133
O O15 0.651404 0.182822 0.110669
O O16 0.775621 0.098943 0.927205
O O17 0.000000 0.000000 0.000000
#
# Coordination Sequence:
#
# PCOD8025433 Si02
#       8
#     2   2   2   2   2   2   2   2
#     4  10  23  45  67 101 139 184 232 284 366 424
#     4  11  24  46  71 105 143 193 244 301 363 432
#     4  12  26  46  73 105 145 188 237 303 365 430
#     4  12  26  44  70 106 141 185 245 293 361 425
#     4  10  24  43  72  99 139 185 231 290 354 437
#     4  10  24  44  71 103 145 190 241 298 367 438
#     4  12  25  44  72 104 143 190 246 300 363 424
#     4  11  23  43  69 103 143 190 239 297 369 431
#
# _framework density 23.087395000000001
#
# number of rings (size 3 to 8) (size 9 to 14) (size 15 to 20)
#    0.000    1.000    3.750    1.875    1.750    5.500 
#    2.250    0.000    0.000    0.000    0.000    0.000 
#    0.000    0.000    0.000    0.000    0.000    0.000 
#
# Total GULP energy -198228.178109 kJ/mol
# GULP energy per Si atom -12389.261132 kJ/mol
# Density = 2.303485 g / cm^3
# Si number density = 23.087395 Si / 1000 Ang^3
#
#
#
# Elastic Constant Matrix: (Units=GPa)
#
#
# Indices 1 2 3 4 5 6 
#
# 1 128.2048 41.3546 49.0892 -0.6873 3.1429 -7.5171
# 2 41.3546 102.2823 56.8095 13.6392 3.3325 -4.1290
# 3 49.0892 56.8095 127.1045 12.4197 10.8202 -6.8876
# 4 -0.6873 13.6392 12.4197 43.5749 2.0345 1.4515
# 5 3.1429 3.3325 10.8202 2.0345 33.8593 -7.9280
# 6 -7.5171 -4.1290 -6.8876 1.4515 -7.9280 35.0582
#
#
#
# Elastic Compliance Matrix: (Units=1/GPa)
#
#
# Indices 1 2 3 4 5 6 
#
# 1 0.009764 -0.002618 -0.002733 0.001690 0.000421 0.001274
# 2 -0.002618 0.014007 -0.004992 -0.003050 0.000737 0.000401
# 3 -0.002733 -0.004992 0.011580 -0.001672 -0.002725 0.000554
# 4 0.001690 -0.003050 -0.001672 0.024515 -0.001171 -0.001605
# 5 0.000421 0.000737 -0.002725 -0.001171 0.031985 0.006923
# 6 0.001274 0.000401 0.000554 -0.001605 0.006923 0.030585
#
#
# Mechanical properties :
#
#
# Convention : Reuss Voigt Hill
#
# Bulk Modulus (GPa) = 68.19033 72.45536 70.32284
# Shear Modulus (GPa) = 33.78127 36.52102 35.15115
#
# Velocity S-wave (km/s) = 3.82932 3.98157 3.90619
# Velocity P-wave (km/s) = 7.01081 7.25179 7.13232
#
# Compressibility (1/GPa) = 0.01466484
#
# Stress axis : x y z
#
# Youngs Moduli (GPa) = 102.41402 71.39275 86.35629
#
# Poissons Ratio (x) = 0.18687 0.23603
# Poissons Ratio (y) = 0.26807 0.43113
# Poissons Ratio (z) = 0.27992 0.35643
#
# Static dielectric constant tensor:
#      x y z
#    x 4.272730 0.269200 -0.041570 
#    y 0.269200 4.280630 -0.181820 
#    z -0.041570 -0.181820 4.613410 
# 
# 
# High freq. dielectric constant tensor:
#      x y z
#    x 1.909770 0.004980 0.009150 
#    y 0.004980 1.925580 -0.010010 
#    z 0.009150 -0.010010 1.912340 
# 
# From -- ./inp_files/550216.got.cif
#   From: 2010.06.25/outbox.cif.g09.slc.cpg/sg2_276_cif.got.tgz:550216.got - 2010.06.27 13:26:56.
