data_PCOD8025359
_publ_section_title
;
Structure prediction by ZEFSAII (Michael W. Deem and Ramdas Pophale) SiO2 
 PCOD8025359
Probable space group: P -1
;
_chemical_formula_sum "Si O2"
_cell_formula_units_Z 16
_cell_length_a 11.606105
_cell_length_b 9.195173
_cell_length_c 8.033407
_cell_angle_alpha 108.297946
_cell_angle_beta 47.906576
_cell_angle_gamma 89.122554
_cell_volume 572.159911
_symmetry_space_group_name_H-M "P -1"
_symmetry_group_IT_number 2
_symmetry_cell_setting 'triclinic'
loop_
_space_group_symop_operation_xyz
x,y,z
-x,-y,-z
loop_
_atom_site_type_symbol
_atom_site_label
_atom_site_fract_x
_atom_site_fract_y
_atom_site_fract_z
Si Si1 0.583498 0.179781 0.250472
Si Si2 0.787568 0.307801 0.326121
Si Si3 0.196831 0.939144 0.278597
Si Si4 0.244881 0.328146 0.513010
Si Si5 0.740663 0.705704 0.883812
Si Si6 0.136732 0.162972 0.876574
Si Si7 0.315591 0.609165 0.191336
Si Si8 0.405227 0.944088 0.383390
O O1 0.635694 0.305740 0.358250
O O2 0.442547 0.287631 0.302336
O O3 0.490063 0.076771 0.408614
O O4 0.731321 0.037350 0.963734
O O5 0.824873 0.477448 0.342448
O O6 0.742117 0.275458 0.548042
O O7 0.949319 0.168305 0.052151
O O8 0.268740 0.740663 0.137552
O O9 0.289752 0.010147 0.354540
O O10 0.000000 0.000000 0.500000
O O11 0.208463 0.257124 0.341076
O O12 0.174613 0.260535 0.716403
O O13 0.788748 0.511537 0.779066
O O14 0.848707 0.756971 0.932720
O O15 0.544012 0.776372 0.146746
O O16 0.262425 0.972574 0.678033
O O17 0.500000 0.500000 0.000000
#
# Coordination Sequence:
#
# PCOD8025359 Si02
#       8
#     2   2   2   2   2   2   2   2
#     4  11  24  44  73 103 145 198 244 306 359 455
#     4  11  25  47  67 112 146 187 250 308 376 433
#     4  12  25  45  74 112 148 190 243 312 379 433
#     4  10  23  44  76 100 148 198 250 304 366 453
#     4  11  24  47  76 108 143 195 256 297 365 451
#     4  11  26  43  73 109 148 193 239 318 375 432
#     4  11  25  46  77 106 147 195 246 305 366 455
#     4  11  24  47  72 104 146 196 253 293 370 451
#
# _framework density 27.964207999999999
#
# number of rings (size 3 to 8) (size 9 to 14) (size 15 to 20)
#    0.000    1.000    2.500    3.000    7.000    4.000 
#    6.750    1.875    0.000    0.000    0.000    0.000 
#    0.000    0.000    0.000    0.000    0.000    0.000 
#
# Total GULP energy -198280.549940 kJ/mol
# GULP energy per Si atom -12392.534371 kJ/mol
# Density = 2.790056 g / cm^3
# Si number density = 27.964208 Si / 1000 Ang^3
#
#
#
# Elastic Constant Matrix: (Units=GPa)
#
#
# Indices 1 2 3 4 5 6 
#
# 1 121.5607 15.6961 45.1353 -5.3015 11.8839 14.8037
# 2 15.6961 23.3321 17.9854 -4.6559 -3.8095 -13.9822
# 3 45.1353 17.9854 161.3487 -10.0664 -11.2342 4.3793
# 4 -5.3015 -4.6559 -10.0664 47.1583 2.3333 2.5806
# 5 11.8839 -3.8095 -11.2342 2.3333 64.5814 7.9042
# 6 14.8037 -13.9822 4.3793 2.5806 7.9042 32.2317
#
#
#
# Elastic Compliance Matrix: (Units=1/GPa)
#
#
# Indices 1 2 3 4 5 6 
#
# 1 0.012133 -0.013543 -0.001712 0.000350 -0.002027 -0.010746
# 2 -0.013543 0.083261 -0.006403 0.002945 0.000952 0.042740
# 3 -0.001712 -0.006403 0.007659 0.000920 0.001667 -0.003514
# 4 0.000350 0.002945 0.000920 0.021789 -0.000439 -0.000645
# 5 -0.002027 0.000952 0.001667 -0.000439 0.016576 -0.002912
# 6 -0.010746 0.042740 -0.003514 -0.000645 -0.002912 0.055745
#
#
# Mechanical properties :
#
#
# Convention : Reuss Voigt Hill
#
# Bulk Modulus (GPa) = 16.73978 51.54168 34.14073
# Shear Modulus (GPa) = 19.20199 43.95592 31.57895
#
# Velocity S-wave (km/s) = 2.62327 3.96897 3.36410
# Velocity P-wave (km/s) = 3.89545 6.28291 5.22731
#
# Compressibility (1/GPa) = 0.05973795
#
# Stress axis : x y z
#
# Youngs Moduli (GPa) = 82.42196 12.01041 130.56245
#
# Poissons Ratio (x) = 0.16266 0.22352
# Poissons Ratio (y) = 1.11624 0.83593
# Poissons Ratio (z) = 0.14110 0.07690
#
# Static dielectric constant tensor:
#      x y z
#    x 4.969540 0.014270 0.073420 
#    y 0.014270 5.383390 0.282770 
#    z 0.073420 0.282770 5.328630 
# 
# 
# High freq. dielectric constant tensor:
#      x y z
#    x 2.132350 0.005540 0.010110 
#    y 0.005540 2.147960 0.007700 
#    z 0.010110 0.007700 2.145810 
# 
# From -- ./inp_files/262926.got.cif
#   From: 2010.06.25/outbox.cif.g09.slc.cpg/sg2_132_cif.got.tgz:262926.got - 2010.06.27 13:26:56.
