data_PCOD8025480
_publ_section_title
;
Structure prediction by ZEFSAII (Michael W. Deem and Ramdas Pophale) SiO2 
 PCOD8025480
Probable space group: P -1
;
_chemical_formula_sum "Si O2"
_cell_formula_units_Z 14
_cell_length_a 13.065212
_cell_length_b 11.163689
_cell_length_c 4.939089
_cell_angle_alpha 63.884539
_cell_angle_beta 109.163786
_cell_angle_gamma 130.793179
_cell_volume 488.834331
_symmetry_space_group_name_H-M "P -1"
_symmetry_group_IT_number 2
_symmetry_cell_setting 'triclinic'
loop_
_space_group_symop_operation_xyz
x,y,z
-x,-y,-z
loop_
_atom_site_type_symbol
_atom_site_label
_atom_site_fract_x
_atom_site_fract_y
_atom_site_fract_z
Si Si1 0.314819 0.199084 0.921487
Si Si2 0.034523 0.923893 0.860800
Si Si3 0.984561 0.340378 0.542105
Si Si4 0.613078 0.350588 0.013740
Si Si5 0.698629 0.043269 0.498827
Si Si6 0.592223 0.162874 0.702479
Si Si7 0.189073 0.337342 0.422420
O O1 0.465160 0.291206 0.847328
O O2 0.278004 0.330285 0.743443
O O3 0.194212 0.041958 0.792647
O O4 0.298773 0.116060 0.286230
O O5 0.928744 0.857606 0.580472
O O6 0.006128 0.752582 0.106056
O O7 0.000000 0.000000 0.000000
O O8 0.844873 0.211186 0.378271
O O9 0.000000 0.500000 0.500000
O O10 0.114253 0.412629 0.393189
O O11 0.657101 0.261507 0.941277
O O12 0.716287 0.549670 0.859754
O O13 0.614513 0.301188 0.370714
O O14 0.659142 0.078632 0.725529
O O15 0.572061 0.983806 0.247180
#
# Coordination Sequence:
#
# PCOD8025480 Si02
#       7
#     2   2   2   2   2   2   2
#     4  10  23  45  68 107 134 196 241 299 360 450
#     4  11  25  46  73 104 146 193 245 305 370 446
#     4  11  25  45  71 106 147 191 249 307 379 439
#     4  11  26  44  75 105 150 189 250 303 380 433
#     4   9  22  42  73 100 142 193 251 303 362 447
#     4  10  23  47  70 105 144 196 245 311 363 443
#     4  12  26  43  74 104 151 190 243 316 370 440
#
# _framework density 28.639557
#
# number of rings (size 3 to 8) (size 9 to 14) (size 15 to 20)
#    0.000    1.429    1.429    1.714    6.000    8.000 
#    2.571    4.286    0.000    0.000    0.000    0.000 
#    0.000    0.000    0.000    0.000    0.000    0.000 
#
# Total GULP energy -173503.678344 kJ/mol
# GULP energy per Si atom -12393.119882 kJ/mol
# Density = 2.857437 g / cm^3
# Si number density = 28.639557 Si / 1000 Ang^3
#
#
#
# Elastic Constant Matrix: (Units=GPa)
#
#
# Indices 1 2 3 4 5 6 
#
# 1 116.2261 37.5445 24.3844 -17.0650 16.3204 16.6790
# 2 37.5445 105.5822 15.0322 -34.1051 -2.7112 18.5293
# 3 24.3844 15.0322 55.1467 -18.6807 5.8604 10.0022
# 4 -17.0650 -34.1051 -18.6807 53.6527 1.0525 -6.1406
# 5 16.3204 -2.7112 5.8604 1.0525 42.0565 -5.5140
# 6 16.6790 18.5293 10.0022 -6.1406 -5.5140 60.2085
#
#
#
# Elastic Compliance Matrix: (Units=1/GPa)
#
#
# Indices 1 2 3 4 5 6 
#
# 1 0.011254 -0.003225 -0.003176 0.000284 -0.004398 -0.001971
# 2 -0.003225 0.013384 0.000549 0.007366 0.001535 -0.002425
# 3 -0.003176 0.000549 0.022438 0.006908 -0.002363 -0.002529
# 4 0.000284 0.007366 0.006908 0.025729 -0.001373 -0.000995
# 5 -0.004398 0.001535 -0.002363 -0.001373 0.026395 0.003416
# 6 -0.001971 -0.002425 -0.002529 -0.000995 0.003416 0.018533
#
#
# Mechanical properties :
#
#
# Convention : Reuss Voigt Hill
#
# Bulk Modulus (GPa) = 28.26971 47.87523 38.07247
# Shear Modulus (GPa) = 35.40392 44.51646 39.96019
#
# Velocity S-wave (km/s) = 3.51976 3.94683 3.73940
# Velocity P-wave (km/s) = 5.13912 6.12558 5.65390
#
# Compressibility (1/GPa) = 0.03537355
#
# Stress axis : x y z
#
# Youngs Moduli (GPa) = 88.85544 74.71557 44.56724
#
# Poissons Ratio (x) = 0.24095 0.14154
# Poissons Ratio (y) = 0.28655 -0.02449
# Poissons Ratio (z) = 0.28220 -0.04105
#
# Static dielectric constant tensor:
#      x y z
#    x 5.812280 0.557550 0.146430 
#    y 0.557550 5.376940 -0.445040 
#    z 0.146430 -0.445040 5.268470 
# 
# 
# High freq. dielectric constant tensor:
#      x y z
#    x 2.164230 0.015590 0.024230 
#    y 0.015590 2.164040 -0.026830 
#    z 0.024230 -0.026830 2.166680 
# 
# From -- ./inp_files/69282.got.cif
#   From: 2010.06.25/outbox.cif.g09.slc.cpg/sg2_35_cif.got.tgz:69282.got - 2010.06.27 13:26:56.
