data_PCOD8025502
_publ_section_title
;
Structure prediction by ZEFSAII (Michael W. Deem and Ramdas Pophale) SiO2 
 PCOD8025502
Probable space group: P -1
;
_chemical_formula_sum "Si O2"
_cell_formula_units_Z 16
_cell_length_a 8.540305
_cell_length_b 13.554835
_cell_length_c 7.956869
_cell_angle_alpha 89.536429
_cell_angle_beta 50.528196
_cell_angle_gamma 87.473147
_cell_volume 710.107874
_symmetry_space_group_name_H-M "P -1"
_symmetry_group_IT_number 2
_symmetry_cell_setting 'triclinic'
loop_
_space_group_symop_operation_xyz
x,y,z
-x,-y,-z
loop_
_atom_site_type_symbol
_atom_site_label
_atom_site_fract_x
_atom_site_fract_y
_atom_site_fract_z
Si Si1 0.951407 0.116680 0.036265
Si Si2 0.285456 0.257635 0.739666
Si Si3 0.729799 0.202712 0.479963
Si Si4 0.239003 0.983008 0.325369
Si Si5 0.433375 0.882023 0.905783
Si Si6 0.746611 0.399551 0.665136
Si Si7 0.621557 0.692550 0.950678
Si Si8 0.170048 0.397685 0.513045
O O1 0.923712 0.159365 0.242482
O O2 0.729226 0.151738 0.117154
O O3 0.131435 0.169896 0.818055
O O4 0.000000 0.000000 0.000000
O O5 0.513363 0.220658 0.533376
O O6 0.230397 0.344718 0.645534
O O7 0.267049 0.295069 0.945276
O O8 0.685801 0.119820 0.645552
O O9 0.793162 0.303616 0.519710
O O10 0.363368 0.073562 0.316599
O O11 0.306780 0.972452 0.085082
O O12 0.000000 0.000000 0.500000
O O13 0.498609 0.793442 0.985933
O O14 0.728795 0.496358 0.557100
O O15 0.926444 0.412166 0.676343
O O16 0.540464 0.391437 0.911665
O O17 0.769938 0.662423 0.697357
#
# Coordination Sequence:
#
# PCOD8025502 Si02
#       8
#     2   2   2   2   2   2   2   2
#     4  12  26  41  65  98 135 176 224 279 330 396
#     4  11  25  43  67 102 136 174 225 276 331 399
#     4  11  24  44  64  95 134 174 223 278 330 401
#     4  11  24  39  67  92 126 182 217 264 329 390
#     4  11  24  41  62  96 132 169 224 269 323 401
#     4  10  23  45  68  98 132 170 228 273 332 412
#     4  11  23  43  69  97 136 173 223 276 333 399
#     4  11  24  43  72  97 131 179 219 278 345 392
#
# _framework density 22.531787000000001
#
# number of rings (size 3 to 8) (size 9 to 14) (size 15 to 20)
#    0.000    1.000    2.500    4.125    5.250    6.000 
#    0.000    6.875    0.000    0.000    0.000    0.000 
#    0.000    0.000    0.000    0.000    0.000    0.000 
#
# Total GULP energy -198321.088009 kJ/mol
# GULP energy per Si atom -12395.068001 kJ/mol
# Density = 2.248050 g / cm^3
# Si number density = 22.531787 Si / 1000 Ang^3
#
#
#
# Elastic Constant Matrix: (Units=GPa)
#
#
# Indices 1 2 3 4 5 6 
#
# 1 111.7500 52.0755 34.8251 -27.8277 -11.3340 -9.7566
# 2 52.0755 133.1103 25.4337 -47.1178 3.7443 -4.6238
# 3 34.8251 25.4337 74.2362 -23.3404 -1.9597 2.8005
# 4 -27.8277 -47.1178 -23.3404 31.2451 11.7882 -0.4735
# 5 -11.3340 3.7443 -1.9597 11.7882 44.6665 -10.4417
# 6 -9.7566 -4.6238 2.8005 -0.4735 -10.4417 34.0967
#
#
#
# Elastic Compliance Matrix: (Units=1/GPa)
#
#
# Indices 1 2 3 4 5 6 
#
# 1 0.013382 -0.004080 -0.004778 0.000549 0.004570 0.005075
# 2 -0.004080 0.022405 0.006624 0.040271 -0.013798 -0.002340
# 3 -0.004778 0.006624 0.021124 0.024603 -0.008368 -0.004425
# 4 0.000549 0.040271 0.024603 0.125323 -0.036605 -0.005872
# 5 0.004570 -0.013798 -0.008368 -0.036605 0.036522 0.010800
# 6 0.005075 -0.002340 -0.004425 -0.005872 0.010800 0.034053
#
#
# Mechanical properties :
#
#
# Convention : Reuss Voigt Hill
#
# Bulk Modulus (GPa) = 19.06874 60.41836 39.74355
# Shear Modulus (GPa) = 18.19767 35.78581 26.99174
#
# Velocity S-wave (km/s) = 2.84499 3.98959 3.46488
# Velocity P-wave (km/s) = 4.39015 6.93508 5.80383
#
# Compressibility (1/GPa) = 0.05244186
#
# Stress axis : x y z
#
# Youngs Moduli (GPa) = 74.72542 44.63235 47.33938
#
# Poissons Ratio (x) = 0.18212 0.22619
# Poissons Ratio (y) = 0.30491 -0.31356
# Poissons Ratio (z) = 0.35705 -0.29563
#
# Static dielectric constant tensor:
#      x y z
#    x 4.037580 0.026680 -0.134620 
#    y 0.026680 4.109260 -0.145140 
#    z -0.134620 -0.145140 4.029330 
# 
# 
# High freq. dielectric constant tensor:
#      x y z
#    x 1.887550 0.001100 -0.014290 
#    y 0.001100 1.891040 -0.007760 
#    z -0.014290 -0.007760 1.894290 
# 
# From -- ./inp_files/186377.got.cif
#   From: 2010.06.25/outbox.cif.g09.slc.cpg/sg2_94_cif.got.tgz:186377.got - 2010.06.27 13:26:56.
