data_PCOD8025980
_publ_section_title
;
Structure prediction by ZEFSAII (Michael W. Deem and Ramdas Pophale) SiO2 
 PCOD8025980
Probable space group: P -1
;
_chemical_formula_sum "Si O2"
_cell_formula_units_Z 16
_cell_length_a 15.146687
_cell_length_b 8.856485
_cell_length_c 8.771515
_cell_angle_alpha 144.963088
_cell_angle_beta 68.195344
_cell_angle_gamma 98.858796
_cell_volume 601.807145
_symmetry_space_group_name_H-M "P -1"
_symmetry_group_IT_number 2
_symmetry_cell_setting 'triclinic'
loop_
_space_group_symop_operation_xyz
x,y,z
-x,-y,-z
loop_
_atom_site_type_symbol
_atom_site_label
_atom_site_fract_x
_atom_site_fract_y
_atom_site_fract_z
Si Si1 0.700559 0.072857 0.418986
Si Si2 0.358938 0.627882 0.762383
Si Si3 0.874142 0.663308 0.112166
Si Si4 0.952627 0.203482 0.062005
Si Si5 0.416775 0.010990 0.829306
Si Si6 0.847513 0.087076 0.753403
Si Si7 0.748575 0.522481 0.555513
Si Si8 0.563188 0.344731 0.967941
O O1 0.781447 0.788787 0.164305
O O2 0.744914 0.253235 0.426774
O O3 0.671593 0.203318 0.712891
O O4 0.596468 0.054974 0.395021
O O5 0.315454 0.431982 0.523744
O O6 0.266892 0.868435 0.088060
O O7 0.420487 0.474461 0.745980
O O8 0.432667 0.753972 0.719994
O O9 0.971510 0.653798 0.945708
O O10 0.876531 0.838068 0.408892
O O11 0.869487 0.358873 0.895834
O O12 0.912293 0.023546 0.814995
O O13 0.864154 0.467996 0.396870
O O14 0.000000 0.000000 0.000000
O O15 0.304352 0.211154 0.093782
O O16 0.507742 0.134463 0.899615
O O17 0.500000 0.500000 0.000000
#
# Coordination Sequence:
#
# PCOD8025980 Si02
#       8
#     2   2   2   2   2   2   2   2
#     4  11  24  44  71 105 140 188 242 302 362 430
#     4  10  25  45  70 103 138 195 236 303 363 437
#     4  12  26  49  75 108 149 193 243 300 367 434
#     4  11  24  46  75 111 143 192 245 298 360 435
#     4  11  25  46  70  98 146 186 244 299 366 436
#     4  11  27  49  75 105 152 193 243 299 367 435
#     4  10  23  47  69 101 145 187 239 294 368 435
#     4  12  24  44  72 103 141 186 248 301 366 431
#
# _framework density 26.586590999999999
#
# number of rings (size 3 to 8) (size 9 to 14) (size 15 to 20)
#    0.000    1.000    3.750    1.500    7.000    0.500 
#    6.750    3.125    0.000    0.000    0.000    0.000 
#    0.000    0.000    0.000    0.000    0.000    0.000 
#
# Total GULP energy -198315.418390 kJ/mol
# GULP energy per Si atom -12394.713649 kJ/mol
# Density = 2.652608 g / cm^3
# Si number density = 26.586591 Si / 1000 Ang^3
#
#
#
# Elastic Constant Matrix: (Units=GPa)
#
#
# Indices 1 2 3 4 5 6 
#
# 1 80.1257 52.0502 -14.8579 -16.2618 11.4143 -19.8595
# 2 52.0502 105.5451 21.8401 -18.2764 17.3742 -12.9722
# 3 -14.8579 21.8401 48.7638 -16.9899 6.1486 7.7436
# 4 -16.2618 -18.2764 -16.9899 37.6530 5.3081 -2.9729
# 5 11.4143 17.3742 6.1486 5.3081 35.6657 -12.1731
# 6 -19.8595 -12.9722 7.7436 -2.9729 -12.1731 64.1147
#
#
#
# Elastic Compliance Matrix: (Units=1/GPa)
#
#
# Indices 1 2 3 4 5 6 
#
# 1 0.034191 -0.016855 0.025365 0.019546 -0.008874 0.003338
# 2 -0.016855 0.020552 -0.015732 -0.004208 -0.001134 0.000427
# 3 0.025365 -0.015732 0.046285 0.025868 -0.013032 -0.002191
# 4 0.019546 -0.004208 0.025868 0.046877 -0.015174 0.001371
# 5 -0.008874 -0.001134 -0.013032 -0.015174 0.037656 0.005042
# 6 0.003338 0.000427 -0.002191 0.001371 0.005042 0.018003
#
#
# Mechanical properties :
#
#
# Convention : Reuss Voigt Hill
#
# Bulk Modulus (GPa) = 11.54902 39.16660 25.35781
# Shear Modulus (GPa) = 20.25365 39.18016 29.71691
#
# Velocity S-wave (km/s) = 2.76307 3.84302 3.34689
# Velocity P-wave (km/s) = 3.81218 5.86988 4.94915
#
# Compressibility (1/GPa) = 0.08658741
#
# Stress axis : x y z
#
# Youngs Moduli (GPa) = 29.24707 48.65636 21.60515
#
# Poissons Ratio (x) = 0.82009 -0.54803
# Poissons Ratio (y) = 0.49295 0.33988
# Poissons Ratio (z) = -0.74187 0.76544
#
# Static dielectric constant tensor:
#      x y z
#    x 3.141540 -1.116680 0.926460 
#    y -1.116680 4.378190 0.049290 
#    z 0.926460 0.049290 4.424770 
# 
# 
# High freq. dielectric constant tensor:
#      x y z
#    x 2.076630 -0.008710 -0.008530 
#    y -0.008710 2.078650 -0.028590 
#    z -0.008530 -0.028590 2.062880 
# 
# From -- ./inp_files/106564.got.cif
#   From: 2010.06.25/outbox.cif.g09.slc.cpg/sg2_54_cif.got.tgz:106564.got - 2010.06.27 13:26:56.
