data_PCOD8025284
_publ_section_title
;
Structure prediction by ZEFSAII (Michael W. Deem and Ramdas Pophale) SiO2 
 PCOD8025284
Probable space group: P -1
;
_chemical_formula_sum "Si O2"
_cell_formula_units_Z 16
_cell_length_a 11.915756
_cell_length_b 11.346711
_cell_length_c 8.687253
_cell_angle_alpha 132.477771
_cell_angle_beta 124.693839
_cell_angle_gamma 73.151792
_cell_volume 703.552515
_symmetry_space_group_name_H-M "P -1"
_symmetry_group_IT_number 2
_symmetry_cell_setting 'triclinic'
loop_
_space_group_symop_operation_xyz
x,y,z
-x,-y,-z
loop_
_atom_site_type_symbol
_atom_site_label
_atom_site_fract_x
_atom_site_fract_y
_atom_site_fract_z
Si Si1 0.668908 0.860138 0.657653
Si Si2 0.579810 0.380402 0.870417
Si Si3 0.042670 0.176108 0.120597
Si Si4 0.519461 0.824377 0.809863
Si Si5 0.779325 0.232106 0.100395
Si Si6 0.227725 0.673604 0.465737
Si Si7 0.977425 0.820126 0.259897
Si Si8 0.705161 0.606314 0.898579
O O1 0.530463 0.782702 0.392149
O O2 0.799657 0.766104 0.646595
O O3 0.641516 0.837128 0.795642
O O4 0.712736 0.051634 0.834596
O O5 0.693945 0.349106 0.051569
O O6 0.660161 0.464848 0.861070
O O7 0.500000 0.500000 0.000000
O O8 0.033008 0.175401 0.928106
O O9 0.937426 0.282202 0.209343
O O10 0.000000 0.000000 0.000000
O O11 0.369726 0.753821 0.565597
O O12 0.571988 0.700074 0.863118
O O13 0.500000 0.000000 0.000000
O O14 0.773951 0.264550 0.306355
O O15 0.237796 0.481981 0.286428
O O16 0.100622 0.723308 0.316570
O O17 0.837705 0.736177 0.162536
O O18 0.000000 0.000000 0.500000
#
# Coordination Sequence:
#
# PCOD8025284 Si02
#       8
#     2   2   2   2   2   2   2   2
#     4  11  23  46  73 103 140 194 240 299 353 431
#     4  12  28  45  69 108 150 190 239 301 375 426
#     4  10  23  44  72 104 142 182 238 301 354 414
#     4  12  23  43  76 103 137 185 248 296 359 431
#     4  11  25  47  72 106 146 196 244 293 361 433
#     4  12  25  44  73 106 144 190 241 299 365 426
#     4  12  25  47  73 106 142 194 251 292 354 444
#     4  12  27  47  71 105 148 189 241 306 363 437
#
# _framework density 22.741727999999998
#
# number of rings (size 3 to 8) (size 9 to 14) (size 15 to 20)
#    0.000    0.500    3.750    4.875    1.750    3.000 
#    0.000    1.875    0.000    0.000    0.000    0.000 
#    0.000    0.000    0.000    0.000    0.000    0.000 
#
# Total GULP energy -198234.389399 kJ/mol
# GULP energy per Si atom -12389.649337 kJ/mol
# Density = 2.268997 g / cm^3
# Si number density = 22.741728 Si / 1000 Ang^3
#
#
#
# Elastic Constant Matrix: (Units=GPa)
#
#
# Indices 1 2 3 4 5 6 
#
# 1 135.8072 39.6666 35.6012 -3.0488 15.8769 -16.7850
# 2 39.6666 108.4209 33.3449 -14.2696 -3.0894 -23.8906
# 3 35.6012 33.3449 82.2833 8.8040 5.0472 -9.2962
# 4 -3.0488 -14.2696 8.8040 43.5380 -7.7089 -0.2346
# 5 15.8769 -3.0894 5.0472 -7.7089 39.8003 -3.5714
# 6 -16.7850 -23.8906 -9.2962 -0.2346 -3.5714 43.3620
#
#
#
# Elastic Compliance Matrix: (Units=1/GPa)
#
#
# Indices 1 2 3 4 5 6 
#
# 1 0.009347 -0.002410 -0.002670 -0.000205 -0.003489 0.001430
# 2 -0.002410 0.013857 -0.004815 0.006156 0.004384 0.006064
# 3 -0.002670 -0.004815 0.015932 -0.005419 -0.002423 -0.000500
# 4 -0.000205 0.006156 -0.005419 0.027285 0.006788 0.002857
# 5 -0.003489 0.004384 -0.002423 0.006788 0.028744 0.002950
# 6 0.001430 0.006064 -0.000500 0.002857 0.002950 0.027107
#
#
# Mechanical properties :
#
#
# Convention : Reuss Voigt Hill
#
# Bulk Modulus (GPa) = 51.69208 60.41520 56.05364
# Shear Modulus (GPa) = 33.66748 39.86665 36.76707
#
# Velocity S-wave (km/s) = 3.85181 4.19145 4.02521
# Velocity P-wave (km/s) = 6.52390 7.07445 6.80474
#
# Compressibility (1/GPa) = 0.01934532
#
# Stress axis : x y z
#
# Youngs Moduli (GPa) = 106.98431 72.16443 62.76795
#
# Poissons Ratio (x) = 0.17392 0.16760
# Poissons Ratio (y) = 0.25783 0.30225
# Poissons Ratio (z) = 0.28566 0.34749
#
# Static dielectric constant tensor:
#      x y z
#    x 4.897820 -0.183240 0.182060 
#    y -0.183240 4.084260 -0.106860 
#    z 0.182060 -0.106860 3.901550 
# 
# 
# High freq. dielectric constant tensor:
#      x y z
#    x 1.920020 -0.012130 0.014230 
#    y -0.012130 1.903830 0.004470 
#    z 0.014230 0.004470 1.892030 
# 
# From -- ./inp_files/184385.got.cif
#   From: 2010.06.25/outbox.cif.g09.slc.cpg/sg2_93_cif.got.tgz:184385.got - 2010.06.27 13:26:56.
