data_PCOD8025438
_publ_section_title
;
Structure prediction by ZEFSAII (Michael W. Deem and Ramdas Pophale) SiO2 
 PCOD8025438
Probable space group: P -1
;
_chemical_formula_sum "Si O2"
_cell_formula_units_Z 16
_cell_length_a 12.297570
_cell_length_b 11.825114
_cell_length_c 10.818390
_cell_angle_alpha 71.595023
_cell_angle_beta 85.924848
_cell_angle_gamma 144.697978
_cell_volume 690.410770
_symmetry_space_group_name_H-M "P -1"
_symmetry_group_IT_number 2
_symmetry_cell_setting 'triclinic'
loop_
_space_group_symop_operation_xyz
x,y,z
-x,-y,-z
loop_
_atom_site_type_symbol
_atom_site_label
_atom_site_fract_x
_atom_site_fract_y
_atom_site_fract_z
Si Si1 0.658040 0.438068 0.282108
Si Si2 0.043338 0.301614 0.188176
Si Si3 0.049597 0.338842 0.454774
Si Si4 0.128179 0.917860 0.188593
Si Si5 0.268807 0.311334 0.013691
Si Si6 0.601933 0.040223 0.607504
Si Si7 0.479898 0.169058 0.614179
Si Si8 0.526531 0.119364 0.065042
O O1 0.652277 0.556593 0.168890
O O2 0.515267 0.313958 0.466258
O O3 0.922102 0.653396 0.220969
O O4 0.547039 0.225407 0.284520
O O5 0.043157 0.268632 0.346041
O O6 0.119133 0.259801 0.121325
O O7 0.206024 0.573866 0.056624
O O8 0.785276 0.084613 0.228350
O O9 0.319321 0.633114 0.364859
O O10 0.926871 0.139027 0.639571
O O11 0.879950 0.291461 0.471438
O O12 0.367453 0.084078 0.074734
O O13 0.123261 0.049505 0.096475
O O14 0.500000 0.500000 0.000000
O O15 0.510245 0.080903 0.545021
O O16 0.558543 0.037965 0.755093
O O17 0.500000 0.000000 0.000000
#
# Coordination Sequence:
#
# PCOD8025438 Si02
#       8
#     2   2   2   2   2   2   2   2
#     4  11  23  43  69  99 130 178 237 272 338 414
#     4  12  25  42  69 103 139 175 233 283 337 405
#     4  10  23  45  67 103 139 178 231 272 346 404
#     4  10  24  46  71  95 135 187 226 283 336 403
#     4  12  24  48  68  93 134 187 234 276 343 402
#     4  11  21  44  69  95 145 184 221 272 347 413
#     4  11  25  41  69 105 141 179 222 284 342 407
#     4  11  24  42  67 103 137 179 227 278 343 405
#
# _framework density 23.174610999999999
#
# number of rings (size 3 to 8) (size 9 to 14) (size 15 to 20)
#    0.000    1.000    3.750    2.625    1.750    4.000 
#    2.250    1.250    0.000    0.000    0.000    0.000 
#    0.000    0.000    0.000    0.000    0.000    0.000 
#
# Total GULP energy -198313.724606 kJ/mol
# GULP energy per Si atom -12394.607788 kJ/mol
# Density = 2.312186 g / cm^3
# Si number density = 23.174611 Si / 1000 Ang^3
#
#
#
# Elastic Constant Matrix: (Units=GPa)
#
#
# Indices 1 2 3 4 5 6 
#
# 1 102.9485 26.8526 37.8455 -23.7807 -5.9485 -0.5528
# 2 26.8526 95.5392 28.9546 -34.4988 -19.1413 4.6024
# 3 37.8455 28.9546 96.8166 -23.0125 -8.9574 4.6272
# 4 -23.7807 -34.4988 -23.0125 32.8108 8.4649 -8.7532
# 5 -5.9485 -19.1413 -8.9574 8.4649 43.1277 -2.1230
# 6 -0.5528 4.6024 4.6272 -8.7532 -2.1230 42.3159
#
#
#
# Elastic Compliance Matrix: (Units=1/GPa)
#
#
# Indices 1 2 3 4 5 6 
#
# 1 0.012646 -0.000025 -0.003290 0.007461 -0.000313 0.002055
# 2 -0.000025 0.017857 -0.000844 0.017566 0.004398 0.002004
# 3 -0.003290 -0.000844 0.013335 0.005834 0.000788 -0.000163
# 4 0.007461 0.017566 0.005834 0.061568 -0.001545 0.010207
# 5 -0.000313 0.004398 0.000788 -0.001545 0.025582 0.000395
# 6 0.002055 0.002004 -0.000163 0.010207 0.000395 0.025590
#
#
# Mechanical properties :
#
#
# Convention : Reuss Voigt Hill
#
# Bulk Modulus (GPa) = 28.15336 53.62330 40.88833
# Shear Modulus (GPa) = 28.29096 37.09432 32.69264
#
# Velocity S-wave (km/s) = 3.49775 4.00515 3.76002
# Velocity P-wave (km/s) = 5.33733 6.67662 6.04419
#
# Compressibility (1/GPa) = 0.03551974
#
# Stress axis : x y z
#
# Youngs Moduli (GPa) = 79.07750 55.99960 74.99342
#
# Poissons Ratio (x) = 0.00140 0.24669
# Poissons Ratio (y) = 0.00197 0.06333
# Poissons Ratio (z) = 0.26013 0.04729
#
# Static dielectric constant tensor:
#      x y z
#    x 4.457260 -0.056640 0.382030 
#    y -0.056640 4.548290 -0.048120 
#    z 0.382030 -0.048120 4.548550 
# 
# 
# High freq. dielectric constant tensor:
#      x y z
#    x 1.897190 0.017250 0.012260 
#    y 0.017250 1.932530 -0.003020 
#    z 0.012260 -0.003020 1.929970 
# 
# From -- ./inp_files/427990.got.cif
#   From: 2010.06.25/outbox.cif.g09.slc.cpg/sg2_214_cif.got.tgz:427990.got - 2010.06.27 13:26:56.
