data_PCOD8025823
_publ_section_title
;
Structure prediction by ZEFSAII (Michael W. Deem and Ramdas Pophale) SiO2 
 PCOD8025823
Probable space group: P -1
;
_chemical_formula_sum "Si O2"
_cell_formula_units_Z 16
_cell_length_a 16.315066
_cell_length_b 7.679927
_cell_length_c 21.511567
_cell_angle_alpha 64.596796
_cell_angle_beta 161.352110
_cell_angle_gamma 108.014782
_cell_volume 733.107300
_symmetry_space_group_name_H-M "P -1"
_symmetry_group_IT_number 2
_symmetry_cell_setting 'triclinic'
loop_
_space_group_symop_operation_xyz
x,y,z
-x,-y,-z
loop_
_atom_site_type_symbol
_atom_site_label
_atom_site_fract_x
_atom_site_fract_y
_atom_site_fract_z
Si Si1 0.545634 0.345714 0.456844
Si Si2 0.314177 0.744876 0.288007
Si Si3 0.596179 0.128740 0.298725
Si Si4 0.046282 0.695970 0.679731
Si Si5 0.987732 0.309624 0.482472
Si Si6 0.874152 0.727630 0.150221
Si Si7 0.447740 0.915210 0.912418
Si Si8 0.276585 0.202166 0.173500
O O1 0.489474 0.589687 0.384437
O O2 0.545163 0.282209 0.538683
O O3 0.328199 0.284677 0.266314
O O4 0.840050 0.234383 0.655267
O O5 0.300109 0.966837 0.223979
O O6 0.030951 0.691592 0.089497
O O7 0.727638 0.257928 0.328952
O O8 0.502305 0.231797 0.283361
O O9 0.314114 0.144930 0.060012
O O10 0.795663 0.897607 0.487372
O O11 0.018627 0.614170 0.603848
O O12 0.077415 0.516269 0.779429
O O13 0.328044 0.739278 0.871181
O O14 0.000000 0.500000 0.500000
O O15 0.242019 0.099230 0.697286
O O16 0.736817 0.822055 0.101521
O O17 0.500000 0.000000 0.000000
#
# Coordination Sequence:
#
# PCOD8025823 Si02
#       8
#     2   2   2   2   2   2   2   2
#     4  11  24  42  69 101 129 167 224 270 328 413
#     4  10  23  46  69  95 131 172 211 273 347 390
#     4  11  23  43  61  95 130 169 221 271 326 386
#     4  11  23  41  62  85 131 178 214 270 323 374
#     4  11  23  40  61  89 130 176 220 265 319 384
#     4  12  23  41  65  93 130 171 219 274 324 386
#     4  11  23  39  61  91 127 174 222 265 318 387
#     4  11  23  43  71  95 132 173 212 275 338 397
#
# _framework density 21.824907
#
# number of rings (size 3 to 8) (size 9 to 14) (size 15 to 20)
#    0.000    1.000    3.750    3.375    7.000    0.000 
#    0.000    0.000    2.750    0.000    0.000    0.000 
#    0.000    0.000    0.000    0.000    0.000    0.000 
#
# Total GULP energy -198267.373243 kJ/mol
# GULP energy per Si atom -12391.710828 kJ/mol
# Density = 2.177523 g / cm^3
# Si number density = 21.824907 Si / 1000 Ang^3
#
#
#
# Elastic Constant Matrix: (Units=GPa)
#
#
# Indices 1 2 3 4 5 6 
#
# 1 84.6456 3.8012 32.9248 6.5275 3.4532 -22.0649
# 2 3.8012 57.0249 11.9437 -1.2362 1.5228 -13.0979
# 3 32.9248 11.9437 77.3452 5.3616 4.6853 -13.2441
# 4 6.5275 -1.2362 5.3616 28.0558 -4.1169 -7.1734
# 5 3.4532 1.5228 4.6853 -4.1169 37.0424 3.8855
# 6 -22.0649 -13.0979 -13.2441 -7.1734 3.8855 33.1656
#
#
#
# Elastic Compliance Matrix: (Units=1/GPa)
#
#
# Indices 1 2 3 4 5 6 
#
# 1 0.016567 0.002375 -0.005574 -0.000457 -0.002023 0.009872
# 2 0.002375 0.020172 -0.002662 0.003023 -0.001353 0.009296
# 3 -0.005574 -0.002662 0.016207 -0.001787 -0.001780 0.001535
# 4 -0.000457 0.003023 -0.001787 0.038838 0.003605 0.008154
# 5 -0.002023 -0.001353 -0.001780 0.003605 0.028405 -0.005139
# 6 0.009872 0.009296 0.001535 0.008154 -0.005139 0.043369
#
#
# Mechanical properties :
#
#
# Convention : Reuss Voigt Hill
#
# Bulk Modulus (GPa) = 24.25789 35.15057 29.70423
# Shear Modulus (GPa) = 26.45187 31.00919 28.73053
#
# Velocity S-wave (km/s) = 3.48516 3.77346 3.63217
# Velocity P-wave (km/s) = 5.22820 5.92672 5.58838
#
# Compressibility (1/GPa) = 0.04122369
#
# Stress axis : x y z
#
# Youngs Moduli (GPa) = 60.36223 49.57317 61.70006
#
# Poissons Ratio (x) = -0.11772 0.34393
# Poissons Ratio (y) = -0.14334 0.16423
# Poissons Ratio (z) = 0.33648 0.13195
#
# Static dielectric constant tensor:
#      x y z
#    x 3.944850 -0.089330 0.098470 
#    y -0.089330 3.790920 -0.057220 
#    z 0.098470 -0.057220 4.191140 
# 
# 
# High freq. dielectric constant tensor:
#      x y z
#    x 1.862530 -0.009990 0.003180 
#    y -0.009990 1.841410 -0.010710 
#    z 0.003180 -0.010710 1.871980 
# 
# From -- ./inp_files/297424.got.cif
#   From: 2010.06.25/outbox.cif.g09.slc.cpg/sg2_149_cif.got.tgz:297424.got - 2010.06.27 13:26:56.
