data_PCOD8025347
_publ_section_title
;
Structure prediction by ZEFSAII (Michael W. Deem and Ramdas Pophale) SiO2 
 PCOD8025347
Probable space group: P -1
;
_chemical_formula_sum "Si O2"
_cell_formula_units_Z 16
_cell_length_a 6.625126
_cell_length_b 22.064107
_cell_length_c 24.345387
_cell_angle_alpha 17.942713
_cell_angle_beta 118.182033
_cell_angle_gamma 129.184094
_cell_volume 715.541279
_symmetry_space_group_name_H-M "P -1"
_symmetry_group_IT_number 2
_symmetry_cell_setting 'triclinic'
loop_
_space_group_symop_operation_xyz
x,y,z
-x,-y,-z
loop_
_atom_site_type_symbol
_atom_site_label
_atom_site_fract_x
_atom_site_fract_y
_atom_site_fract_z
Si Si1 0.378390 0.275037 0.340654
Si Si2 0.197460 0.817124 0.655582
Si Si3 0.271890 0.461547 0.737832
Si Si4 0.381520 0.776680 0.135087
Si Si5 0.298212 0.012117 0.116470
Si Si6 0.355233 0.088956 0.689735
Si Si7 0.712474 0.554969 0.030146
Si Si8 0.612018 0.523595 0.433076
O O1 0.659116 0.460736 0.256930
O O2 0.103144 0.251593 0.349905
O O3 0.267423 0.981184 0.578967
O O4 0.479297 0.391223 0.191986
O O5 0.500000 0.000000 0.500000
O O6 0.121559 0.544148 0.887703
O O7 0.525002 0.695887 0.527503
O O8 0.979021 0.431664 0.718327
O O9 0.218249 0.197316 0.951986
O O10 0.534845 0.656029 0.268406
O O11 0.457713 0.883262 0.991042
O O12 0.500000 0.000000 0.000000
O O13 0.462162 0.015560 0.189767
O O14 0.983542 0.712335 0.319737
O O15 0.428789 0.231752 0.635560
O O16 0.992596 0.855190 0.829103
O O17 0.500000 0.500000 0.000000
O O18 0.500000 0.500000 0.500000
#
# Coordination Sequence:
#
# PCOD8025347 Si02
#       8
#     2   2   2   2   2   2   2   2
#     4  10  23  44  74  99 135 188 233 281 360 420
#     4   9  21  44  71  96 131 178 236 282 355 407
#     4  12  26  45  73 105 144 187 238 287 351 425
#     4  12  23  44  72 100 138 192 234 284 356 413
#     4  12  25  48  72  99 153 185 233 299 347 419
#     4  12  27  46  69 110 142 185 244 291 353 423
#     4  11  26  46  70 103 147 180 233 302 351 416
#     4  12  25  45  74 105 146 191 236 292 352 422
#
# _framework density 22.360693999999999
#
# number of rings (size 3 to 8) (size 9 to 14) (size 15 to 20)
#    0.000    0.750    2.500    4.500    7.000    2.500 
#    4.500    0.000    0.000    0.000    0.000    0.000 
#    0.000    0.000    0.000    0.000    0.000    0.000 
#
# Total GULP energy -198249.254918 kJ/mol
# GULP energy per Si atom -12390.578432 kJ/mol
# Density = 2.230980 g / cm^3
# Si number density = 22.360694 Si / 1000 Ang^3
#
#
#
# Elastic Constant Matrix: (Units=GPa)
#
#
# Indices 1 2 3 4 5 6 
#
# 1 89.2253 32.8865 29.7161 -2.6592 -2.8012 8.0240
# 2 32.8865 141.6438 45.0893 -13.4633 -3.8137 4.3317
# 3 29.7161 45.0893 99.2033 -11.4450 -0.8351 1.5462
# 4 -2.6592 -13.4633 -11.4450 43.0919 4.9050 -5.1259
# 5 -2.8012 -3.8137 -0.8351 4.9050 34.4600 -0.3620
# 6 8.0240 4.3317 1.5462 -5.1259 -0.3620 40.9310
#
#
#
# Elastic Compliance Matrix: (Units=1/GPa)
#
#
# Indices 1 2 3 4 5 6 
#
# 1 0.013215 -0.002089 -0.003085 -0.001040 0.000892 -0.002376
# 2 -0.002089 0.008722 -0.003137 0.001687 0.000477 -0.000180
# 3 -0.003085 -0.003137 0.012686 0.002358 -0.000618 0.000747
# 4 -0.001040 0.001687 0.002358 0.025041 -0.003373 0.003042
# 5 0.000892 0.000477 -0.000618 -0.003373 0.029606 -0.000363
# 6 -0.002376 -0.000180 0.000747 0.003042 -0.000363 0.025266
#
#
# Mechanical properties :
#
#
# Convention : Reuss Voigt Hill
#
# Bulk Modulus (GPa) = 55.55014 60.60624 58.07819
# Shear Modulus (GPa) = 36.45435 38.52197 37.48816
#
# Velocity S-wave (km/s) = 4.04206 4.15511 4.09898
# Velocity P-wave (km/s) = 6.83235 7.08397 6.95930
#
# Compressibility (1/GPa) = 0.01800176
#
# Stress axis : x y z
#
# Youngs Moduli (GPa) = 75.66940 114.64871 78.83014
#
# Poissons Ratio (x) = 0.23945 0.24318
# Poissons Ratio (y) = 0.15804 0.24731
# Poissons Ratio (z) = 0.23343 0.35969
#
# Static dielectric constant tensor:
#      x y z
#    x 4.059430 -0.050180 0.196030 
#    y -0.050180 3.989530 -0.202390 
#    z 0.196030 -0.202390 4.255450 
# 
# 
# High freq. dielectric constant tensor:
#      x y z
#    x 1.887500 0.006570 0.006320 
#    y 0.006570 1.883360 -0.010560 
#    z 0.006320 -0.010560 1.886460 
# 
# From -- ./inp_files/605131.got.cif
#   From: 2010.06.25/outbox.cif.g09.slc.cpg/sg2_303_cif.got.tgz:605131.got - 2010.06.27 13:26:56.
