data_PCOD8025769
_publ_section_title
;
Structure prediction by ZEFSAII (Michael W. Deem and Ramdas Pophale) SiO2 
 PCOD8025769
Probable space group: P -1
;
_chemical_formula_sum "Si O2"
_cell_formula_units_Z 16
_cell_length_a 5.431312
_cell_length_b 24.510747
_cell_length_c 11.331850
_cell_angle_alpha 32.047702
_cell_angle_beta 69.338816
_cell_angle_gamma 61.872067
_cell_volume 702.407521
_symmetry_space_group_name_H-M "P -1"
_symmetry_group_IT_number 2
_symmetry_cell_setting 'triclinic'
loop_
_space_group_symop_operation_xyz
x,y,z
-x,-y,-z
loop_
_atom_site_type_symbol
_atom_site_label
_atom_site_fract_x
_atom_site_fract_y
_atom_site_fract_z
Si Si1 0.004796 0.240902 0.405442
Si Si2 0.058471 0.072131 0.521695
Si Si3 0.863803 0.771502 0.213489
Si Si4 0.976909 0.542438 0.057978
Si Si5 0.537670 0.630994 0.594058
Si Si6 0.678108 0.940505 0.744245
Si Si7 0.190871 0.070645 0.876142
Si Si8 0.350782 0.563438 0.523193
O O1 0.762417 0.320566 0.382887
O O2 0.904491 0.180553 0.426462
O O3 0.220016 0.145503 0.623984
O O4 0.135652 0.324497 0.168580
O O5 0.146242 0.105192 0.319762
O O6 0.348513 0.000558 0.667892
O O7 0.829410 0.013402 0.654588
O O8 0.672045 0.725402 0.413966
O O9 0.969249 0.850641 0.134108
O O10 0.117575 0.668450 0.313017
O O11 0.694457 0.836766 0.010878
O O12 0.763310 0.510146 0.236720
O O13 0.288322 0.485165 0.163157
O O14 0.000000 0.500000 0.000000
O O15 0.538673 0.608309 0.494801
O O16 0.500000 0.000000 0.000000
O O17 0.000000 0.000000 0.000000
O O18 0.500000 0.500000 0.500000
#
# Coordination Sequence:
#
# PCOD8025769 Si02
#       8
#     2   2   2   2   2   2   2   2
#     4  12  23  43  72 103 136 189 236 295 371 425
#     4  10  24  43  67 102 140 184 243 294 354 439
#     4  11  24  43  71  98 141 186 230 296 366 429
#     4  11  24  45  70 106 142 181 240 304 364 437
#     4  11  24  45  69 102 144 179 244 307 363 444
#     4  10  23  46  66  99 143 187 234 296 358 434
#     4  12  25  42  69 109 145 186 238 294 359 439
#     4  11  26  47  70 104 141 189 243 304 370 443
#
# _framework density 22.778798999999999
#
# number of rings (size 3 to 8) (size 9 to 14) (size 15 to 20)
#    0.000    1.000    2.500    3.375    1.750    6.000 
#    4.500    0.000    0.000    0.000    0.000    0.000 
#    0.000    0.000    0.000    0.000    0.000    0.000 
#
# Total GULP energy -198295.485414 kJ/mol
# GULP energy per Si atom -12393.467838 kJ/mol
# Density = 2.272695 g / cm^3
# Si number density = 22.778799 Si / 1000 Ang^3
#
#
#
# Elastic Constant Matrix: (Units=GPa)
#
#
# Indices 1 2 3 4 5 6 
#
# 1 116.0010 31.2845 47.5833 -6.5585 1.7660 14.8847
# 2 31.2845 162.2058 40.9276 -5.0408 -7.0215 18.1507
# 3 47.5833 40.9276 170.4741 0.9126 7.7836 13.1036
# 4 -6.5585 -5.0408 0.9126 28.2643 7.1767 -2.0931
# 5 1.7660 -7.0215 7.7836 7.1767 14.9946 3.7340
# 6 14.8847 18.1507 13.1036 -2.0931 3.7340 32.2516
#
#
#
# Elastic Compliance Matrix: (Units=1/GPa)
#
#
# Indices 1 2 3 4 5 6 
#
# 1 0.010412 -0.001029 -0.002403 0.002293 -0.000809 -0.003007
# 2 -0.001029 0.007370 -0.001442 -0.000560 0.005526 -0.003763
# 3 -0.002403 -0.001442 0.007102 -0.000091 -0.003906 -0.000518
# 4 0.002293 -0.000560 -0.000091 0.041611 -0.021518 0.004486
# 5 -0.000809 0.005526 -0.003906 -0.021518 0.084779 -0.012362
# 6 -0.003007 -0.003763 -0.000518 0.004486 -0.012362 0.036445
#
#
# Mechanical properties :
#
#
# Convention : Reuss Voigt Hill
#
# Bulk Modulus (GPa) = 66.07369 76.47463 71.27416
# Shear Modulus (GPa) = 24.68978 37.02779 30.85879
#
# Velocity S-wave (km/s) = 3.29582 4.03617 3.68464
# Velocity P-wave (km/s) = 6.59946 7.44087 7.03276
#
# Compressibility (1/GPa) = 0.01513462
#
# Stress axis : x y z
#
# Youngs Moduli (GPa) = 96.04513 135.67972 140.81016
#
# Poissons Ratio (x) = 0.13961 0.33841
# Poissons Ratio (y) = 0.09883 0.20309
# Poissons Ratio (z) = 0.23083 0.19569
#
# Static dielectric constant tensor:
#      x y z
#    x 4.058550 0.440950 0.143600 
#    y 0.440950 3.845160 -0.138740 
#    z 0.143600 -0.138740 4.498390 
# 
# 
# High freq. dielectric constant tensor:
#      x y z
#    x 1.896310 0.015550 0.004410 
#    y 0.015550 1.898130 0.003990 
#    z 0.004410 0.003990 1.914180 
# 
# From -- ./inp_files/370973.got.cif
#   From: 2010.06.25/outbox.cif.g09.slc.cpg/sg2_186_cif.got.tgz:370973.got - 2010.06.27 13:26:56.
