data_PCOD8025272
_publ_section_title
;
Structure prediction by ZEFSAII (Michael W. Deem and Ramdas Pophale) SiO2 
 PCOD8025272
Probable space group: P -1
;
_chemical_formula_sum "Si O2"
_cell_formula_units_Z 14
_cell_length_a 20.314972
_cell_length_b 7.924897
_cell_length_c 5.074679
_cell_angle_alpha 67.378787
_cell_angle_beta 71.322675
_cell_angle_gamma 46.400804
_cell_volume 544.283442
_symmetry_space_group_name_H-M "P -1"
_symmetry_group_IT_number 2
_symmetry_cell_setting 'triclinic'
loop_
_space_group_symop_operation_xyz
x,y,z
-x,-y,-z
loop_
_atom_site_type_symbol
_atom_site_label
_atom_site_fract_x
_atom_site_fract_y
_atom_site_fract_z
Si Si1 0.639507 0.633932 0.015884
Si Si2 0.977105 0.421350 0.832752
Si Si3 0.920963 0.061612 0.747857
Si Si4 0.264487 0.797117 0.230244
Si Si5 0.196746 0.436037 0.158376
Si Si6 0.478027 0.881752 0.388744
Si Si7 0.690849 0.051073 0.406633
O O1 0.666102 0.477420 0.810157
O O2 0.733576 0.542918 0.093802
O O3 0.582753 0.916116 0.876348
O O4 0.572855 0.634351 0.297128
O O5 0.867048 0.585387 0.920735
O O6 0.000000 0.500000 0.500000
O O7 0.000000 0.500000 0.000000
O O8 0.036858 0.133193 0.951853
O O9 0.839725 0.094369 0.676341
O O10 0.881400 0.316230 0.750410
O O11 0.000000 0.000000 0.500000
O O12 0.298674 0.808932 0.465877
O O13 0.267122 0.954705 0.918669
O O14 0.254339 0.224121 0.423853
O O15 0.500000 0.000000 0.500000
O O16 0.415242 0.818800 0.600332
#
# Coordination Sequence:
#
# PCOD8025272 Si02
#       7
#     2   2   2   2   2   2   2
#     4   9  23  44  68 100 138 184 235 293 347 438
#     4  12  25  44  69 102 143 183 233 300 357 415
#     4  11  25  47  75 105 145 195 248 297 353 438
#     4  11  26  47  69 108 143 185 239 296 368 415
#     4  10  23  45  68 100 137 192 238 290 356 428
#     4  10  23  44  72 100 139 185 239 284 359 437
#     4  11  26  45  72 102 146 186 232 304 359 425
#
# _framework density 25.721892
#
# number of rings (size 3 to 8) (size 9 to 14) (size 15 to 20)
#    0.000    1.429    0.000    3.000    8.000    5.714 
#    5.143    0.000    0.000    0.000    0.000    0.000 
#    0.000    0.000    0.000    0.000    0.000    0.000 
#
# Total GULP energy -173436.053895 kJ/mol
# GULP energy per Si atom -12388.289564 kJ/mol
# Density = 2.566335 g / cm^3
# Si number density = 25.721892 Si / 1000 Ang^3
#
#
#
# Elastic Constant Matrix: (Units=GPa)
#
#
# Indices 1 2 3 4 5 6 
#
# 1 200.1796 36.1204 47.7266 34.5423 -24.0187 -33.7990
# 2 36.1204 120.8237 37.5426 14.9236 -29.5950 -22.3770
# 3 47.7266 37.5426 75.2215 12.6291 -16.5050 -12.5228
# 4 34.5423 14.9236 12.6291 43.6111 -3.6155 -15.2567
# 5 -24.0187 -29.5950 -16.5050 -3.6155 41.9690 5.4782
# 6 -33.7990 -22.3770 -12.5228 -15.2567 5.4782 36.9803
#
#
#
# Elastic Compliance Matrix: (Units=1/GPa)
#
#
# Indices 1 2 3 4 5 6 
#
# 1 0.007198 0.000595 -0.003060 -0.003361 0.002505 0.004145
# 2 0.000595 0.011975 -0.003899 -0.001139 0.006496 0.005038
# 3 -0.003060 -0.003899 0.017929 -0.001213 0.002439 0.000053
# 4 -0.003361 -0.001139 -0.001213 0.029005 -0.001757 0.008055
# 5 0.002505 0.006496 0.002439 -0.001757 0.030412 0.001816
# 6 0.004145 0.005038 0.000053 0.008055 0.001816 0.036950
#
#
# Mechanical properties :
#
#
# Convention : Reuss Voigt Hill
#
# Bulk Modulus (GPa) = 41.02610 71.00046 56.01328
# Shear Modulus (GPa) = 32.39957 42.83442 37.61699
#
# Velocity S-wave (km/s) = 3.55295 4.08522 3.82835
# Velocity P-wave (km/s) = 5.72851 7.06506 6.43160
#
# Compressibility (1/GPa) = 0.02437473
#
# Stress axis : x y z
#
# Youngs Moduli (GPa) = 138.92478 83.50797 55.77428
#
# Poissons Ratio (x) = -0.04973 0.17068
# Poissons Ratio (y) = -0.08273 0.21747
# Poissons Ratio (z) = 0.42514 0.32561
#
# Static dielectric constant tensor:
#      x y z
#    x 4.847520 0.193900 -0.716600 
#    y 0.193900 4.587020 0.257540 
#    z -0.716600 0.257540 4.179700 
# 
# 
# High freq. dielectric constant tensor:
#      x y z
#    x 2.051870 -0.013310 -0.023270 
#    y -0.013310 2.046430 -0.002600 
#    z -0.023270 -0.002600 2.006250 
# 
# From -- ./inp_files/116589.got.cif
#   From: 2010.06.25/outbox.cif.g09.slc.cpg/sg2_59_cif.got.tgz:116589.got - 2010.06.27 13:26:56.
