data_PCOD8025168
_publ_section_title
;
Structure prediction by ZEFSAII (Michael W. Deem and Ramdas Pophale) SiO2 
 PCOD8025168
Probable space group: P -1
;
_chemical_formula_sum "Si O2"
_cell_formula_units_Z 10
_cell_length_a 5.516560
_cell_length_b 8.079249
_cell_length_c 12.209482
_cell_angle_alpha 57.954730
_cell_angle_beta 115.411084
_cell_angle_gamma 122.551024
_cell_volume 380.862177
_symmetry_space_group_name_H-M "P -1"
_symmetry_group_IT_number 2
_symmetry_cell_setting 'triclinic'
loop_
_space_group_symop_operation_xyz
x,y,z
-x,-y,-z
loop_
_atom_site_type_symbol
_atom_site_label
_atom_site_fract_x
_atom_site_fract_y
_atom_site_fract_z
Si Si1 0.855486 0.244855 0.076180
Si Si2 0.905217 0.690978 0.513362
Si Si3 0.710155 0.717595 0.024406
Si Si4 0.694551 0.043602 0.338602
Si Si5 0.901780 0.274938 0.702243
O O1 0.904013 0.165672 0.233787
O O2 0.500206 0.164320 0.019863
O O3 0.000000 0.500000 0.000000
O O4 0.016852 0.147686 0.053237
O O5 0.732138 0.833658 0.463298
O O6 0.754101 0.449493 0.616269
O O7 0.918452 0.687390 0.387285
O O8 0.227642 0.796920 0.598483
O O9 0.862150 0.672061 0.175336
O O10 0.500000 0.500000 0.000000
O O11 0.355770 0.964396 0.261584
#
# Coordination Sequence:
#
# PCOD8025168 Si02
#       5
#     2   2   2   2   2
#     4  10  23  44  70 101 138 187 232 290 354 416
#     4  10  24  46  66 108 136 188 234 298 350 422
#     4  10  23  44  70 101 138 187 232 290 354 416
#     4  11  24  44  73 100 143 182 241 289 358 422
#     4  11  24  44  73 100 143 182 241 289 358 422
#
# _framework density 26.256218000000001
#
# number of rings (size 3 to 8) (size 9 to 14) (size 15 to 20)
#    0.000    1.600    0.000    3.600    5.600    1.600 
#   28.800    0.000    0.000    0.000    0.000    0.000 
#    0.000    0.000    0.000    0.000    0.000    0.000 
#
# Total GULP energy -123893.373334 kJ/mol
# GULP energy per Si atom -12389.337333 kJ/mol
# Density = 2.619646 g / cm^3
# Si number density = 26.256218 Si / 1000 Ang^3
#
#
#
# Elastic Constant Matrix: (Units=GPa)
#
#
# Indices 1 2 3 4 5 6 
#
# 1 128.9442 7.5725 32.4108 4.8450 -14.1386 7.3360
# 2 7.5725 96.3215 45.5014 21.6801 -5.1170 30.1581
# 3 32.4108 45.5014 149.1677 42.1905 -8.9108 12.6061
# 4 4.8450 21.6801 42.1905 45.0555 -6.1251 4.1537
# 5 -14.1386 -5.1170 -8.9108 -6.1251 29.9449 -2.0021
# 6 7.3360 30.1581 12.6061 4.1537 -2.0021 36.3635
#
#
#
# Elastic Compliance Matrix: (Units=1/GPa)
#
#
# Indices 1 2 3 4 5 6 
#
# 1 0.008701 0.000698 -0.002140 0.001388 0.003771 -0.001543
# 2 0.000698 0.016531 -0.002979 -0.004019 0.000622 -0.012325
# 3 -0.002140 -0.002979 0.010327 -0.008039 -0.000075 0.000236
# 4 0.001388 -0.004019 -0.008039 0.031861 0.004256 0.002435
# 5 0.003771 0.000622 -0.000075 0.004256 0.036147 0.000253
# 6 -0.001543 -0.012325 0.000236 0.002435 0.000253 0.037687
#
#
# Mechanical properties :
#
#
# Convention : Reuss Voigt Hill
#
# Bulk Modulus (GPa) = 37.42872 60.60030 49.01451
# Shear Modulus (GPa) = 31.44637 41.53601 36.49119
#
# Velocity S-wave (km/s) = 3.46450 3.98169 3.73206
# Velocity P-wave (km/s) = 5.50361 6.65349 6.10568
#
# Compressibility (1/GPa) = 0.02671745
#
# Stress axis : x y z
#
# Youngs Moduli (GPa) = 114.92284 60.49387 96.83668
#
# Poissons Ratio (x) = -0.04224 0.20727
# Poissons Ratio (y) = -0.08025 0.28844
# Poissons Ratio (z) = 0.24598 0.18019
#
# Static dielectric constant tensor:
#      x y z
#    x 3.098460 0.365390 0.593450 
#    y 0.365390 5.045440 -0.101440 
#    z 0.593450 -0.101440 4.638240 
# 
# 
# High freq. dielectric constant tensor:
#      x y z
#    x 2.036550 0.002010 0.011150 
#    y 0.002010 2.062600 0.002120 
#    z 0.011150 0.002120 2.064420 
# 
# From -- ./inp_files/18067.got.cif
#   From: 2010.06.25/outbox.cif.g09.slc.cpg/sg2_10_cif.got.tgz:18067.got - 2010.06.27 13:26:56.
