data_PCOD8025773
_publ_section_title
;
Structure prediction by ZEFSAII (Michael W. Deem and Ramdas Pophale) SiO2 
 PCOD8025773
Probable space group: P -1
;
_chemical_formula_sum "Si O2"
_cell_formula_units_Z 16
_cell_length_a 15.119254
_cell_length_b 8.981742
_cell_length_c 7.687369
_cell_angle_alpha 97.238526
_cell_angle_beta 90.514095
_cell_angle_gamma 38.486945
_cell_volume 637.661884
_symmetry_space_group_name_H-M "P -1"
_symmetry_group_IT_number 2
_symmetry_cell_setting 'triclinic'
loop_
_space_group_symop_operation_xyz
x,y,z
-x,-y,-z
loop_
_atom_site_type_symbol
_atom_site_label
_atom_site_fract_x
_atom_site_fract_y
_atom_site_fract_z
Si Si1 0.630673 0.605216 0.287268
Si Si2 0.934958 0.750826 0.185452
Si Si3 0.248478 0.402323 0.029959
Si Si4 0.367502 0.461147 0.331022
Si Si5 0.647516 0.020911 0.848269
Si Si6 0.635141 0.251200 0.155506
Si Si7 0.095852 0.009515 0.448906
Si Si8 0.955874 0.653605 0.684683
O O1 0.654189 0.596754 0.493178
O O2 0.657144 0.395723 0.210047
O O3 0.472014 0.873912 0.274680
O O4 0.737110 0.564638 0.165980
O O5 0.888642 0.890385 0.384353
O O6 0.079092 0.638070 0.103668
O O7 0.965375 0.527979 0.173474
O O8 0.795334 0.959473 0.096099
O O9 0.337170 0.392503 0.159604
O O10 0.321253 0.143227 0.023425
O O11 0.526983 0.321573 0.305367
O O12 0.254271 0.748202 0.358661
O O13 0.785999 0.861411 0.713284
O O14 0.582300 0.264715 0.966194
O O15 0.015476 0.206007 0.317363
O O16 0.000000 0.000000 0.500000
O O17 0.000000 0.500000 0.500000
#
# Coordination Sequence:
#
# PCOD8025773 Si02
#       8
#     2   2   2   2   2   2   2   2
#     4  12  26  45  75 108 138 194 239 296 365 417
#     4  10  23  46  67 103 142 186 237 293 355 429
#     4  11  26  50  70 103 150 184 240 301 355 427
#     4  12  26  45  75 106 143 188 243 294 355 431
#     4  11  25  47  70 103 146 190 238 298 357 425
#     4  12  26  45  73 106 144 187 244 297 353 432
#     4  11  21  42  69 104 141 184 237 299 350 418
#     4   9  22  40  68  97 137 191 229 285 356 420
#
# _framework density 25.091667000000001
#
# number of rings (size 3 to 8) (size 9 to 14) (size 15 to 20)
#    0.000    1.000    3.750    1.875    5.250    3.000 
#    4.500    0.000    0.000    0.000    0.000    0.000 
#    0.000    0.000    0.000    0.000    0.000    0.000 
#
# Total GULP energy -198303.161886 kJ/mol
# GULP energy per Si atom -12393.947618 kJ/mol
# Density = 2.503456 g / cm^3
# Si number density = 25.091667 Si / 1000 Ang^3
#
#
#
# Elastic Constant Matrix: (Units=GPa)
#
#
# Indices 1 2 3 4 5 6 
#
# 1 96.5921 32.0834 1.5563 3.8092 -26.4703 14.8354
# 2 32.0834 107.3195 2.9114 4.1677 -21.7617 1.2578
# 3 1.5563 2.9114 73.4106 -6.7378 -17.5146 6.6080
# 4 3.8092 4.1677 -6.7378 39.6132 -0.1223 -10.2409
# 5 -26.4703 -21.7617 -17.5146 -0.1223 37.3761 -4.5317
# 6 14.8354 1.2578 6.6080 -10.2409 -4.5317 38.2947
#
#
#
# Elastic Compliance Matrix: (Units=1/GPa)
#
#
# Indices 1 2 3 4 5 6 
#
# 1 0.014592 -0.002379 0.002313 -0.002136 0.009367 -0.005437
# 2 -0.002379 0.011078 0.000721 -0.000566 0.005210 0.000899
# 3 0.002313 0.000721 0.016147 0.001940 0.009379 -0.002077
# 4 -0.002136 -0.000566 0.001940 0.027905 0.000127 0.007989
# 5 0.009367 0.005210 0.009379 0.000127 0.040750 -0.000562
# 6 -0.005437 0.000899 -0.002077 0.007989 -0.000562 0.030618
#
#
# Mechanical properties :
#
#
# Convention : Reuss Voigt Hill
#
# Bulk Modulus (GPa) = 23.18713 38.93606 31.06159
# Shear Modulus (GPa) = 32.43508 39.10819 35.77164
#
# Velocity S-wave (km/s) = 3.59926 3.95221 3.77986
# Velocity P-wave (km/s) = 5.15111 6.03140 5.60856
#
# Compressibility (1/GPa) = 0.04312738
#
# Stress axis : x y z
#
# Youngs Moduli (GPa) = 68.53131 90.27301 61.93039
#
# Poissons Ratio (x) = 0.21476 -0.14325
# Poissons Ratio (y) = 0.16304 -0.04467
# Poissons Ratio (z) = -0.15852 -0.06512
#
# Static dielectric constant tensor:
#      x y z
#    x 4.436960 0.201260 -0.127140 
#    y 0.201260 5.354740 -0.259620 
#    z -0.127140 -0.259620 4.606640 
# 
# 
# High freq. dielectric constant tensor:
#      x y z
#    x 1.996980 0.000250 -0.008180 
#    y 0.000250 2.018910 0.010480 
#    z -0.008180 0.010480 2.004470 
# 
# From -- ./inp_files/298833.got.cif
#   From: 2010.06.25/outbox.cif.g09.slc.cpg/sg2_150_cif.got.tgz:298833.got - 2010.06.27 13:26:56.
