data_PCOD8025903
_publ_section_title
;
Structure prediction by ZEFSAII (Michael W. Deem and Ramdas Pophale) SiO2 
 PCOD8025903
Probable space group: P -1
;
_chemical_formula_sum "Si O2"
_cell_formula_units_Z 14
_cell_length_a 25.853242
_cell_length_b 7.912834
_cell_length_c 11.224489
_cell_angle_alpha 138.564592
_cell_angle_beta 21.319744
_cell_angle_gamma 137.648781
_cell_volume 544.542892
_symmetry_space_group_name_H-M "P -1"
_symmetry_group_IT_number 2
_symmetry_cell_setting 'triclinic'
loop_
_space_group_symop_operation_xyz
x,y,z
-x,-y,-z
loop_
_atom_site_type_symbol
_atom_site_label
_atom_site_fract_x
_atom_site_fract_y
_atom_site_fract_z
Si Si1 0.238305 0.594298 0.269980
Si Si2 0.561581 0.710983 0.658143
Si Si3 0.604734 0.752781 0.857270
Si Si4 0.619129 0.141315 0.233347
Si Si5 0.087693 0.992742 0.688405
Si Si6 0.835490 0.003028 0.873965
Si Si7 0.182734 0.885569 0.773445
O O1 0.150910 0.721921 0.421570
O O2 0.234944 0.291347 0.101819
O O3 0.183968 0.651286 0.552135
O O4 0.402673 0.718083 0.955217
O O5 0.553305 0.794881 0.857371
O O6 0.611530 0.437774 0.391978
O O7 0.678342 0.904041 0.438519
O O8 0.780386 0.760391 0.479821
O O9 0.500000 0.500000 0.000000
O O10 0.586808 0.001107 0.103627
O O11 0.500000 0.000000 0.500000
O O12 0.773418 0.110148 0.943113
O O13 0.000000 0.000000 0.000000
O O14 0.968069 0.999059 0.846573
O O15 0.000000 0.000000 0.500000
O O16 0.806674 0.184377 0.145489
#
# Coordination Sequence:
#
# PCOD8025903 Si02
#       7
#     2   2   2   2   2   2   2
#     4  11  25  45  73 109 144 183 251 294 358 443
#     4  12  26  46  75 109 142 192 244 298 368 430
#     4  12  24  44  77 103 150 191 239 302 364 425
#     4  12  27  46  69 111 146 187 246 294 367 438
#     4  10  23  46  72 110 141 188 248 294 358 439
#     4  12  29  48  70 108 148 191 241 305 366 426
#     4  11  27  47  78 104 144 194 241 301 367 430
#
# _framework density 25.709634999999999
#
# number of rings (size 3 to 8) (size 9 to 14) (size 15 to 20)
#    0.000    0.571    5.714    1.286    6.000    2.857 
#    0.000    0.000    0.000    0.000    0.000    0.000 
#    0.000    0.000    0.000    0.000    0.000    0.000 
#
# Total GULP energy -173479.776985 kJ/mol
# GULP energy per Si atom -12391.412642 kJ/mol
# Density = 2.565112 g / cm^3
# Si number density = 25.709635 Si / 1000 Ang^3
#
#
#
# Elastic Constant Matrix: (Units=GPa)
#
#
# Indices 1 2 3 4 5 6 
#
# 1 87.1258 13.6635 21.7979 10.5385 3.9227 16.3817
# 2 13.6635 65.5569 24.7035 3.5661 12.5870 8.4185
# 3 21.7979 24.7035 134.9410 -20.4975 -14.4103 6.5491
# 4 10.5385 3.5661 -20.4975 55.3155 -5.0777 -0.3542
# 5 3.9227 12.5870 -14.4103 -5.0777 53.5581 -0.2920
# 6 16.3817 8.4185 6.5491 -0.3542 -0.2920 29.0696
#
#
#
# Elastic Compliance Matrix: (Units=1/GPa)
#
#
# Indices 1 2 3 4 5 6 
#
# 1 0.014150 -0.000391 -0.002672 -0.003898 -0.002073 -0.007327
# 2 -0.000391 0.018828 -0.004302 -0.003302 -0.005891 -0.004362
# 3 -0.002672 -0.004302 0.009789 0.004813 0.004300 0.000648
# 4 -0.003898 -0.003302 0.004813 0.021234 0.004383 0.002371
# 5 -0.002073 -0.005891 0.004300 0.004383 0.021792 0.002177
# 6 -0.007327 -0.004362 0.000648 0.002371 0.002177 0.039697
#
#
# Mechanical properties :
#
#
# Convention : Reuss Voigt Hill
#
# Bulk Modulus (GPa) = 35.67012 45.32815 40.49913
# Shear Modulus (GPa) = 33.43000 42.75255 38.09128
#
# Velocity S-wave (km/s) = 3.60987 4.08229 3.85333
# Velocity P-wave (km/s) = 5.59278 6.31579 5.96525
#
# Compressibility (1/GPa) = 0.02803467
#
# Stress axis : x y z
#
# Youngs Moduli (GPa) = 70.67147 53.11367 102.15844
#
# Poissons Ratio (x) = 0.02079 0.27296
# Poissons Ratio (y) = 0.02766 0.43953
# Poissons Ratio (z) = 0.18883 0.22852
#
# Static dielectric constant tensor:
#      x y z
#    x 5.219650 0.806910 -0.212790 
#    y 0.806910 4.069780 -0.314140 
#    z -0.212790 -0.314140 5.326830 
# 
# 
# High freq. dielectric constant tensor:
#      x y z
#    x 2.034770 0.002050 0.000510 
#    y 0.002050 2.017080 -0.011880 
#    z 0.000510 -0.011880 2.054960 
# 
# From -- ./inp_files/406874.got.cif
#   From: 2010.06.25/outbox.cif.g09.slc.cpg/sg2_204_cif.got.tgz:406874.got - 2010.06.27 13:26:56.
