data_PCOD8025049
_publ_section_title
;
Structure prediction by ZEFSAII (Michael W. Deem and Ramdas Pophale) SiO2 
 PCOD8025049
Probable space group: P -1
;
_chemical_formula_sum "Si O2"
_cell_formula_units_Z 14
_cell_length_a 21.429231
_cell_length_b 11.430033
_cell_length_c 6.310873
_cell_angle_alpha 83.632286
_cell_angle_beta 103.878100
_cell_angle_gamma 31.808080
_cell_volume 623.620653
_symmetry_space_group_name_H-M "P -1"
_symmetry_group_IT_number 2
_symmetry_cell_setting 'triclinic'
loop_
_space_group_symop_operation_xyz
x,y,z
-x,-y,-z
loop_
_atom_site_type_symbol
_atom_site_label
_atom_site_fract_x
_atom_site_fract_y
_atom_site_fract_z
Si Si1 0.483652 0.664090 0.988902
Si Si2 0.971668 0.357507 0.581115
Si Si3 0.242390 0.417739 0.313666
Si Si4 0.999713 0.888739 0.680603
Si Si5 0.595959 0.078189 0.542563
Si Si6 0.313723 0.540055 0.515310
Si Si7 0.201625 0.161426 0.921538
O O1 0.632833 0.493730 0.208552
O O2 0.500000 0.500000 0.000000
O O3 0.402012 0.860223 0.688400
O O4 0.376067 0.849764 0.064834
O O5 0.880953 0.444924 0.674082
O O6 0.872210 0.624009 0.340562
O O7 0.028611 0.176981 0.477779
O O8 0.114888 0.181260 0.851162
O O9 0.314032 0.398012 0.529724
O O10 0.383450 0.097440 0.426906
O O11 0.159899 0.610750 0.998179
O O12 0.865160 0.120864 0.704999
O O13 0.000000 0.000000 0.500000
O O14 0.431567 0.384852 0.457157
O O15 0.762707 0.842891 0.818985
#
# Coordination Sequence:
#
# PCOD8025049 Si02
#       7
#     2   2   2   2   2   2   2
#     4  11  25  46  69  99 142 179 228 281 344 404
#     4  11  23  42  74  98 142 173 232 283 337 404
#     4  12  25  46  72 102 137 183 230 282 341 407
#     4  12  26  45  68 102 142 175 227 284 343 403
#     4  11  25  46  71 101 139 180 233 278 341 410
#     4  11  27  43  71 104 136 183 225 281 347 403
#     4  10  23  44  68 106 129 184 229 281 336 400
#
# _framework density 22.449545000000001
#
# number of rings (size 3 to 8) (size 9 to 14) (size 15 to 20)
#    0.000    0.857    4.286    1.714    2.000    6.857 
#    0.000    0.000    0.000    0.000    0.000    0.000 
#    0.000    0.000    0.000    0.000    0.000    0.000 
#
# Total GULP energy -173441.985061 kJ/mol
# GULP energy per Si atom -12388.713219 kJ/mol
# Density = 2.239845 g / cm^3
# Si number density = 22.449545 Si / 1000 Ang^3
#
#
#
# Elastic Constant Matrix: (Units=GPa)
#
#
# Indices 1 2 3 4 5 6 
#
# 1 122.8024 20.5161 53.0790 11.1495 19.4237 24.9473
# 2 20.5161 107.7050 11.5112 -1.4768 7.4261 18.6111
# 3 53.0790 11.5112 102.5399 4.1875 -1.2572 19.3331
# 4 11.1495 -1.4768 4.1875 30.0294 5.2780 3.9823
# 5 19.4237 7.4261 -1.2572 5.2780 37.2966 4.1133
# 6 24.9473 18.6111 19.3331 3.9823 4.1133 44.4621
#
#
#
# Elastic Compliance Matrix: (Units=1/GPa)
#
#
# Indices 1 2 3 4 5 6 
#
# 1 0.012627 -0.000817 -0.005762 -0.002430 -0.005880 -0.003476
# 2 -0.000817 0.010224 -0.000092 0.001571 -0.001418 -0.003791
# 3 -0.005762 -0.000092 0.013334 -0.000009 0.003787 -0.002876
# 4 -0.002430 0.001571 -0.000009 0.035227 -0.003802 -0.002093
# 5 -0.005880 -0.001418 0.003787 -0.003802 0.030852 -0.000268
# 6 -0.003476 -0.003791 -0.002876 -0.002093 -0.000268 0.027491
#
#
# Mechanical properties :
#
#
# Convention : Reuss Voigt Hill
#
# Bulk Modulus (GPa) = 43.77388 55.91776 49.84582
# Shear Modulus (GPa) = 33.17579 38.88703 36.03141
#
# Velocity S-wave (km/s) = 3.84838 4.16648 4.01059
# Velocity P-wave (km/s) = 6.26800 6.93602 6.61045
#
# Compressibility (1/GPa) = 0.02284467
#
# Stress axis : x y z
#
# Youngs Moduli (GPa) = 79.19500 97.80546 74.99414
#
# Poissons Ratio (x) = 0.07988 0.43212
# Poissons Ratio (y) = 0.06468 0.00688
# Poissons Ratio (z) = 0.45633 0.00898
#
# Static dielectric constant tensor:
#      x y z
#    x -3.484540 -7.861260 -1.628360 
#    y -7.861260 -4.235270 -2.065040 
#    z -1.628360 -2.065040 3.323950 
# 
# 
# High freq. dielectric constant tensor:
#      x y z
#    x 1.885310 0.009920 0.019230 
#    y 0.009920 1.900460 0.005750 
#    z 0.019230 0.005750 1.882730 
# 
# From -- ./inp_files/48228.got.cif
#   From: 2010.06.25/outbox.cif.g09.slc.cpg/sg2_25_cif.got.tgz:48228.got - 2010.06.27 13:26:56.
