data_PCOD8025007
_publ_section_title
;
Structure prediction by ZEFSAII (Michael W. Deem and Ramdas Pophale) SiO2 
 PCOD8025007
Probable space group: P -1
;
_chemical_formula_sum "Si O2"
_cell_formula_units_Z 16
_cell_length_a 9.356835
_cell_length_b 23.147269
_cell_length_c 20.554429
_cell_angle_alpha 160.582974
_cell_angle_beta 147.729189
_cell_angle_gamma 41.723455
_cell_volume 756.757729
_symmetry_space_group_name_H-M "P -1"
_symmetry_group_IT_number 2
_symmetry_cell_setting 'triclinic'
loop_
_space_group_symop_operation_xyz
x,y,z
-x,-y,-z
loop_
_atom_site_type_symbol
_atom_site_label
_atom_site_fract_x
_atom_site_fract_y
_atom_site_fract_z
Si Si1 0.190596 0.009119 0.881707
Si Si2 0.331814 0.372345 0.244540
Si Si3 0.074103 0.095705 0.198799
Si Si4 0.439116 0.024845 0.729614
Si Si5 0.125983 0.975463 0.431636
Si Si6 0.782447 0.760696 0.366648
Si Si7 0.787198 0.339909 0.285948
Si Si8 0.149306 0.607038 0.001759
O O1 0.203573 0.172610 0.011537
O O2 0.074922 0.030926 0.932503
O O3 0.987512 0.828495 0.578976
O O4 0.500000 0.000000 0.000000
O O5 0.500000 0.500000 0.500000
O O6 0.534257 0.387122 0.275792
O O7 0.063987 0.433930 0.184695
O O8 0.965314 0.272840 0.339477
O O9 0.410321 0.137470 0.382536
O O10 0.000000 0.000000 0.000000
O O11 0.151569 0.969191 0.598769
O O12 0.373268 0.063013 0.670377
O O13 0.659832 0.197779 0.029132
O O14 0.065208 0.755414 0.173025
O O15 0.212434 0.069958 0.496927
O O16 0.466422 0.694852 0.197747
O O17 0.869417 0.592394 0.186949
O O18 0.000000 0.500000 0.500000
#
# Coordination Sequence:
#
# PCOD8025007 Si02
#       8
#     2   2   2   2   2   2   2   2
#     4  12  23  44  72 101 140 179 233 287 348 410
#     4  12  26  42  69 103 138 182 233 291 348 409
#     4  10  24  41  65  96 132 182 225 271 343 409
#     4  10  23  44  67  96 129 185 228 270 348 412
#     4  11  22  45  71  93 139 178 230 283 338 414
#     4  11  25  42  70 101 136 181 223 293 348 404
#     4  11  24  45  65  99 142 177 227 286 342 415
#     4  11  24  44  66 101 138 169 235 286 343 417
#
# _framework density 21.142828999999999
#
# number of rings (size 3 to 8) (size 9 to 14) (size 15 to 20)
#    0.000    1.000    3.750    1.875    7.000    1.000 
#    4.500    1.250    0.000    0.000    0.000    0.000 
#    0.000    0.000    0.000    0.000    0.000    0.000 
#
# Total GULP energy -198258.461132 kJ/mol
# GULP energy per Si atom -12391.153821 kJ/mol
# Density = 2.109471 g / cm^3
# Si number density = 21.142829 Si / 1000 Ang^3
#
#
#
# Elastic Constant Matrix: (Units=GPa)
#
#
# Indices 1 2 3 4 5 6 
#
# 1 103.1335 31.9038 39.7838 -4.5547 1.2089 5.2839
# 2 31.9038 118.7373 57.8976 -22.2454 11.0502 -16.2276
# 3 39.7838 57.8976 113.4086 -22.3125 -5.3008 2.5727
# 4 -4.5547 -22.2454 -22.3125 45.2185 0.5342 5.6276
# 5 1.2089 11.0502 -5.3008 0.5342 28.9752 1.3136
# 6 5.2839 -16.2276 2.5727 5.6276 1.3136 32.4124
#
#
#
# Elastic Compliance Matrix: (Units=1/GPa)
#
#
# Indices 1 2 3 4 5 6 
#
# 1 0.011659 -0.002129 -0.003173 -0.001124 -0.000121 -0.002514
# 2 -0.002129 0.014470 -0.006611 0.002739 -0.007049 0.007926
# 3 -0.003173 -0.006611 0.014481 0.004116 0.005448 -0.004877
# 4 -0.001124 0.002739 0.004116 0.025788 -0.000574 -0.003226
# 5 -0.000121 -0.007049 0.005448 -0.000574 0.038458 -0.005401
# 6 -0.002514 0.007926 -0.004877 -0.003226 -0.005401 0.036397
#
#
# Mechanical properties :
#
#
# Convention : Reuss Voigt Hill
#
# Bulk Modulus (GPa) = 59.57758 66.04999 62.81378
# Shear Modulus (GPa) = 29.29578 35.03415 32.16497
#
# Velocity S-wave (km/s) = 3.72642 4.07507 3.90464
# Velocity P-wave (km/s) = 6.83774 7.31090 7.07828
#
# Compressibility (1/GPa) = 0.01678484
#
# Stress axis : x y z
#
# Youngs Moduli (GPa) = 85.76870 69.10945 69.05615
#
# Poissons Ratio (x) = 0.14710 0.21913
# Poissons Ratio (y) = 0.18256 0.45652
# Poissons Ratio (z) = 0.27216 0.45688
#
# Static dielectric constant tensor:
#      x y z
#    x 3.814370 -0.210810 -0.189270 
#    y -0.210810 4.740550 -0.102730 
#    z -0.189270 -0.102730 3.852790 
# 
# 
# High freq. dielectric constant tensor:
#      x y z
#    x 1.821200 -0.011270 -0.004970 
#    y -0.011270 1.851730 -0.022260 
#    z -0.004970 -0.022260 1.822540 
# 
# From -- ./inp_files/592007.got.cif
#   From: 2010.06.25/outbox.cif.g09.slc.cpg/sg2_297_cif.got.tgz:592007.got - 2010.06.27 13:26:56.
