data_PCOD8025939
_publ_section_title
;
Structure prediction by ZEFSAII (Michael W. Deem and Ramdas Pophale) SiO2 
 PCOD8025939
Probable space group: P -1
;
_chemical_formula_sum "Si O2"
_cell_formula_units_Z 14
_cell_length_a 15.316284
_cell_length_b 6.162613
_cell_length_c 15.788514
_cell_angle_alpha 106.196948
_cell_angle_beta 26.645256
_cell_angle_gamma 96.438781
_cell_volume 608.371912
_symmetry_space_group_name_H-M "P -1"
_symmetry_group_IT_number 2
_symmetry_cell_setting 'triclinic'
loop_
_space_group_symop_operation_xyz
x,y,z
-x,-y,-z
loop_
_atom_site_type_symbol
_atom_site_label
_atom_site_fract_x
_atom_site_fract_y
_atom_site_fract_z
Si Si1 0.723863 0.029222 0.793300
Si Si2 0.684040 0.264675 0.338586
Si Si3 0.041197 0.635231 0.396487
Si Si4 0.251880 0.992415 0.578385
Si Si5 0.929804 0.817435 0.763909
Si Si6 0.315836 0.068265 0.846401
Si Si7 0.990070 0.503808 0.909201
O O1 0.746852 0.290161 0.779564
O O2 0.855727 0.952356 0.755520
O O3 0.837514 0.868271 0.596957
O O4 0.500000 0.000000 0.000000
O O5 0.500000 0.500000 0.500000
O O6 0.638620 0.107506 0.437272
O O7 0.868105 0.341534 0.227186
O O8 0.753299 0.104583 0.177100
O O9 0.056619 0.461031 0.284180
O O10 0.000000 0.500000 0.500000
O O11 0.438967 0.023776 0.365631
O O12 0.157751 0.818791 0.589428
O O13 0.068783 0.240460 0.774413
O O14 0.772237 0.952839 0.987527
O O15 0.235312 0.344732 0.913352
O O16 0.000000 0.500000 0.000000
#
# Coordination Sequence:
#
# PCOD8025939 Si02
#       7
#     2   2   2   2   2   2   2
#     4  10  23  46  77 104 136 185 232 278 365 446
#     4  12  23  45  67  93 137 192 246 294 355 415
#     4   9  22  46  71  99 142 178 223 284 355 435
#     4  12  26  45  65  99 143 186 240 297 355 420
#     4  11  26  43  66 106 141 174 233 297 357 428
#     4  12  25  44  66 101 138 192 240 299 365 407
#     4  12  23  42  69  90 138 188 246 299 349 426
#
# _framework density 23.012239999999998
#
# number of rings (size 3 to 8) (size 9 to 14) (size 15 to 20)
#    0.000    0.857    4.286    2.571    2.000    6.857 
#    2.571    0.000    0.000    0.000    0.000    0.000 
#    0.000    0.000    0.000    0.000    0.000    0.000 
#
# Total GULP energy -173495.419441 kJ/mol
# GULP energy per Si atom -12392.529960 kJ/mol
# Density = 2.295986 g / cm^3
# Si number density = 23.012240 Si / 1000 Ang^3
#
#
#
# Elastic Constant Matrix: (Units=GPa)
#
#
# Indices 1 2 3 4 5 6 
#
# 1 82.6711 33.9783 31.3241 2.9455 4.0932 12.4470
# 2 33.9783 131.3420 42.1686 3.6687 -3.3033 26.0826
# 3 31.3241 42.1686 106.2662 -1.1000 -0.4265 17.4181
# 4 2.9455 3.6687 -1.1000 51.2686 2.2764 -6.8561
# 5 4.0932 -3.3033 -0.4265 2.2764 31.1630 -1.4286
# 6 12.4470 26.0826 17.4181 -6.8561 -1.4286 49.9733
#
#
#
# Elastic Compliance Matrix: (Units=1/GPa)
#
#
# Indices 1 2 3 4 5 6 
#
# 1 0.014673 -0.002554 -0.003097 -0.000817 -0.002246 -0.001419
# 2 -0.002554 0.009912 -0.002570 -0.001178 0.001264 -0.003767
# 3 -0.003097 -0.002570 0.011658 0.000350 0.000181 -0.001897
# 4 -0.000817 -0.001178 0.000350 0.020161 -0.001328 0.003424
# 5 -0.002246 0.001264 0.000181 -0.001328 0.032645 0.000587
# 6 -0.001419 -0.003767 -0.001897 0.003424 0.000587 0.023478
#
#
# Mechanical properties :
#
#
# Convention : Reuss Voigt Hill
#
# Bulk Modulus (GPa) = 50.49903 59.46904 54.98404
# Shear Modulus (GPa) = 36.88145 40.66819 38.77482
#
# Velocity S-wave (km/s) = 4.00770 4.20842 4.10929
# Velocity P-wave (km/s) = 6.58845 7.03654 6.81617
#
# Compressibility (1/GPa) = 0.01980236
#
# Stress axis : x y z
#
# Youngs Moduli (GPa) = 68.15281 100.88442 85.77434
#
# Poissons Ratio (x) = 0.25762 0.26562
# Poissons Ratio (y) = 0.17403 0.22047
# Poissons Ratio (z) = 0.21105 0.25931
#
# Static dielectric constant tensor:
#      x y z
#    x 3.939850 0.251410 0.112440 
#    y 0.251410 4.798010 0.027070 
#    z 0.112440 0.027070 4.477480 
# 
# 
# High freq. dielectric constant tensor:
#      x y z
#    x 1.888050 0.006450 0.010990 
#    y 0.006450 1.923110 -0.003010 
#    z 0.010990 -0.003010 1.913640 
# 
# From -- ./inp_files/484604.got.cif
#   From: 2010.06.25/outbox.cif.g09.slc.cpg/sg2_243_cif.got.tgz:484604.got - 2010.06.27 13:26:56.
