data_PCOD8025200
_publ_section_title
;
Structure prediction by ZEFSAII (Michael W. Deem and Ramdas Pophale) SiO2 
 PCOD8025200
Probable space group: P -1
;
_chemical_formula_sum "Si O2"
_cell_formula_units_Z 16
_cell_length_a 14.185973
_cell_length_b 14.455837
_cell_length_c 14.264286
_cell_angle_alpha 42.296403
_cell_angle_beta 159.287292
_cell_angle_gamma 140.955473
_cell_volume 650.561909
_symmetry_space_group_name_H-M "P -1"
_symmetry_group_IT_number 2
_symmetry_cell_setting 'triclinic'
loop_
_space_group_symop_operation_xyz
x,y,z
-x,-y,-z
loop_
_atom_site_type_symbol
_atom_site_label
_atom_site_fract_x
_atom_site_fract_y
_atom_site_fract_z
Si Si1 0.489021 0.386766 0.400881
Si Si2 0.789970 0.837941 0.541089
Si Si3 0.456714 0.598561 0.967501
Si Si4 0.171240 0.914017 0.273391
Si Si5 0.740991 0.735996 0.360495
Si Si6 0.928698 0.231738 0.524153
Si Si7 0.969051 0.655399 0.138331
Si Si8 0.424414 0.014048 0.024399
O O1 0.366117 0.320922 0.437031
O O2 0.568579 0.562552 0.341304
O O3 0.762120 0.342379 0.672733
O O4 0.251700 0.302997 0.164777
O O5 0.819834 0.810893 0.478947
O O6 0.097664 0.912537 0.817318
O O7 0.616119 0.948844 0.316522
O O8 0.196193 0.509780 0.858266
O O9 0.347160 0.727356 0.733463
O O10 0.500000 0.500000 0.000000
O O11 0.753421 0.645180 0.263331
O O12 0.092993 0.897020 0.324597
O O13 0.066435 0.754678 0.246879
O O14 0.500000 0.000000 0.500000
O O15 0.000000 0.000000 0.000000
O O16 0.050674 0.792753 0.550595
O O17 0.547968 0.814111 0.064412
O O18 0.500000 0.000000 0.000000
#
# Coordination Sequence:
#
# PCOD8025200 Si02
#       8
#     2   2   2   2   2   2   2   2
#     4  12  26  44  72 110 145 189 240 303 370 414
#     4  11  25  46  70 103 147 197 238 299 364 425
#     4  12  23  43  72 101 134 178 233 287 357 412
#     4  12  28  48  69 102 142 185 231 286 353 437
#     4  11  24  45  72 107 143 184 251 298 348 427
#     4  12  26  42  73 104 135 185 232 291 356 419
#     4  12  25  45  72 102 142 183 233 293 358 432
#     4  10  23  44  70  96 137 194 244 293 356 427
#
# _framework density 24.594124999999998
#
# number of rings (size 3 to 8) (size 9 to 14) (size 15 to 20)
#    0.000    0.500    3.750    4.500    1.750    9.000 
#    0.000    5.625    0.000    0.000    0.000    0.000 
#    0.000    0.000    0.000    0.000    0.000    0.000 
#
# Total GULP energy -198280.062071 kJ/mol
# GULP energy per Si atom -12392.503879 kJ/mol
# Density = 2.453815 g / cm^3
# Si number density = 24.594125 Si / 1000 Ang^3
#
#
#
# Elastic Constant Matrix: (Units=GPa)
#
#
# Indices 1 2 3 4 5 6 
#
# 1 124.1903 31.1884 33.3943 -11.1652 3.0743 30.3072
# 2 31.1884 105.4395 32.5395 -8.4954 2.0560 27.4067
# 3 33.3943 32.5395 147.3460 2.7207 16.1901 10.8999
# 4 -11.1652 -8.4954 2.7207 47.3943 0.6896 0.9310
# 5 3.0743 2.0560 16.1901 0.6896 37.0177 -1.6602
# 6 30.3072 27.4067 10.8999 0.9310 -1.6602 36.7565
#
#
#
# Elastic Compliance Matrix: (Units=1/GPa)
#
#
# Indices 1 2 3 4 5 6 
#
# 1 0.010904 -0.000266 -0.001787 0.002796 -0.000536 -0.008357
# 2 -0.000266 0.012679 -0.002123 0.002505 -0.000189 -0.008677
# 3 -0.001787 -0.002123 0.007990 -0.001225 -0.003180 0.000575
# 4 0.002796 0.002505 -0.001225 0.022370 -0.000449 -0.004397
# 5 -0.000536 -0.000189 -0.003180 -0.000449 0.028595 0.002829
# 6 -0.008357 -0.008677 0.000575 -0.004397 0.002829 0.040636
#
#
# Mechanical properties :
#
#
# Convention : Reuss Voigt Hill
#
# Bulk Modulus (GPa) = 43.06525 63.46891 53.26708
# Shear Modulus (GPa) = 35.90252 42.89061 39.39656
#
# Velocity S-wave (km/s) = 3.82488 4.18058 4.00668
# Velocity P-wave (km/s) = 6.08725 7.01181 6.56583
#
# Compressibility (1/GPa) = 0.02322058
#
# Stress axis : x y z
#
# Youngs Moduli (GPa) = 91.71340 78.87105 125.15419
#
# Poissons Ratio (x) = 0.02096 0.22365
# Poissons Ratio (y) = 0.02437 0.26575
# Poissons Ratio (z) = 0.16389 0.16747
#
# Static dielectric constant tensor:
#      x y z
#    x 4.779550 -0.103940 0.056180 
#    y -0.103940 5.541570 -0.549530 
#    z 0.056180 -0.549530 5.084010 
# 
# 
# High freq. dielectric constant tensor:
#      x y z
#    x 1.983350 0.008650 0.004010 
#    y 0.008650 1.979570 0.002950 
#    z 0.004010 0.002950 1.994870 
# 
# From -- ./inp_files/534310.got.cif
#   From: 2010.06.25/outbox.cif.g09.slc.cpg/sg2_268_cif.got.tgz:534310.got - 2010.06.27 13:26:56.
