data_PCOD8025929
_publ_section_title
;
Structure prediction by ZEFSAII (Michael W. Deem and Ramdas Pophale) SiO2 
 PCOD8025929
Probable space group: P -1
;
_chemical_formula_sum "Si O2"
_cell_formula_units_Z 16
_cell_length_a 10.467301
_cell_length_b 14.947643
_cell_length_c 19.954408
_cell_angle_alpha 155.916116
_cell_angle_beta 148.084915
_cell_angle_gamma 43.224381
_cell_volume 657.869488
_symmetry_space_group_name_H-M "P -1"
_symmetry_group_IT_number 2
_symmetry_cell_setting 'triclinic'
loop_
_space_group_symop_operation_xyz
x,y,z
-x,-y,-z
loop_
_atom_site_type_symbol
_atom_site_label
_atom_site_fract_x
_atom_site_fract_y
_atom_site_fract_z
Si Si1 0.120834 0.353582 0.503773
Si Si2 0.132930 0.762662 0.468279
Si Si3 0.279387 0.630044 0.988076
Si Si4 0.888415 0.286868 0.156334
Si Si5 0.313216 0.158580 0.181884
Si Si6 0.680903 0.504146 0.840363
Si Si7 0.066508 0.176594 0.948270
Si Si8 0.003931 0.223905 0.737125
O O1 0.106293 0.460812 0.643766
O O2 0.398973 0.391202 0.626485
O O3 0.000000 0.500000 0.500000
O O4 0.994633 0.090610 0.273495
O O5 0.401356 0.766416 0.619384
O O6 0.958051 0.541257 0.267304
O O7 0.094956 0.732976 0.350711
O O8 0.018872 0.969922 0.581962
O O9 0.310394 0.796134 0.051313
O O10 0.500000 0.500000 0.000000
O O11 0.193815 0.742881 0.094421
O O12 0.162897 0.257229 0.239836
O O13 0.776436 0.112071 0.045708
O O14 0.258108 0.243258 0.141258
O O15 0.812959 0.292153 0.751583
O O16 0.729484 0.618823 0.014871
O O17 0.796666 0.693100 0.965534
#
# Coordination Sequence:
#
# PCOD8025929 Si02
#       8
#     2   2   2   2   2   2   2   2
#     4  12  27  44  73 105 144 195 229 287 374 417
#     4  11  24  44  74 102 137 190 244 288 360 425
#     4  11  27  44  72 105 145 184 244 300 349 429
#     4  10  24  45  68 106 143 186 235 298 356 423
#     4  10  23  46  75 101 144 181 242 302 352 424
#     4  11  26  49  72 102 153 181 239 301 349 442
#     4  11  26  50  72 111 143 189 242 297 360 430
#     4  10  25  44  71 102 136 191 236 295 357 416
#
# _framework density 24.320934000000001
#
# number of rings (size 3 to 8) (size 9 to 14) (size 15 to 20)
#    0.000    1.250    2.500    0.750   10.500    3.500 
#    0.000    3.125    0.000    0.000    0.000    0.000 
#    0.000    0.000    0.000    0.000    0.000    0.000 
#
# Total GULP energy -198212.322733 kJ/mol
# GULP energy per Si atom -12388.270171 kJ/mol
# Density = 2.426558 g / cm^3
# Si number density = 24.320934 Si / 1000 Ang^3
#
#
#
# Elastic Constant Matrix: (Units=GPa)
#
#
# Indices 1 2 3 4 5 6 
#
# 1 66.7211 23.3987 39.4448 2.1945 -8.5592 -6.8416
# 2 23.3987 120.5128 35.3976 -14.4659 6.2680 -10.3218
# 3 39.4448 35.3976 109.1107 -5.9624 -3.7346 -16.0759
# 4 2.1945 -14.4659 -5.9624 41.2062 -5.9071 -7.7784
# 5 -8.5592 6.2680 -3.7346 -5.9071 36.9798 0.9212
# 6 -6.8416 -10.3218 -16.0759 -7.7784 0.9212 27.4712
#
#
#
# Elastic Compliance Matrix: (Units=1/GPa)
#
#
# Indices 1 2 3 4 5 6 
#
# 1 0.020337 -0.002570 -0.006601 -0.002466 0.004097 -0.000600
# 2 -0.002570 0.010146 -0.001738 0.003787 -0.001967 0.003294
# 3 -0.006601 -0.001738 0.013205 0.002888 0.000406 0.006235
# 4 -0.002466 0.003787 0.002888 0.028612 0.003388 0.010486
# 5 0.004097 -0.001967 0.000406 0.003388 0.028893 0.000509
# 6 -0.000600 0.003294 0.006235 0.010486 0.000509 0.044091
#
#
# Mechanical properties :
#
#
# Convention : Reuss Voigt Hill
#
# Bulk Modulus (GPa) = 45.72308 54.75853 50.24081
# Shear Modulus (GPa) = 28.67100 34.33833 31.50466
#
# Velocity S-wave (km/s) = 3.43718 3.76158 3.60303
# Velocity P-wave (km/s) = 5.88158 6.43660 6.16534
#
# Compressibility (1/GPa) = 0.02187079
#
# Stress axis : x y z
#
# Youngs Moduli (GPa) = 49.17196 98.55825 75.72668
#
# Poissons Ratio (x) = 0.25331 0.49988
# Poissons Ratio (y) = 0.12638 0.13158
# Poissons Ratio (z) = 0.32459 0.17126
#
# Static dielectric constant tensor:
#      x y z
#    x 4.555030 -0.006240 -0.303590 
#    y -0.006240 4.660280 0.192800 
#    z -0.303590 0.192800 4.607720 
# 
# 
# High freq. dielectric constant tensor:
#      x y z
#    x 1.963050 0.004310 -0.016160 
#    y 0.004310 1.992060 0.010690 
#    z -0.016160 0.010690 1.961080 
# 
# From -- ./inp_files/610804.got.cif
#   From: 2010.06.25/outbox.cif.g09.slc.cpg/sg2_306_cif.got.tgz:610804.got - 2010.06.27 13:26:56.
