data_PCOD8025043
_publ_section_title
;
Structure prediction by ZEFSAII (Michael W. Deem and Ramdas Pophale) SiO2 
 PCOD8025043
Probable space group: P -1
;
_chemical_formula_sum "Si O2"
_cell_formula_units_Z 16
_cell_length_a 16.673695
_cell_length_b 14.287125
_cell_length_c 10.910048
_cell_angle_alpha 128.155259
_cell_angle_beta 147.544213
_cell_angle_gamma 31.914125
_cell_volume 691.493745
_symmetry_space_group_name_H-M "P -1"
_symmetry_group_IT_number 2
_symmetry_cell_setting 'triclinic'
loop_
_space_group_symop_operation_xyz
x,y,z
-x,-y,-z
loop_
_atom_site_type_symbol
_atom_site_label
_atom_site_fract_x
_atom_site_fract_y
_atom_site_fract_z
Si Si1 0.460818 0.364301 0.936923
Si Si2 0.922926 0.505394 0.770070
Si Si3 0.750017 0.323643 0.741426
Si Si4 0.166660 0.674118 0.609885
Si Si5 0.726296 0.079747 0.477915
Si Si6 0.533834 0.072373 0.449693
Si Si7 0.258664 0.020169 0.108277
Si Si8 0.699248 0.598978 0.991305
O O1 0.614621 0.380848 0.201621
O O2 0.246883 0.545371 0.725191
O O3 0.355387 0.342870 0.889572
O O4 0.640207 0.174289 0.934867
O O5 0.921142 0.362641 0.639552
O O6 0.656887 0.713804 0.575835
O O7 0.085753 0.458692 0.834433
O O8 0.000000 0.500000 0.000000
O O9 0.500000 0.500000 0.500000
O O10 0.769416 0.174271 0.690078
O O11 0.765470 0.417255 0.938171
O O12 0.983224 0.197506 0.853138
O O13 0.956301 0.891944 0.552683
O O14 0.639525 0.033725 0.422048
O O15 0.532382 0.228456 0.246121
O O16 0.412080 0.019888 0.230100
O O17 0.734998 0.947468 0.712596
#
# Coordination Sequence:
#
# PCOD8025043 Si02
#       8
#     2   2   2   2   2   2   2   2
#     4  11  26  47  70 105 146 183 236 296 356 429
#     4  12  25  46  69 101 142 185 237 295 351 424
#     4  10  23  44  68 101 142 181 241 286 356 421
#     4  11  27  46  71 104 144 188 233 295 362 419
#     4  11  25  45  68 104 139 188 237 292 356 423
#     4  11  25  42  73 104 140 189 242 294 351 426
#     4  11  23  46  70 103 143 189 238 294 356 421
#     4  11  26  43  69 102 140 190 232 293 357 422
#
# _framework density 23.138314999999999
#
# number of rings (size 3 to 8) (size 9 to 14) (size 15 to 20)
#    0.000    1.000    5.000    0.000    5.250    4.000 
#    0.000    0.000    0.000    0.000    0.000    0.000 
#    0.000    0.000    0.000    0.000    0.000    0.000 
#
# Total GULP energy -198304.327191 kJ/mol
# GULP energy per Si atom -12394.020449 kJ/mol
# Density = 2.308565 g / cm^3
# Si number density = 23.138315 Si / 1000 Ang^3
#
#
#
# Elastic Constant Matrix: (Units=GPa)
#
#
# Indices 1 2 3 4 5 6 
#
# 1 111.9928 -8.5710 22.9430 6.8058 6.5744 1.4697
# 2 -8.5710 99.7712 27.8648 6.1271 6.2716 1.6979
# 3 22.9430 27.8648 89.2927 12.0800 16.4653 -5.0885
# 4 6.8058 6.1271 12.0800 32.9795 -3.6129 11.7616
# 5 6.5744 6.2716 16.4653 -3.6129 24.0593 0.4267
# 6 1.4697 1.6979 -5.0885 11.7616 0.4267 26.9402
#
#
#
# Elastic Compliance Matrix: (Units=1/GPa)
#
#
# Indices 1 2 3 4 5 6 
#
# 1 0.009782 0.001763 -0.002626 -0.001367 -0.001531 -0.000520
# 2 0.001763 0.011358 -0.003785 -0.000772 -0.000947 -0.001175
# 3 -0.002626 -0.003785 0.016748 -0.008819 -0.011216 0.007573
# 4 -0.001367 -0.000772 -0.008819 0.042722 0.013387 -0.020406
# 5 -0.001531 -0.000947 -0.011216 0.013387 0.052069 -0.008645
# 6 -0.000520 -0.001175 0.007573 -0.020406 -0.008645 0.047698
#
#
# Mechanical properties :
#
#
# Convention : Reuss Voigt Hill
#
# Bulk Modulus (GPa) = 34.97547 42.83670 38.90608
# Shear Modulus (GPa) = 25.09991 34.05045 29.57518
#
# Velocity S-wave (km/s) = 3.29717 3.84031 3.57906
# Velocity P-wave (km/s) = 5.44461 6.18203 5.82500
#
# Compressibility (1/GPa) = 0.02859147
#
# Stress axis : x y z
#
# Youngs Moduli (GPa) = 102.23133 88.03992 59.70914
#
# Poissons Ratio (x) = -0.15519 0.15678
# Poissons Ratio (y) = -0.18020 0.22602
# Poissons Ratio (z) = 0.26843 0.33325
#
# Static dielectric constant tensor:
#      x y z
#    x 3.839190 0.147470 0.277820 
#    y 0.147470 4.449620 0.053130 
#    z 0.277820 0.053130 4.273120 
# 
# 
# High freq. dielectric constant tensor:
#      x y z
#    x 1.893290 0.005590 0.020040 
#    y 0.005590 1.930660 -0.004200 
#    z 0.020040 -0.004200 1.918060 
# 
# From -- ./inp_files/352269.got.cif
#   From: 2010.06.25/outbox.cif.g09.slc.cpg/sg2_177_cif.got.tgz:352269.got - 2010.06.27 13:26:56.
