data_PCOD8025206
_publ_section_title
;
Structure prediction by ZEFSAII (Michael W. Deem and Ramdas Pophale) SiO2 
 PCOD8025206
Probable space group: P -1
;
_chemical_formula_sum "Si O2"
_cell_formula_units_Z 16
_cell_length_a 11.339145
_cell_length_b 8.759357
_cell_length_c 8.557714
_cell_angle_alpha 108.170841
_cell_angle_beta 63.894820
_cell_angle_gamma 116.550900
_cell_volume 675.724219
_symmetry_space_group_name_H-M "P -1"
_symmetry_group_IT_number 2
_symmetry_cell_setting 'triclinic'
loop_
_space_group_symop_operation_xyz
x,y,z
-x,-y,-z
loop_
_atom_site_type_symbol
_atom_site_label
_atom_site_fract_x
_atom_site_fract_y
_atom_site_fract_z
Si Si1 0.087757 0.871980 0.175489
Si Si2 0.439789 0.665717 0.936859
Si Si3 0.431430 0.306169 0.797214
Si Si4 0.292464 0.176077 0.330932
Si Si5 0.894450 0.291116 0.202398
Si Si6 0.184605 0.047304 0.681369
Si Si7 0.271751 0.549833 0.457175
Si Si8 0.848525 0.394605 0.776324
O O1 0.075301 0.744603 0.290755
O O2 0.935065 0.870945 0.221557
O O3 0.190646 0.064270 0.219154
O O4 0.147269 0.801025 0.969396
O O5 0.392266 0.472664 0.835591
O O6 0.543087 0.795170 0.791068
O O7 0.542709 0.694039 0.034210
O O8 0.298773 0.697208 0.073861
O O9 0.301062 0.137699 0.772833
O O10 0.569879 0.317798 0.621895
O O11 0.257614 0.071302 0.478305
O O12 0.269107 0.356777 0.413181
O O13 0.788709 0.392947 0.333441
O O14 0.055035 0.425350 0.144242
O O15 0.881176 0.153703 0.303317
O O16 0.173094 0.565838 0.377429
#
# Coordination Sequence:
#
# PCOD8025206 Si02
#       8
#     2   2   2   2   2   2   2   2
#     4  12  26  43  67 100 136 175 221 275 330 393
#     4   9  20  41  69  97 131 175 220 273 332 392
#     4   9  20  40  66  97 133 175 221 270 331 394
#     4  11  24  44  69  99 135 175 221 271 332 398
#     4  12  25  42  68 100 137 175 219 275 329 394
#     4  12  25  42  67  99 137 175 221 272 330 395
#     4  10  23  44  70  98 134 175 218 274 333 395
#     4  11  23  43  69  98 135 174 222 273 331 392
#
# _framework density 23.678298000000002
#
# number of rings (size 3 to 8) (size 9 to 14) (size 15 to 20)
#    0.000    1.250    0.000    6.000    0.000    5.000 
#    0.000    0.000    0.000    0.000    0.000    0.000 
#    0.000    0.000    0.000    0.000    0.000    0.000 
#
# Total GULP energy -198411.004099 kJ/mol
# GULP energy per Si atom -12400.687756 kJ/mol
# Density = 2.362441 g / cm^3
# Si number density = 23.678298 Si / 1000 Ang^3
#
#
#
# Elastic Constant Matrix: (Units=GPa)
#
#
# Indices 1 2 3 4 5 6 
#
# 1 70.8390 41.7868 -1.6220 4.7521 -7.1287 10.5801
# 2 41.7868 125.3869 25.6389 -5.2938 -1.3432 12.5727
# 3 -1.6220 25.6389 93.2754 4.0822 -3.9060 16.6587
# 4 4.7521 -5.2938 4.0822 38.7223 -0.1540 5.9267
# 5 -7.1287 -1.3432 -3.9060 -0.1540 22.6682 -9.1096
# 6 10.5801 12.5727 16.6587 5.9267 -9.1096 31.3841
#
#
#
# Elastic Compliance Matrix: (Units=1/GPa)
#
#
# Indices 1 2 3 4 5 6 
#
# 1 0.019458 -0.006864 0.003191 -0.003105 0.004828 -0.003516
# 2 -0.006864 0.011182 -0.003103 0.002976 -0.002768 -0.001884
# 3 0.003191 -0.003103 0.012822 -0.001207 0.000503 -0.006265
# 4 -0.003105 0.002976 -0.001207 0.027586 -0.003074 -0.005606
# 5 0.004828 -0.002768 0.000503 -0.003074 0.051454 0.014729
# 6 -0.003516 -0.001884 -0.006265 -0.005606 0.014729 0.042463
#
#
# Mechanical properties :
#
#
# Convention : Reuss Voigt Hill
#
# Bulk Modulus (GPa) = 33.43265 46.78986 40.11125
# Shear Modulus (GPa) = 26.52717 33.46809 29.99763
#
# Velocity S-wave (km/s) = 3.35074 3.76367 3.56319
# Velocity P-wave (km/s) = 5.39631 6.22017 5.82283
#
# Compressibility (1/GPa) = 0.02991088
#
# Stress axis : x y z
#
# Youngs Moduli (GPa) = 51.39324 89.42838 77.99080
#
# Poissons Ratio (x) = 0.61383 -0.24887
# Poissons Ratio (y) = 0.35276 0.24198
# Poissons Ratio (z) = -0.16400 0.27747
#
# Static dielectric constant tensor:
#      x y z
#    x 4.091320 0.096190 -0.084520 
#    y 0.096190 4.273560 -0.096760 
#    z -0.084520 -0.096760 4.240340 
# 
# 
# High freq. dielectric constant tensor:
#      x y z
#    x 1.931750 0.009690 -0.004550 
#    y 0.009690 1.942530 -0.005560 
#    z -0.004550 -0.005560 1.940630 
# 
# From -- ./inp_files/244905.got.cif
#   From: 2010.06.25/outbox.cif.g09.slc.cpg/sg2_123_cif.got.tgz:244905.got - 2010.06.27 13:26:56.
