data_PCOD8025785
_publ_section_title
;
Structure prediction by ZEFSAII (Michael W. Deem and Ramdas Pophale) SiO2 
 PCOD8025785
Probable space group: P -1
;
_chemical_formula_sum "Si O2"
_cell_formula_units_Z 14
_cell_length_a 6.291885
_cell_length_b 8.704509
_cell_length_c 27.249397
_cell_angle_alpha 28.757425
_cell_angle_beta 58.101613
_cell_angle_gamma 61.857295
_cell_volume 609.435600
_symmetry_space_group_name_H-M "P -1"
_symmetry_group_IT_number 2
_symmetry_cell_setting 'triclinic'
loop_
_space_group_symop_operation_xyz
x,y,z
-x,-y,-z
loop_
_atom_site_type_symbol
_atom_site_label
_atom_site_fract_x
_atom_site_fract_y
_atom_site_fract_z
Si Si1 0.635494 0.734073 0.342716
Si Si2 0.976936 0.955815 0.853241
Si Si3 0.775597 0.371228 0.994522
Si Si4 0.895900 0.147005 0.615165
Si Si5 0.687611 0.240937 0.278746
Si Si6 0.561282 0.930584 0.068848
Si Si7 0.235631 0.954011 0.449498
O O1 0.360717 0.826642 0.328507
O O2 0.624661 0.376937 0.463043
O O3 0.666424 0.962065 0.320652
O O4 0.865014 0.762371 0.268842
O O5 0.137499 0.868101 0.906237
O O6 0.698410 0.069136 0.869707
O O7 0.964211 0.669634 0.893864
O O8 0.759558 0.185401 0.996044
O O9 0.500000 0.500000 0.000000
O O10 0.860500 0.026378 0.598875
O O11 0.000000 0.500000 0.500000
O O12 0.054556 0.850327 0.700587
O O13 0.695628 0.585468 0.155077
O O14 0.453305 0.221174 0.351595
O O15 0.500000 0.000000 0.000000
O O16 0.000000 0.000000 0.500000
#
# Coordination Sequence:
#
# PCOD8025785 Si02
#       7
#     2   2   2   2   2   2   2
#     4  11  23  41  71  99 138 178 225 286 338 414
#     4  10  23  46  68 100 138 178 237 285 346 412
#     4   9  22  44  70  95 135 179 232 287 344 406
#     4  11  21  45  68  96 135 182 225 273 344 416
#     4  11  24  43  68 100 135 181 227 279 348 411
#     4  11  26  46  69 102 139 182 236 288 347 410
#     4  11  23  42  67 101 140 171 222 286 339 409
#
# _framework density 22.972076000000001
#
# number of rings (size 3 to 8) (size 9 to 14) (size 15 to 20)
#    0.000    1.429    2.857    1.714    6.000    6.857 
#    5.143    0.000    0.000    0.000    0.000    0.000 
#    0.000    0.000    0.000    0.000    0.000    0.000 
#
# Total GULP energy -173433.614041 kJ/mol
# GULP energy per Si atom -12388.115289 kJ/mol
# Density = 2.291979 g / cm^3
# Si number density = 22.972076 Si / 1000 Ang^3
#
#
#
# Elastic Constant Matrix: (Units=GPa)
#
#
# Indices 1 2 3 4 5 6 
#
# 1 142.3699 42.0309 46.7771 -0.4215 21.2045 -2.9384
# 2 42.0309 92.6893 29.8738 0.8163 2.8050 -9.1643
# 3 46.7771 29.8738 116.9813 -7.7481 17.7810 -0.8895
# 4 -0.4215 0.8163 -7.7481 26.6149 -17.8556 -2.6592
# 5 21.2045 2.8050 17.7810 -17.8556 39.1798 -4.0764
# 6 -2.9384 -9.1643 -0.8895 -2.6592 -4.0764 44.5620
#
#
#
# Elastic Compliance Matrix: (Units=1/GPa)
#
#
# Indices 1 2 3 4 5 6 
#
# 1 0.009724 -0.003514 -0.002371 -0.004657 -0.006158 -0.000970
# 2 -0.003514 0.013314 -0.002325 0.000970 0.002734 0.002768
# 3 -0.002371 -0.002325 0.010603 0.001093 -0.002930 -0.000626
# 4 -0.004657 0.000970 0.001093 0.057787 0.028916 0.006008
# 5 -0.006158 0.002734 -0.002930 0.028916 0.043774 0.005828
# 6 -0.000970 0.002768 -0.000626 0.006008 0.005828 0.023825
#
#
# Mechanical properties :
#
#
# Convention : Reuss Voigt Hill
#
# Bulk Modulus (GPa) = 58.06732 65.48936 61.77834
# Shear Modulus (GPa) = 27.59591 37.62858 32.61224
#
# Velocity S-wave (km/s) = 3.46971 4.05163 3.77191
# Velocity P-wave (km/s) = 6.43305 7.10336 6.77650
#
# Compressibility (1/GPa) = 0.01722139
#
# Stress axis : x y z
#
# Youngs Moduli (GPa) = 102.84269 75.10958 94.31280
#
# Poissons Ratio (x) = 0.26392 0.22358
# Poissons Ratio (y) = 0.36136 0.21930
# Poissons Ratio (z) = 0.24380 0.17465
#
# Static dielectric constant tensor:
#      x y z
#    x 4.869100 -0.120920 -0.425510 
#    y -0.120920 4.251320 -0.021600 
#    z -0.425510 -0.021600 4.326900 
# 
# 
# High freq. dielectric constant tensor:
#      x y z
#    x 1.923940 -0.016920 -0.002030 
#    y -0.016920 1.902170 -0.004900 
#    z -0.002030 -0.004900 1.904480 
# 
# From -- ./inp_files/99487.got.cif
#   From: 2010.06.25/outbox.cif.g09.slc.cpg/sg2_50_cif.got.tgz:99487.got - 2010.06.27 13:26:56.
