data_PCOD8025536
_publ_section_title
;
Structure prediction by ZEFSAII (Michael W. Deem and Ramdas Pophale) SiO2 
 PCOD8025536
Probable space group: P -1
;
_chemical_formula_sum "Si O2"
_cell_formula_units_Z 16
_cell_length_a 21.130663
_cell_length_b 6.512813
_cell_length_c 5.902048
_cell_angle_alpha 102.261202
_cell_angle_beta 90.668941
_cell_angle_gamma 118.091821
_cell_volume 694.308405
_symmetry_space_group_name_H-M "P -1"
_symmetry_group_IT_number 2
_symmetry_cell_setting 'triclinic'
loop_
_space_group_symop_operation_xyz
x,y,z
-x,-y,-z
loop_
_atom_site_type_symbol
_atom_site_label
_atom_site_fract_x
_atom_site_fract_y
_atom_site_fract_z
Si Si1 0.982248 0.569867 0.263300
Si Si2 0.771796 0.037952 0.445132
Si Si3 0.785867 0.722175 0.991265
Si Si4 0.551109 0.757507 0.961538
Si Si5 0.551737 0.147345 0.338584
Si Si6 0.884692 0.969164 0.673775
Si Si7 0.660591 0.658160 0.660343
Si Si8 0.828714 0.488575 0.288972
O O1 0.896257 0.452368 0.217828
O O2 0.000000 0.500000 0.500000
O O3 0.029878 0.859096 0.318526
O O4 0.000000 0.500000 0.000000
O O5 0.839341 0.104808 0.632440
O O6 0.696179 0.870358 0.526898
O O7 0.775913 0.284806 0.414924
O O8 0.775174 0.900993 0.193137
O O9 0.864076 0.873622 0.907606
O O10 0.721302 0.621991 0.784526
O O11 0.784085 0.494042 0.067109
O O12 0.499739 0.806360 0.813039
O O13 0.616145 0.741278 0.839095
O O14 0.500000 0.500000 0.000000
O O15 0.583474 0.981346 0.192774
O O16 0.615111 0.404399 0.476977
O O17 0.500000 0.000000 0.500000
O O18 0.860745 0.747935 0.456772
#
# Coordination Sequence:
#
# PCOD8025536 Si02
#       8
#     2   2   2   2   2   2   2   2
#     4  12  26  44  81 107 146 200 253 310 391 442
#     4  10  23  47  66  99 147 186 237 296 364 444
#     4  10  25  45  68 103 144 188 244 299 359 452
#     4  11  25  47  75 105 145 183 236 305 366 433
#     4  11  25  47  74 108 141 181 241 302 356 442
#     4  10  23  45  69 105 142 185 247 305 362 442
#     4  11  25  48  72 103 149 191 239 298 375 442
#     4  11  24  46  74 102 145 189 245 305 369 436
#
# _framework density 23.044515000000001
#
# number of rings (size 3 to 8) (size 9 to 14) (size 15 to 20)
#    0.000    1.250    2.500    1.500    5.250    2.500 
#   18.000    0.000    0.000    0.000    0.000    0.000 
#    0.000    0.000    0.000    0.000    0.000    0.000 
#
# Total GULP energy -198251.586446 kJ/mol
# GULP energy per Si atom -12390.724153 kJ/mol
# Density = 2.299206 g / cm^3
# Si number density = 23.044515 Si / 1000 Ang^3
#
#
#
# Elastic Constant Matrix: (Units=GPa)
#
#
# Indices 1 2 3 4 5 6 
#
# 1 86.5806 59.7514 41.6191 -0.6477 -12.4249 7.0064
# 2 59.7514 183.4480 62.1146 -19.3967 1.6470 11.6671
# 3 41.6191 62.1146 126.5484 -12.1912 -8.7274 1.0769
# 4 -0.6477 -19.3967 -12.1912 42.2172 1.9737 0.8891
# 5 -12.4249 1.6470 -8.7274 1.9737 36.4267 -5.2462
# 6 7.0064 11.6671 1.0769 0.8891 -5.2462 42.0086
#
#
#
# Elastic Compliance Matrix: (Units=1/GPa)
#
#
# Indices 1 2 3 4 5 6 
#
# 1 0.017265 -0.004872 -0.003210 -0.003139 0.005409 -0.000702
# 2 -0.004872 0.008332 -0.002368 0.003252 -0.003055 -0.001891
# 3 -0.003210 -0.002368 0.010389 0.001767 0.001562 0.001084
# 4 -0.003139 0.003252 0.001767 0.025781 -0.002374 -0.001267
# 5 0.005409 -0.003055 0.001562 -0.002374 0.030480 0.003763
# 6 -0.000702 -0.001891 0.001084 -0.001267 0.003763 0.024916
#
#
# Mechanical properties :
#
#
# Convention : Reuss Voigt Hill
#
# Bulk Modulus (GPa) = 66.29397 80.39413 73.34405
# Shear Modulus (GPa) = 34.94260 39.66996 37.30628
#
# Velocity S-wave (km/s) = 3.89821 4.15354 4.02789
# Velocity P-wave (km/s) = 7.00654 7.61345 7.31629
#
# Compressibility (1/GPa) = 0.01508433
#
# Stress axis : x y z
#
# Youngs Moduli (GPa) = 57.92034 120.02566 96.25630
#
# Poissons Ratio (x) = 0.58481 0.30898
# Poissons Ratio (y) = 0.28221 0.22796
# Poissons Ratio (z) = 0.18592 0.28426
#
# Static dielectric constant tensor:
#      x y z
#    x 4.463850 0.050430 0.019390 
#    y 0.050430 4.540730 -0.150110 
#    z 0.019390 -0.150110 4.560980 
# 
# 
# High freq. dielectric constant tensor:
#      x y z
#    x 1.902320 0.004920 -0.004490 
#    y 0.004920 1.923890 -0.009450 
#    z -0.004490 -0.009450 1.927690 
# 
# From -- ./inp_files/12806.got.cif
#   From: 2010.06.25/outbox.cif.g09.slc.cpg/sg2_7_cif.got.tgz:12806.got - 2010.06.27 13:26:56.
