data_PCOD8025282
_publ_section_title
;
Structure prediction by ZEFSAII (Michael W. Deem and Ramdas Pophale) SiO2 
 PCOD8025282
Probable space group: P -1
;
_chemical_formula_sum "Si O2"
_cell_formula_units_Z 16
_cell_length_a 11.664770
_cell_length_b 14.547002
_cell_length_c 8.487665
_cell_angle_alpha 65.692054
_cell_angle_beta 42.284642
_cell_angle_gamma 45.526550
_cell_volume 674.190930
_symmetry_space_group_name_H-M "P -1"
_symmetry_group_IT_number 2
_symmetry_cell_setting 'triclinic'
loop_
_space_group_symop_operation_xyz
x,y,z
-x,-y,-z
loop_
_atom_site_type_symbol
_atom_site_label
_atom_site_fract_x
_atom_site_fract_y
_atom_site_fract_z
Si Si1 0.832876 0.537235 0.279016
Si Si2 0.913853 0.082041 0.371184
Si Si3 0.449634 0.629333 0.402669
Si Si4 0.986094 0.707733 0.530240
Si Si5 0.675237 0.984541 0.561814
Si Si6 0.568677 0.373269 0.934216
Si Si7 0.698166 0.989511 0.190698
Si Si8 0.694060 0.705683 0.593625
O O1 0.595488 0.640308 0.363898
O O2 0.828527 0.622549 0.359491
O O3 0.893883 0.399136 0.373958
O O4 0.000000 0.500000 0.000000
O O5 0.803680 0.232881 0.415247
O O6 0.724423 0.080091 0.495505
O O7 0.000000 0.000000 0.500000
O O8 0.118588 0.019112 0.087365
O O9 0.500000 0.500000 0.500000
O O10 0.525838 0.606696 0.159947
O O11 0.779479 0.862937 0.666928
O O12 0.895063 0.655134 0.544299
O O13 0.163001 0.721412 0.271529
O O14 0.406995 0.063471 0.767442
O O15 0.792970 0.920022 0.314149
O O16 0.500000 0.500000 0.000000
O O17 0.468436 0.322524 0.172902
O O18 0.477554 0.137374 0.360556
#
# Coordination Sequence:
#
# PCOD8025282 Si02
#       8
#     2   2   2   2   2   2   2   2
#     4  12  26  44  69 103 150 189 233 307 368 419
#     4  12  26  46  74 104 149 189 230 299 365 425
#     4  12  26  47  67 110 147 180 241 296 362 425
#     4  11  23  43  71 104 139 189 241 292 354 434
#     4  10  23  44  72 103 136 187 248 286 349 426
#     4  12  24  43  72  96 140 189 235 288 356 435
#     4  10  23  46  73 103 139 187 243 296 346 431
#     4  11  23  45  71 104 141 188 250 287 356 433
#
# _framework density 23.732150000000001
#
# number of rings (size 3 to 8) (size 9 to 14) (size 15 to 20)
#    0.000    0.750    2.500    4.500    1.750    3.500 
#    6.750    0.000    0.000    0.000    0.000    0.000 
#    0.000    0.000    0.000    0.000    0.000    0.000 
#
# Total GULP energy -198219.378778 kJ/mol
# GULP energy per Si atom -12388.711174 kJ/mol
# Density = 2.367813 g / cm^3
# Si number density = 23.732150 Si / 1000 Ang^3
#
#
#
# Elastic Constant Matrix: (Units=GPa)
#
#
# Indices 1 2 3 4 5 6 
#
# 1 110.3993 31.9341 33.4813 -2.1617 -12.7136 3.0264
# 2 31.9341 107.6695 35.6034 5.3928 5.9827 -7.0810
# 3 33.4813 35.6034 111.9019 -11.1543 0.7555 4.7821
# 4 -2.1617 5.3928 -11.1543 26.6422 10.9467 -6.6026
# 5 -12.7136 5.9827 0.7555 10.9467 40.4388 -4.3379
# 6 3.0264 -7.0810 4.7821 -6.6026 -4.3379 40.3241
#
#
#
# Elastic Compliance Matrix: (Units=1/GPa)
#
#
# Indices 1 2 3 4 5 6 
#
# 1 0.011103 -0.002627 -0.002644 -0.001630 0.004286 -0.000787
# 2 -0.002627 0.011484 -0.003219 -0.002779 -0.001500 0.001979
# 3 -0.002644 -0.003219 0.011397 0.005894 -0.002271 -0.000998
# 4 -0.001630 -0.002779 0.005894 0.046799 -0.012314 0.005273
# 5 0.004286 -0.001500 -0.002271 -0.012314 0.029767 0.000870
# 6 -0.000787 0.001979 -0.000998 0.005273 0.000870 0.026281
#
#
# Mechanical properties :
#
#
# Convention : Reuss Voigt Hill
#
# Bulk Modulus (GPa) = 58.81054 59.11204 58.96129
# Shear Modulus (GPa) = 31.35191 36.74449 34.04820
#
# Velocity S-wave (km/s) = 3.63860 3.93911 3.79183
# Velocity P-wave (km/s) = 6.51823 6.75654 6.63846
#
# Compressibility (1/GPa) = 0.01700375
#
# Stress axis : x y z
#
# Youngs Moduli (GPa) = 90.06608 87.07735 87.74034
#
# Poissons Ratio (x) = 0.22875 0.23199
# Poissons Ratio (y) = 0.23660 0.28246
# Poissons Ratio (z) = 0.23814 0.28032
#
# Static dielectric constant tensor:
#      x y z
#    x 4.615690 -0.017960 -0.005470 
#    y -0.017960 4.215540 -0.060490 
#    z -0.005470 -0.060490 3.663130 
# 
# 
# High freq. dielectric constant tensor:
#      x y z
#    x 1.964480 -0.001280 -0.012490 
#    y -0.001280 1.947250 -0.011190 
#    z -0.012490 -0.011190 1.921520 
# 
# From -- ./inp_files/272337.got.cif
#   From: 2010.06.25/outbox.cif.g09.slc.cpg/sg2_137_cif.got.tgz:272337.got - 2010.06.27 13:26:56.
