data_PCOD8025471
_publ_section_title
;
Structure prediction by ZEFSAII (Michael W. Deem and Ramdas Pophale) SiO2 
 PCOD8025471
Probable space group: P -1
;
_chemical_formula_sum "Si O2"
_cell_formula_units_Z 16
_cell_length_a 5.213258
_cell_length_b 9.451781
_cell_length_c 24.144579
_cell_angle_alpha 131.013375
_cell_angle_beta 133.870472
_cell_angle_gamma 70.949175
_cell_volume 628.881135
_symmetry_space_group_name_H-M "P -1"
_symmetry_group_IT_number 2
_symmetry_cell_setting 'triclinic'
loop_
_space_group_symop_operation_xyz
x,y,z
-x,-y,-z
loop_
_atom_site_type_symbol
_atom_site_label
_atom_site_fract_x
_atom_site_fract_y
_atom_site_fract_z
Si Si1 0.361772 0.283369 0.519586
Si Si2 0.064958 0.588919 0.879668
Si Si3 0.563315 0.304939 0.380199
Si Si4 0.793879 0.814605 0.810301
Si Si5 0.195707 0.896811 0.244403
Si Si6 0.681345 0.410850 0.886497
Si Si7 0.565191 0.918223 0.413839
Si Si8 0.557819 0.941005 0.102343
O O1 0.569094 0.493097 0.579322
O O2 0.528352 0.242279 0.593419
O O3 0.947258 0.306399 0.467206
O O4 0.381493 0.100122 0.438685
O O5 0.291165 0.431687 0.855753
O O6 0.845198 0.627414 0.802822
O O7 0.795538 0.515067 0.871255
O O8 0.352659 0.785946 0.988462
O O9 0.557183 0.261738 0.301946
O O10 0.285390 0.128213 0.322297
O O11 0.732917 0.966309 0.886012
O O12 0.146870 0.902464 0.847806
O O13 0.359290 0.817021 0.192402
O O14 0.375753 0.812275 0.302608
O O15 0.755454 0.836479 0.152867
O O16 0.000000 0.500000 0.000000
O O17 0.000000 0.000000 0.500000
#
# Coordination Sequence:
#
# PCOD8025471 Si02
#       8
#     2   2   2   2   2   2   2   2
#     4  10  23  45  72  99 143 179 231 290 359 425
#     4  12  25  44  70 101 139 190 237 304 352 420
#     4  10  23  45  68 102 135 188 234 286 356 434
#     4  11  24  42  68 105 137 183 237 295 356 426
#     4  11  25  43  72 101 139 190 236 294 359 427
#     4  12  27  46  70 101 144 190 245 298 357 423
#     4  11  23  44  70 105 139 177 229 296 356 423
#     4  11  23  43  70  96 144 181 241 289 362 423
#
# _framework density 25.442011999999998
#
# number of rings (size 3 to 8) (size 9 to 14) (size 15 to 20)
#    0.000    1.000    2.500    3.375    3.500    2.500 
#    4.500    0.000    0.000    0.000    0.000    0.000 
#    0.000    0.000    0.000    0.000    0.000    0.000 
#
# Total GULP energy -198266.266337 kJ/mol
# GULP energy per Si atom -12391.641646 kJ/mol
# Density = 2.538410 g / cm^3
# Si number density = 25.442012 Si / 1000 Ang^3
#
#
#
# Elastic Constant Matrix: (Units=GPa)
#
#
# Indices 1 2 3 4 5 6 
#
# 1 60.7395 20.3809 -5.9273 -9.9100 -13.2509 -0.6740
# 2 20.3809 152.5625 37.2514 -5.7914 -11.0150 -3.7063
# 3 -5.9273 37.2514 83.5721 -12.3666 -10.4743 4.1257
# 4 -9.9100 -5.7914 -12.3666 49.8917 0.8865 -8.3861
# 5 -13.2509 -11.0150 -10.4743 0.8865 27.1192 0.5636
# 6 -0.6740 -3.7063 4.1257 -8.3861 0.5636 42.5313
#
#
#
# Elastic Compliance Matrix: (Units=1/GPa)
#
#
# Indices 1 2 3 4 5 6 
#
# 1 0.021139 -0.003047 0.004925 0.004945 0.010823 0.000423
# 2 -0.003047 0.007919 -0.003832 -0.000487 0.000244 0.000914
# 3 0.004925 -0.003832 0.015523 0.004086 0.006734 -0.001045
# 4 0.004945 -0.000487 0.004086 0.022611 0.002973 0.004059
# 5 0.010823 0.000244 0.006734 0.002973 0.044775 -0.000467
# 6 0.000423 0.000914 -0.001045 0.004059 -0.000467 0.024506
#
#
# Mechanical properties :
#
#
# Convention : Reuss Voigt Hill
#
# Bulk Modulus (GPa) = 24.58678 44.47600 34.53139
# Shear Modulus (GPa) = 32.47997 40.25306 36.36652
#
# Velocity S-wave (km/s) = 3.57687 3.98194 3.78483
# Velocity P-wave (km/s) = 5.17141 6.21775 5.71856
#
# Compressibility (1/GPa) = 0.04067226
#
# Stress axis : x y z
#
# Youngs Moduli (GPa) = 47.30504 126.28020 64.41892
#
# Poissons Ratio (x) = 0.38479 -0.31725
# Poissons Ratio (y) = 0.14414 0.24688
# Poissons Ratio (z) = -0.23297 0.48396
#
# Static dielectric constant tensor:
#      x y z
#    x 4.225130 -0.049100 -0.218780 
#    y -0.049100 5.130450 -0.002130 
#    z -0.218780 -0.002130 5.013680 
# 
# 
# High freq. dielectric constant tensor:
#      x y z
#    x 1.986560 0.004110 -0.010570 
#    y 0.004110 2.040360 -0.006140 
#    z -0.010570 -0.006140 2.031520 
# 
# From -- ./inp_files/52188.got.cif
#   From: 2010.06.25/outbox.cif.g09.slc.cpg/sg2_27_cif.got.tgz:52188.got - 2010.06.27 13:26:56.
