data_PCOD8025711
_publ_section_title
;
Structure prediction by ZEFSAII (Michael W. Deem and Ramdas Pophale) SiO2 
 PCOD8025711
Probable space group: P -1
;
_chemical_formula_sum "Si O2"
_cell_formula_units_Z 12
_cell_length_a 8.566552
_cell_length_b 18.979029
_cell_length_c 11.665666
_cell_angle_alpha 29.230067
_cell_angle_beta 67.531176
_cell_angle_gamma 49.578461
_cell_volume 613.033046
_symmetry_space_group_name_H-M "P -1"
_symmetry_group_IT_number 2
_symmetry_cell_setting 'triclinic'
loop_
_space_group_symop_operation_xyz
x,y,z
-x,-y,-z
loop_
_atom_site_type_symbol
_atom_site_label
_atom_site_fract_x
_atom_site_fract_y
_atom_site_fract_z
Si Si1 0.972753 0.627214 0.159826
Si Si2 0.654008 0.999194 0.588618
Si Si3 0.219533 0.798383 0.164308
Si Si4 0.281209 0.469701 0.506417
Si Si5 0.148941 0.361960 0.262879
Si Si6 0.292121 0.984485 0.694744
O O1 0.197915 0.530292 0.312348
O O2 0.055268 0.489474 0.222197
O O3 0.787709 0.643756 0.261418
O O4 0.850116 0.853463 0.838843
O O5 0.558654 0.891342 0.743048
O O6 0.430896 0.232055 0.357472
O O7 0.784842 0.988728 0.455113
O O8 0.162388 0.667256 0.335237
O O9 0.437113 0.680198 0.358962
O O10 0.286506 0.837471 0.970899
O O11 0.000000 0.000000 0.000000
O O12 0.126550 0.199854 0.502443
O O13 0.000000 0.500000 0.000000
#
# Coordination Sequence:
#
# PCOD8025711 Si02
#       6
#     2   2   2   2   2   2
#     4  11  19  38  57  89 116 138 198 236 279 326
#     4   9  18  32  56  88 110 139 185 245 275 313
#     4  11  22  41  56  81 117 156 190 220 286 348
#     4  10  24  36  59  82 116 158 180 235 280 338
#     4  10  17  29  57  87 109 141 184 233 280 326
#     4   9  17  34  56  85 110 145 189 234 274 328
#
# _framework density 19.574801999999998
#
# number of rings (size 3 to 8) (size 9 to 14) (size 15 to 20)
#    1.000    1.000    3.333    1.000    0.000    1.333 
#    0.000    5.000    0.000    2.000    0.000    0.000 
#    0.000    0.000    0.000    0.000    0.000    0.000 
#
# Total GULP energy -148693.978393 kJ/mol
# GULP energy per Si atom -12391.164866 kJ/mol
# Density = 1.953025 g / cm^3
# Si number density = 19.574802 Si / 1000 Ang^3
#
#
#
# Elastic Constant Matrix: (Units=GPa)
#
#
# Indices 1 2 3 4 5 6 
#
# 1 53.8039 16.9146 32.1188 4.3930 18.2856 8.0512
# 2 16.9146 85.2667 40.2543 -8.4234 26.2469 7.1158
# 3 32.1188 40.2543 129.7530 3.0920 32.0293 5.6719
# 4 4.3930 -8.4234 3.0920 40.0033 4.3289 -2.2335
# 5 18.2856 26.2469 32.0293 4.3289 29.9013 10.8477
# 6 8.0512 7.1158 5.6719 -2.2335 10.8477 17.0006
#
#
#
# Elastic Compliance Matrix: (Units=1/GPa)
#
#
# Indices 1 2 3 4 5 6 
#
# 1 0.024745 -0.000183 -0.003557 -0.001762 -0.009147 -0.004850
# 2 -0.000183 0.017747 -0.001881 0.005843 -0.015796 0.004133
# 3 -0.003557 -0.001881 0.011532 0.000553 -0.010584 0.005450
# 4 -0.001762 0.005843 0.000553 0.028251 -0.012268 0.009744
# 5 -0.009147 -0.015796 -0.010584 -0.012268 0.079829 -0.038074
# 6 -0.004850 0.004133 0.005450 0.009744 -0.038074 0.083144
#
#
# Mechanical properties :
#
#
# Convention : Reuss Voigt Hill
#
# Bulk Modulus (GPa) = 23.37402 49.71101 36.54251
# Shear Modulus (GPa) = 18.46715 29.35010 23.90863
#
# Velocity S-wave (km/s) = 3.07484 3.87639 3.49864
# Velocity P-wave (km/s) = 4.95711 6.74431 5.91856
#
# Compressibility (1/GPa) = 0.04278255
#
# Stress axis : x y z
#
# Youngs Moduli (GPa) = 40.41196 56.34755 86.71428
#
# Poissons Ratio (x) = 0.01033 0.30840
# Poissons Ratio (y) = 0.00741 0.16311
# Poissons Ratio (z) = 0.14373 0.10599
#
# Static dielectric constant tensor:
#      x y z
#    x 3.280750 0.097630 0.176290 
#    y 0.097630 3.368400 0.079880 
#    z 0.176290 0.079880 3.843000 
# 
# 
# High freq. dielectric constant tensor:
#      x y z
#    x 1.717120 0.005120 0.013380 
#    y 0.005120 1.749700 0.003650 
#    z 0.013380 0.003650 1.782770 
# 
# From -- ./inp_files/404501.got.cif
#   From: 2010.06.25/outbox.cif.g09.slc.cpg/sg2_203_cif.got.tgz:404501.got - 2010.06.27 13:26:56.
