data_PCOD8025741
_publ_section_title
;
Structure prediction by ZEFSAII (Michael W. Deem and Ramdas Pophale) SiO2 
 PCOD8025741
Probable space group: P -1
;
_chemical_formula_sum "Si O2"
_cell_formula_units_Z 14
_cell_length_a 15.445991
_cell_length_b 9.568040
_cell_length_c 11.889574
_cell_angle_alpha 120.914985
_cell_angle_beta 152.662868
_cell_angle_gamma 48.950844
_cell_volume 596.121091
_symmetry_space_group_name_H-M "P -1"
_symmetry_group_IT_number 2
_symmetry_cell_setting 'triclinic'
loop_
_space_group_symop_operation_xyz
x,y,z
-x,-y,-z
loop_
_atom_site_type_symbol
_atom_site_label
_atom_site_fract_x
_atom_site_fract_y
_atom_site_fract_z
Si Si1 0.646914 0.142860 0.197334
Si Si2 0.549799 0.055625 0.701716
Si Si3 0.372046 0.391199 0.789392
Si Si4 0.004855 0.881850 0.061919
Si Si5 0.012702 0.724712 0.406072
Si Si6 0.551345 0.196959 0.361244
Si Si7 0.902590 0.507351 0.009790
O O1 0.801410 0.231238 0.400547
O O2 0.526762 0.185481 0.194974
O O3 0.447628 0.237915 0.914865
O O4 0.792095 0.914877 0.264040
O O5 0.428042 0.277763 0.686975
O O6 0.500000 0.000000 0.500000
O O7 0.482199 0.959446 0.679839
O O8 0.807061 0.988856 0.967006
O O9 0.115688 0.561735 0.556427
O O10 0.500000 0.500000 0.000000
O O11 0.218896 0.819868 0.355927
O O12 0.997403 0.707425 0.922604
O O13 0.000000 0.000000 0.000000
O O14 0.956621 0.636028 0.201145
O O15 0.358881 0.401054 0.264023
O O16 0.000000 0.500000 0.000000
#
# Coordination Sequence:
#
# PCOD8025741 Si02
#       7
#     2   2   2   2   2   2   2
#     4  10  24  47  71 114 150 198 254 310 389 451
#     4  12  25  48  75 110 151 196 257 317 382 456
#     4  10  24  44  77 108 150 202 248 317 382 455
#     4  12  27  46  73 109 150 197 249 312 388 457
#     4  10  23  45  78 107 153 197 250 318 374 460
#     4  12  27  46  78 106 151 199 252 318 380 463
#     4  12  25  45  73 110 147 195 253 314 383 454
#
# _framework density 23.48516
#
# number of rings (size 3 to 8) (size 9 to 14) (size 15 to 20)
#    0.000    0.857    2.857    3.000    6.000    4.571 
#    0.000    1.429    0.000    0.000    0.000    0.000 
#    0.000    0.000    0.000    0.000    0.000    0.000 
#
# Total GULP energy -173504.715179 kJ/mol
# GULP energy per Si atom -12393.193941 kJ/mol
# Density = 2.343171 g / cm^3
# Si number density = 23.485160 Si / 1000 Ang^3
#
#
#
# Elastic Constant Matrix: (Units=GPa)
#
#
# Indices 1 2 3 4 5 6 
#
# 1 133.0621 52.4711 44.5328 -7.7070 -10.4966 -6.2613
# 2 52.4711 170.0534 43.0209 -15.5253 -12.1588 -8.9873
# 3 44.5328 43.0209 110.5462 -19.1950 -15.8053 -7.3208
# 4 -7.7070 -15.5253 -19.1950 53.7815 -1.1998 -0.7461
# 5 -10.4966 -12.1588 -15.8053 -1.1998 36.8294 0.5065
# 6 -6.2613 -8.9873 -7.3208 -0.7461 0.5065 32.0473
#
#
#
# Elastic Compliance Matrix: (Units=1/GPa)
#
#
# Indices 1 2 3 4 5 6 
#
# 1 0.009373 -0.002111 -0.002858 -0.000262 0.000732 0.000569
# 2 -0.002111 0.007171 -0.001466 0.001288 0.001161 0.001275
# 3 -0.002858 -0.001466 0.012080 0.003593 0.003978 0.001811
# 4 -0.000262 0.001288 0.003593 0.020288 0.002532 0.001563
# 5 0.000732 0.001161 0.003978 0.002532 0.029520 0.000970
# 6 0.000569 0.001275 0.001811 0.001563 0.000970 0.032107
#
#
# Mechanical properties :
#
#
# Convention : Reuss Voigt Hill
#
# Bulk Modulus (GPa) = 63.47221 77.07904 70.27562
# Shear Modulus (GPa) = 38.86165 42.77410 40.81787
#
# Velocity S-wave (km/s) = 4.07225 4.27233 4.17349
# Velocity P-wave (km/s) = 7.01400 7.56496 7.29468
#
# Compressibility (1/GPa) = 0.01575493
#
# Stress axis : x y z
#
# Youngs Moduli (GPa) = 106.68496 139.45619 82.77948
#
# Poissons Ratio (x) = 0.29436 0.23656
# Poissons Ratio (y) = 0.22519 0.12138
# Poissons Ratio (z) = 0.30488 0.20448
#
# Static dielectric constant tensor:
#      x y z
#    x 4.172580 -0.036940 0.020870 
#    y -0.036940 4.621030 -0.475250 
#    z 0.020870 -0.475250 4.647850 
# 
# 
# High freq. dielectric constant tensor:
#      x y z
#    x 1.917080 -0.000620 0.000850 
#    y -0.000620 1.950470 -0.002640 
#    z 0.000850 -0.002640 1.946160 
# 
# From -- ./inp_files/448111.got.cif
#   From: 2010.06.25/outbox.cif.g09.slc.cpg/sg2_225_cif.got.tgz:448111.got - 2010.06.27 13:26:56.
