data_PCOD8025221
_publ_section_title
;
Structure prediction by ZEFSAII (Michael W. Deem and Ramdas Pophale) SiO2 
 PCOD8025221
Probable space group: P -1
;
_chemical_formula_sum "Si O2"
_cell_formula_units_Z 16
_cell_length_a 13.722712
_cell_length_b 8.852779
_cell_length_c 11.496400
_cell_angle_alpha 125.990814
_cell_angle_beta 126.334014
_cell_angle_gamma 40.010865
_cell_volume 698.785154
_symmetry_space_group_name_H-M "P -1"
_symmetry_group_IT_number 2
_symmetry_cell_setting 'triclinic'
loop_
_space_group_symop_operation_xyz
x,y,z
-x,-y,-z
loop_
_atom_site_type_symbol
_atom_site_label
_atom_site_fract_x
_atom_site_fract_y
_atom_site_fract_z
Si Si1 0.615330 0.134601 0.135526
Si Si2 0.359605 0.226985 0.159188
Si Si3 0.870855 0.611939 0.360587
Si Si4 0.148971 0.980695 0.574028
Si Si5 0.384599 0.662449 0.134818
Si Si6 0.905011 0.161922 0.115742
Si Si7 0.190385 0.771420 0.271238
Si Si8 0.524667 0.918453 0.349366
O O1 0.524680 0.120044 0.169050
O O2 0.493125 0.372246 0.079525
O O3 0.740380 0.147392 0.292289
O O4 0.701374 0.899555 0.006311
O O5 0.225308 0.516533 0.184163
O O6 0.396139 0.155018 0.287826
O O7 0.897074 0.756084 0.354479
O O8 0.892148 0.398386 0.209699
O O9 0.700517 0.793358 0.380229
O O10 0.000000 0.500000 0.500000
O O11 0.239363 0.818542 0.448802
O O12 0.000000 0.000000 0.500000
O O13 0.288277 0.773408 0.238239
O O14 0.496788 0.726670 0.227415
O O15 0.268945 0.756528 0.983206
O O16 0.001652 0.992608 0.220059
O O17 0.000000 0.000000 0.000000
O O18 0.500000 0.000000 0.500000
#
# Coordination Sequence:
#
# PCOD8025221 Si02
#       8
#     2   2   2   2   2   2   2   2
#     4  10  23  44  71 100 135 186 234 290 357 421
#     4  10  23  44  71 100 139 184 238 289 361 419
#     4  12  26  47  73 100 148 191 242 300 364 429
#     4  12  27  44  68 100 139 184 239 291 360 427
#     4  10  24  42  75 101 145 183 244 293 359 428
#     4  10  23  45  75 103 145 192 238 293 369 429
#     4  10  23  46  68 104 141 191 228 301 355 429
#     4  12  27  44  74 112 145 191 244 305 358 435
#
# _framework density 22.896879999999999
#
# number of rings (size 3 to 8) (size 9 to 14) (size 15 to 20)
#    0.000    1.250    2.500    1.500   10.500    4.000 
#    0.000    1.250    0.000    0.000    0.000    0.000 
#    0.000    0.000    0.000    0.000    0.000    0.000 
#
# Total GULP energy -198433.118241 kJ/mol
# GULP energy per Si atom -12402.069890 kJ/mol
# Density = 2.284477 g / cm^3
# Si number density = 22.896880 Si / 1000 Ang^3
#
#
#
# Elastic Constant Matrix: (Units=GPa)
#
#
# Indices 1 2 3 4 5 6 
#
# 1 86.1384 32.6445 31.7343 -0.4262 16.4665 4.9262
# 2 32.6445 140.7713 60.7118 -0.8384 4.1446 7.3918
# 3 31.7343 60.7118 140.7375 -0.6308 14.3224 -9.7543
# 4 -0.4262 -0.8384 -0.6308 50.3978 -2.5890 3.7103
# 5 16.4665 4.1446 14.3224 -2.5890 36.3334 0.1381
# 6 4.9262 7.3918 -9.7543 3.7103 0.1381 25.2256
#
#
#
# Elastic Compliance Matrix: (Units=1/GPa)
#
#
# Indices 1 2 3 4 5 6 
#
# 1 0.014364 -0.002182 -0.001939 -0.000009 -0.005486 -0.002884
# 2 -0.002182 0.009524 -0.004050 0.000464 0.001547 -0.004007
# 3 -0.001939 -0.004050 0.009936 -0.000499 -0.002632 0.005495
# 4 -0.000009 0.000464 -0.000499 0.020169 0.001597 -0.003303
# 5 -0.005486 0.001547 -0.002632 0.001597 0.030987 -0.000804
# 6 -0.002884 -0.004007 0.005495 -0.003303 -0.000804 0.043995
#
#
# Mechanical properties :
#
#
# Convention : Reuss Voigt Hill
#
# Bulk Modulus (GPa) = 57.19884 68.64758 62.92321
# Shear Modulus (GPa) = 33.08105 38.56183 35.82144
#
# Velocity S-wave (km/s) = 3.80516 4.10829 3.95963
# Velocity P-wave (km/s) = 6.65890 7.24916 6.96029
#
# Compressibility (1/GPa) = 0.01748287
#
# Stress axis : x y z
#
# Youngs Moduli (GPa) = 69.61756 105.00061 100.64243
#
# Poissons Ratio (x) = 0.22907 0.19519
# Poissons Ratio (y) = 0.15188 0.40756
# Poissons Ratio (z) = 0.13502 0.42520
#
# Static dielectric constant tensor:
#      x y z
#    x 4.015490 -0.040640 0.107680 
#    y -0.040640 4.501240 -0.078790 
#    z 0.107680 -0.078790 4.315170 
# 
# 
# High freq. dielectric constant tensor:
#      x y z
#    x 1.889770 0.007710 -0.000120 
#    y 0.007710 1.909400 -0.003690 
#    z -0.000120 -0.003690 1.922130 
# 
# From -- ./inp_files/333795.got.cif
#   From: 2010.06.25/outbox.cif.g09.slc.cpg/sg2_167_cif.got.tgz:333795.got - 2010.06.27 13:26:56.
