data_PCOD8025346
_publ_section_title
;
Structure prediction by ZEFSAII (Michael W. Deem and Ramdas Pophale) SiO2 
 PCOD8025346
Probable space group: P -1
;
_chemical_formula_sum "Si O2"
_cell_formula_units_Z 12
_cell_length_a 8.625383
_cell_length_b 8.941733
_cell_length_c 9.828576
_cell_angle_alpha 59.813156
_cell_angle_beta 121.898162
_cell_angle_gamma 90.072656
_cell_volume 518.923318
_symmetry_space_group_name_H-M "P -1"
_symmetry_group_IT_number 2
_symmetry_cell_setting 'triclinic'
loop_
_space_group_symop_operation_xyz
x,y,z
-x,-y,-z
loop_
_atom_site_type_symbol
_atom_site_label
_atom_site_fract_x
_atom_site_fract_y
_atom_site_fract_z
Si Si1 0.250624 0.277420 0.594250
Si Si2 0.697434 0.986321 0.517368
Si Si3 0.905691 0.620340 0.249987
Si Si4 0.371114 0.606390 0.768932
Si Si5 0.418664 0.605498 0.277411
Si Si6 0.976417 0.846494 0.961472
O O1 0.245818 0.157880 0.515011
O O2 0.148869 0.244124 0.703367
O O3 0.476198 0.242263 0.755168
O O4 0.138280 0.497896 0.406913
O O5 0.872438 0.926330 0.735578
O O6 0.500000 0.000000 0.500000
O O7 0.695198 0.172063 0.356086
O O8 0.810327 0.462983 0.288866
O O9 0.848676 0.746222 0.030530
O O10 0.508361 0.554392 0.726160
O O11 0.500000 0.500000 0.000000
O O12 0.500000 0.500000 0.500000
O O13 0.190291 0.699304 0.101255
O O14 0.000000 0.000000 0.000000
#
# Coordination Sequence:
#
# PCOD8025346 Si02
#       6
#     2   2   2   2   2   2
#     4  10  23  44  74  98 144 187 234 288 350 417
#     4  12  27  46  73 108 145 179 244 297 344 419
#     4  10  24  45  72 100 142 191 233 283 361 418
#     4  11  26  46  71 101 143 187 232 289 360 419
#     4  11  22  45  71 100 139 189 229 286 352 419
#     4  12  26  43  75 109 140 184 243 291 352 414
#
# _framework density 23.124804999999999
#
# number of rings (size 3 to 8) (size 9 to 14) (size 15 to 20)
#    0.000    1.000    1.667    4.000    7.000    2.667 
#    0.000    4.167    0.000    0.000    0.000    0.000 
#    0.000    0.000    0.000    0.000    0.000    0.000 
#
# Total GULP energy -148675.682463 kJ/mol
# GULP energy per Si atom -12389.640205 kJ/mol
# Density = 2.307217 g / cm^3
# Si number density = 23.124805 Si / 1000 Ang^3
#
#
#
# Elastic Constant Matrix: (Units=GPa)
#
#
# Indices 1 2 3 4 5 6 
#
# 1 111.5343 58.3247 52.7547 -3.4451 1.4711 -9.8031
# 2 58.3247 134.3049 47.1086 14.8284 -14.0413 -19.4711
# 3 52.7547 47.1086 172.2001 7.6762 -6.4681 -3.9644
# 4 -3.4451 14.8284 7.6762 39.5924 3.9062 -9.6648
# 5 1.4711 -14.0413 -6.4681 3.9062 39.8096 2.0702
# 6 -9.8031 -19.4711 -3.9644 -9.6648 2.0702 37.3854
#
#
#
# Elastic Compliance Matrix: (Units=1/GPa)
#
#
# Indices 1 2 3 4 5 6 
#
# 1 0.013561 -0.005462 -0.002953 0.004570 -0.003448 0.001771
# 2 -0.005462 0.011574 -0.001067 -0.004268 0.004367 0.003138
# 3 -0.002953 -0.001067 0.007092 -0.001597 0.001097 -0.001051
# 4 0.004570 -0.004268 -0.001597 0.029732 -0.005204 0.006780
# 5 -0.003448 0.004367 0.001097 -0.005204 0.027548 -0.001384
# 6 0.001771 0.003138 -0.001051 0.006780 -0.001384 0.030565
#
#
# Mechanical properties :
#
#
# Convention : Reuss Voigt Hill
#
# Bulk Modulus (GPa) = 75.38782 81.60168 78.49475
# Shear Modulus (GPa) = 34.85395 40.68091 37.76743
#
# Velocity S-wave (km/s) = 3.88649 4.19882 4.04567
# Velocity P-wave (km/s) = 7.26711 7.67274 7.47268
#
# Compressibility (1/GPa) = 0.01326474
#
# Stress axis : x y z
#
# Youngs Moduli (GPa) = 73.74142 86.39737 141.00824
#
# Poissons Ratio (x) = 0.47188 0.41637
# Poissons Ratio (y) = 0.40276 0.15040
# Poissons Ratio (z) = 0.21774 0.09215
#
# Static dielectric constant tensor:
#      x y z
#    x 7.499720 2.512250 -0.546880 
#    y 2.512250 6.587540 -0.501600 
#    z -0.546880 -0.501600 4.577290 
# 
# 
# High freq. dielectric constant tensor:
#      x y z
#    x 1.931230 -0.007760 -0.001900 
#    y -0.007760 1.907670 0.011000 
#    z -0.001900 0.011000 1.922310 
# 
# From -- ./inp_files/156724.got.cif
#   From: 2010.06.25/outbox.cif.g09.slc.cpg/sg2_79_cif.got.tgz:156724.got - 2010.06.27 13:26:56.
