data_PCOD8025358
_publ_section_title
;
Structure prediction by ZEFSAII (Michael W. Deem and Ramdas Pophale) SiO2 
 PCOD8025358
Probable space group: P -1
;
_chemical_formula_sum "Si O2"
_cell_formula_units_Z 16
_cell_length_a 9.688592
_cell_length_b 9.108871
_cell_length_c 14.702218
_cell_angle_alpha 78.467092
_cell_angle_beta 141.074194
_cell_angle_gamma 116.210379
_cell_volume 707.260287
_symmetry_space_group_name_H-M "P -1"
_symmetry_group_IT_number 2
_symmetry_cell_setting 'triclinic'
loop_
_space_group_symop_operation_xyz
x,y,z
-x,-y,-z
loop_
_atom_site_type_symbol
_atom_site_label
_atom_site_fract_x
_atom_site_fract_y
_atom_site_fract_z
Si Si1 0.272387 0.394856 0.581641
Si Si2 0.619676 0.684399 0.840675
Si Si3 0.149024 0.583600 0.733815
Si Si4 0.549679 0.792130 0.447131
Si Si5 0.011283 0.721924 0.184107
Si Si6 0.999260 0.076546 0.585440
Si Si7 0.184251 0.103951 0.250170
Si Si8 0.216086 0.896117 0.846516
O O1 0.527633 0.535898 0.737023
O O2 0.334384 0.306722 0.539712
O O3 0.094564 0.471614 0.446191
O O4 0.129778 0.277246 0.610828
O O5 0.397860 0.673237 0.790863
O O6 0.728992 0.855630 0.815012
O O7 0.837252 0.681607 0.012290
O O8 0.133927 0.418462 0.796281
O O9 0.157843 0.718917 0.794340
O O10 0.595363 0.780442 0.580113
O O11 0.262543 0.715733 0.285003
O O12 0.710135 0.993657 0.480203
O O13 0.086860 0.904515 0.243236
O O14 0.000000 0.000000 0.500000
O O15 0.152146 0.018889 0.737510
O O16 0.951035 0.141734 0.143366
O O17 0.500000 0.000000 0.000000
#
# Coordination Sequence:
#
# PCOD8025358 Si02
#       8
#     2   2   2   2   2   2   2   2
#     4  11  24  44  73 108 143 185 244 294 349 424
#     4  12  29  44  72 106 151 181 237 296 361 421
#     4  12  26  48  71 105 144 190 239 290 357 424
#     4  10  23  44  75  99 143 184 242 286 353 423
#     4  12  28  45  72 106 147 186 231 299 366 415
#     4   9  19  40  66 101 134 180 230 282 338 417
#     4  11  25  49  72 103 142 190 240 287 356 431
#     4  11  24  43  76 102 143 190 237 292 354 418
#
# _framework density 22.622505
#
# number of rings (size 3 to 8) (size 9 to 14) (size 15 to 20)
#    0.000    1.000    3.750    3.000    8.750    3.500 
#    0.000    0.000    0.000    0.000    0.000    0.000 
#    0.000    0.000    0.000    0.000    0.000    0.000 
#
# Total GULP energy -198345.037339 kJ/mol
# GULP energy per Si atom -12396.564834 kJ/mol
# Density = 2.257102 g / cm^3
# Si number density = 22.622505 Si / 1000 Ang^3
#
#
#
# Elastic Constant Matrix: (Units=GPa)
#
#
# Indices 1 2 3 4 5 6 
#
# 1 135.2762 42.6639 51.6649 -13.5245 9.2588 19.7994
# 2 42.6639 109.1670 35.8811 -8.5495 -10.5124 9.8634
# 3 51.6649 35.8811 167.3719 6.3822 9.9958 6.4911
# 4 -13.5245 -8.5495 6.3822 30.4872 4.2798 -4.1232
# 5 9.2588 -10.5124 9.9958 4.2798 37.3757 0.2238
# 6 19.7994 9.8634 6.4911 -4.1232 0.2238 27.8958
#
#
#
# Elastic Compliance Matrix: (Units=1/GPa)
#
#
# Indices 1 2 3 4 5 6 
#
# 1 0.010641 -0.002864 -0.002429 0.004159 -0.003236 -0.005334
# 2 -0.002864 0.011552 -0.001853 0.001563 0.004284 -0.001424
# 3 -0.002429 -0.001853 0.007314 -0.002875 -0.001548 0.000265
# 4 0.004159 0.001563 -0.002875 0.036604 -0.004029 0.002607
# 5 -0.003236 0.004284 -0.001548 -0.004029 0.029635 0.000309
# 6 -0.005334 -0.001424 0.000265 0.002607 0.000309 0.040458
#
#
# Mechanical properties :
#
#
# Convention : Reuss Voigt Hill
#
# Bulk Modulus (GPa) = 65.72534 74.69274 70.20904
# Shear Modulus (GPa) = 32.14014 37.92541 35.03278
#
# Velocity S-wave (km/s) = 3.77333 4.09888 3.93947
# Velocity P-wave (km/s) = 6.93543 7.44915 7.19687
#
# Compressibility (1/GPa) = 0.01521483
#
# Stress axis : x y z
#
# Youngs Moduli (GPa) = 93.97217 86.56374 136.73320
#
# Poissons Ratio (x) = 0.24795 0.33215
# Poissons Ratio (y) = 0.26917 0.25331
# Poissons Ratio (z) = 0.22828 0.16037
#
# Static dielectric constant tensor:
#      x y z
#    x 4.451340 0.738280 -0.155920 
#    y 0.738280 5.607860 -0.415460 
#    z -0.155920 -0.415460 4.378030 
# 
# 
# High freq. dielectric constant tensor:
#      x y z
#    x 1.902980 0.010630 -0.002310 
#    y 0.010630 1.890830 0.010120 
#    z -0.002310 0.010120 1.893870 
# 
# From -- ./inp_files/494999.got.cif
#   From: 2010.06.25/outbox.cif.g09.slc.cpg/sg2_248_cif.got.tgz:494999.got - 2010.06.27 13:26:56.
