data_PCOD8025778
_publ_section_title
;
Structure prediction by ZEFSAII (Michael W. Deem and Ramdas Pophale) SiO2 
 PCOD8025778
Probable space group: P -1
;
_chemical_formula_sum "Si O2"
_cell_formula_units_Z 16
_cell_length_a 11.782884
_cell_length_b 8.970060
_cell_length_c 11.996096
_cell_angle_alpha 50.465037
_cell_angle_beta 59.019928
_cell_angle_gamma 50.568961
_cell_volume 742.191847
_symmetry_space_group_name_H-M "P -1"
_symmetry_group_IT_number 2
_symmetry_cell_setting 'triclinic'
loop_
_space_group_symop_operation_xyz
x,y,z
-x,-y,-z
loop_
_atom_site_type_symbol
_atom_site_label
_atom_site_fract_x
_atom_site_fract_y
_atom_site_fract_z
Si Si1 0.633893 0.263056 0.552236
Si Si2 0.217576 0.093451 0.613232
Si Si3 0.240861 0.323733 0.273152
Si Si4 0.799884 0.924834 0.790353
Si Si5 0.779007 0.729814 0.114945
Si Si6 0.537563 0.973454 0.310747
Si Si7 0.139244 0.757092 0.711972
Si Si8 0.000658 0.775175 0.138873
O O1 0.500000 0.500000 0.500000
O O2 0.583666 0.118550 0.566251
O O3 0.790976 0.248900 0.441962
O O4 0.672141 0.167027 0.703930
O O5 0.185945 0.252935 0.447848
O O6 0.376026 0.043905 0.611355
O O7 0.091949 0.217933 0.709049
O O8 0.215075 0.863968 0.703162
O O9 0.180356 0.241943 0.238720
O O10 0.167918 0.585870 0.171251
O O11 0.422448 0.228518 0.221585
O O12 0.962117 0.910434 0.733050
O O13 0.736004 0.882458 0.956475
O O14 0.642100 0.842826 0.216624
O O15 0.809905 0.494240 0.164442
O O16 0.931700 0.706112 0.102135
O O17 0.000000 0.000000 0.000000
#
# Coordination Sequence:
#
# PCOD8025778 Si02
#       8
#     2   2   2   2   2   2   2   2
#     4  11  23  42  67  98 134 172 220 281 321 397
#     4  11  24  42  69  97 135 177 217 275 325 397
#     4  11  23  42  70  96 132 174 219 279 323 394
#     4  11  24  41  68  99 133 170 226 269 336 385
#     4  11  24  44  69  98 136 178 211 283 323 404
#     4  10  23  46  67  95 139 171 224 262 342 388
#     4  12  22  41  70 101 131 170 224 271 334 381
#     4  11  25  46  64  97 135 175 227 266 332 390
#
# _framework density 21.557769
#
# number of rings (size 3 to 8) (size 9 to 14) (size 15 to 20)
#    0.000    1.000    5.000    2.250    1.750    2.000 
#    4.500    2.500    0.000    0.000    0.000    0.000 
#    0.000    0.000    0.000    0.000    0.000    0.000 
#
# Total GULP energy -198294.187778 kJ/mol
# GULP energy per Si atom -12393.386736 kJ/mol
# Density = 2.150870 g / cm^3
# Si number density = 21.557769 Si / 1000 Ang^3
#
#
#
# Elastic Constant Matrix: (Units=GPa)
#
#
# Indices 1 2 3 4 5 6 
#
# 1 89.4527 43.0425 46.3706 -7.2388 -0.7028 -4.3714
# 2 43.0425 104.4581 47.1762 -34.4481 13.5275 -18.8969
# 3 46.3706 47.1762 111.1142 -18.5893 17.0553 3.2827
# 4 -7.2388 -34.4481 -18.5893 35.5607 0.0029 9.3800
# 5 -0.7028 13.5275 17.0553 0.0029 31.1685 2.2689
# 6 -4.3714 -18.8969 3.2827 9.3800 2.2689 34.8196
#
#
#
# Elastic Compliance Matrix: (Units=1/GPa)
#
#
# Indices 1 2 3 4 5 6 
#
# 1 0.017700 -0.007684 -0.006456 -0.007253 0.007257 0.000142
# 2 -0.007684 0.021457 -0.002019 0.016306 -0.008897 0.007058
# 3 -0.006456 -0.002019 0.014679 0.005546 -0.006987 -0.004329
# 4 -0.007253 0.016306 0.005546 0.046518 -0.009954 -0.004467
# 5 0.007257 -0.008897 -0.006987 -0.009954 0.040165 -0.003194
# 6 0.000142 0.007058 -0.004329 -0.004467 -0.003194 0.034387
#
#
# Mechanical properties :
#
#
# Convention : Reuss Voigt Hill
#
# Bulk Modulus (GPa) = 46.46825 64.24485 55.35655
# Shear Modulus (GPa) = 23.32123 31.53880 27.43002
#
# Velocity S-wave (km/s) = 3.29264 3.82905 3.57094
# Velocity P-wave (km/s) = 6.00478 7.02957 6.53728
#
# Compressibility (1/GPa) = 0.02152007
#
# Stress axis : x y z
#
# Youngs Moduli (GPa) = 56.49755 46.60450 68.12358
#
# Poissons Ratio (x) = 0.35810 0.43979
# Poissons Ratio (y) = 0.43411 0.13751
# Poissons Ratio (z) = 0.36473 0.09407
#
# Static dielectric constant tensor:
#      x y z
#    x 4.010250 -0.077880 0.019660 
#    y -0.077880 4.087510 -0.015750 
#    z 0.019660 -0.015750 3.968400 
# 
# 
# High freq. dielectric constant tensor:
#      x y z
#    x 1.846060 -0.008740 0.002870 
#    y -0.008740 1.851940 0.007060 
#    z 0.002870 0.007060 1.844890 
# 
# From -- ./inp_files/208420.got.cif
#   From: 2010.06.25/outbox.cif.g09.slc.cpg/sg2_105_cif.got.tgz:208420.got - 2010.06.27 13:26:56.
