data_PCOD8025247
_publ_section_title
;
Structure prediction by ZEFSAII (Michael W. Deem and Ramdas Pophale) SiO2 
 PCOD8025247
Probable space group: P -1
;
_chemical_formula_sum "Si O2"
_cell_formula_units_Z 16
_cell_length_a 8.536574
_cell_length_b 11.653796
_cell_length_c 9.056085
_cell_angle_alpha 79.878664
_cell_angle_beta 129.699181
_cell_angle_gamma 89.573405
_cell_volume 673.822026
_symmetry_space_group_name_H-M "P -1"
_symmetry_group_IT_number 2
_symmetry_cell_setting 'triclinic'
loop_
_space_group_symop_operation_xyz
x,y,z
-x,-y,-z
loop_
_atom_site_type_symbol
_atom_site_label
_atom_site_fract_x
_atom_site_fract_y
_atom_site_fract_z
Si Si1 0.869902 0.660064 0.981763
Si Si2 0.841914 0.843517 0.383723
Si Si3 0.220134 0.901256 0.762822
Si Si4 0.466808 0.856506 0.361196
Si Si5 0.733422 0.287147 0.920081
Si Si6 0.515715 0.527654 0.675143
Si Si7 0.429206 0.123118 0.252693
Si Si8 0.053956 0.606845 0.412511
O O1 0.039386 0.676759 0.955213
O O2 0.982322 0.588556 0.204912
O O3 0.704409 0.594516 0.814875
O O4 0.759250 0.786661 0.949506
O O5 0.646089 0.813596 0.360496
O O6 0.991652 0.880608 0.591310
O O7 0.943078 0.732354 0.376116
O O8 0.780539 0.961853 0.217438
O O9 0.362181 0.874847 0.710957
O O10 0.304766 0.810166 0.961238
O O11 0.295065 0.773917 0.242668
O O12 0.542735 0.828379 0.577600
O O13 0.369093 0.993198 0.252288
O O14 0.561844 0.402312 0.817535
O O15 0.500000 0.500000 0.500000
O O16 0.299787 0.602657 0.578815
O O17 0.000000 0.500000 0.500000
#
# Coordination Sequence:
#
# PCOD8025247 Si02
#       8
#     2   2   2   2   2   2   2   2
#     4  12  28  46  72 109 147 194 245 303 362 442
#     4  10  23  47  69 105 150 184 245 300 369 429
#     4  10  24  42  76 104 143 193 239 307 361 435
#     4  10  23  44  73 104 148 194 234 302 370 433
#     4  12  26  44  73 107 143 194 242 299 369 437
#     4  12  27  52  75 103 149 194 247 306 360 430
#     4  10  23  44  71 108 146 187 244 300 366 436
#     4  12  29  47  76 110 146 194 244 304 364 436
#
# _framework density 23.745145000000001
#
# number of rings (size 3 to 8) (size 9 to 14) (size 15 to 20)
#    0.000    1.000    1.250    3.375    8.750    3.000 
#    0.000    0.000    0.000    0.000    0.000    0.000 
#    0.000    0.000    0.000    0.000    0.000    0.000 
#
# Total GULP energy -198407.219573 kJ/mol
# GULP energy per Si atom -12400.451223 kJ/mol
# Density = 2.369110 g / cm^3
# Si number density = 23.745145 Si / 1000 Ang^3
#
#
#
# Elastic Constant Matrix: (Units=GPa)
#
#
# Indices 1 2 3 4 5 6 
#
# 1 95.4776 57.5072 56.2647 -3.9039 1.6400 0.7766
# 2 57.5072 148.7093 67.7044 -17.6189 -1.9146 -7.7908
# 3 56.2647 67.7044 100.7960 -12.8058 16.0427 3.1595
# 4 -3.9039 -17.6189 -12.8058 51.8136 6.6677 4.9577
# 5 1.6400 -1.9146 16.0427 6.6677 31.1307 -3.9068
# 6 0.7766 -7.7908 3.1595 4.9577 -3.9068 35.7706
#
#
#
# Elastic Compliance Matrix: (Units=1/GPa)
#
#
# Indices 1 2 3 4 5 6 
#
# 1 0.017082 -0.002947 -0.008483 -0.002354 0.003856 0.000484
# 2 -0.002947 0.011216 -0.006564 0.001072 0.004428 0.003422
# 3 -0.008483 -0.006564 0.021879 0.004697 -0.012895 -0.005237
# 4 -0.002354 0.001072 0.004697 0.021987 -0.007440 -0.003990
# 5 0.003856 0.004428 -0.012895 -0.007440 0.041381 0.007570
# 6 0.000484 0.003422 -0.005237 -0.003990 0.007570 0.030533
#
#
# Mechanical properties :
#
#
# Convention : Reuss Voigt Hill
#
# Bulk Modulus (GPa) = 70.48804 78.65950 74.57377
# Shear Modulus (GPa) = 27.05671 34.64341 30.85006
#
# Velocity S-wave (km/s) = 3.37926 3.82379 3.60837
# Velocity P-wave (km/s) = 6.70638 7.25904 6.98817
#
# Compressibility (1/GPa) = 0.01418680
#
# Stress axis : x y z
#
# Youngs Moduli (GPa) = 58.54264 89.15625 45.70592
#
# Poissons Ratio (x) = 0.26277 0.38773
# Poissons Ratio (y) = 0.17254 0.30004
# Poissons Ratio (z) = 0.49663 0.58527
#
# Static dielectric constant tensor:
#      x y z
#    x 4.151890 -0.029240 0.176510 
#    y -0.029240 4.561930 -0.335950 
#    z 0.176510 -0.335950 4.437930 
# 
# 
# High freq. dielectric constant tensor:
#      x y z
#    x 1.933960 0.004040 0.010550 
#    y 0.004040 1.961140 -0.012800 
#    z 0.010550 -0.012800 1.946260 
# 
# From -- ./inp_files/187044.got.cif
#   From: 2010.06.25/outbox.cif.g09.slc.cpg/sg2_94_cif.got.tgz:187044.got - 2010.06.27 13:26:56.
