data_PCOD8025739
_publ_section_title
;
Structure prediction by ZEFSAII (Michael W. Deem and Ramdas Pophale) SiO2 
 PCOD8025739
Probable space group: P -1
;
_chemical_formula_sum "Si O2"
_cell_formula_units_Z 12
_cell_length_a 11.578382
_cell_length_b 8.886684
_cell_length_c 9.161375
_cell_angle_alpha 79.746750
_cell_angle_beta 39.642701
_cell_angle_gamma 58.929525
_cell_volume 471.778998
_symmetry_space_group_name_H-M "P -1"
_symmetry_group_IT_number 2
_symmetry_cell_setting 'triclinic'
loop_
_space_group_symop_operation_xyz
x,y,z
-x,-y,-z
loop_
_atom_site_type_symbol
_atom_site_label
_atom_site_fract_x
_atom_site_fract_y
_atom_site_fract_z
Si Si1 0.894286 0.420531 0.799620
Si Si2 0.647656 0.126999 0.422599
Si Si3 0.021397 0.778681 0.969156
Si Si4 0.528565 0.142767 0.861646
Si Si5 0.778349 0.525898 0.391918
Si Si6 0.725857 0.332516 0.730384
O O1 0.928394 0.298733 0.640589
O O2 0.133088 0.382406 0.607819
O O3 0.837050 0.334949 0.002378
O O4 0.703629 0.645739 0.929592
O O5 0.853591 0.142712 0.242076
O O6 0.583613 0.085782 0.647659
O O7 0.436062 0.313986 0.520518
O O8 0.756165 0.943225 0.240588
O O9 0.022937 0.631771 0.885168
O O10 0.727729 0.146438 0.741796
O O11 0.500000 0.000000 0.000000
O O12 0.716173 0.410067 0.566833
O O13 0.500000 0.500000 0.000000
#
# Coordination Sequence:
#
# PCOD8025739 Si02
#       6
#     2   2   2   2   2   2
#     4  11  25  47  71 111 148 198 247 292 384 438
#     4  11  24  45  77 113 143 192 254 305 371 435
#     4  11  24  45  77 113 142 195 250 303 372 440
#     4  11  24  48  75 109 151 195 249 308 365 442
#     4  12  23  47  78 106 155 190 242 317 363 443
#     4  10  23  45  77 102 147 205 240 299 375 437
#
# _framework density 25.435635999999999
#
# number of rings (size 3 to 8) (size 9 to 14) (size 15 to 20)
#    0.000    1.000    3.333    3.500    0.000    4.667 
#   12.000    1.667    0.000    0.000    0.000    0.000 
#    0.000    0.000    0.000    0.000    0.000    0.000 
#
# Total GULP energy -148763.724125 kJ/mol
# GULP energy per Si atom -12396.977010 kJ/mol
# Density = 2.537774 g / cm^3
# Si number density = 25.435636 Si / 1000 Ang^3
#
#
#
# Elastic Constant Matrix: (Units=GPa)
#
#
# Indices 1 2 3 4 5 6 
#
# 1 133.4470 56.4150 58.1836 -1.3992 21.8012 15.9828
# 2 56.4150 155.0725 69.0214 -26.3840 21.0754 5.6070
# 3 58.1836 69.0214 121.9045 -10.6607 25.2136 3.9075
# 4 -1.3992 -26.3840 -10.6607 48.4681 -1.4232 8.0757
# 5 21.8012 21.0754 25.2136 -1.4232 36.1670 -5.8804
# 6 15.9828 5.6070 3.9075 8.0757 -5.8804 34.4507
#
#
#
# Elastic Compliance Matrix: (Units=1/GPa)
#
#
# Indices 1 2 3 4 5 6 
#
# 1 0.010960 -0.001967 -0.003183 -0.000754 -0.004071 -0.004921
# 2 -0.001967 0.010034 -0.003835 0.004795 -0.002086 -0.001765
# 3 -0.003183 -0.003835 0.012975 0.000588 -0.004926 -0.000349
# 4 -0.000754 0.004795 0.000588 0.024382 -0.002880 -0.006704
# 5 -0.004071 -0.002086 -0.004926 -0.002880 0.036207 0.009642
# 6 -0.004921 -0.001765 -0.000349 -0.006704 0.009642 0.034854
#
#
# Mechanical properties :
#
#
# Convention : Reuss Voigt Hill
#
# Bulk Modulus (GPa) = 62.50796 86.40710 74.45753
# Shear Modulus (GPa) = 32.74018 38.93745 35.83881
#
# Velocity S-wave (km/s) = 3.59162 3.91682 3.75774
# Velocity P-wave (km/s) = 6.46745 7.38241 6.94002
#
# Compressibility (1/GPa) = 0.01599796
#
# Stress axis : x y z
#
# Youngs Moduli (GPa) = 91.24217 99.65677 77.07001
#
# Poissons Ratio (x) = 0.19607 0.24534
# Poissons Ratio (y) = 0.17952 0.29556
# Poissons Ratio (z) = 0.29045 0.38218
#
# Static dielectric constant tensor:
#      x y z
#    x 11.117030 0.781800 1.723430 
#    y 0.781800 4.737690 0.072730 
#    z 1.723430 0.072730 5.002270 
# 
# 
# High freq. dielectric constant tensor:
#      x y z
#    x 2.014680 0.011310 0.011740 
#    y 0.011310 2.021130 -0.008040 
#    z 0.011740 -0.008040 2.018220 
# 
# From -- ./inp_files/173697.got.cif
#   From: 2010.06.25/outbox.cif.g09.slc.cpg/sg2_87_cif.got.tgz:173697.got - 2010.06.27 13:26:56.
