data_PCOD8025397
_publ_section_title
;
Structure prediction by ZEFSAII (Michael W. Deem and Ramdas Pophale) SiO2 
 PCOD8025397
Probable space group: P -1
;
_chemical_formula_sum "Si O2"
_cell_formula_units_Z 16
_cell_length_a 7.831286
_cell_length_b 15.431748
_cell_length_c 9.796438
_cell_angle_alpha 97.859587
_cell_angle_beta 101.833086
_cell_angle_gamma 34.724816
_cell_volume 658.988128
_symmetry_space_group_name_H-M "P -1"
_symmetry_group_IT_number 2
_symmetry_cell_setting 'triclinic'
loop_
_space_group_symop_operation_xyz
x,y,z
-x,-y,-z
loop_
_atom_site_type_symbol
_atom_site_label
_atom_site_fract_x
_atom_site_fract_y
_atom_site_fract_z
Si Si1 0.766904 0.028648 0.256381
Si Si2 0.548295 0.655839 0.021909
Si Si3 0.407019 0.680260 0.296635
Si Si4 0.235341 0.537816 0.466156
Si Si5 0.710037 0.853765 0.594535
Si Si6 0.835527 0.400984 0.827512
Si Si7 0.995919 0.893023 0.804487
Si Si8 0.536377 0.851070 0.040850
O O1 0.076347 0.854232 0.317065
O O2 0.506202 0.120040 0.345053
O O3 0.841246 0.101906 0.265815
O O4 0.632287 0.041200 0.096849
O O5 0.746434 0.495377 0.963070
O O6 0.202424 0.783875 0.944209
O O7 0.563017 0.661201 0.188720
O O8 0.662336 0.702072 0.993364
O O9 0.634573 0.595049 0.446554
O O10 0.392805 0.584628 0.229483
O O11 0.500000 0.500000 0.500000
O O12 0.167047 0.537962 0.297863
O O13 0.919292 0.704780 0.507637
O O14 0.931705 0.827642 0.707262
O O15 0.500000 0.000000 0.500000
O O16 0.162903 0.221247 0.876454
O O17 0.690498 0.061130 0.849336
#
# Coordination Sequence:
#
# PCOD8025397 Si02
#       8
#     2   2   2   2   2   2   2   2
#     4  11  24  42  69 104 132 174 225 282 336 397
#     4  11  22  40  66  99 130 172 219 275 339 394
#     4  11  21  41  67  96 134 170 222 275 333 407
#     4  10  23  45  65  94 137 177 226 273 331 404
#     4  12  26  44  70  99 135 180 232 274 331 407
#     4  11  24  39  66  94 129 180 218 275 337 392
#     4  11  22  44  70  96 138 175 218 284 341 392
#     4  11  22  42  66  97 140 163 224 285 333 399
#
# _framework density 24.279648000000002
#
# number of rings (size 3 to 8) (size 9 to 14) (size 15 to 20)
#    0.000    1.000    2.500    6.000    3.500    1.500 
#    0.000    1.875    0.000    0.000    0.000    0.000 
#    0.000    0.000    0.000    0.000    0.000    0.000 
#
# Total GULP energy -198326.226123 kJ/mol
# GULP energy per Si atom -12395.389133 kJ/mol
# Density = 2.422439 g / cm^3
# Si number density = 24.279648 Si / 1000 Ang^3
#
#
#
# Elastic Constant Matrix: (Units=GPa)
#
#
# Indices 1 2 3 4 5 6 
#
# 1 48.4016 16.5147 7.0218 9.6471 -18.6619 -7.9677
# 2 16.5147 108.5552 22.7738 -12.1744 -18.3695 -15.8792
# 3 7.0218 22.7738 60.8425 -9.2815 -24.5067 -11.3658
# 4 9.6471 -12.1744 -9.2815 49.3099 -4.8036 -2.9990
# 5 -18.6619 -18.3695 -24.5067 -4.8036 33.0413 2.3329
# 6 -7.9677 -15.8792 -11.3658 -2.9990 2.3329 27.0085
#
#
#
# Elastic Compliance Matrix: (Units=1/GPa)
#
#
# Indices 1 2 3 4 5 6 
#
# 1 0.029759 -0.001572 0.006224 -0.002616 0.019571 0.008493
# 2 -0.001572 0.011859 -0.000084 0.004176 0.005796 0.006436
# 3 0.006224 -0.000084 0.029661 0.007629 0.025667 0.012899
# 4 -0.002616 0.004176 0.007629 0.024607 0.009600 0.006797
# 5 0.019571 0.005796 0.025667 0.009600 0.063877 0.015531
# 6 0.008493 0.006436 0.012899 0.006797 0.015531 0.048157
#
#
# Mechanical properties :
#
#
# Convention : Reuss Voigt Hill
#
# Bulk Modulus (GPa) = 12.43541 34.49110 23.46326
# Shear Modulus (GPa) = 22.16427 33.30455 27.73441
#
# Velocity S-wave (km/s) = 3.02466 3.70767 3.38345
# Velocity P-wave (km/s) = 4.16305 5.70664 4.99483
#
# Compressibility (1/GPa) = 0.08041553
#
# Stress axis : x y z
#
# Youngs Moduli (GPa) = 33.60313 84.32242 33.71478
#
# Poissons Ratio (x) = 0.13259 -0.20986
# Poissons Ratio (y) = 0.05284 0.00282
# Poissons Ratio (z) = -0.20916 0.00706
#
# Static dielectric constant tensor:
#      x y z
#    x 4.266490 -0.198030 0.076280 
#    y -0.198030 4.487860 -0.548680 
#    z 0.076280 -0.548680 5.078270 
# 
# 
# High freq. dielectric constant tensor:
#      x y z
#    x 1.950520 -0.011250 -0.005230 
#    y -0.011250 1.971390 -0.014630 
#    z -0.005230 -0.014630 1.964080 
# 
# From -- ./inp_files/217677.got.cif
#   From: 2010.06.25/outbox.cif.g09.slc.cpg/sg2_109_cif.got.tgz:217677.got - 2010.06.27 13:26:56.
