data_PCOD8025581
_publ_section_title
;
Structure prediction by ZEFSAII (Michael W. Deem and Ramdas Pophale) SiO2 
 PCOD8025581
Probable space group: P -1
;
_chemical_formula_sum "Si O2"
_cell_formula_units_Z 8
_cell_length_a 11.151563
_cell_length_b 5.171620
_cell_length_c 8.680598
_cell_angle_alpha 89.548779
_cell_angle_beta 138.475271
_cell_angle_gamma 105.663531
_cell_volume 304.403520
_symmetry_space_group_name_H-M "P -1"
_symmetry_group_IT_number 2
_symmetry_cell_setting 'triclinic'
loop_
_space_group_symop_operation_xyz
x,y,z
-x,-y,-z
loop_
_atom_site_type_symbol
_atom_site_label
_atom_site_fract_x
_atom_site_fract_y
_atom_site_fract_z
Si Si1 0.105740 0.555144 0.930091
Si Si2 0.610650 0.314171 0.545055
Si Si3 0.930530 0.954364 0.609115
Si Si4 0.476150 0.048207 0.800708
O O1 0.031662 0.240464 0.799383
O O2 0.974279 0.714160 0.739903
O O3 0.158346 0.570242 0.169492
O O4 0.325982 0.715989 0.075602
O O5 0.500000 0.500000 0.500000
O O6 0.500000 0.000000 0.500000
O O7 0.593532 0.264237 0.344669
O O8 0.000000 0.000000 0.500000
O O9 0.695209 0.839218 0.391711
O O10 0.500000 0.000000 0.000000
#
# Coordination Sequence:
#
# PCOD8025581 Si02
#       4
#     2   2   2   2
#     4  11  25  47  69  99 145 176 231 288 336 411
#     4  10  23  45  70 101 137 182 227 282 345 408
#     4  12  26  43  71 105 137 180 233 284 342 407
#     4  11  25  45  74 103 138 187 227 284 350 404
#
# _framework density 26.280905000000001
#
# number of rings (size 3 to 8) (size 9 to 14) (size 15 to 20)
#    0.000    1.000    2.500    3.750    0.000    9.000 
#    0.000    0.000    0.000    0.000    0.000    0.000 
#    0.000    0.000    0.000    0.000    0.000    0.000 
#
# Total GULP energy -99202.924244 kJ/mol
# GULP energy per Si atom -12400.365531 kJ/mol
# Density = 2.622109 g / cm^3
# Si number density = 26.280905 Si / 1000 Ang^3
#
#
#
# Elastic Constant Matrix: (Units=GPa)
#
#
# Indices 1 2 3 4 5 6 
#
# 1 122.3746 46.2506 77.0602 -12.0486 -25.8102 -15.0345
# 2 46.2506 127.7583 51.8957 -0.4244 -17.4585 -11.6495
# 3 77.0602 51.8957 214.6228 -10.6164 -13.0907 -8.6283
# 4 -12.0486 -0.4244 -10.6164 49.3811 -9.6746 2.7645
# 5 -25.8102 -17.4585 -13.0907 -9.6746 84.7557 -7.1278
# 6 -15.0345 -11.6495 -8.6283 2.7645 -7.1278 49.0174
#
#
#
# Elastic Compliance Matrix: (Units=1/GPa)
#
#
# Indices 1 2 3 4 5 6 
#
# 1 0.012643 -0.002411 -0.003489 0.002809 0.003390 0.003025
# 2 -0.002411 0.009526 -0.001346 -0.000669 0.001068 0.001480
# 3 -0.003489 -0.001346 0.006222 0.000425 -0.000362 -0.000371
# 4 0.002809 -0.000669 0.000425 0.021658 0.003258 0.000029
# 5 0.003390 0.001068 -0.000362 0.003258 0.013621 0.003027
# 6 0.003025 0.001480 -0.000371 0.000029 0.003027 0.022054
#
#
# Mechanical properties :
#
#
# Convention : Reuss Voigt Hill
#
# Bulk Modulus (GPa) = 71.95554 90.57429 81.26492
# Shear Modulus (GPa) = 47.68752 55.93413 51.81082
#
# Velocity S-wave (km/s) = 4.26435 4.61837 4.44489
# Velocity P-wave (km/s) = 7.18924 7.93586 7.57176
#
# Compressibility (1/GPa) = 0.01389747
#
# Stress axis : x y z
#
# Youngs Moduli (GPa) = 79.09354 104.97937 160.73045
#
# Poissons Ratio (x) = 0.25315 0.56082
# Poissons Ratio (y) = 0.19072 0.21634
# Poissons Ratio (z) = 0.27597 0.14130
#
# Static dielectric constant tensor:
#      x y z
#    x 5.167750 0.512360 0.352780 
#    y 0.512360 5.112960 -0.517080 
#    z 0.352780 -0.517080 5.652360 
# 
# 
# High freq. dielectric constant tensor:
#      x y z
#    x 2.098200 0.012940 0.009110 
#    y 0.012940 2.060800 0.003740 
#    z 0.009110 0.003740 2.100120 
# 
# From -- ./inp_files/1863.got.cif
#   From: 2010.06.25/outbox.cif.g09.slc.cpg/sg2_1_cif.got.tgz:1863.got - 2010.06.27 13:26:56.
