data_PCOD8025966
_publ_section_title
;
Structure prediction by ZEFSAII (Michael W. Deem and Ramdas Pophale) SiO2 
 PCOD8025966
Probable space group: P -1
;
_chemical_formula_sum "Si O2"
_cell_formula_units_Z 14
_cell_length_a 11.927293
_cell_length_b 14.537428
_cell_length_c 8.375646
_cell_angle_alpha 67.542962
_cell_angle_beta 32.457642
_cell_angle_gamma 56.052788
_cell_volume 633.440439
_symmetry_space_group_name_H-M "P -1"
_symmetry_group_IT_number 2
_symmetry_cell_setting 'triclinic'
loop_
_space_group_symop_operation_xyz
x,y,z
-x,-y,-z
loop_
_atom_site_type_symbol
_atom_site_label
_atom_site_fract_x
_atom_site_fract_y
_atom_site_fract_z
Si Si1 0.243379 0.323524 0.211974
Si Si2 0.415688 0.111725 0.927697
Si Si3 0.583256 0.392541 0.579932
Si Si4 0.246931 0.820427 0.689982
Si Si5 0.730827 0.969900 0.136478
Si Si6 0.388081 0.784414 0.897458
Si Si7 0.739704 0.395201 0.719695
O O1 0.354762 0.283043 0.281337
O O2 0.961907 0.406431 0.516578
O O3 0.264946 0.219558 0.147552
O O4 0.361561 0.389093 0.935088
O O5 0.651768 0.112043 0.579722
O O6 0.254391 0.109166 0.976942
O O7 0.500000 0.000000 0.000000
O O8 0.500000 0.500000 0.500000
O O9 0.732716 0.285459 0.361513
O O10 0.751484 0.398898 0.511265
O O11 0.402176 0.777556 0.693304
O O12 0.967262 0.902693 0.004827
O O13 0.500000 0.000000 0.500000
O O14 0.725326 0.084491 0.000951
O O15 0.231994 0.726612 0.181552
O O16 0.500000 0.500000 0.000000
#
# Coordination Sequence:
#
# PCOD8025966 Si02
#       7
#     2   2   2   2   2   2   2
#     4  10  24  44  67  99 130 167 220 262 326 390
#     4  11  23  40  64  93 132 174 211 262 323 376
#     4  10  23  47  67  98 128 170 218 268 325 381
#     4  11  25  42  65  98 135 170 220 265 319 388
#     4  12  25  41  63 100 133 175 217 262 322 385
#     4  11  24  40  67  95 132 173 216 264 323 377
#     4  11  25  45  68  98 128 169 216 272 326 382
#
# _framework density 22.101524999999999
#
# number of rings (size 3 to 8) (size 9 to 14) (size 15 to 20)
#    0.000    1.143    2.857    2.143    4.000    3.429 
#    2.571    0.000    0.000    0.000    0.000    0.000 
#    0.000    0.000    0.000    0.000    0.000    0.000 
#
# Total GULP energy -173610.078477 kJ/mol
# GULP energy per Si atom -12400.719891 kJ/mol
# Density = 2.205122 g / cm^3
# Si number density = 22.101525 Si / 1000 Ang^3
#
#
#
# Elastic Constant Matrix: (Units=GPa)
#
#
# Indices 1 2 3 4 5 6 
#
# 1 163.3421 47.8305 49.0653 9.6835 -5.8138 -16.5034
# 2 47.8305 124.3859 50.6519 -16.8106 -5.8499 -22.4764
# 3 49.0653 50.6519 108.4730 14.6192 -18.2057 -23.2307
# 4 9.6835 -16.8106 14.6192 32.3885 -6.7482 2.1917
# 5 -5.8138 -5.8499 -18.2057 -6.7482 36.4812 -0.2362
# 6 -16.5034 -22.4764 -23.2307 2.1917 -0.2362 38.4450
#
#
#
# Elastic Compliance Matrix: (Units=1/GPa)
#
#
# Indices 1 2 3 4 5 6 
#
# 1 0.007630 -0.002453 -0.001823 -0.002922 -0.000622 0.000903
# 2 -0.002453 0.013199 -0.005732 0.010152 0.000760 0.002626
# 3 -0.001823 -0.005732 0.016133 -0.009044 0.005208 0.006162
# 4 -0.002922 0.010152 -0.009044 0.042240 0.004442 -0.003165
# 5 -0.000622 0.000760 0.005208 0.004442 0.030876 0.003261
# 6 0.000903 0.002626 0.006162 -0.003165 0.003261 0.031858
#
#
# Mechanical properties :
#
#
# Convention : Reuss Voigt Hill
#
# Bulk Modulus (GPa) = 59.01156 76.81070 67.91113
# Shear Modulus (GPa) = 29.83266 38.03984 33.93625
#
# Velocity S-wave (km/s) = 3.67795 4.15316 3.92276
# Velocity P-wave (km/s) = 6.69288 7.60443 7.16317
#
# Compressibility (1/GPa) = 0.01694583
#
# Stress axis : x y z
#
# Youngs Moduli (GPa) = 131.05632 75.76212 61.98447
#
# Poissons Ratio (x) = 0.18582 0.11302
# Poissons Ratio (y) = 0.32143 0.35531
# Poissons Ratio (z) = 0.23897 0.43429
#
# Static dielectric constant tensor:
#      x y z
#    x 4.446470 0.209410 -0.035840 
#    y 0.209410 4.056180 -0.170170 
#    z -0.035840 -0.170170 3.774650 
# 
# 
# High freq. dielectric constant tensor:
#      x y z
#    x 1.891890 0.007380 -0.004680 
#    y 0.007380 1.876770 -0.010150 
#    z -0.004680 -0.010150 1.850030 
# 
# From -- ./inp_files/27609.got.cif
#   From: 2010.06.25/outbox.cif.g09.slc.cpg/sg2_14_cif.got.tgz:27609.got - 2010.06.27 13:26:56.
