data_PCOD8025610
_publ_section_title
;
Structure prediction by ZEFSAII (Michael W. Deem and Ramdas Pophale) SiO2 
 PCOD8025610
Probable space group: P -1
;
_chemical_formula_sum "Si O2"
_cell_formula_units_Z 16
_cell_length_a 12.251405
_cell_length_b 11.794300
_cell_length_c 9.564104
_cell_angle_alpha 128.746165
_cell_angle_beta 60.798704
_cell_angle_gamma 142.956037
_cell_volume 649.122628
_symmetry_space_group_name_H-M "P -1"
_symmetry_group_IT_number 2
_symmetry_cell_setting 'triclinic'
loop_
_space_group_symop_operation_xyz
x,y,z
-x,-y,-z
loop_
_atom_site_type_symbol
_atom_site_label
_atom_site_fract_x
_atom_site_fract_y
_atom_site_fract_z
Si Si1 0.676014 0.622696 0.257779
Si Si2 0.412723 0.136129 0.105644
Si Si3 0.925187 0.341780 0.635773
Si Si4 0.033478 0.923962 0.125838
Si Si5 0.541819 0.995487 0.744433
Si Si6 0.167280 0.292611 0.492438
Si Si7 0.594807 0.374756 0.610635
Si Si8 0.978786 0.683486 0.738652
O O1 0.525442 0.375947 0.190444
O O2 0.837511 0.696518 0.117424
O O3 0.780765 0.756954 0.440726
O O4 0.586579 0.686764 0.282615
O O5 0.478658 0.117754 0.191348
O O6 0.202210 0.991823 0.150900
O O7 0.438937 0.058573 0.891068
O O8 0.008097 0.573349 0.743523
O O9 0.058953 0.348857 0.645217
O O10 0.908065 0.255062 0.424729
O O11 0.743806 0.200829 0.728886
O O12 0.050316 0.894377 0.927700
O O13 0.049984 0.107248 0.303032
O O14 0.447399 0.830313 0.548389
O O15 0.355211 0.501263 0.468729
O O16 0.761683 0.518835 0.723916
#
# Coordination Sequence:
#
# PCOD8025610 Si02
#       8
#     2   2   2   2   2   2   2   2
#     4  12  23  45  72 102 140 174 221 281 349 402
#     4  11  25  42  68 107 138 168 225 289 337 403
#     4  10  23  45  70  97 130 187 227 270 340 399
#     4  12  25  43  67 103 137 180 224 276 341 397
#     4  11  23  43  68 102 135 176 225 282 343 397
#     4  11  22  42  72 100 135 176 219 286 341 398
#     4  11  23  43  68  96 139 182 221 276 331 403
#     4  10  26  45  66  97 137 183 230 277 320 405
#
# _framework density 24.648654000000001
#
# number of rings (size 3 to 8) (size 9 to 14) (size 15 to 20)
#    0.000    1.000    2.500    3.750    5.250    3.000 
#    2.250    3.125    0.000    0.000    0.000    0.000 
#    0.000    0.000    0.000    0.000    0.000    0.000 
#
# Total GULP energy -198275.428204 kJ/mol
# GULP energy per Si atom -12392.214263 kJ/mol
# Density = 2.459255 g / cm^3
# Si number density = 24.648654 Si / 1000 Ang^3
#
#
#
# Elastic Constant Matrix: (Units=GPa)
#
#
# Indices 1 2 3 4 5 6 
#
# 1 87.5734 7.0618 26.6109 1.0028 -24.9266 19.6504
# 2 7.0618 75.4977 31.8270 -8.5547 -18.6039 16.7527
# 3 26.6109 31.8270 112.5278 9.2803 -15.7415 4.3465
# 4 1.0028 -8.5547 9.2803 33.1115 5.0104 -6.9956
# 5 -24.9266 -18.6039 -15.7415 5.0104 36.3457 -2.4564
# 6 19.6504 16.7527 4.3465 -6.9956 -2.4564 30.0302
#
#
#
# Elastic Compliance Matrix: (Units=1/GPa)
#
#
# Indices 1 2 3 4 5 6 
#
# 1 0.019638 0.006269 -0.003492 -0.003471 0.014598 -0.015456
# 2 0.006269 0.021072 -0.005489 0.002178 0.011487 -0.013616
# 3 -0.003492 -0.005489 0.011569 -0.004053 0.000553 0.002773
# 4 -0.003471 0.002178 -0.004053 0.035046 -0.007229 0.009215
# 5 0.014598 0.011487 0.000553 -0.007229 0.043685 -0.014151
# 6 -0.015456 -0.013616 0.002773 0.009215 -0.014151 0.051597
#
#
# Mechanical properties :
#
#
# Convention : Reuss Voigt Hill
#
# Bulk Modulus (GPa) = 21.34256 45.17759 33.26007
# Shear Modulus (GPa) = 24.55220 33.90410 29.22815
#
# Velocity S-wave (km/s) = 3.15951 3.71279 3.44727
# Velocity P-wave (km/s) = 4.68908 6.06203 5.41921
#
# Compressibility (1/GPa) = 0.04685474
#
# Stress axis : x y z
#
# Youngs Moduli (GPa) = 50.92278 47.45698 86.43572
#
# Poissons Ratio (x) = -0.29749 0.30179
# Poissons Ratio (y) = -0.31922 0.47445
# Poissons Ratio (z) = 0.17780 0.26049
#
# Static dielectric constant tensor:
#      x y z
#    x 4.398090 0.075770 -0.309620 
#    y 0.075770 4.263000 -0.000020 
#    z -0.309620 -0.000020 4.556240 
# 
# 
# High freq. dielectric constant tensor:
#      x y z
#    x 1.976090 0.012320 -0.019450 
#    y 0.012320 1.970600 -0.000680 
#    z -0.019450 -0.000680 1.981990 
# 
# From -- ./inp_files/426682.got.cif
#   From: 2010.06.25/outbox.cif.g09.slc.cpg/sg2_214_cif.got.tgz:426682.got - 2010.06.27 13:26:56.
