data_PCOD8025555
_publ_section_title
;
Structure prediction by ZEFSAII (Michael W. Deem and Ramdas Pophale) SiO2 
 PCOD8025555
Probable space group: P -1
;
_chemical_formula_sum "Si O2"
_cell_formula_units_Z 16
_cell_length_a 8.029502
_cell_length_b 12.740254
_cell_length_c 16.327379
_cell_angle_alpha 31.477419
_cell_angle_beta 56.126034
_cell_angle_gamma 68.380217
_cell_volume 701.752274
_symmetry_space_group_name_H-M "P -1"
_symmetry_group_IT_number 2
_symmetry_cell_setting 'triclinic'
loop_
_space_group_symop_operation_xyz
x,y,z
-x,-y,-z
loop_
_atom_site_type_symbol
_atom_site_label
_atom_site_fract_x
_atom_site_fract_y
_atom_site_fract_z
Si Si1 0.820315 0.445522 0.650736
Si Si2 0.055468 0.131037 0.576527
Si Si3 0.583725 0.805260 0.133213
Si Si4 0.661777 0.885718 0.776262
Si Si5 0.017646 0.817697 0.939871
Si Si6 0.276780 0.908847 0.961367
Si Si7 0.965847 0.592628 0.862046
Si Si8 0.672629 0.026618 0.504618
O O1 0.846625 0.640918 0.571661
O O2 0.602284 0.400169 0.691250
O O3 0.000000 0.500000 0.500000
O O4 0.837512 0.250286 0.831449
O O5 0.175059 0.114290 0.470782
O O6 0.815130 0.082406 0.648521
O O7 0.091992 0.961302 0.744979
O O8 0.770659 0.779007 0.041713
O O9 0.651403 0.858611 0.173881
O O10 0.500000 0.000000 0.000000
O O11 0.465509 0.819676 0.933801
O O12 0.776014 0.701976 0.850430
O O13 0.576531 0.950823 0.669854
O O14 0.084858 0.599940 0.059270
O O15 0.120427 0.932310 0.917040
O O16 0.184909 0.742209 0.676703
O O17 0.000000 0.500000 0.000000
O O18 0.500000 0.000000 0.500000
#
# Coordination Sequence:
#
# PCOD8025555 Si02
#       8
#     2   2   2   2   2   2   2   2
#     4  11  24  43  71  99 126 176 230 285 349 407
#     4  11  22  42  65  97 137 181 223 279 337 399
#     4  10  23  45  69  94 132 176 225 283 342 406
#     4  11  24  45  69  99 145 186 227 277 347 405
#     4  12  24  44  69 103 139 181 230 280 340 415
#     4  11  25  44  71  98 134 181 229 287 345 414
#     4  11  24  42  69 100 144 186 227 277 339 411
#     4  11  25  42  66 100 143 181 227 281 334 409
#
# _framework density 22.800070000000002
#
# number of rings (size 3 to 8) (size 9 to 14) (size 15 to 20)
#    0.000    1.000    2.500    6.375    5.250    0.500 
#    0.000    1.250    0.000    0.000    0.000    0.000 
#    0.000    0.000    0.000    0.000    0.000    0.000 
#
# Total GULP energy -198354.272697 kJ/mol
# GULP energy per Si atom -12397.142044 kJ/mol
# Density = 2.274818 g / cm^3
# Si number density = 22.800070 Si / 1000 Ang^3
#
#
#
# Elastic Constant Matrix: (Units=GPa)
#
#
# Indices 1 2 3 4 5 6 
#
# 1 90.9183 15.8804 21.8500 -2.3781 -7.5448 17.6583
# 2 15.8804 99.4966 32.5975 -10.1429 -4.9104 18.8332
# 3 21.8500 32.5975 78.8350 10.1630 -4.2048 6.9745
# 4 -2.3781 -10.1429 10.1630 45.2507 4.1975 -8.5778
# 5 -7.5448 -4.9104 -4.2048 4.1975 32.1976 4.1409
# 6 17.6583 18.8332 6.9745 -8.5778 4.1409 49.2172
#
#
#
# Elastic Compliance Matrix: (Units=1/GPa)
#
#
# Indices 1 2 3 4 5 6 
#
# 1 0.012852 -0.000057 -0.003010 0.000215 0.003146 -0.004390
# 2 -0.000057 0.012910 -0.005346 0.003268 0.001307 -0.003702
# 3 -0.003010 -0.005346 0.016497 -0.005231 0.001346 -0.000237
# 4 0.000215 0.003268 -0.005231 0.025167 -0.003947 0.004132
# 5 0.003146 0.001307 0.001346 -0.003947 0.033369 -0.005315
# 6 -0.004390 -0.003702 -0.000237 0.004132 -0.005315 0.024511
#
#
# Mechanical properties :
#
#
# Convention : Reuss Voigt Hill
#
# Bulk Modulus (GPa) = 39.32105 45.54508 42.43307
# Shear Modulus (GPa) = 33.19862 38.59454 35.89658
#
# Velocity S-wave (km/s) = 3.82000 4.11875 3.97218
# Velocity P-wave (km/s) = 6.06135 6.52978 6.29992
#
# Compressibility (1/GPa) = 0.02543167
#
# Stress axis : x y z
#
# Youngs Moduli (GPa) = 77.81191 77.46062 60.61788
#
# Poissons Ratio (x) = 0.00442 0.18245
# Poissons Ratio (y) = 0.00444 0.32408
# Poissons Ratio (z) = 0.23420 0.41413
#
# Static dielectric constant tensor:
#      x y z
#    x 4.313900 -0.174040 0.109880 
#    y -0.174040 11.566260 -6.263720 
#    z 0.109880 -6.263720 9.653070 
# 
# 
# High freq. dielectric constant tensor:
#      x y z
#    x 1.901540 0.017330 -0.015430 
#    y 0.017330 1.915950 0.009970 
#    z -0.015430 0.009970 1.885240 
# 
# From -- ./inp_files/499862.got.cif
#   From: 2010.06.25/outbox.cif.g09.slc.cpg/sg2_250_cif.got.tgz:499862.got - 2010.06.27 13:26:56.
