data_PCOD8025596
_publ_section_title
;
Structure prediction by ZEFSAII (Michael W. Deem and Ramdas Pophale) SiO2 
 PCOD8025596
Probable space group: P -1
;
_chemical_formula_sum "Si O2"
_cell_formula_units_Z 16
_cell_length_a 13.846569
_cell_length_b 7.436611
_cell_length_c 7.871127
_cell_angle_alpha 127.112488
_cell_angle_beta 83.982038
_cell_angle_gamma 104.038809
_cell_volume 626.127859
_symmetry_space_group_name_H-M "P -1"
_symmetry_group_IT_number 2
_symmetry_cell_setting 'triclinic'
loop_
_space_group_symop_operation_xyz
x,y,z
-x,-y,-z
loop_
_atom_site_type_symbol
_atom_site_label
_atom_site_fract_x
_atom_site_fract_y
_atom_site_fract_z
Si Si1 0.523582 0.131861 0.848001
Si Si2 0.928253 0.258209 0.907413
Si Si3 0.070144 0.820571 0.510171
Si Si4 0.592119 0.381113 0.416650
Si Si5 0.715031 0.223109 0.054422
Si Si6 0.221284 0.112791 0.893977
Si Si7 0.057603 0.283986 0.210651
Si Si8 0.398961 0.450449 0.152093
O O1 0.537446 0.300332 0.778750
O O2 0.447507 0.891806 0.692639
O O3 0.629511 0.087619 0.866600
O O4 0.473629 0.276823 0.078999
O O5 0.942236 0.110874 0.648389
O O6 0.967283 0.171193 0.028935
O O7 0.817086 0.301876 0.973682
O O8 0.000000 0.500000 0.000000
O O9 0.088223 0.561986 0.361624
O O10 0.975933 0.812803 0.648988
O O11 0.164563 0.009993 0.674145
O O12 0.500000 0.500000 0.500000
O O13 0.668558 0.425701 0.266656
O O14 0.655092 0.500205 0.636362
O O15 0.731814 0.075119 0.128612
O O16 0.154115 0.197043 0.095326
O O17 0.313617 0.332275 0.962734
#
# Coordination Sequence:
#
# PCOD8025596 Si02
#       8
#     2   2   2   2   2   2   2   2
#     4  11  25  49  68 107 151 181 255 317 367 455
#     4  10  24  45  72 106 150 195 245 312 363 448
#     4  10  23  45  73  99 149 198 245 308 376 435
#     4  12  24  47  79 103 144 200 245 310 387 445
#     4  12  25  45  72 107 148 189 255 309 365 458
#     4  12  25  43  73 108 145 198 248 303 375 453
#     4  10  23  45  70 105 149 194 250 311 366 444
#     4  11  26  45  74 104 147 195 239 319 374 447
#
# _framework density 25.553885000000001
#
# number of rings (size 3 to 8) (size 9 to 14) (size 15 to 20)
#    0.000    1.000    3.750    1.875    5.250    0.500 
#    4.500    0.000    0.000    0.000    0.000    0.000 
#    0.000    0.000    0.000    0.000    0.000    0.000 
#
# Total GULP energy -198216.897026 kJ/mol
# GULP energy per Si atom -12388.556064 kJ/mol
# Density = 2.549572 g / cm^3
# Si number density = 25.553885 Si / 1000 Ang^3
#
#
#
# Elastic Constant Matrix: (Units=GPa)
#
#
# Indices 1 2 3 4 5 6 
#
# 1 117.0081 23.8282 47.9339 -23.3876 -6.0652 23.4704
# 2 23.8282 91.3326 38.8731 -9.8036 2.8027 9.6807
# 3 47.9339 38.8731 158.3597 -26.8692 -6.3257 17.3468
# 4 -23.3876 -9.8036 -26.8692 35.1093 7.9682 0.0396
# 5 -6.0652 2.8027 -6.3257 7.9682 49.0021 -3.5138
# 6 23.4704 9.6807 17.3468 0.0396 -3.5138 42.7223
#
#
#
# Elastic Compliance Matrix: (Units=1/GPa)
#
#
# Indices 1 2 3 4 5 6 
#
# 1 0.011825 -0.001117 -0.001617 0.006361 -0.000117 -0.005602
# 2 -0.001117 0.012609 -0.002457 0.001233 -0.001475 -0.001368
# 3 -0.001617 -0.002457 0.008417 0.004651 0.000130 -0.001966
# 4 0.006361 0.001233 0.004651 0.037827 -0.005274 -0.006131
# 5 -0.000117 -0.001475 0.000130 -0.005274 0.021503 0.002120
# 6 -0.005602 -0.001368 -0.001966 -0.006131 0.002120 0.027773
#
#
# Mechanical properties :
#
#
# Convention : Reuss Voigt Hill
#
# Bulk Modulus (GPa) = 44.50417 65.33008 54.91712
# Shear Modulus (GPa) = 36.27752 42.43776 39.35764
#
# Velocity S-wave (km/s) = 3.77191 4.07961 3.92877
# Velocity P-wave (km/s) = 6.03518 6.91463 6.48982
#
# Compressibility (1/GPa) = 0.02246980
#
# Stress axis : x y z
#
# Youngs Moduli (GPa) = 84.56371 79.31027 118.80686
#
# Poissons Ratio (x) = 0.08857 0.19211
# Poissons Ratio (y) = 0.09444 0.29190
# Poissons Ratio (z) = 0.13674 0.19486
#
# Static dielectric constant tensor:
#      x y z
#    x 6.139590 -0.920130 0.003750 
#    y -0.920130 5.272270 -0.272390 
#    z 0.003750 -0.272390 5.411600 
# 
# 
# High freq. dielectric constant tensor:
#      x y z
#    x 2.023260 -0.001990 -0.010460 
#    y -0.001990 2.016380 0.002820 
#    z -0.010460 0.002820 2.035110 
# 
# From -- ./inp_files/299834.got.cif
#   From: 2010.06.25/outbox.cif.g09.slc.cpg/sg2_150_cif.got.tgz:299834.got - 2010.06.27 13:26:56.
