data_PCOD8025445
_publ_section_title
;
Structure prediction by ZEFSAII (Michael W. Deem and Ramdas Pophale) SiO2 
 PCOD8025445
Probable space group: P -1
;
_chemical_formula_sum "Si O2"
_cell_formula_units_Z 16
_cell_length_a 19.061291
_cell_length_b 9.765296
_cell_length_c 11.514868
_cell_angle_alpha 55.209029
_cell_angle_beta 132.094882
_cell_angle_gamma 153.578290
_cell_volume 704.833200
_symmetry_space_group_name_H-M "P -1"
_symmetry_group_IT_number 2
_symmetry_cell_setting 'triclinic'
loop_
_space_group_symop_operation_xyz
x,y,z
-x,-y,-z
loop_
_atom_site_type_symbol
_atom_site_label
_atom_site_fract_x
_atom_site_fract_y
_atom_site_fract_z
Si Si1 0.539245 0.272510 0.584390
Si Si2 0.740427 0.979959 0.946312
Si Si3 0.050921 0.805518 0.709414
Si Si4 0.159505 0.147033 0.218300
Si Si5 0.217105 0.318877 0.948356
Si Si6 0.753987 0.610059 0.443577
Si Si7 0.548721 0.204733 0.202823
Si Si8 0.826542 0.192840 0.684355
O O1 0.671987 0.602121 0.631578
O O2 0.584894 0.337612 0.467949
O O3 0.563653 0.130497 0.743185
O O4 0.336372 0.022630 0.479869
O O5 0.572911 0.814558 0.902009
O O6 0.787211 0.151863 0.798614
O O7 0.703452 0.737241 0.981600
O O8 0.893068 0.202149 0.105271
O O9 0.913764 0.749676 0.614003
O O10 0.974117 0.554223 0.655407
O O11 0.209614 0.138717 0.659805
O O12 0.100451 0.878340 0.235842
O O13 0.218735 0.342881 0.077392
O O14 0.987645 0.965419 0.180246
O O15 0.353796 0.653969 0.882649
O O16 0.709736 0.450328 0.352631
#
# Coordination Sequence:
#
# PCOD8025445 Si02
#       8
#     2   2   2   2   2   2   2   2
#     4  12  24  42  65  96 135 174 216 267 327 384
#     4  11  22  39  69 102 132 162 213 275 339 378
#     4  11  23  38  66  98 132 169 213 265 335 385
#     4  10  25  44  66  89 132 183 218 262 311 380
#     4  10  23  45  67  94 132 170 222 267 317 388
#     4  11  23  41  65 100 135 167 205 277 342 383
#     4  12  23  41  71  98 133 166 210 279 334 385
#     4  11  23  43  64  95 132 174 224 261 316 392
#
# _framework density 22.700405
#
# number of rings (size 3 to 8) (size 9 to 14) (size 15 to 20)
#    0.000    1.000    3.750    3.000    1.750    3.500 
#    0.000    3.750    0.000    0.000    0.000    0.000 
#    0.000    0.000    0.000    0.000    0.000    0.000 
#
# Total GULP energy -198337.345369 kJ/mol
# GULP energy per Si atom -12396.084086 kJ/mol
# Density = 2.264874 g / cm^3
# Si number density = 22.700405 Si / 1000 Ang^3
#
#
#
# Elastic Constant Matrix: (Units=GPa)
#
#
# Indices 1 2 3 4 5 6 
#
# 1 77.9686 27.7951 25.2064 -11.0524 4.4715 8.6209
# 2 27.7951 99.3326 18.6632 -12.7628 -2.5441 -14.1774
# 3 25.2064 18.6632 93.3332 12.5623 10.3934 -4.8119
# 4 -11.0524 -12.7628 12.5623 35.0718 2.5582 -1.3517
# 5 4.4715 -2.5441 10.3934 2.5582 19.7349 3.1672
# 6 8.6209 -14.1774 -4.8119 -1.3517 3.1672 29.2293
#
#
#
# Elastic Compliance Matrix: (Units=1/GPa)
#
#
# Indices 1 2 3 4 5 6 
#
# 1 0.017726 -0.004489 -0.004866 0.005504 -0.001496 -0.007790
# 2 -0.004489 0.013335 -0.001860 0.004249 0.001966 0.007469
# 3 -0.004866 -0.001860 0.014165 -0.006704 -0.006247 0.003232
# 4 0.005504 0.004249 -0.006704 0.034370 -0.001804 0.001119
# 5 -0.001496 0.001966 -0.006247 -0.001804 0.055711 -0.005754
# 6 -0.007790 0.007469 0.003232 0.001119 -0.005754 0.041340
#
#
# Mechanical properties :
#
#
# Convention : Reuss Voigt Hill
#
# Bulk Modulus (GPa) = 43.86485 45.99597 44.93041
# Shear Modulus (GPa) = 24.19259 30.07183 27.13221
#
# Velocity S-wave (km/s) = 3.26810 3.64363 3.46096
# Velocity P-wave (km/s) = 5.79707 6.16503 5.98387
#
# Compressibility (1/GPa) = 0.02279729
#
# Stress axis : x y z
#
# Youngs Moduli (GPa) = 56.41341 74.99046 70.59743
#
# Poissons Ratio (x) = 0.33662 0.34350
# Poissons Ratio (y) = 0.25323 0.13131
# Poissons Ratio (z) = 0.27449 0.13948
#
# Static dielectric constant tensor:
#      x y z
#    x 3.718810 0.094500 0.008600 
#    y 0.094500 4.033700 -0.124500 
#    z 0.008600 -0.124500 4.152680 
# 
# 
# High freq. dielectric constant tensor:
#      x y z
#    x 1.867260 0.002500 0.003960 
#    y 0.002500 1.893790 -0.001690 
#    z 0.003960 -0.001690 1.903210 
# 
# From -- ./inp_files/333817.got.cif
#   From: 2010.06.25/outbox.cif.g09.slc.cpg/sg2_167_cif.got.tgz:333817.got - 2010.06.27 13:26:56.
