data_PCOD8025040
_publ_section_title
;
Structure prediction by ZEFSAII (Michael W. Deem and Ramdas Pophale) SiO2 
 PCOD8025040
Probable space group: P -1
;
_chemical_formula_sum "Si O2"
_cell_formula_units_Z 16
_cell_length_a 6.730869
_cell_length_b 11.095147
_cell_length_c 11.840176
_cell_angle_alpha 68.697048
_cell_angle_beta 108.589571
_cell_angle_gamma 109.129997
_cell_volume 758.013305
_symmetry_space_group_name_H-M "P -1"
_symmetry_group_IT_number 2
_symmetry_cell_setting 'triclinic'
loop_
_space_group_symop_operation_xyz
x,y,z
-x,-y,-z
loop_
_atom_site_type_symbol
_atom_site_label
_atom_site_fract_x
_atom_site_fract_y
_atom_site_fract_z
Si Si1 0.050768 0.564981 0.702765
Si Si2 0.211036 0.328882 0.726787
Si Si3 0.395890 0.623837 0.931874
Si Si4 0.283268 0.049310 0.421446
Si Si5 0.901416 0.798267 0.481654
Si Si6 0.896416 0.155348 0.898133
Si Si7 0.239717 0.121036 0.133476
Si Si8 0.699702 0.385358 0.842873
O O1 0.022389 0.692430 0.588132
O O2 0.843578 0.512954 0.762543
O O3 0.085548 0.448099 0.664955
O O4 0.263171 0.617249 0.796517
O O5 0.231730 0.271117 0.626179
O O6 0.451788 0.390635 0.791323
O O7 0.090592 0.209654 0.826755
O O8 0.574777 0.761698 0.923214
O O9 0.500000 0.500000 0.000000
O O10 0.236507 0.613714 0.013914
O O11 0.263210 0.159169 0.474630
O O12 0.272660 0.117076 0.275116
O O13 0.500000 0.000000 0.500000
O O14 0.080734 0.925235 0.431925
O O15 0.736115 0.251582 0.839849
O O16 0.744227 0.017163 0.874570
O O17 0.005375 0.143201 0.044843
#
# Coordination Sequence:
#
# PCOD8025040 Si02
#       8
#     2   2   2   2   2   2   2   2
#     4  11  25  42  67  99 134 175 222 270 325 396
#     4  11  22  47  67  98 137 169 224 275 322 396
#     4  12  23  42  67 100 136 170 214 271 336 395
#     4  11  26  45  66  97 137 175 220 275 320 394
#     4  11  26  44  68  96 131 182 222 265 329 391
#     4  10  23  44  68 101 130 168 222 277 329 392
#     4  11  23  44  70  95 134 172 214 281 328 383
#     4  11  24  41  69  97 133 177 211 275 335 384
#
# _framework density 21.107807999999999
#
# number of rings (size 3 to 8) (size 9 to 14) (size 15 to 20)
#    0.000    1.000    3.750    2.250    5.250    2.000 
#    0.000    0.000    0.000    0.000    0.000    0.000 
#    0.000    0.000    0.000    0.000    0.000    0.000 
#
# Total GULP energy -198413.735657 kJ/mol
# GULP energy per Si atom -12400.858479 kJ/mol
# Density = 2.105977 g / cm^3
# Si number density = 21.107808 Si / 1000 Ang^3
#
#
#
# Elastic Constant Matrix: (Units=GPa)
#
#
# Indices 1 2 3 4 5 6 
#
# 1 83.8378 25.5680 25.6466 3.8778 -2.4995 -7.9076
# 2 25.5680 100.5302 21.8777 2.2301 -3.8013 -1.7687
# 3 25.6466 21.8777 112.6979 9.0913 -3.5039 -14.3409
# 4 3.8778 2.2301 9.0913 40.3320 -4.7786 -1.8519
# 5 -2.4995 -3.8013 -3.5039 -4.7786 30.6329 -0.5239
# 6 -7.9076 -1.7687 -14.3409 -1.8519 -0.5239 30.4831
#
#
#
# Elastic Compliance Matrix: (Units=1/GPa)
#
#
# Indices 1 2 3 4 5 6 
#
# 1 0.013760 -0.002950 -0.002206 -0.000500 0.000466 0.002338
# 2 -0.002950 0.011056 -0.001560 0.000099 0.000954 -0.000835
# 3 -0.002206 -0.001560 0.010364 -0.001777 0.000605 0.004115
# 4 -0.000500 0.000099 -0.001777 0.025717 0.003791 0.000667
# 5 0.000466 0.000954 0.000605 0.003791 0.033483 0.001267
# 6 0.002338 -0.000835 0.004115 0.000667 0.001267 0.035361
#
#
# Mechanical properties :
#
#
# Convention : Reuss Voigt Hill
#
# Bulk Modulus (GPa) = 45.97954 49.25004 47.61479
# Shear Modulus (GPa) = 33.23970 35.22119 34.23044
#
# Velocity S-wave (km/s) = 3.97263 4.08932 4.03140
# Velocity P-wave (km/s) = 6.54774 6.75870 6.65405
#
# Compressibility (1/GPa) = 0.02174880
#
# Stress axis : x y z
#
# Youngs Moduli (GPa) = 72.67548 90.44848 96.48782
#
# Poissons Ratio (x) = 0.26678 0.21289
# Poissons Ratio (y) = 0.21436 0.15048
# Poissons Ratio (z) = 0.16035 0.14106
#
# Static dielectric constant tensor:
#      x y z
#    x 3.676470 -0.126220 -0.314240 
#    y -0.126220 3.915990 -0.029700 
#    z -0.314240 -0.029700 3.851930 
# 
# 
# High freq. dielectric constant tensor:
#      x y z
#    x 1.818470 -0.003600 -0.003710 
#    y -0.003600 1.843110 -0.000640 
#    z -0.003710 -0.000640 1.835880 
# 
# From -- ./inp_files/71795.got.cif
#   From: 2010.06.25/outbox.cif.g09.slc.cpg/sg2_36_cif.got.tgz:71795.got - 2010.06.27 13:26:56.
