data_PCOD8025638
_publ_section_title
;
Structure prediction by ZEFSAII (Michael W. Deem and Ramdas Pophale) SiO2 
 PCOD8025638
Probable space group: P -1
;
_chemical_formula_sum "Si O2"
_cell_formula_units_Z 14
_cell_length_a 19.916364
_cell_length_b 5.221405
_cell_length_c 11.192153
_cell_angle_alpha 82.050792
_cell_angle_beta 32.169603
_cell_angle_gamma 71.008657
_cell_volume 563.786143
_symmetry_space_group_name_H-M "P -1"
_symmetry_group_IT_number 2
_symmetry_cell_setting 'triclinic'
loop_
_space_group_symop_operation_xyz
x,y,z
-x,-y,-z
loop_
_atom_site_type_symbol
_atom_site_label
_atom_site_fract_x
_atom_site_fract_y
_atom_site_fract_z
Si Si1 0.759938 0.637756 0.929124
Si Si2 0.236580 0.816057 0.669566
Si Si3 0.916962 0.004695 0.746673
Si Si4 0.003331 0.826757 0.163417
Si Si5 0.479973 0.791439 0.449283
Si Si6 0.649986 0.387438 0.728682
Si Si7 0.207154 0.264251 0.392942
O O1 0.824149 0.325728 0.904965
O O2 0.803530 0.608890 0.728613
O O3 0.817056 0.842986 0.897160
O O4 0.595715 0.749999 0.177543
O O5 0.329172 0.926971 0.606633
O O6 0.342945 0.608828 0.426991
O O7 0.114513 0.061995 0.768593
O O8 0.154067 0.674502 0.885899
O O9 0.006404 0.921954 0.741503
O O10 0.000000 0.000000 0.500000
O O11 0.952453 0.616474 0.329296
O O12 0.500000 0.500000 0.500000
O O13 0.500000 0.000000 0.500000
O O14 0.705629 0.620943 0.664077
O O15 0.731080 0.075917 0.679465
O O16 0.500000 0.500000 0.000000
#
# Coordination Sequence:
#
# PCOD8025638 Si02
#       7
#     2   2   2   2   2   2   2
#     4  12  25  44  73 107 144 190 246 302 363 426
#     4  10  24  46  72 104 145 192 232 306 353 434
#     4  12  25  45  74 108 146 191 242 304 363 433
#     4  10  23  45  71 105 146 186 246 287 368 426
#     4  12  27  49  73 105 146 191 246 294 369 439
#     4  11  24  43  68 101 142 188 239 288 357 427
#     4  11  24  41  69 103 140 182 237 297 352 426
#
# _framework density 24.832111000000001
#
# number of rings (size 3 to 8) (size 9 to 14) (size 15 to 20)
#    0.000    0.857    1.429    5.143    2.000    5.143 
#    0.000    5.714    0.000    0.000    0.000    0.000 
#    0.000    0.000    0.000    0.000    0.000    0.000 
#
# Total GULP energy -173452.457733 kJ/mol
# GULP energy per Si atom -12389.461267 kJ/mol
# Density = 2.477559 g / cm^3
# Si number density = 24.832111 Si / 1000 Ang^3
#
#
#
# Elastic Constant Matrix: (Units=GPa)
#
#
# Indices 1 2 3 4 5 6 
#
# 1 161.3589 34.7237 60.8920 -12.0928 -4.8000 34.3644
# 2 34.7237 113.3221 47.7299 -9.7090 -9.3292 29.1709
# 3 60.8920 47.7299 217.0302 -32.3476 -5.6842 18.2285
# 4 -12.0928 -9.7090 -32.3476 35.5614 3.1173 -7.8942
# 5 -4.8000 -9.3292 -5.6842 3.1173 48.5699 -10.0462
# 6 34.3644 29.1709 18.2285 -7.8942 -10.0462 42.4877
#
#
#
# Elastic Compliance Matrix: (Units=1/GPa)
#
#
# Indices 1 2 3 4 5 6 
#
# 1 0.008134 -0.000328 -0.001765 -0.000155 -0.000651 -0.005779
# 2 -0.000328 0.011475 -0.001888 -0.000236 0.000578 -0.006710
# 3 -0.001765 -0.001888 0.006135 0.004675 0.000084 0.000980
# 4 -0.000155 -0.000236 0.004675 0.033273 -0.000763 0.004283
# 5 -0.000651 0.000578 0.000084 -0.000763 0.021748 0.005095
# 6 -0.005779 -0.006710 0.000980 0.004283 0.005095 0.034397
#
#
# Mechanical properties :
#
#
# Convention : Reuss Voigt Hill
#
# Bulk Modulus (GPa) = 56.23906 86.48918 71.36412
# Shear Modulus (GPa) = 38.74457 48.54819 43.64638
#
# Velocity S-wave (km/s) = 3.95430 4.42640 4.19699
# Velocity P-wave (km/s) = 6.59890 7.81212 7.23100
#
# Compressibility (1/GPa) = 0.01778124
#
# Stress axis : x y z
#
# Youngs Moduli (GPa) = 122.94593 87.14769 163.00964
#
# Poissons Ratio (x) = 0.02862 0.28764
# Poissons Ratio (y) = 0.04037 0.30775
# Poissons Ratio (z) = 0.21695 0.16453
#
# Static dielectric constant tensor:
#      x y z
#    x 5.774330 2.012640 -1.599440 
#    y 2.012640 8.041360 -3.647940 
#    z -1.599440 -3.647940 8.228600 
# 
# 
# High freq. dielectric constant tensor:
#      x y z
#    x 2.004620 0.015160 0.004680 
#    y 0.015160 1.970820 -0.022030 
#    z 0.004680 -0.022030 2.014430 
# 
# From -- ./inp_files/119214.got.cif
#   From: 2010.06.25/outbox.cif.g09.slc.cpg/sg2_60_cif.got.tgz:119214.got - 2010.06.27 13:26:56.
