data_PCOD8025901
_publ_section_title
;
Structure prediction by ZEFSAII (Michael W. Deem and Ramdas Pophale) SiO2 
 PCOD8025901
Probable space group: P -1
;
_chemical_formula_sum "Si O2"
_cell_formula_units_Z 14
_cell_length_a 9.495962
_cell_length_b 9.227088
_cell_length_c 11.691372
_cell_angle_alpha 54.291007
_cell_angle_beta 57.428531
_cell_angle_gamma 48.393654
_cell_volume 602.472874
_symmetry_space_group_name_H-M "P -1"
_symmetry_group_IT_number 2
_symmetry_cell_setting 'triclinic'
loop_
_space_group_symop_operation_xyz
x,y,z
-x,-y,-z
loop_
_atom_site_type_symbol
_atom_site_label
_atom_site_fract_x
_atom_site_fract_y
_atom_site_fract_z
Si Si1 0.917607 0.973366 0.715999
Si Si2 0.233065 0.627039 0.854801
Si Si3 0.202965 0.086938 0.438606
Si Si4 0.804803 0.213670 0.959229
Si Si5 0.184558 0.470715 0.369168
Si Si6 0.486941 0.643465 0.544956
Si Si7 0.545251 0.176820 0.918634
O O1 0.912120 0.861819 0.654188
O O2 0.001923 0.784229 0.861391
O O3 0.703119 0.156169 0.764678
O O4 0.051700 0.078894 0.599403
O O5 0.317382 0.698690 0.683279
O O6 0.332168 0.381342 0.905093
O O7 0.288804 0.658745 0.942828
O O8 0.262426 0.257088 0.363153
O O9 0.412437 0.875923 0.425620
O O10 0.849800 0.347818 0.787422
O O11 0.640816 0.169396 0.002830
O O12 0.000000 0.000000 0.000000
O O13 0.317645 0.457878 0.422045
O O14 0.000000 0.500000 0.500000
O O15 0.500000 0.500000 0.500000
O O16 0.500000 0.000000 0.000000
#
# Coordination Sequence:
#
# PCOD8025901 Si02
#       7
#     2   2   2   2   2   2   2
#     4  10  23  46  72 108 153 184 248 309 375 433
#     4  11  25  46  78 101 151 200 240 306 383 435
#     4  10  24  44  76 104 147 195 245 307 373 443
#     4  12  27  52  74 106 156 199 246 315 375 445
#     4  12  28  46  76 111 148 194 256 305 377 449
#     4  11  25  47  77 108 149 197 247 310 375 445
#     4  12  26  44  71 105 145 191 249 302 370 448
#
# _framework density 23.237563000000002
#
# number of rings (size 3 to 8) (size 9 to 14) (size 15 to 20)
#    0.000    0.857    2.857    2.571   10.000    1.714 
#    2.571    0.000    0.000    0.000    0.000    0.000 
#    0.000    0.000    0.000    0.000    0.000    0.000 
#
# Total GULP energy -173442.799365 kJ/mol
# GULP energy per Si atom -12388.771383 kJ/mol
# Density = 2.318467 g / cm^3
# Si number density = 23.237563 Si / 1000 Ang^3
#
#
#
# Elastic Constant Matrix: (Units=GPa)
#
#
# Indices 1 2 3 4 5 6 
#
# 1 114.8195 58.0681 58.7809 -25.6028 23.7107 21.5774
# 2 58.0681 137.0016 56.5342 -21.5329 7.1900 18.7231
# 3 58.7809 56.5342 98.8683 -3.6320 21.5886 13.9385
# 4 -25.6028 -21.5329 -3.6320 48.7939 2.0285 6.6008
# 5 23.7107 7.1900 21.5886 2.0285 30.9149 -1.4621
# 6 21.5774 18.7231 13.9385 6.6008 -1.4621 37.6324
#
#
#
# Elastic Compliance Matrix: (Units=1/GPa)
#
#
# Indices 1 2 3 4 5 6 
#
# 1 0.019589 -0.002085 -0.006107 0.010769 -0.011467 -0.010267
# 2 -0.002085 0.011165 -0.005036 0.003786 0.002125 -0.003075
# 3 -0.006107 -0.005036 0.017917 -0.003798 -0.006417 -0.000212
# 4 0.010769 0.003786 -0.003798 0.029556 -0.009004 -0.012186
# 5 -0.011467 0.002125 -0.006417 -0.009004 0.046252 0.011270
# 6 -0.010267 -0.003075 -0.000212 -0.012186 0.011270 0.036643
#
#
# Mechanical properties :
#
#
# Convention : Reuss Voigt Hill
#
# Bulk Modulus (GPa) = 45.01683 77.49509 61.25596
# Shear Modulus (GPa) = 25.64317 35.28865 30.46591
#
# Velocity S-wave (km/s) = 3.32553 3.90115 3.62479
# Velocity P-wave (km/s) = 5.84466 7.32895 6.62848
#
# Compressibility (1/GPa) = 0.02221391
#
# Stress axis : x y z
#
# Youngs Moduli (GPa) = 51.04878 89.56678 55.81367
#
# Poissons Ratio (x) = 0.18675 0.34087
# Poissons Ratio (y) = 0.10644 0.28108
# Poissons Ratio (z) = 0.31177 0.45106
#
# Static dielectric constant tensor:
#      x y z
#    x 4.498600 -0.040470 0.349570 
#    y -0.040470 4.651350 -0.014540 
#    z 0.349570 -0.014540 4.216870 
# 
# 
# High freq. dielectric constant tensor:
#      x y z
#    x 1.916260 -0.003010 0.023520 
#    y -0.003010 1.949560 0.002560 
#    z 0.023520 0.002560 1.905670 
# 
# From -- ./inp_files/381223.got.cif
#   From: 2010.06.25/outbox.cif.g09.slc.cpg/sg2_191_cif.got.tgz:381223.got - 2010.06.27 13:26:56.
