data_PCOD8025242
_publ_section_title
;
Structure prediction by ZEFSAII (Michael W. Deem and Ramdas Pophale) SiO2 
 PCOD8025242
Probable space group: P -1
;
_chemical_formula_sum "Si O2"
_cell_formula_units_Z 16
_cell_length_a 13.561375
_cell_length_b 9.644605
_cell_length_c 17.068150
_cell_angle_alpha 141.668766
_cell_angle_beta 116.825973
_cell_angle_gamma 93.264561
_cell_volume 827.618857
_symmetry_space_group_name_H-M "P -1"
_symmetry_group_IT_number 2
_symmetry_cell_setting 'triclinic'
loop_
_space_group_symop_operation_xyz
x,y,z
-x,-y,-z
loop_
_atom_site_type_symbol
_atom_site_label
_atom_site_fract_x
_atom_site_fract_y
_atom_site_fract_z
Si Si1 0.750539 0.240151 0.009074
Si Si2 0.726210 0.275243 0.263057
Si Si3 0.468828 0.276462 0.179705
Si Si4 0.554591 0.874499 0.413278
Si Si5 0.153718 0.280209 0.625548
Si Si6 0.601715 0.369670 0.917145
Si Si7 0.868804 0.237224 0.611724
Si Si8 0.258975 0.970153 0.692285
O O1 0.720114 0.395260 0.130490
O O2 0.940821 0.452875 0.156795
O O3 0.678155 0.236209 0.901432
O O4 0.646413 0.883851 0.853576
O O5 0.612636 0.313870 0.263248
O O6 0.875861 0.608918 0.412681
O O7 0.804282 0.276603 0.367751
O O8 0.628796 0.941500 0.030574
O O9 0.540355 0.631943 0.353470
O O10 0.436077 0.671305 0.206047
O O11 0.500000 0.000000 0.500000
O O12 0.744192 0.213148 0.602599
O O13 0.217947 0.131806 0.559386
O O14 0.000000 0.000000 0.500000
O O15 0.439898 0.157966 0.817423
O O16 0.735206 0.760039 0.161875
O O17 0.866187 0.258675 0.526069
#
# Coordination Sequence:
#
# PCOD8025242 Si02
#       8
#     2   2   2   2   2   2   2   2
#     4  10  19  34  55  84 113 146 176 225 292 339
#     4  10  17  29  53  84 113 140 179 225 274 335
#     4  10  19  32  56  82 109 146 184 226 279 330
#     4  11  23  40  58  78 107 151 198 231 266 327
#     4   9  17  29  49  80 115 143 166 214 279 335
#     4  10  19  32  54  82 114 146 184 227 279 334
#     4  10  20  35  56  82 116 145 179 227 285 330
#     4  10  18  29  53  88 116 142 179 228 278 335
#
# _framework density 19.332571999999999
#
# number of rings (size 3 to 8) (size 9 to 14) (size 15 to 20)
#    0.000    2.000    5.000    0.000    0.000    0.000 
#    0.000   10.000    0.000    0.000    0.000    0.000 
#    0.000    0.000    0.000    0.000    0.000    0.000 
#
# Total GULP energy -198248.996799 kJ/mol
# GULP energy per Si atom -12390.562300 kJ/mol
# Density = 1.928857 g / cm^3
# Si number density = 19.332572 Si / 1000 Ang^3
#
#
#
# Elastic Constant Matrix: (Units=GPa)
#
#
# Indices 1 2 3 4 5 6 
#
# 1 90.6284 28.0788 25.8005 6.8211 3.6274 4.5386
# 2 28.0788 143.4950 22.8635 13.6328 8.0802 -2.4953
# 3 25.8005 22.8635 33.9649 8.5804 12.0728 0.6734
# 4 6.8211 13.6328 8.5804 24.4037 -1.8721 7.3255
# 5 3.6274 8.0802 12.0728 -1.8721 21.6036 1.0133
# 6 4.5386 -2.4953 0.6734 7.3255 1.0133 21.7117
#
#
#
# Elastic Compliance Matrix: (Units=1/GPa)
#
#
# Indices 1 2 3 4 5 6 
#
# 1 0.014988 -0.001529 -0.013094 0.002970 0.005826 -0.004177
# 2 -0.001529 0.008258 -0.002752 -0.004214 -0.001793 0.002860
# 3 -0.013094 -0.002752 0.057017 -0.019848 -0.030768 0.008785
# 4 0.002970 -0.004214 -0.019848 0.057045 0.018078 -0.020580
# 5 0.005826 -0.001793 -0.030768 0.018078 0.065193 -0.009612
# 6 -0.004177 0.002860 0.008785 -0.020580 -0.009612 0.054380
#
#
# Mechanical properties :
#
#
# Convention : Reuss Voigt Hill
#
# Bulk Modulus (GPa) = 21.97176 46.84154 34.40665
# Shear Modulus (GPa) = 16.29720 26.30015 21.29867
#
# Velocity S-wave (km/s) = 2.90658 3.69237 3.32279
# Velocity P-wave (km/s) = 4.75963 6.51614 5.70588
#
# Compressibility (1/GPa) = 0.04551296
#
# Stress axis : x y z
#
# Youngs Moduli (GPa) = 66.71979 121.10010 17.53857
#
# Poissons Ratio (x) = 0.18520 0.22965
# Poissons Ratio (y) = 0.10204 0.04826
# Poissons Ratio (z) = 0.87364 0.33321
#
# Static dielectric constant tensor:
#      x y z
#    x 3.880020 -0.532920 -0.194170 
#    y -0.532920 4.382040 0.570850 
#    z -0.194170 0.570850 3.416500 
# 
# 
# High freq. dielectric constant tensor:
#      x y z
#    x 1.727210 -0.000480 0.031130 
#    y -0.000480 1.772890 0.013340 
#    z 0.031130 0.013340 1.704490 
# 
# From -- ./inp_files/270185.got.cif
#   From: 2010.06.25/outbox.cif.g09.slc.cpg/sg2_136_cif.got.tgz:270185.got - 2010.06.27 13:26:56.
