data_PCOD8025566
_publ_section_title
;
Structure prediction by ZEFSAII (Michael W. Deem and Ramdas Pophale) SiO2 
 PCOD8025566
Probable space group: P -1
;
_chemical_formula_sum "Si O2"
_cell_formula_units_Z 12
_cell_length_a 9.938148
_cell_length_b 8.641590
_cell_length_c 15.035902
_cell_angle_alpha 149.314523
_cell_angle_beta 61.702720
_cell_angle_gamma 109.397790
_cell_volume 571.976552
_symmetry_space_group_name_H-M "P -1"
_symmetry_group_IT_number 2
_symmetry_cell_setting 'triclinic'
loop_
_space_group_symop_operation_xyz
x,y,z
-x,-y,-z
loop_
_atom_site_type_symbol
_atom_site_label
_atom_site_fract_x
_atom_site_fract_y
_atom_site_fract_z
Si Si1 0.449984 0.228709 0.209088
Si Si2 0.094637 0.138993 0.613496
Si Si3 0.091284 0.279401 0.099254
Si Si4 0.441679 0.160557 0.506262
Si Si5 0.879960 0.431868 0.575237
Si Si6 0.440245 0.176236 0.867714
O O1 0.566561 0.471846 0.304310
O O2 0.286350 0.436100 0.345792
O O3 0.445239 0.029213 0.200827
O O4 0.500000 0.000000 0.000000
O O5 0.269616 0.114532 0.512460
O O6 0.008189 0.489110 0.826282
O O7 0.099001 0.939374 0.604015
O O8 0.000000 0.000000 0.500000
O O9 0.094436 0.423158 0.266489
O O10 0.265606 0.199203 0.969196
O O11 0.000000 0.000000 0.000000
O O12 0.500000 0.000000 0.500000
O O13 0.554350 0.997991 0.313845
O O14 0.000000 0.500000 0.500000
O O15 0.500000 0.500000 0.000000
#
# Coordination Sequence:
#
# PCOD8025566 Si02
#       6
#     2   2   2   2   2   2
#     4  12  25  46  70 102 142 181 240 294 346 420
#     4  10  23  45  69  98 139 182 227 286 350 418
#     4  11  25  45  68 102 143 182 233 286 353 421
#     4  12  25  46  74 104 138 184 238 291 354 418
#     4  11  25  43  68 100 140 183 232 286 352 416
#     4  12  26  45  72 104 141 184 234 295 355 420
#
# _framework density 20.979880999999999
#
# number of rings (size 3 to 8) (size 9 to 14) (size 15 to 20)
#    0.000    0.667    3.333    4.500    9.333    0.000 
#    0.000    1.667    0.000    0.000    0.000    0.000 
#    0.000    0.000    0.000    0.000    0.000    0.000 
#
# Total GULP energy -148794.627643 kJ/mol
# GULP energy per Si atom -12399.552304 kJ/mol
# Density = 2.093213 g / cm^3
# Si number density = 20.979881 Si / 1000 Ang^3
#
#
#
# Elastic Constant Matrix: (Units=GPa)
#
#
# Indices 1 2 3 4 5 6 
#
# 1 130.3804 72.7181 50.2624 8.9186 -18.4207 2.0735
# 2 72.7181 187.8626 82.1353 20.5305 -7.5872 -4.5011
# 3 50.2624 82.1353 121.3255 4.4473 2.9469 -3.9410
# 4 8.9186 20.5305 4.4473 56.1100 -4.6514 -3.3233
# 5 -18.4207 -7.5872 2.9469 -4.6514 42.7970 5.1691
# 6 2.0735 -4.5011 -3.9410 -3.3233 5.1691 54.3743
#
#
#
# Elastic Compliance Matrix: (Units=1/GPa)
#
#
# Indices 1 2 3 4 5 6 
#
# 1 0.011021 -0.002888 -0.002757 -0.000176 0.004560 -0.001303
# 2 -0.002888 0.008743 -0.004634 -0.002326 0.000334 0.000324
# 3 -0.002757 -0.004634 0.012588 0.000954 -0.002888 0.000967
# 4 -0.000176 -0.002326 0.000954 0.018793 0.001380 0.000901
# 5 0.004560 0.000334 -0.002888 0.001380 0.026069 -0.002749
# 6 -0.001303 0.000324 0.000967 0.000901 -0.002749 0.018854
#
#
# Mechanical properties :
#
#
# Convention : Reuss Voigt Hill
#
# Bulk Modulus (GPa) = 84.80058 94.42224 89.61141
# Shear Modulus (GPa) = 41.47397 46.28645 43.88021
#
# Velocity S-wave (km/s) = 4.45100 4.70215 4.57829
# Velocity P-wave (km/s) = 8.18064 8.63621 8.41151
#
# Compressibility (1/GPa) = 0.01179237
#
# Stress axis : x y z
#
# Youngs Moduli (GPa) = 90.73966 114.38108 79.43860
#
# Poissons Ratio (x) = 0.33038 0.21899
# Poissons Ratio (y) = 0.26210 0.36815
# Poissons Ratio (z) = 0.25015 0.53009
#
# Static dielectric constant tensor:
#      x y z
#    x 4.000470 -0.119750 -0.130480 
#    y -0.119750 3.932970 0.221110 
#    z -0.130480 0.221110 4.052900 
# 
# 
# High freq. dielectric constant tensor:
#      x y z
#    x 1.836450 -0.001430 -0.009250 
#    y -0.001430 1.841470 0.018710 
#    z -0.009250 0.018710 1.820620 
# 
# From -- ./inp_files/145279.got.cif
#   From: 2010.06.25/outbox.cif.g09.slc.cpg/sg2_73_cif.got.tgz:145279.got - 2010.06.27 13:26:56.
