data_PCOD8025486
_publ_section_title
;
Structure prediction by ZEFSAII (Michael W. Deem and Ramdas Pophale) SiO2 
 PCOD8025486
Probable space group: P -1
;
_chemical_formula_sum "Si O2"
_cell_formula_units_Z 16
_cell_length_a 24.379958
_cell_length_b 7.705219
_cell_length_c 17.296294
_cell_angle_alpha 143.592010
_cell_angle_beta 160.914423
_cell_angle_gamma 38.917869
_cell_volume 628.011795
_symmetry_space_group_name_H-M "P -1"
_symmetry_group_IT_number 2
_symmetry_cell_setting 'triclinic'
loop_
_space_group_symop_operation_xyz
x,y,z
-x,-y,-z
loop_
_atom_site_type_symbol
_atom_site_label
_atom_site_fract_x
_atom_site_fract_y
_atom_site_fract_z
Si Si1 0.328823 0.690910 0.761751
Si Si2 0.279709 0.812503 0.165258
Si Si3 0.541028 0.093540 0.835624
Si Si4 0.772092 0.147935 0.726554
Si Si5 0.082691 0.277967 0.353333
Si Si6 0.636943 0.587389 0.557476
Si Si7 0.173934 0.263688 0.997328
Si Si8 0.813821 0.124937 0.518961
O O1 0.458453 0.412752 0.811484
O O2 0.161247 0.572770 0.535482
O O3 0.279303 0.899635 0.696549
O O4 0.412913 0.895531 0.008383
O O5 0.271788 0.996498 0.301983
O O6 0.436679 0.559153 0.282325
O O7 0.324248 0.068854 0.258400
O O8 0.111780 0.670631 0.861250
O O9 0.406487 0.853778 0.561626
O O10 0.709069 0.006507 0.978366
O O11 0.847934 0.443617 0.979642
O O12 0.913089 0.958928 0.796507
O O13 0.193501 0.148437 0.529510
O O14 0.737023 0.507314 0.741252
O O15 0.728089 0.419940 0.548176
O O16 0.009412 0.151237 0.773072
#
# Coordination Sequence:
#
# PCOD8025486 Si02
#       8
#     2   2   2   2   2   2   2   2
#     4  10  25  47  68  90 129 184 216 263 314 376
#     4  11  22  35  62  95 132 169 207 260 334 387
#     4  10  23  45  68  90 132 171 223 264 313 387
#     4  11  21  38  66  98 129 166 211 271 331 381
#     4  11  22  41  66  97 131 170 218 261 321 391
#     4  11  22  37  59 100 135 164 205 268 337 383
#     4  12  22  39  68  97 131 166 207 275 331 381
#     4  12  24  41  67  98 135 168 214 269 324 383
#
# _framework density 25.477228
#
# number of rings (size 3 to 8) (size 9 to 14) (size 15 to 20)
#    0.000    1.000    3.750    4.125    1.750    0.500 
#    0.000    6.250    2.750    0.000    0.000    0.000 
#    0.000    0.000    0.000    0.000    0.000    0.000 
#
# Total GULP energy -198212.077655 kJ/mol
# GULP energy per Si atom -12388.254853 kJ/mol
# Density = 2.541924 g / cm^3
# Si number density = 25.477228 Si / 1000 Ang^3
#
#
#
# Elastic Constant Matrix: (Units=GPa)
#
#
# Indices 1 2 3 4 5 6 
#
# 1 91.9044 13.4695 17.2769 -10.1855 -6.6707 -16.7066
# 2 13.4695 39.7874 18.8471 -15.1782 9.1462 -16.7302
# 3 17.2769 18.8471 70.9763 -20.7203 6.2157 -26.7846
# 4 -10.1855 -15.1782 -20.7203 41.8916 -11.0107 11.0344
# 5 -6.6707 9.1462 6.2157 -11.0107 40.9590 -14.9069
# 6 -16.7066 -16.7302 -26.7846 11.0344 -14.9069 27.8494
#
#
#
# Elastic Compliance Matrix: (Units=1/GPa)
#
#
# Indices 1 2 3 4 5 6 
#
# 1 0.013728 -0.001066 0.001556 0.002470 0.007271 0.012005
# 2 -0.001066 0.036107 -0.000273 0.008117 0.000475 0.017828
# 3 0.001556 -0.000273 0.025366 0.008039 0.008229 0.026386
# 4 0.002470 0.008117 0.008039 0.031999 0.008054 0.005723
# 5 0.007271 0.000475 0.008229 0.008054 0.037034 0.029193
# 6 0.012005 0.017828 0.026386 0.005723 0.029193 0.092554
#
#
# Mechanical properties :
#
#
# Convention : Reuss Voigt Hill
#
# Bulk Modulus (GPa) = 13.22100 33.53943 23.38021
# Shear Modulus (GPa) = 19.11563 32.34496 25.73029
#
# Velocity S-wave (km/s) = 2.74214 3.56696 3.18139
# Velocity P-wave (km/s) = 3.90210 5.49157 4.76359
#
# Compressibility (1/GPa) = 0.07563726
#
# Stress axis : x y z
#
# Youngs Moduli (GPa) = 72.84185 27.69522 39.42245
#
# Poissons Ratio (x) = 0.02951 -0.06134
# Poissons Ratio (y) = 0.07763 0.01075
# Poissons Ratio (z) = -0.11335 0.00755
#
# Static dielectric constant tensor:
#      x y z
#    x 4.851450 0.322590 -0.127150 
#    y 0.322590 4.273460 -0.316400 
#    z -0.127150 -0.316400 4.526770 
# 
# 
# High freq. dielectric constant tensor:
#      x y z
#    x 2.032680 0.028080 0.001430 
#    y 0.028080 2.001960 -0.022940 
#    z 0.001430 -0.022940 2.021280 
# 
# From -- ./inp_files/579068.got.cif
#   From: 2010.06.25/outbox.cif.g09.slc.cpg/sg2_290_cif.got.tgz:579068.got - 2010.06.27 13:26:56.
