data_PCOD8025614
_publ_section_title
;
Structure prediction by ZEFSAII (Michael W. Deem and Ramdas Pophale) SiO2 
 PCOD8025614
Probable space group: P -1
;
_chemical_formula_sum "Si O2"
_cell_formula_units_Z 14
_cell_length_a 12.468256
_cell_length_b 11.534751
_cell_length_c 5.071875
_cell_angle_alpha 77.327281
_cell_angle_beta 121.276331
_cell_angle_gamma 85.191874
_cell_volume 590.890473
_symmetry_space_group_name_H-M "P -1"
_symmetry_group_IT_number 2
_symmetry_cell_setting 'triclinic'
loop_
_space_group_symop_operation_xyz
x,y,z
-x,-y,-z
loop_
_atom_site_type_symbol
_atom_site_label
_atom_site_fract_x
_atom_site_fract_y
_atom_site_fract_z
Si Si1 0.023863 0.574122 0.246547
Si Si2 0.627332 0.690783 0.448876
Si Si3 0.272704 0.585240 0.319878
Si Si4 0.798346 0.075406 0.689191
Si Si5 0.893369 0.184347 0.256346
Si Si6 0.857909 0.805208 0.712049
Si Si7 0.458869 0.732384 0.698874
O O1 0.170274 0.589798 0.424345
O O2 0.000000 0.500000 0.500000
O O3 0.000000 0.500000 0.000000
O O4 0.928054 0.707885 0.069039
O O5 0.687981 0.550485 0.682905
O O6 0.735952 0.760443 0.463265
O O7 0.552699 0.758421 0.574551
O O8 0.533095 0.691496 0.083647
O O9 0.396658 0.622570 0.579500
O O10 0.203740 0.681371 0.959067
O O11 0.881984 0.130294 0.556545
O O12 0.648297 0.143469 0.446430
O O13 0.808052 0.934000 0.726134
O O14 0.856229 0.092792 0.039539
O O15 0.041408 0.191457 0.398186
#
# Coordination Sequence:
#
# PCOD8025614 Si02
#       7
#     2   2   2   2   2   2   2
#     4  11  25  43  68 103 137 164 216 277 350 403
#     4  12  26  42  68 101 137 180 230 273 339 394
#     4  10  23  45  70  97 137 176 227 283 333 401
#     4  11  24  47  70  99 136 179 233 272 333 403
#     4  10  24  43  73 102 132 176 223 283 342 405
#     4  11  26  44  73 103 139 176 217 287 344 404
#     4  11  26  44  65  98 134 189 231 271 321 397
#
# _framework density 23.693054
#
# number of rings (size 3 to 8) (size 9 to 14) (size 15 to 20)
#    0.000    1.143    1.429    3.429    2.000   14.857 
#    0.000    0.000    0.000    0.000    0.000    0.000 
#    0.000    0.000    0.000    0.000    0.000    0.000 
#
# Total GULP energy -173665.376310 kJ/mol
# GULP energy per Si atom -12404.669736 kJ/mol
# Density = 2.363913 g / cm^3
# Si number density = 23.693054 Si / 1000 Ang^3
#
#
#
# Elastic Constant Matrix: (Units=GPa)
#
#
# Indices 1 2 3 4 5 6 
#
# 1 112.2365 43.9887 38.9872 -10.7498 12.2477 -2.5642
# 2 43.9887 162.8762 28.8356 -20.4048 12.4388 -4.4661
# 3 38.9872 28.8356 34.1406 -3.0273 -0.7111 -11.2080
# 4 -10.7498 -20.4048 -3.0273 30.2372 -0.6124 -0.6677
# 5 12.2477 12.4388 -0.7111 -0.6124 43.6563 5.5455
# 6 -2.5642 -4.4661 -11.2080 -0.6677 5.5455 28.2778
#
#
#
# Elastic Compliance Matrix: (Units=1/GPa)
#
#
# Indices 1 2 3 4 5 6 
#
# 1 0.016885 -0.000289 -0.020724 0.003519 -0.004203 -0.005821
# 2 -0.000289 0.008071 -0.006363 0.004647 -0.002163 -0.000740
# 3 -0.020724 -0.006363 0.065171 -0.004539 0.005870 0.021688
# 4 0.003519 0.004647 -0.004539 0.036976 -0.001931 0.000506
# 5 -0.004203 -0.002163 0.005870 -0.001931 0.025200 -0.003384
# 6 -0.005821 -0.000740 0.021688 0.000506 -0.003384 0.043990
#
#
# Mechanical properties :
#
#
# Convention : Reuss Voigt Hill
#
# Bulk Modulus (GPa) = 28.26884 59.20848 43.73866
# Shear Modulus (GPa) = 19.02321 33.59705 26.31013
#
# Velocity S-wave (km/s) = 2.83663 3.76974 3.33597
# Velocity P-wave (km/s) = 4.76296 6.63264 5.77398
#
# Compressibility (1/GPa) = 0.03537463
#
# Stress axis : x y z
#
# Youngs Moduli (GPa) = 59.22560 123.89714 15.34431
#
# Poissons Ratio (x) = 0.03578 0.31800
# Poissons Ratio (y) = 0.01711 0.09764
# Poissons Ratio (z) = 1.22740 0.78836
#
# Static dielectric constant tensor:
#      x y z
#    x 4.514490 0.004110 0.284930 
#    y 0.004110 4.436470 -0.174750 
#    z 0.284930 -0.174750 4.094150 
# 
# 
# High freq. dielectric constant tensor:
#      x y z
#    x 1.947700 -0.001130 0.010860 
#    y -0.001130 1.947960 -0.004920 
#    z 0.010860 -0.004920 1.932810 
# 
# From -- ./inp_files/66544.got.cif
#   From: 2010.06.25/outbox.cif.g09.slc.cpg/sg2_34_cif.got.tgz:66544.got - 2010.06.27 13:26:56.
