data_PCOD8025123
_publ_section_title
;
Structure prediction by ZEFSAII (Michael W. Deem and Ramdas Pophale) SiO2 
 PCOD8025123
Probable space group: P -1
;
_chemical_formula_sum "Si O2"
_cell_formula_units_Z 16
_cell_length_a 5.527865
_cell_length_b 8.790679
_cell_length_c 16.235100
_cell_angle_alpha 82.941409
_cell_angle_beta 123.457543
_cell_angle_gamma 101.031090
_cell_volume 645.887604
_symmetry_space_group_name_H-M "P -1"
_symmetry_group_IT_number 2
_symmetry_cell_setting 'triclinic'
loop_
_space_group_symop_operation_xyz
x,y,z
-x,-y,-z
loop_
_atom_site_type_symbol
_atom_site_label
_atom_site_fract_x
_atom_site_fract_y
_atom_site_fract_z
Si Si1 0.674858 0.659622 0.547621
Si Si2 0.310317 0.860040 0.022759
Si Si3 0.290981 0.141343 0.614259
Si Si4 0.185951 0.836715 0.178295
Si Si5 0.345926 0.417011 0.896593
Si Si6 0.670242 0.126801 0.466631
Si Si7 0.105483 0.154569 0.193954
Si Si8 0.251970 0.693430 0.743985
O O1 0.500000 0.500000 0.500000
O O2 0.597988 0.768864 0.452819
O O3 0.522520 0.733179 0.593271
O O4 0.017486 0.649161 0.628447
O O5 0.211505 0.920809 0.088000
O O6 0.476783 0.718287 0.088723
O O7 0.035303 0.790531 0.919908
O O8 0.500000 0.000000 0.000000
O O9 0.500451 0.194793 0.726562
O O10 0.970953 0.186546 0.568344
O O11 0.267666 0.954305 0.604265
O O12 0.982893 0.670674 0.142658
O O13 0.065680 0.965471 0.205396
O O14 0.330009 0.539733 0.812933
O O15 0.500000 0.500000 0.000000
O O16 0.500000 0.000000 0.500000
O O17 0.451470 0.219682 0.247637
O O18 0.915094 0.206298 0.230465
#
# Coordination Sequence:
#
# PCOD8025123 Si02
#       8
#     2   2   2   2   2   2   2   2
#     4  11  25  46  69 103 153 194 244 304 374 450
#     4  12  26  50  74 111 150 196 253 319 379 454
#     4  10  23  44  69 108 137 192 249 306 364 441
#     4  12  27  43  80 107 149 199 256 315 380 447
#     4  12  27  49  73 107 152 196 254 311 382 457
#     4   9  21  42  69  96 146 182 243 302 366 426
#     4  12  27  50  77 112 151 197 263 311 378 453
#     4  12  29  48  79 113 153 207 249 313 387 448
#
# _framework density 24.772113999999998
#
# number of rings (size 3 to 8) (size 9 to 14) (size 15 to 20)
#    0.000    0.750    2.500    3.375    8.750    4.500 
#    0.000    0.000    0.000    0.000    0.000    0.000 
#    0.000    0.000    0.000    0.000    0.000    0.000 
#
# Total GULP energy -198281.914999 kJ/mol
# GULP energy per Si atom -12392.619687 kJ/mol
# Density = 2.471573 g / cm^3
# Si number density = 24.772114 Si / 1000 Ang^3
#
#
#
# Elastic Constant Matrix: (Units=GPa)
#
#
# Indices 1 2 3 4 5 6 
#
# 1 100.9641 24.3279 12.0967 17.3931 20.2261 4.8883
# 2 24.3279 121.5382 13.6288 8.5534 13.8571 3.9034
# 3 12.0967 13.6288 148.4411 15.4504 29.1371 12.6418
# 4 17.3931 8.5534 15.4504 38.5521 8.1439 12.9096
# 5 20.2261 13.8571 29.1371 8.1439 46.1450 0.9294
# 6 4.8883 3.9034 12.6418 12.9096 0.9294 29.3600
#
#
#
# Elastic Compliance Matrix: (Units=1/GPa)
#
#
# Indices 1 2 3 4 5 6 
#
# 1 0.011826 -0.001637 0.000456 -0.004286 -0.004225 0.000071
# 2 -0.001637 0.008831 -0.000247 -0.000612 -0.001660 -0.000473
# 3 0.000456 -0.000247 0.008068 -0.001432 -0.004912 -0.002732
# 4 -0.004286 -0.000612 -0.001432 0.033597 -0.002696 -0.013276
# 5 -0.004225 -0.001660 -0.004912 -0.002696 0.027531 0.003353
# 6 0.000071 -0.000473 -0.002732 -0.013276 0.003353 0.041019
#
#
# Mechanical properties :
#
#
# Convention : Reuss Voigt Hill
#
# Bulk Modulus (GPa) = 38.65881 52.33891 45.49886
# Shear Modulus (GPa) = 35.12436 44.20410 39.66423
#
# Velocity S-wave (km/s) = 3.76959 4.22883 4.00580
# Velocity P-wave (km/s) = 5.88099 6.70955 6.30889
#
# Compressibility (1/GPa) = 0.02586732
#
# Stress axis : x y z
#
# Youngs Moduli (GPa) = 84.56228 113.23841 123.94432
#
# Poissons Ratio (x) = 0.18539 -0.05651
# Poissons Ratio (y) = 0.13845 0.03067
# Poissons Ratio (z) = -0.03856 0.02802
#
# Static dielectric constant tensor:
#      x y z
#    x 3.633820 0.322800 0.362160 
#    y 0.322800 4.273220 0.083150 
#    z 0.362160 0.083150 4.697770 
# 
# 
# High freq. dielectric constant tensor:
#      x y z
#    x 1.985810 -0.002820 0.016830 
#    y -0.002820 1.980160 -0.003300 
#    z 0.016830 -0.003300 2.008050 
# 
# From -- ./inp_files/332643.got.cif
#   From: 2010.06.25/outbox.cif.g09.slc.cpg/sg2_167_cif.got.tgz:332643.got - 2010.06.27 13:26:56.
