data_PCOD8025169
_publ_section_title
;
Structure prediction by ZEFSAII (Michael W. Deem and Ramdas Pophale) SiO2 
 PCOD8025169
Probable space group: P -1
;
_chemical_formula_sum "Si O2"
_cell_formula_units_Z 16
_cell_length_a 8.416065
_cell_length_b 12.305944
_cell_length_c 8.746923
_cell_angle_alpha 62.631682
_cell_angle_beta 64.688706
_cell_angle_gamma 77.050640
_cell_volume 726.838898
_symmetry_space_group_name_H-M "P -1"
_symmetry_group_IT_number 2
_symmetry_cell_setting 'triclinic'
loop_
_space_group_symop_operation_xyz
x,y,z
-x,-y,-z
loop_
_atom_site_type_symbol
_atom_site_label
_atom_site_fract_x
_atom_site_fract_y
_atom_site_fract_z
Si Si1 0.712214 0.283112 0.488977
Si Si2 0.505562 0.671123 0.171952
Si Si3 0.486461 0.933878 0.890444
Si Si4 0.851902 0.950062 0.201974
Si Si5 0.220153 0.524290 0.236849
Si Si6 0.206653 0.504521 0.909004
Si Si7 0.975297 0.693024 0.421050
Si Si8 0.325384 0.965561 0.502454
O O1 0.535205 0.299663 0.652873
O O2 0.734876 0.403111 0.303619
O O3 0.684761 0.175009 0.451036
O O4 0.877245 0.260690 0.551116
O O5 0.392951 0.556255 0.239430
O O6 0.708357 0.628269 0.089622
O O7 0.454367 0.790220 0.013737
O O8 0.330798 0.008665 0.823418
O O9 0.666848 0.951973 0.708425
O O10 0.500000 0.000000 0.000000
O O11 0.875607 0.804759 0.304146
O O12 0.847711 0.004282 0.342430
O O13 0.000000 0.000000 0.000000
O O14 0.169033 0.384100 0.379153
O O15 0.059177 0.612808 0.300802
O O16 0.266560 0.543660 0.027822
O O17 0.000000 0.500000 0.000000
O O18 0.500000 0.000000 0.500000
#
# Coordination Sequence:
#
# PCOD8025169 Si02
#       8
#     2   2   2   2   2   2   2   2
#     4  11  23  46  68 100 144 182 232 287 345 422
#     4  11  25  45  72  97 142 188 227 283 352 420
#     4  11  24  48  68 102 139 182 237 285 343 418
#     4  11  25  44  71 102 137 187 231 285 356 407
#     4  10  23  45  68 101 141 184 230 283 344 416
#     4  12  26  43  70 108 135 176 237 291 349 404
#     4  10  23  44  70 101 145 180 229 289 350 407
#     4  10  25  43  67  99 138 184 235 284 343 418
#
# _framework density 22.013131999999999
#
# number of rings (size 3 to 8) (size 9 to 14) (size 15 to 20)
#    0.000    1.250    2.500    2.250    7.000    3.500 
#    0.000    0.000    0.000    0.000    0.000    0.000 
#    0.000    0.000    0.000    0.000    0.000    0.000 
#
# Total GULP energy -198339.881995 kJ/mol
# GULP energy per Si atom -12396.242625 kJ/mol
# Density = 2.196303 g / cm^3
# Si number density = 22.013132 Si / 1000 Ang^3
#
#
#
# Elastic Constant Matrix: (Units=GPa)
#
#
# Indices 1 2 3 4 5 6 
#
# 1 63.5751 52.7892 32.7215 -7.4647 -5.3279 -10.0323
# 2 52.7892 144.0421 72.5595 -2.4043 0.9491 -10.5955
# 3 32.7215 72.5595 175.3861 14.5327 7.1961 -17.4853
# 4 -7.4647 -2.4043 14.5327 49.6578 -6.1077 3.3126
# 5 -5.3279 0.9491 7.1961 -6.1077 26.9282 -0.7276
# 6 -10.0323 -10.5955 -17.4853 3.3126 -0.7276 37.0352
#
#
#
# Elastic Compliance Matrix: (Units=1/GPa)
#
#
# Indices 1 2 3 4 5 6 
#
# 1 0.024829 -0.008001 -0.001625 0.004420 0.006723 0.003407
# 2 -0.008001 0.011508 -0.003289 0.000216 -0.001073 -0.000468
# 3 -0.001625 -0.003289 0.008027 -0.003301 -0.003028 0.002645
# 4 0.004420 0.000216 -0.003301 0.022769 0.006854 -0.002201
# 5 0.006723 -0.001073 -0.003028 0.006854 0.040875 0.000275
# 6 0.003407 -0.000468 0.002645 -0.002201 0.000275 0.029241
#
#
# Mechanical properties :
#
#
# Convention : Reuss Voigt Hill
#
# Bulk Modulus (GPa) = 53.95238 77.68263 65.81751
# Shear Modulus (GPa) = 29.54110 37.71977 33.63044
#
# Velocity S-wave (km/s) = 3.66727 4.14395 3.91288
# Velocity P-wave (km/s) = 6.51876 7.63297 7.09776
#
# Compressibility (1/GPa) = 0.01853486
#
# Stress axis : x y z
#
# Youngs Moduli (GPa) = 40.27489 86.89963 124.58254
#
# Poissons Ratio (x) = 0.69529 0.20241
# Poissons Ratio (y) = 0.32224 0.40970
# Poissons Ratio (z) = 0.06544 0.28578
#
# Static dielectric constant tensor:
#      x y z
#    x 3.630190 0.114160 0.565980 
#    y 0.114160 4.886720 1.913010 
#    z 0.565980 1.913010 6.692830 
# 
# 
# High freq. dielectric constant tensor:
#      x y z
#    x 1.844190 0.001880 -0.000120 
#    y 0.001880 1.869510 0.011390 
#    z -0.000120 0.011390 1.895270 
# 
# From -- ./inp_files/184830.got.cif
#   From: 2010.06.25/outbox.cif.g09.slc.cpg/sg2_93_cif.got.tgz:184830.got - 2010.06.27 13:26:56.
