data_PCOD8025227
_publ_section_title
;
Structure prediction by ZEFSAII (Michael W. Deem and Ramdas Pophale) SiO2 
 PCOD8025227
Probable space group: P -1
;
_chemical_formula_sum "Si O2"
_cell_formula_units_Z 16
_cell_length_a 22.007731
_cell_length_b 11.590898
_cell_length_c 6.837241
_cell_angle_alpha 55.881350
_cell_angle_beta 115.187078
_cell_angle_gamma 151.319266
_cell_volume 683.193380
_symmetry_space_group_name_H-M "P -1"
_symmetry_group_IT_number 2
_symmetry_cell_setting 'triclinic'
loop_
_space_group_symop_operation_xyz
x,y,z
-x,-y,-z
loop_
_atom_site_type_symbol
_atom_site_label
_atom_site_fract_x
_atom_site_fract_y
_atom_site_fract_z
Si Si1 0.120858 0.693822 0.845491
Si Si2 0.160459 0.065912 0.624918
Si Si3 0.317855 0.593612 0.272220
Si Si4 0.510036 0.610418 0.215526
Si Si5 0.696936 0.799091 0.981868
Si Si6 0.591907 0.994809 0.226201
Si Si7 0.816673 0.262873 0.513892
Si Si8 0.135909 0.471772 0.322861
O O1 0.085485 0.593131 0.668970
O O2 0.196358 0.974257 0.678658
O O3 0.195546 0.694751 0.043018
O O4 0.000000 0.500000 0.000000
O O5 0.234180 0.310596 0.360250
O O6 0.221681 0.179732 0.819744
O O7 0.008203 0.826945 0.652540
O O8 0.458574 0.794465 0.347756
O O9 0.234023 0.516560 0.404248
O O10 0.335518 0.732341 0.985114
O O11 0.500000 0.500000 0.500000
O O12 0.602652 0.702863 0.099608
O O13 0.558092 0.848314 0.121921
O O14 0.373601 0.386085 0.130252
O O15 0.801694 0.100551 0.779919
O O16 0.676872 0.052892 0.433175
O O17 0.872544 0.487087 0.506666
#
# Coordination Sequence:
#
# PCOD8025227 Si02
#       8
#     2   2   2   2   2   2   2   2
#     4  10  23  44  71 101 141 179 237 293 351 422
#     4  11  24  46  69 106 144 188 234 296 353 430
#     4  11  25  47  70  98 149 193 236 295 356 424
#     4  11  22  42  69 104 148 182 230 305 355 420
#     4  11  24  38  71 113 140 181 240 294 367 420
#     4  11  24  44  72 101 142 193 238 292 362 424
#     4  12  23  43  75 110 138 186 239 298 364 423
#     4  11  24  48  72  99 148 191 238 294 352 426
#
# _framework density 23.419430999999999
#
# number of rings (size 3 to 8) (size 9 to 14) (size 15 to 20)
#    0.000    1.000    3.750    2.625    3.500    2.500 
#    4.500    0.625    0.000    0.000    0.000    0.000 
#    0.000    0.000    0.000    0.000    0.000    0.000 
#
# Total GULP energy -198324.928554 kJ/mol
# GULP energy per Si atom -12395.308035 kJ/mol
# Density = 2.336613 g / cm^3
# Si number density = 23.419431 Si / 1000 Ang^3
#
#
#
# Elastic Constant Matrix: (Units=GPa)
#
#
# Indices 1 2 3 4 5 6 
#
# 1 94.2433 46.3703 51.4202 -12.0033 -2.6000 -3.2719
# 2 46.3703 142.8904 56.4320 0.1134 -0.0326 -4.7588
# 3 51.4202 56.4320 104.6364 -6.5992 -13.5456 -13.3822
# 4 -12.0033 0.1134 -6.5992 48.2528 -7.9528 2.5830
# 5 -2.6000 -0.0326 -13.5456 -7.9528 34.8291 -6.6031
# 6 -3.2719 -4.7588 -13.3822 2.5830 -6.6031 35.6270
#
#
#
# Elastic Compliance Matrix: (Units=1/GPa)
#
#
# Indices 1 2 3 4 5 6 
#
# 1 0.015718 -0.002598 -0.006490 0.002956 -0.001009 -0.001743
# 2 -0.002598 0.009556 -0.004420 -0.001627 -0.002458 -0.000960
# 3 -0.006490 -0.004420 0.017079 0.001663 0.007775 0.006549
# 4 0.002956 -0.001627 0.001663 0.022683 0.006076 0.000160
# 5 -0.001009 -0.002458 0.007775 0.006076 0.034653 0.008482
# 6 -0.001743 -0.000960 0.006549 0.000160 0.008482 0.031801
#
#
# Mechanical properties :
#
#
# Convention : Reuss Voigt Hill
#
# Bulk Modulus (GPa) = 65.20555 72.24610 68.72583
# Shear Modulus (GPa) = 30.55847 36.24496 33.40171
#
# Velocity S-wave (km/s) = 3.61617 3.93828 3.78066
# Velocity P-wave (km/s) = 6.73339 7.18302 6.96184
#
# Compressibility (1/GPa) = 0.01533612
#
# Stress axis : x y z
#
# Youngs Moduli (GPa) = 63.61950 104.64499 58.55082
#
# Poissons Ratio (x) = 0.27191 0.37999
# Poissons Ratio (y) = 0.16531 0.25882
# Poissons Ratio (z) = 0.41289 0.46258
#
# Static dielectric constant tensor:
#      x y z
#    x 4.706200 -0.081920 0.325970 
#    y -0.081920 4.489090 0.077140 
#    z 0.325970 0.077140 4.486820 
# 
# 
# High freq. dielectric constant tensor:
#      x y z
#    x 1.925630 0.012710 0.002410 
#    y 0.012710 1.930760 -0.010680 
#    z 0.002410 -0.010680 1.916100 
# 
# From -- ./inp_files/123592.got.cif
#   From: 2010.06.25/outbox.cif.g09.slc.cpg/sg2_62_cif.got.tgz:123592.got - 2010.06.27 13:26:56.
