data_PCOD8025120
_publ_section_title
;
Structure prediction by ZEFSAII (Michael W. Deem and Ramdas Pophale) SiO2 
 PCOD8025120
Probable space group: P -1
;
_chemical_formula_sum "Si O2"
_cell_formula_units_Z 14
_cell_length_a 11.087779
_cell_length_b 10.761445
_cell_length_c 10.753805
_cell_angle_alpha 123.513217
_cell_angle_beta 78.544317
_cell_angle_gamma 54.595126
_cell_volume 563.708866
_symmetry_space_group_name_H-M "P -1"
_symmetry_group_IT_number 2
_symmetry_cell_setting 'triclinic'
loop_
_space_group_symop_operation_xyz
x,y,z
-x,-y,-z
loop_
_atom_site_type_symbol
_atom_site_label
_atom_site_fract_x
_atom_site_fract_y
_atom_site_fract_z
Si Si1 0.293917 0.318084 0.680687
Si Si2 0.023185 0.174511 0.849495
Si Si3 0.340650 0.821692 0.811942
Si Si4 0.456545 0.638582 0.338024
Si Si5 0.702839 0.700501 0.610573
Si Si6 0.792856 0.185402 0.737719
Si Si7 0.177742 0.109440 0.258596
O O1 0.347861 0.439361 0.741403
O O2 0.214880 0.360597 0.582362
O O3 0.500000 0.000000 0.500000
O O4 0.076529 0.554361 0.951664
O O5 0.818038 0.276603 0.896668
O O6 0.140316 0.987904 0.847630
O O7 0.222449 0.973650 0.593576
O O8 0.506250 0.511299 0.635244
O O9 0.482664 0.819365 0.731151
O O10 0.220725 0.974579 0.051225
O O11 0.434620 0.570124 0.171112
O O12 0.652964 0.919509 0.789887
O O13 0.911028 0.425061 0.495950
O O14 0.784373 0.026378 0.701934
O O15 0.000000 0.000000 0.500000
#
# Coordination Sequence:
#
# PCOD8025120 Si02
#       7
#     2   2   2   2   2   2   2
#     4  12  26  43  68  98 141 186 233 283 349 419
#     4  11  24  44  70 104 135 179 231 290 347 409
#     4  12  24  44  75 106 137 182 236 289 349 414
#     4  11  25  44  70 101 141 178 232 290 348 411
#     4  11  24  44  66 103 141 185 235 283 345 415
#     4  10  23  44  69 104 137 182 231 287 348 408
#     4  11  24  43  71  99 144 185 233 288 342 415
#
# _framework density 24.835515000000001
#
# number of rings (size 3 to 8) (size 9 to 14) (size 15 to 20)
#    0.000    0.857    2.857    4.286    2.000    5.143 
#    0.000    2.857    0.000    0.000    0.000    0.000 
#    0.000    0.000    0.000    0.000    0.000    0.000 
#
# Total GULP energy -173503.953008 kJ/mol
# GULP energy per Si atom -12393.139501 kJ/mol
# Density = 2.477899 g / cm^3
# Si number density = 24.835515 Si / 1000 Ang^3
#
#
#
# Elastic Constant Matrix: (Units=GPa)
#
#
# Indices 1 2 3 4 5 6 
#
# 1 83.9764 31.5297 7.9978 0.2557 -5.6935 -8.8645
# 2 31.5297 142.1403 29.2010 1.6941 8.2436 -17.8445
# 3 7.9978 29.2010 93.2700 12.9898 17.1510 -0.4673
# 4 0.2557 1.6941 12.9898 35.0042 -5.6147 4.5456
# 5 -5.6935 8.2436 17.1510 -5.6147 24.5076 -1.9935
# 6 -8.8645 -17.8445 -0.4673 4.5456 -1.9935 49.2729
#
#
#
# Elastic Compliance Matrix: (Units=1/GPa)
#
#
# Indices 1 2 3 4 5 6 
#
# 1 0.013663 -0.002879 -0.001469 0.001285 0.005588 0.001509
# 2 -0.002879 0.008517 -0.001998 -0.000294 -0.002000 0.002494
# 3 -0.001469 -0.001998 0.014577 -0.007067 -0.011544 -0.000665
# 4 0.001285 -0.000294 -0.007067 0.033581 0.012832 -0.002521
# 5 0.005588 -0.002000 -0.011544 0.012832 0.053888 0.001168
# 6 0.001509 0.002494 -0.000665 -0.002521 0.001168 0.021743
#
#
# Mechanical properties :
#
#
# Convention : Reuss Voigt Hill
#
# Bulk Modulus (GPa) = 41.55612 50.76039 46.15826
# Shear Modulus (GPa) = 29.99697 38.46751 34.23224
#
# Velocity S-wave (km/s) = 3.47915 3.93986 3.71665
# Velocity P-wave (km/s) = 5.73656 6.41714 6.08637
#
# Compressibility (1/GPa) = 0.02406384
#
# Stress axis : x y z
#
# Youngs Moduli (GPa) = 73.18941 117.41197 68.60193
#
# Poissons Ratio (x) = 0.33802 0.10079
# Poissons Ratio (y) = 0.21070 0.13710
# Poissons Ratio (z) = 0.10753 0.23465
#
# Static dielectric constant tensor:
#      x y z
#    x 4.566330 -0.367200 0.168610 
#    y -0.367200 4.622760 -0.141140 
#    z 0.168610 -0.141140 4.651860 
# 
# 
# High freq. dielectric constant tensor:
#      x y z
#    x 1.983610 -0.022350 0.002070 
#    y -0.022350 1.990240 -0.013430 
#    z 0.002070 -0.013430 2.011850 
# 
# From -- ./inp_files/426688.got.cif
#   From: 2010.06.25/outbox.cif.g09.slc.cpg/sg2_214_cif.got.tgz:426688.got - 2010.06.27 13:26:56.
