data_PCOD8025832
_publ_section_title
;
Structure prediction by ZEFSAII (Michael W. Deem and Ramdas Pophale) SiO2 
 PCOD8025832
Probable space group: P -1
;
_chemical_formula_sum "Si O2"
_cell_formula_units_Z 16
_cell_length_a 17.096230
_cell_length_b 6.496795
_cell_length_c 13.469655
_cell_angle_alpha 112.207242
_cell_angle_beta 32.371784
_cell_angle_gamma 102.995938
_cell_volume 728.048225
_symmetry_space_group_name_H-M "P -1"
_symmetry_group_IT_number 2
_symmetry_cell_setting 'triclinic'
loop_
_space_group_symop_operation_xyz
x,y,z
-x,-y,-z
loop_
_atom_site_type_symbol
_atom_site_label
_atom_site_fract_x
_atom_site_fract_y
_atom_site_fract_z
Si Si1 0.927032 0.715221 0.474073
Si Si2 0.699954 0.564463 0.381142
Si Si3 0.089761 0.140843 0.706856
Si Si4 0.258421 0.665308 0.384377
Si Si5 0.233359 0.803734 0.219462
Si Si6 0.136274 0.923355 0.912723
Si Si7 0.375672 0.210549 0.698315
Si Si8 0.489385 0.540174 0.774483
O O1 0.932867 0.761008 0.359912
O O2 0.865839 0.489067 0.518320
O O3 0.093579 0.679736 0.331458
O O4 0.821225 0.925818 0.679908
O O5 0.834400 0.696850 0.275466
O O6 0.753779 0.295817 0.288674
O O7 0.635082 0.614458 0.349813
O O8 0.575742 0.645329 0.613434
O O9 0.188805 0.890770 0.560169
O O10 0.926153 0.137412 0.925008
O O11 0.304902 0.729496 0.236302
O O12 0.402902 0.538620 0.263246
O O13 0.357455 0.736831 0.989902
O O14 0.221320 0.131217 0.871522
O O15 0.000000 0.000000 0.000000
O O16 0.419960 0.330775 0.771341
O O17 0.500000 0.000000 0.500000
#
# Coordination Sequence:
#
# PCOD8025832 Si02
#       8
#     2   2   2   2   2   2   2   2
#     4  10  23  46  69  98 136 167 228 285 333 408
#     4  12  25  46  67 101 144 180 227 284 330 405
#     4  11  24  40  74  98 132 182 226 275 341 398
#     4  11  23  47  68  98 134 177 222 282 341 405
#     4  10  25  44  68 103 128 171 229 280 343 402
#     4  12  26  43  70 100 137 186 232 278 334 401
#     4  12  27  46  65 102 144 179 232 280 333 405
#     4  12  25  44  70  97 139 182 220 279 343 402
#
# _framework density 21.976566999999999
#
# number of rings (size 3 to 8) (size 9 to 14) (size 15 to 20)
#    0.000    0.750    3.750    3.000    3.500    0.500 
#    4.500    0.000    0.000    0.000    0.000    0.000 
#    0.000    0.000    0.000    0.000    0.000    0.000 
#
# Total GULP energy -198521.407464 kJ/mol
# GULP energy per Si atom -12407.587966 kJ/mol
# Density = 2.192655 g / cm^3
# Si number density = 21.976567 Si / 1000 Ang^3
#
#
#
# Elastic Constant Matrix: (Units=GPa)
#
#
# Indices 1 2 3 4 5 6 
#
# 1 72.0604 8.5297 19.9724 2.7397 -10.5651 7.2195
# 2 8.5297 82.9986 19.5315 -9.6068 -3.5560 6.2608
# 3 19.9724 19.5315 120.4398 -9.8613 13.2014 -9.0493
# 4 2.7397 -9.6068 -9.8613 34.7277 1.3267 -6.2821
# 5 -10.5651 -3.5560 13.2014 1.3267 33.7619 -2.0950
# 6 7.2195 6.2608 -9.0493 -6.2821 -2.0950 33.0100
#
#
#
# Elastic Compliance Matrix: (Units=1/GPa)
#
#
# Indices 1 2 3 4 5 6 
#
# 1 0.016682 -0.000532 -0.004086 -0.003774 0.006602 -0.004967
# 2 -0.000532 0.013181 -0.002221 0.002555 0.001842 -0.002389
# 3 -0.004086 -0.002221 0.010598 0.003757 -0.005520 0.004585
# 4 -0.003774 0.002555 0.003757 0.032313 -0.003197 0.007317
# 5 0.006602 0.001842 -0.005520 -0.003197 0.034054 -0.001753
# 6 -0.004967 -0.002389 0.004585 0.007317 -0.001753 0.034372
#
#
# Mechanical properties :
#
#
# Convention : Reuss Voigt Hill
#
# Bulk Modulus (GPa) = 37.33952 41.28511 39.31232
# Shear Modulus (GPa) = 30.52415 35.46426 32.99420
#
# Velocity S-wave (km/s) = 3.73089 4.02148 3.87891
# Velocity P-wave (km/s) = 5.96548 6.35530 6.16347
#
# Compressibility (1/GPa) = 0.02678127
#
# Stress axis : x y z
#
# Youngs Moduli (GPa) = 59.94592 75.86853 94.35887
#
# Poissons Ratio (x) = 0.04038 0.38553
# Poissons Ratio (y) = 0.03190 0.20961
# Poissons Ratio (z) = 0.24493 0.16854
#
# Static dielectric constant tensor:
#      x y z
#    x 5.967310 0.369320 -0.555410 
#    y 0.369320 4.090350 -0.184650 
#    z -0.555410 -0.184650 4.225530 
# 
# 
# High freq. dielectric constant tensor:
#      x y z
#    x 1.876290 0.003840 -0.001230 
#    y 0.003840 1.866780 -0.003080 
#    z -0.001230 -0.003080 1.866060 
# 
# From -- ./inp_files/39711.got.cif
#   From: 2010.06.25/outbox.cif.g09.slc.cpg/sg2_20_cif.got.tgz:39711.got - 2010.06.27 13:26:56.
