data_PCOD8025782
_publ_section_title
;
Structure prediction by ZEFSAII (Michael W. Deem and Ramdas Pophale) SiO2 
 PCOD8025782
Probable space group: P -1
;
_chemical_formula_sum "Si O2"
_cell_formula_units_Z 16
_cell_length_a 16.971198
_cell_length_b 7.898240
_cell_length_c 8.752710
_cell_angle_alpha 130.961228
_cell_angle_beta 136.616909
_cell_angle_gamma 57.733143
_cell_volume 604.809987
_symmetry_space_group_name_H-M "P -1"
_symmetry_group_IT_number 2
_symmetry_cell_setting 'triclinic'
loop_
_space_group_symop_operation_xyz
x,y,z
-x,-y,-z
loop_
_atom_site_type_symbol
_atom_site_label
_atom_site_fract_x
_atom_site_fract_y
_atom_site_fract_z
Si Si1 0.852303 0.661823 0.737228
Si Si2 0.490814 0.419075 0.109183
Si Si3 0.728797 0.640412 0.839809
Si Si4 0.705085 0.076172 0.196530
Si Si5 0.350856 0.727594 0.289089
Si Si6 0.284609 0.149673 0.620544
Si Si7 0.847196 0.149051 0.148199
Si Si8 0.021481 0.260779 0.647864
O O1 0.814196 0.708907 0.535843
O O2 0.955372 0.461649 0.776697
O O3 0.747109 0.594664 0.656961
O O4 0.887591 0.888577 0.004450
O O5 0.373030 0.308633 0.908900
O O6 0.500000 0.500000 0.000000
O O7 0.601244 0.253833 0.212900
O O8 0.472414 0.637453 0.324977
O O9 0.846212 0.692503 0.128006
O O10 0.649839 0.875257 0.905259
O O11 0.672914 0.427053 0.693352
O O12 0.791152 0.179192 0.260019
O O13 0.767760 0.980482 0.387260
O O14 0.358449 0.978478 0.507367
O O15 0.241554 0.726356 0.021112
O O16 0.962090 0.280151 0.404589
O O17 0.000000 0.000000 0.500000
#
# Coordination Sequence:
#
# PCOD8025782 Si02
#       8
#     2   2   2   2   2   2   2   2
#     4  10  24  45  66 101 137 178 224 282 332 400
#     4  12  25  45  73  98 139 177 228 282 339 405
#     4  11  25  43  71  98 141 179 226 285 335 402
#     4  11  23  45  68 101 136 182 224 282 337 400
#     4  11  25  47  66 105 138 176 227 282 339 404
#     4  11  26  45  70 101 137 179 227 276 345 404
#     4  10  23  46  67  98 143 176 227 280 335 407
#     4  12  23  41  75 101 134 185 231 269 349 399
#
# _framework density 26.454591000000001
#
# number of rings (size 3 to 8) (size 9 to 14) (size 15 to 20)
#    0.000    1.000    5.000    1.500    1.750    1.500 
#    0.000    1.250    0.000    0.000    0.000    0.000 
#    0.000    0.000    0.000    0.000    0.000    0.000 
#
# Total GULP energy -198225.621766 kJ/mol
# GULP energy per Si atom -12389.101360 kJ/mol
# Density = 2.639438 g / cm^3
# Si number density = 26.454591 Si / 1000 Ang^3
#
#
#
# Elastic Constant Matrix: (Units=GPa)
#
#
# Indices 1 2 3 4 5 6 
#
# 1 56.0019 32.5814 1.5539 -0.7673 -21.8979 3.8599
# 2 32.5814 125.9226 0.1925 3.2345 -15.9368 -23.0446
# 3 1.5539 0.1925 54.1384 -3.2096 -19.2382 -9.6986
# 4 -0.7673 3.2345 -3.2096 28.8140 6.8316 -18.4565
# 5 -21.8979 -15.9368 -19.2382 6.8316 36.2072 4.6432
# 6 3.8599 -23.0446 -9.6986 -18.4565 4.6432 53.4848
#
#
#
# Elastic Compliance Matrix: (Units=1/GPa)
#
#
# Indices 1 2 3 4 5 6 
#
# 1 0.030011 -0.006628 0.004248 -0.008514 0.020244 -0.008947
# 2 -0.006628 0.010768 0.001525 0.002801 0.000200 0.006344
# 3 0.004248 0.001525 0.024681 0.001584 0.015540 0.004024
# 4 -0.008514 0.002801 0.001584 0.051663 -0.015552 0.021286
# 5 0.020244 0.000200 0.015540 -0.015552 0.052226 -0.008458
# 6 -0.008947 0.006344 0.004024 0.021286 -0.008458 0.030885
#
#
# Mechanical properties :
#
#
# Convention : Reuss Voigt Hill
#
# Bulk Modulus (GPa) = 15.68603 33.85762 24.77183
# Shear Modulus (GPa) = 22.40227 37.15021 29.77624
#
# Velocity S-wave (km/s) = 2.91317 3.75147 3.35858
# Velocity P-wave (km/s) = 4.15424 5.62057 4.94209
#
# Compressibility (1/GPa) = 0.06375098
#
# Stress axis : x y z
#
# Youngs Moduli (GPa) = 33.32162 92.86562 40.51774
#
# Poissons Ratio (x) = 0.61551 -0.17214
# Poissons Ratio (y) = 0.22085 -0.06180
# Poissons Ratio (z) = -0.14156 -0.14165
#
# Static dielectric constant tensor:
#      x y z
#    x 4.541710 -0.214280 -0.249820 
#    y -0.214280 5.235150 0.071770 
#    z -0.249820 0.071770 5.051020 
# 
# 
# High freq. dielectric constant tensor:
#      x y z
#    x 2.035280 -0.015170 -0.029950 
#    y -0.015170 2.082560 0.011530 
#    z -0.029950 0.011530 2.068960 
# 
# From -- ./inp_files/328148.got.cif
#   From: 2010.06.25/outbox.cif.g09.slc.cpg/sg2_165_cif.got.tgz:328148.got - 2010.06.27 13:26:56.
