data_PCOD8025197
_publ_section_title
;
Structure prediction by ZEFSAII (Michael W. Deem and Ramdas Pophale) SiO2 
 PCOD8025197
Probable space group: P -1
;
_chemical_formula_sum "Si O2"
_cell_formula_units_Z 16
_cell_length_a 10.781648
_cell_length_b 8.654884
_cell_length_c 9.605048
_cell_angle_alpha 57.108379
_cell_angle_beta 77.276434
_cell_angle_gamma 83.175650
_cell_volume 734.128167
_symmetry_space_group_name_H-M "P -1"
_symmetry_group_IT_number 2
_symmetry_cell_setting 'triclinic'
loop_
_space_group_symop_operation_xyz
x,y,z
-x,-y,-z
loop_
_atom_site_type_symbol
_atom_site_label
_atom_site_fract_x
_atom_site_fract_y
_atom_site_fract_z
Si Si1 0.254838 0.197139 0.096701
Si Si2 0.876261 0.453997 0.140311
Si Si3 0.143207 0.953443 0.005562
Si Si4 0.730574 0.097652 0.265665
Si Si5 0.750353 0.381481 0.747933
Si Si6 0.821643 0.796555 0.581634
Si Si7 0.070457 0.634513 0.521539
Si Si8 0.530340 0.297030 0.039540
O O1 0.175902 0.169126 0.271344
O O2 0.208040 0.039512 0.082525
O O3 0.231856 0.398261 0.939722
O O4 0.405132 0.180108 0.093597
O O5 0.829275 0.252173 0.213259
O O6 0.903810 0.467234 0.290789
O O7 0.000000 0.500000 0.000000
O O8 0.152778 0.730314 0.120587
O O9 0.215706 0.022106 0.817310
O O10 0.000000 0.000000 0.000000
O O11 0.727115 0.948731 0.463797
O O12 0.598340 0.188364 0.204079
O O13 0.760382 0.597703 0.664185
O O14 0.792910 0.319658 0.609364
O O15 0.611594 0.311156 0.868191
O O16 0.969816 0.803672 0.488418
O O17 0.000000 0.500000 0.500000
O O18 0.500000 0.500000 0.000000
#
# Coordination Sequence:
#
# PCOD8025197 Si02
#       8
#     2   2   2   2   2   2   2   2
#     4  12  25  42  74 101 140 185 236 288 346 420
#     4  12  24  43  70 103 137 188 233 283 361 426
#     4  11  25  42  70 105 138 181 234 288 354 417
#     4  11  26  42  70 100 139 184 239 284 350 420
#     4  10  23  44  70  95 141 185 224 289 347 408
#     4  11  23  43  67 106 139 182 227 295 357 410
#     4  10  24  39  69 101 143 174 228 292 352 408
#     4  11  22  49  72  96 137 195 238 282 343 424
#
# _framework density 21.794559
#
# number of rings (size 3 to 8) (size 9 to 14) (size 15 to 20)
#    0.000    1.000    3.750    2.250   12.250    3.000 
#    0.000    0.625    2.750    0.000    0.000    0.000 
#    0.000    0.000    0.000    0.000    0.000    0.000 
#
# Total GULP energy -198278.023095 kJ/mol
# GULP energy per Si atom -12392.376443 kJ/mol
# Density = 2.174495 g / cm^3
# Si number density = 21.794559 Si / 1000 Ang^3
#
#
#
# Elastic Constant Matrix: (Units=GPa)
#
#
# Indices 1 2 3 4 5 6 
#
# 1 135.0380 50.0745 51.5417 4.1250 11.0981 -6.9200
# 2 50.0745 99.8191 48.3031 2.3978 8.1063 2.5052
# 3 51.5417 48.3031 144.2132 11.1576 14.7069 -7.1797
# 4 4.1250 2.3978 11.1576 50.5537 -10.3300 2.7775
# 5 11.0981 8.1063 14.7069 -10.3300 41.1177 1.8739
# 6 -6.9200 2.5052 -7.1797 2.7775 1.8739 37.6464
#
#
#
# Elastic Compliance Matrix: (Units=1/GPa)
#
#
# Indices 1 2 3 4 5 6 
#
# 1 0.009815 -0.003912 -0.001917 -0.000582 -0.001421 0.001813
# 2 -0.003912 0.013641 -0.003298 0.000478 -0.000230 -0.002280
# 3 -0.001917 -0.003298 0.009302 -0.002432 -0.002860 0.001963
# 4 -0.000582 0.000478 -0.002432 0.021816 0.006529 -0.002537
# 5 -0.001421 -0.000230 -0.002860 0.006529 0.027533 -0.002644
# 6 0.001813 -0.002280 0.001963 -0.002537 -0.002644 0.027741
#
#
# Mechanical properties :
#
#
# Convention : Reuss Voigt Hill
#
# Bulk Modulus (GPa) = 68.95118 75.43431 72.19275
# Shear Modulus (GPa) = 37.61182 41.14029 39.37606
#
# Velocity S-wave (km/s) = 4.15871 4.34941 4.25513
# Velocity P-wave (km/s) = 7.40037 7.74015 7.57216
#
# Compressibility (1/GPa) = 0.01450302
#
# Stress axis : x y z
#
# Youngs Moduli (GPa) = 101.88151 73.30923 107.50854
#
# Poissons Ratio (x) = 0.28679 0.20614
# Poissons Ratio (y) = 0.39857 0.35454
# Poissons Ratio (z) = 0.19535 0.24176
#
# Static dielectric constant tensor:
#      x y z
#    x 4.204270 -0.038360 -0.077010 
#    y -0.038360 4.646180 0.253550 
#    z -0.077010 0.253550 4.440220 
# 
# 
# High freq. dielectric constant tensor:
#      x y z
#    x 1.843490 -0.017940 0.003310 
#    y -0.017940 1.859870 0.004560 
#    z 0.003310 0.004560 1.867660 
# 
# From -- ./inp_files/237161.got.cif
#   From: 2010.06.25/outbox.cif.g09.slc.cpg/sg2_119_cif.got.tgz:237161.got - 2010.06.27 13:26:56.
