data_PCOD8025355
_publ_section_title
;
Structure prediction by ZEFSAII (Michael W. Deem and Ramdas Pophale) SiO2 
 PCOD8025355
Probable space group: P -1
;
_chemical_formula_sum "Si O2"
_cell_formula_units_Z 16
_cell_length_a 9.086420
_cell_length_b 11.266665
_cell_length_c 17.305743
_cell_angle_alpha 32.112444
_cell_angle_beta 127.391608
_cell_angle_gamma 113.471391
_cell_volume 719.439876
_symmetry_space_group_name_H-M "P -1"
_symmetry_group_IT_number 2
_symmetry_cell_setting 'triclinic'
loop_
_space_group_symop_operation_xyz
x,y,z
-x,-y,-z
loop_
_atom_site_type_symbol
_atom_site_label
_atom_site_fract_x
_atom_site_fract_y
_atom_site_fract_z
Si Si1 0.872154 0.102466 0.998837
Si Si2 0.498476 0.565350 0.243271
Si Si3 0.273005 0.094120 0.083733
Si Si4 0.933875 0.698731 0.587345
Si Si5 0.478104 0.329498 0.519949
Si Si6 0.510914 0.519013 0.101918
Si Si7 0.788490 0.231294 0.240159
Si Si8 0.105665 0.380191 0.675197
O O1 0.054559 0.206812 0.984176
O O2 0.963082 0.848922 0.205160
O O3 0.716170 0.265412 0.914914
O O4 0.751806 0.078275 0.897352
O O5 0.556299 0.382612 0.432499
O O6 0.505380 0.438853 0.232548
O O7 0.664104 0.700332 0.221150
O O8 0.416777 0.937205 0.278722
O O9 0.364336 0.293538 0.972702
O O10 0.750032 0.612689 0.595194
O O11 0.047123 0.677770 0.715908
O O12 0.059940 0.549588 0.641471
O O13 0.867001 0.963625 0.390689
O O14 0.500000 0.500000 0.500000
O O15 0.607984 0.285737 0.212960
O O16 0.291976 0.626940 0.941828
O O17 0.000000 0.500000 0.500000
#
# Coordination Sequence:
#
# PCOD8025355 Si02
#       8
#     2   2   2   2   2   2   2   2
#     4  11  24  38  65  97 138 182 212 270 337 405
#     4  12  25  39  64 100 142 169 224 280 332 394
#     4  11  22  42  65  94 136 179 226 260 334 412
#     4  11  23  44  70  98 128 186 222 270 329 413
#     4  12  24  42  66 103 139 180 211 270 348 411
#     4  11  23  44  70  97 122 178 233 288 315 387
#     4  10  23  44  75  91 127 178 243 267 329 384
#     4  12  25  40  65 104 143 170 218 278 341 404
#
# _framework density 22.239525
#
# number of rings (size 3 to 8) (size 9 to 14) (size 15 to 20)
#    0.000    0.750    5.000    2.625    5.250    0.000 
#    0.000    1.250    0.000    0.000    0.000    0.000 
#    0.000    0.000    0.000    0.000    0.000    0.000 
#
# Total GULP energy -198351.197942 kJ/mol
# GULP energy per Si atom -12396.949871 kJ/mol
# Density = 2.218891 g / cm^3
# Si number density = 22.239525 Si / 1000 Ang^3
#
#
#
# Elastic Constant Matrix: (Units=GPa)
#
#
# Indices 1 2 3 4 5 6 
#
# 1 109.7954 30.8827 32.0627 10.2169 0.9440 0.6067
# 2 30.8827 71.0734 22.7025 16.7308 -4.7463 5.8629
# 3 32.0627 22.7025 100.8856 18.1226 -4.9243 -8.2662
# 4 10.2169 16.7308 18.1226 42.1271 -4.5670 5.4100
# 5 0.9440 -4.7463 -4.9243 -4.5670 44.5239 12.4294
# 6 0.6067 5.8629 -8.2662 5.4100 12.4294 35.8149
#
#
#
# Elastic Compliance Matrix: (Units=1/GPa)
#
#
# Indices 1 2 3 4 5 6 
#
# 1 0.011017 -0.004019 -0.002610 -0.000095 -0.001027 0.000240
# 2 -0.004019 0.018010 -0.002128 -0.004571 0.002269 -0.003468
# 3 -0.002610 -0.002128 0.012319 -0.004381 -0.000384 0.004031
# 4 -0.000095 -0.004571 -0.004381 0.028598 0.003590 -0.005827
# 5 -0.001027 0.002269 -0.000384 0.003590 0.025826 -0.009948
# 6 0.000240 -0.003468 0.004031 -0.005827 -0.009948 0.033748
#
#
# Mechanical properties :
#
#
# Convention : Reuss Voigt Hill
#
# Bulk Modulus (GPa) = 41.96188 50.33891 46.15040
# Shear Modulus (GPa) = 32.26290 37.56694 34.91492
#
# Velocity S-wave (km/s) = 3.81294 4.11444 3.96656
# Velocity P-wave (km/s) = 6.18820 6.72722 6.46333
#
# Compressibility (1/GPa) = 0.02383115
#
# Stress axis : x y z
#
# Youngs Moduli (GPa) = 90.76877 55.52553 81.17504
#
# Poissons Ratio (x) = 0.22318 0.21189
# Poissons Ratio (y) = 0.36483 0.17271
# Poissons Ratio (z) = 0.23694 0.11814
#
# Static dielectric constant tensor:
#      x y z
#    x 4.116130 -0.039840 0.014570 
#    y -0.039840 4.220340 0.521520 
#    z 0.014570 0.521520 4.533320 
# 
# 
# High freq. dielectric constant tensor:
#      x y z
#    x 1.864910 0.004340 0.015810 
#    y 0.004340 1.866830 0.018180 
#    z 0.015810 0.018180 1.891780 
# 
# From -- ./inp_files/178764.got.cif
#   From: 2010.06.25/outbox.cif.g09.slc.cpg/sg2_90_cif.got.tgz:178764.got - 2010.06.27 13:26:56.
