data_PCOD8025918
_publ_section_title
;
Structure prediction by ZEFSAII (Michael W. Deem and Ramdas Pophale) SiO2 
 PCOD8025918
Probable space group: P -1
;
_chemical_formula_sum "Si O2"
_cell_formula_units_Z 12
_cell_length_a 8.584717
_cell_length_b 12.315080
_cell_length_c 8.880752
_cell_angle_alpha 79.393970
_cell_angle_beta 36.376145
_cell_angle_gamma 63.027180
_cell_volume 466.218077
_symmetry_space_group_name_H-M "P -1"
_symmetry_group_IT_number 2
_symmetry_cell_setting 'triclinic'
loop_
_space_group_symop_operation_xyz
x,y,z
-x,-y,-z
loop_
_atom_site_type_symbol
_atom_site_label
_atom_site_fract_x
_atom_site_fract_y
_atom_site_fract_z
Si Si1 0.222411 0.421157 0.712069
Si Si2 0.938411 0.053967 0.867009
Si Si3 0.759832 0.194789 0.518076
Si Si4 0.112008 0.690720 0.183410
Si Si5 0.261659 0.512662 0.368972
Si Si6 0.595298 0.856623 0.932786
O O1 0.556690 0.316255 0.538785
O O2 0.225191 0.529439 0.574446
O O3 0.119612 0.344393 0.702882
O O4 0.000000 0.500000 0.000000
O O5 0.057935 0.153083 0.728526
O O6 0.567742 0.140605 0.099411
O O7 0.105691 0.939913 0.643214
O O8 0.000000 0.000000 0.000000
O O9 0.542231 0.196344 0.820530
O O10 0.033272 0.219467 0.351757
O O11 0.236633 0.635728 0.270920
O O12 0.416504 0.621840 0.863134
O O13 0.000000 0.500000 0.500000
O O14 0.500000 0.000000 0.000000
#
# Coordination Sequence:
#
# PCOD8025918 Si02
#       6
#     2   2   2   2   2   2
#     4  11  26  47  73 109 147 203 257 314 374 459
#     4  11  24  46  80 113 149 196 250 323 374 460
#     4  11  26  51  75 110 156 200 252 309 392 455
#     4  10  23  46  73 109 147 192 255 313 389 442
#     4   9  21  46  70 102 148 187 253 310 373 450
#     4  10  24  50  71 108 156 199 246 302 386 461
#
# _framework density 25.739025999999999
#
# number of rings (size 3 to 8) (size 9 to 14) (size 15 to 20)
#    0.000    1.667    0.000    3.000    7.000    5.333 
#   30.000    0.000    0.000    0.000    0.000    0.000 
#    0.000    0.000    0.000    0.000    0.000    0.000 
#
# Total GULP energy -148670.119034 kJ/mol
# GULP energy per Si atom -12389.176586 kJ/mol
# Density = 2.568044 g / cm^3
# Si number density = 25.739026 Si / 1000 Ang^3
#
#
#
# Elastic Constant Matrix: (Units=GPa)
#
#
# Indices 1 2 3 4 5 6 
#
# 1 156.5977 64.0605 63.9391 -13.8707 -4.5384 -37.5212
# 2 64.0605 144.2762 46.5058 -14.7510 16.3541 -21.7507
# 3 63.9391 46.5058 138.1740 -21.1551 0.7378 -16.5276
# 4 -13.8707 -14.7510 -21.1551 46.8871 -8.0907 8.9628
# 5 -4.5384 16.3541 0.7378 -8.0907 54.4827 -6.0349
# 6 -37.5212 -21.7507 -16.5276 8.9628 -6.0349 48.9001
#
#
#
# Elastic Compliance Matrix: (Units=1/GPa)
#
#
# Indices 1 2 3 4 5 6 
#
# 1 0.010350 -0.002991 -0.003090 0.000030 0.002456 0.005864
# 2 -0.002991 0.009263 -0.001511 0.000702 -0.002812 0.000839
# 3 -0.003090 -0.001511 0.009610 0.003089 0.000491 -0.000300
# 4 0.000030 0.000702 0.003089 0.023977 0.003018 -0.002643
# 5 0.002456 -0.002812 0.000491 0.003018 0.020147 0.002733
# 6 0.005864 0.000839 -0.000300 -0.002643 0.002733 0.026043
#
#
# Mechanical properties :
#
#
# Convention : Reuss Voigt Hill
#
# Bulk Modulus (GPa) = 71.22535 87.56208 79.39371
# Shear Modulus (GPa) = 41.92769 47.69016 44.80892
#
# Velocity S-wave (km/s) = 4.04041 4.30913 4.17693
# Velocity P-wave (km/s) = 7.03553 7.67145 7.36036
#
# Compressibility (1/GPa) = 0.01403995
#
# Stress axis : x y z
#
# Youngs Moduli (GPa) = 96.62132 107.95522 104.05918
#
# Poissons Ratio (x) = 0.32286 0.32152
# Poissons Ratio (y) = 0.28896 0.15723
# Poissons Ratio (z) = 0.29854 0.16311
#
# Static dielectric constant tensor:
#      x y z
#    x 5.497650 -0.342470 -0.526180 
#    y -0.342470 5.035550 -0.371370 
#    z -0.526180 -0.371370 5.170960 
# 
# 
# High freq. dielectric constant tensor:
#      x y z
#    x 2.043640 -0.004870 -0.001300 
#    y -0.004870 2.046830 -0.003370 
#    z -0.001300 -0.003370 2.027800 
# 
# From -- ./inp_files/169082.got.cif
#   From: 2010.06.25/outbox.cif.g09.slc.cpg/sg2_85_cif.got.tgz:169082.got - 2010.06.27 13:26:56.
