data_PCOD8025152
_publ_section_title
;
Structure prediction by ZEFSAII (Michael W. Deem and Ramdas Pophale) SiO2 
 PCOD8025152
Probable space group: P -1
;
_chemical_formula_sum "Si O2"
_cell_formula_units_Z 16
_cell_length_a 22.548435
_cell_length_b 7.788581
_cell_length_c 5.338054
_cell_angle_alpha 118.464899
_cell_angle_beta 102.847669
_cell_angle_gamma 57.961588
_cell_volume 698.032071
_symmetry_space_group_name_H-M "P -1"
_symmetry_group_IT_number 2
_symmetry_cell_setting 'triclinic'
loop_
_space_group_symop_operation_xyz
x,y,z
-x,-y,-z
loop_
_atom_site_type_symbol
_atom_site_label
_atom_site_fract_x
_atom_site_fract_y
_atom_site_fract_z
Si Si1 0.478060 0.819037 0.298325
Si Si2 0.437725 0.628512 0.720801
Si Si3 0.337058 0.924091 0.489596
Si Si4 0.847377 0.020804 0.385755
Si Si5 0.852885 0.459124 0.676551
Si Si6 0.220376 0.406149 0.794000
Si Si7 0.226613 0.865790 0.108278
Si Si8 0.998269 0.628545 0.333537
O O1 0.548669 0.572732 0.215417
O O2 0.413972 0.876802 0.463692
O O3 0.500000 0.000000 0.500000
O O4 0.447801 0.825322 0.997941
O O5 0.500000 0.500000 0.500000
O O6 0.358002 0.745073 0.615653
O O7 0.302126 0.853534 0.180295
O O8 0.293719 0.178866 0.727899
O O9 0.829542 0.274651 0.536821
O O10 0.806013 0.996482 0.565868
O O11 0.820285 0.979298 0.062598
O O12 0.929083 0.867704 0.414053
O O13 0.812546 0.619718 0.516055
O O14 0.934766 0.338683 0.603361
O O15 0.830630 0.582279 0.014133
O O16 0.231472 0.622993 0.949522
O O17 0.000000 0.500000 0.500000
O O18 0.000000 0.500000 0.000000
#
# Coordination Sequence:
#
# PCOD8025152 Si02
#       8
#     2   2   2   2   2   2   2   2
#     4  10  23  44  69  99 135 174 223 277 333 405
#     4   9  22  43  64  97 130 171 218 270 333 394
#     4  11  25  39  70  95 130 179 214 278 338 400
#     4  10  23  45  65  90 131 182 218 283 337 398
#     4  10  23  45  63  92 134 176 226 277 333 410
#     4  10  24  41  66  99 134 176 226 281 336 403
#     4  10  24  42  66  98 135 173 230 276 340 406
#     4  12  25  38  65 100 127 174 227 283 341 393
#
# _framework density 22.921583999999999
#
# number of rings (size 3 to 8) (size 9 to 14) (size 15 to 20)
#    0.000    1.750    0.000    1.875    8.750    6.000 
#    2.250    5.000    0.000    0.000    0.000    0.000 
#    0.000    0.000    0.000    0.000    0.000    0.000 
#
# Total GULP energy -198233.977035 kJ/mol
# GULP energy per Si atom -12389.623565 kJ/mol
# Density = 2.286941 g / cm^3
# Si number density = 22.921584 Si / 1000 Ang^3
#
#
#
# Elastic Constant Matrix: (Units=GPa)
#
#
# Indices 1 2 3 4 5 6 
#
# 1 82.7073 40.8483 25.8045 -12.8816 8.8476 -5.4196
# 2 40.8483 152.5059 53.5165 -26.0732 -5.0224 -28.0686
# 3 25.8045 53.5165 146.7395 -27.3305 -7.9904 -0.9758
# 4 -12.8816 -26.0732 -27.3305 38.6356 -3.7001 -0.7681
# 5 8.8476 -5.0224 -7.9904 -3.7001 34.9178 -4.6696
# 6 -5.4196 -28.0686 -0.9758 -0.7681 -4.6696 32.5803
#
#
#
# Elastic Compliance Matrix: (Units=1/GPa)
#
#
# Indices 1 2 3 4 5 6 
#
# 1 0.014943 -0.003793 -0.001325 0.001003 -0.004726 -0.001476
# 2 -0.003793 0.011113 -0.002122 0.005299 0.003915 0.009566
# 3 -0.001325 -0.002122 0.008786 0.004539 0.002342 -0.001343
# 4 0.001003 0.005299 0.004539 0.033707 0.005990 0.006521
# 5 -0.004726 0.003915 0.002342 0.005990 0.032568 0.007466
# 6 -0.001476 0.009566 -0.001343 0.006521 0.007466 0.039873
#
#
# Mechanical properties :
#
#
# Convention : Reuss Voigt Hill
#
# Bulk Modulus (GPa) = 49.11267 69.14346 59.12807
# Shear Modulus (GPa) = 30.81525 38.67897 34.74711
#
# Velocity S-wave (km/s) = 3.67055 4.11231 3.89770
# Velocity P-wave (km/s) = 6.27988 7.26491 6.79028
#
# Compressibility (1/GPa) = 0.02036134
#
# Stress axis : x y z
#
# Youngs Moduli (GPa) = 66.92245 89.98221 113.82151
#
# Poissons Ratio (x) = 0.34133 0.15077
# Poissons Ratio (y) = 0.25385 0.24157
# Poissons Ratio (z) = 0.08864 0.19097
#
# Static dielectric constant tensor:
#      x y z
#    x 3.247410 0.656580 -0.203260 
#    y 0.656580 4.424320 -0.617290 
#    z -0.203260 -0.617290 4.622660 
# 
# 
# High freq. dielectric constant tensor:
#      x y z
#    x 1.891450 -0.002360 -0.003290 
#    y -0.002360 1.919300 -0.008270 
#    z -0.003290 -0.008270 1.921740 
# 
# From -- ./inp_files/117446.got.cif
#   From: 2010.06.25/outbox.cif.g09.slc.cpg/sg2_59_cif.got.tgz:117446.got - 2010.06.27 13:26:56.
