data_PCOD8025349
_publ_section_title
;
Structure prediction by ZEFSAII (Michael W. Deem and Ramdas Pophale) SiO2 
 PCOD8025349
Probable space group: P -1
;
_chemical_formula_sum "Si O2"
_cell_formula_units_Z 14
_cell_length_a 8.466634
_cell_length_b 13.694003
_cell_length_c 8.209478
_cell_angle_alpha 67.791340
_cell_angle_beta 94.553590
_cell_angle_gamma 138.540720
_cell_volume 550.221755
_symmetry_space_group_name_H-M "P -1"
_symmetry_group_IT_number 2
_symmetry_cell_setting 'triclinic'
loop_
_space_group_symop_operation_xyz
x,y,z
-x,-y,-z
loop_
_atom_site_type_symbol
_atom_site_label
_atom_site_fract_x
_atom_site_fract_y
_atom_site_fract_z
Si Si1 0.702192 0.359818 0.555428
Si Si2 0.563254 0.053392 0.787296
Si Si3 0.854937 0.848457 0.868254
Si Si4 0.950449 0.250191 0.192666
Si Si5 0.615747 0.444317 0.180067
Si Si6 0.048516 0.169766 0.745449
Si Si7 0.674319 0.542545 0.643316
O O1 0.557903 0.175783 0.683841
O O2 0.633200 0.366268 0.368417
O O3 0.597167 0.386552 0.668580
O O4 0.000000 0.500000 0.500000
O O5 0.833720 0.144906 0.716622
O O6 0.349544 0.884351 0.765080
O O7 0.500000 0.000000 0.000000
O O8 0.560214 0.693047 0.891601
O O9 0.012415 0.856092 0.756278
O O10 0.886985 0.824166 0.069349
O O11 0.969882 0.023678 0.737336
O O12 0.049721 0.332710 0.327834
O O13 0.106313 0.391402 0.974172
O O14 0.507511 0.500444 0.205271
O O15 0.294417 0.356015 0.568578
#
# Coordination Sequence:
#
# PCOD8025349 Si02
#       7
#     2   2   2   2   2   2   2
#     4  12  26  48  74 108 146 190 238 294 364 428
#     4  12  26  46  75 101 152 186 234 296 358 433
#     4  10  23  44  75 102 145 186 243 299 353 425
#     4  11  25  47  71 109 147 190 234 297 360 427
#     4  11  26  47  75 105 147 186 247 293 356 426
#     4  11  24  44  73 111 138 190 245 296 363 417
#     4  11  25  45  77 105 147 184 249 296 353 423
#
# _framework density 25.444285000000001
#
# number of rings (size 3 to 8) (size 9 to 14) (size 15 to 20)
#    0.000    0.857    2.857    3.857    4.000    6.286 
#    0.000    2.143    0.000    0.000    0.000    0.000 
#    0.000    0.000    0.000    0.000    0.000    0.000 
#
# Total GULP energy -173640.100210 kJ/mol
# GULP energy per Si atom -12402.864301 kJ/mol
# Density = 2.538637 g / cm^3
# Si number density = 25.444285 Si / 1000 Ang^3
#
#
#
# Elastic Constant Matrix: (Units=GPa)
#
#
# Indices 1 2 3 4 5 6 
#
# 1 95.9908 50.6973 36.6811 -7.4987 21.2542 2.2753
# 2 50.6973 143.6241 41.9720 -12.3429 21.5786 5.0921
# 3 36.6811 41.9720 103.8262 -12.8646 26.8923 -7.5295
# 4 -7.4987 -12.3429 -12.8646 50.5690 2.9381 5.6272
# 5 21.2542 21.5786 26.8923 2.9381 40.9673 -7.5373
# 6 2.2753 5.0921 -7.5295 5.6272 -7.5373 45.9678
#
#
#
# Elastic Compliance Matrix: (Units=1/GPa)
#
#
# Indices 1 2 3 4 5 6 
#
# 1 0.014304 -0.003530 -0.002501 0.001045 -0.004281 -0.001557
# 2 -0.003530 0.009289 -0.001844 0.001600 -0.002284 -0.001727
# 3 -0.002501 -0.001844 0.013379 0.002839 -0.006515 0.001104
# 4 0.001045 0.001600 0.002839 0.021726 -0.005416 -0.003312
# 5 -0.004281 -0.002284 -0.006515 -0.005416 0.033521 0.005557
# 6 -0.001557 -0.001727 0.001104 -0.003312 0.005557 0.023520
#
#
# Mechanical properties :
#
#
# Convention : Reuss Voigt Hill
#
# Bulk Modulus (GPa) = 47.11702 66.90466 57.01084
# Shear Modulus (GPa) = 36.08449 41.77352 38.92901
#
# Velocity S-wave (km/s) = 3.76995 4.05627 3.91573
# Velocity P-wave (km/s) = 6.12438 6.94906 6.54971
#
# Compressibility (1/GPa) = 0.02122375
#
# Stress axis : x y z
#
# Youngs Moduli (GPa) = 69.90889 107.65158 74.74147
#
# Poissons Ratio (x) = 0.38002 0.18693
# Poissons Ratio (y) = 0.24678 0.13779
# Poissons Ratio (z) = 0.17484 0.19846
#
# Static dielectric constant tensor:
#      x y z
#    x 5.612910 0.458300 -0.109450 
#    y 0.458300 5.416820 -0.081290 
#    z -0.109450 -0.081290 4.630630 
# 
# 
# High freq. dielectric constant tensor:
#      x y z
#    x 2.006820 0.016260 0.012330 
#    y 0.016260 2.047110 0.000790 
#    z 0.012330 0.000790 2.019280 
# 
# From -- ./inp_files/206009.got.cif
#   From: 2010.06.25/outbox.cif.g09.slc.cpg/sg2_104_cif.got.tgz:206009.got - 2010.06.27 13:26:56.
