data_PCOD8025964
_publ_section_title
;
Structure prediction by ZEFSAII (Michael W. Deem and Ramdas Pophale) SiO2 
 PCOD8025964
Probable space group: P -1
;
_chemical_formula_sum "Si O2"
_cell_formula_units_Z 12
_cell_length_a 9.588512
_cell_length_b 6.525780
_cell_length_c 11.832660
_cell_angle_alpha 82.481369
_cell_angle_beta 133.897893
_cell_angle_gamma 86.217979
_cell_volume 516.048046
_symmetry_space_group_name_H-M "P -1"
_symmetry_group_IT_number 2
_symmetry_cell_setting 'triclinic'
loop_
_space_group_symop_operation_xyz
x,y,z
-x,-y,-z
loop_
_atom_site_type_symbol
_atom_site_label
_atom_site_fract_x
_atom_site_fract_y
_atom_site_fract_z
Si Si1 0.309525 0.113976 0.951547
Si Si2 0.191049 0.331834 0.659564
Si Si3 0.824542 0.231326 0.937994
Si Si4 0.656230 0.008166 0.424330
Si Si5 0.501366 0.591259 0.811113
Si Si6 0.787863 0.954445 0.746924
O O1 0.144471 0.203041 0.754139
O O2 0.239835 0.950237 0.007554
O O3 0.371543 0.307668 0.036975
O O4 0.500000 0.000000 0.000000
O O5 0.365791 0.441233 0.796413
O O6 0.000000 0.500000 0.500000
O O7 0.275285 0.179837 0.612544
O O8 0.042067 0.251613 0.105278
O O9 0.666274 0.451441 0.832102
O O10 0.849747 0.156891 0.826531
O O11 0.665394 0.233450 0.359954
O O12 0.426284 0.046639 0.325172
O O13 0.793855 0.965516 0.614436
#
# Coordination Sequence:
#
# PCOD8025964 Si02
#       6
#     2   2   2   2   2   2
#     4  12  23  45  68  96 138 171 222 277 323 400
#     4  12  28  44  67 102 134 172 225 272 334 396
#     4  11  24  44  68 103 126 180 220 271 331 390
#     4  11  24  47  65 101 136 175 215 282 326 387
#     4  12  23  43  68  98 130 178 217 264 345 379
#     4  10  23  47  67  93 146 165 225 275 320 397
#
# _framework density 23.253651999999999
#
# number of rings (size 3 to 8) (size 9 to 14) (size 15 to 20)
#    0.000    0.667    6.667    0.500    4.667    2.000 
#    0.000    0.000    0.000    0.000    0.000    0.000 
#    0.000    0.000    0.000    0.000    0.000    0.000 
#
# Total GULP energy -148670.230564 kJ/mol
# GULP energy per Si atom -12389.185880 kJ/mol
# Density = 2.320073 g / cm^3
# Si number density = 23.253652 Si / 1000 Ang^3
#
#
#
# Elastic Constant Matrix: (Units=GPa)
#
#
# Indices 1 2 3 4 5 6 
#
# 1 52.8212 31.5870 14.3283 10.4585 -4.2236 -9.1368
# 2 31.5870 113.1607 32.9750 -5.4759 -4.4980 -15.5023
# 3 14.3283 32.9750 120.2222 4.8755 -14.2010 1.4197
# 4 10.4585 -5.4759 4.8755 38.9104 -10.7659 3.0163
# 5 -4.2236 -4.4980 -14.2010 -10.7659 44.4861 -3.8294
# 6 -9.1368 -15.5023 1.4197 3.0163 -3.8294 20.5872
#
#
#
# Elastic Compliance Matrix: (Units=1/GPa)
#
#
# Indices 1 2 3 4 5 6 
#
# 1 0.026032 -0.006205 -0.001140 -0.008316 0.000175 0.008210
# 2 -0.006205 0.012495 -0.002766 0.003605 0.001227 0.006546
# 3 -0.001140 -0.002766 0.009536 -0.000423 0.002317 -0.002753
# 4 -0.008316 0.003605 -0.000423 0.030618 0.006486 -0.004226
# 5 0.000175 0.001227 0.002317 0.006486 0.025325 0.004602
# 6 0.008210 0.006546 -0.002753 -0.004226 0.004602 0.058812
#
#
# Mechanical properties :
#
#
# Convention : Reuss Voigt Hill
#
# Bulk Modulus (GPa) = 35.91803 49.33163 42.62483
# Shear Modulus (GPa) = 25.99836 34.61767 30.30802
#
# Velocity S-wave (km/s) = 3.34733 3.86255 3.61413
# Velocity P-wave (km/s) = 5.51536 6.41506 5.98215
#
# Compressibility (1/GPa) = 0.02784117
#
# Stress axis : x y z
#
# Youngs Moduli (GPa) = 38.41394 80.03164 104.86769
#
# Poissons Ratio (x) = 0.49660 0.11952
# Poissons Ratio (y) = 0.23836 0.29009
# Poissons Ratio (z) = 0.04378 0.22138
#
# Static dielectric constant tensor:
#      x y z
#    x 3.620400 0.576870 0.610790 
#    y 0.576870 3.900930 -0.674520 
#    z 0.610790 -0.674520 3.975240 
# 
# 
# High freq. dielectric constant tensor:
#      x y z
#    x 1.918040 -0.015300 0.003210 
#    y -0.015300 1.916580 -0.003460 
#    z 0.003210 -0.003460 1.934860 
# 
# From -- ./inp_files/21774.got.cif
#   From: 2010.06.25/outbox.cif.g09.slc.cpg/sg2_11_cif.got.tgz:21774.got - 2010.06.27 13:26:56.
