data_PCOD8025090
_publ_section_title
;
Structure prediction by ZEFSAII (Michael W. Deem and Ramdas Pophale) SiO2 
 PCOD8025090
Probable space group: P -1
;
_chemical_formula_sum "Si O2"
_cell_formula_units_Z 16
_cell_length_a 9.644416
_cell_length_b 12.999127
_cell_length_c 11.425044
_cell_angle_alpha 95.496224
_cell_angle_beta 121.342504
_cell_angle_gamma 44.215363
_cell_volume 755.199974
_symmetry_space_group_name_H-M "P -1"
_symmetry_group_IT_number 2
_symmetry_cell_setting 'triclinic'
loop_
_space_group_symop_operation_xyz
x,y,z
-x,-y,-z
loop_
_atom_site_type_symbol
_atom_site_label
_atom_site_fract_x
_atom_site_fract_y
_atom_site_fract_z
Si Si1 0.042676 0.856205 0.997675
Si Si2 0.485869 0.980382 0.125658
Si Si3 0.749710 0.646511 0.246919
Si Si4 0.496209 0.500292 0.740622
Si Si5 0.691110 0.596306 0.453914
Si Si6 0.383472 0.710733 0.919609
Si Si7 0.251376 0.951544 0.702423
Si Si8 0.671836 0.250442 0.477054
O O1 0.143560 0.788577 0.901666
O O2 0.252272 0.700783 0.162801
O O3 0.777853 0.930899 0.923277
O O4 0.000000 0.000000 0.000000
O O5 0.710325 0.783073 0.207813
O O6 0.545788 0.056890 0.225575
O O7 0.500000 0.000000 0.000000
O O8 0.612300 0.705568 0.320135
O O9 0.061856 0.476895 0.378613
O O10 0.627323 0.623608 0.100249
O O11 0.259672 0.542998 0.597707
O O12 0.454468 0.578007 0.854573
O O13 0.519830 0.575312 0.657786
O O14 0.448833 0.714730 0.447630
O O15 0.303207 0.851068 0.824890
O O16 0.287782 0.875187 0.588723
O O17 0.965385 0.146610 0.613229
#
# Coordination Sequence:
#
# PCOD8025090 Si02
#       8
#     2   2   2   2   2   2   2   2
#     4  12  24  41  68 102 131 177 222 275 340 393
#     4  12  24  39  66 101 131 171 226 282 327 392
#     4  11  24  41  64  97 134 176 221 278 338 386
#     4  11  24  42  71  99 126 181 225 276 332 402
#     4  11  24  41  66  92 137 177 221 274 336 407
#     4  11  23  45  71  97 138 173 227 282 331 397
#     4  10  23  44  68  99 135 175 222 286 332 390
#     4  10  24  43  68  95 136 178 225 270 343 405
#
# _framework density 21.186440999999999
#
# number of rings (size 3 to 8) (size 9 to 14) (size 15 to 20)
#    0.000    1.000    3.750    1.500    7.000    1.000 
#    2.250    3.125    0.000    0.000    0.000    0.000 
#    0.000    0.000    0.000    0.000    0.000    0.000 
#
# Total GULP energy -198240.826183 kJ/mol
# GULP energy per Si atom -12390.051636 kJ/mol
# Density = 2.113822 g / cm^3
# Si number density = 21.186441 Si / 1000 Ang^3
#
#
#
# Elastic Constant Matrix: (Units=GPa)
#
#
# Indices 1 2 3 4 5 6 
#
# 1 152.7409 62.4218 56.0491 12.7156 6.8244 0.4823
# 2 62.4218 97.5807 58.0651 -3.1946 -0.6763 1.6731
# 3 56.0491 58.0651 116.0835 12.0956 2.1774 -5.9411
# 4 12.7156 -3.1946 12.0956 34.2642 6.6050 -6.7035
# 5 6.8244 -0.6763 2.1774 6.6050 38.6600 2.7520
# 6 0.4823 1.6731 -5.9411 -6.7035 2.7520 24.6242
#
#
#
# Elastic Compliance Matrix: (Units=1/GPa)
#
#
# Indices 1 2 3 4 5 6 
#
# 1 0.009667 -0.005274 -0.001701 -0.003491 -0.001030 -0.001077
# 2 -0.005274 0.018129 -0.007208 0.005774 0.000766 -0.001381
# 3 -0.001701 -0.007208 0.013628 -0.004328 -0.000042 0.002638
# 4 -0.003491 0.005774 -0.004328 0.035391 -0.005720 0.008906
# 5 -0.001030 0.000766 -0.000042 -0.005720 0.027373 -0.004658
# 6 -0.001077 -0.001381 0.002638 0.008906 -0.004658 0.044307
#
#
# Mechanical properties :
#
#
# Convention : Reuss Voigt Hill
#
# Bulk Modulus (GPa) = 76.59151 79.94188 78.26670
# Shear Modulus (GPa) = 27.59142 32.16763 29.87953
#
# Velocity S-wave (km/s) = 3.61268 3.90078 3.75949
# Velocity P-wave (km/s) = 7.32336 7.62251 7.47443
#
# Compressibility (1/GPa) = 0.01305628
#
# Stress axis : x y z
#
# Youngs Moduli (GPa) = 103.44575 55.15928 73.37703
#
# Poissons Ratio (x) = 0.29094 0.12483
# Poissons Ratio (y) = 0.54562 0.52893
# Poissons Ratio (z) = 0.17599 0.39761
#
# Static dielectric constant tensor:
#      x y z
#    x 3.903870 0.054200 -0.095970 
#    y 0.054200 3.765640 -0.038810 
#    z -0.095970 -0.038810 4.069510 
# 
# 
# High freq. dielectric constant tensor:
#      x y z
#    x 1.839500 0.013990 -0.013630 
#    y 0.013990 1.822220 0.002520 
#    z -0.013630 0.002520 1.843200 
# 
# From -- ./inp_files/392622.got.cif
#   From: 2010.06.25/outbox.cif.g09.slc.cpg/sg2_197_cif.got.tgz:392622.got - 2010.06.27 13:26:56.
