data_PCOD8025645
_publ_section_title
;
Structure prediction by ZEFSAII (Michael W. Deem and Ramdas Pophale) SiO2 
 PCOD8025645
Probable space group: P -1
;
_chemical_formula_sum "Si O2"
_cell_formula_units_Z 16
_cell_length_a 14.460446
_cell_length_b 22.152554
_cell_length_c 21.824363
_cell_angle_alpha 12.951989
_cell_angle_beta 29.879715
_cell_angle_gamma 28.696587
_cell_volume 747.543329
_symmetry_space_group_name_H-M "P -1"
_symmetry_group_IT_number 2
_symmetry_cell_setting 'triclinic'
loop_
_space_group_symop_operation_xyz
x,y,z
-x,-y,-z
loop_
_atom_site_type_symbol
_atom_site_label
_atom_site_fract_x
_atom_site_fract_y
_atom_site_fract_z
Si Si1 0.784531 0.192112 0.438110
Si Si2 0.254271 0.266046 0.006987
Si Si3 0.395560 0.672739 0.331480
Si Si4 0.775408 0.825680 0.343626
Si Si5 0.894684 0.447562 0.944559
Si Si6 0.666783 0.068948 0.496958
Si Si7 0.990172 0.753795 0.170760
Si Si8 0.853906 0.725109 0.142908
O O1 0.792199 0.506386 0.136602
O O2 0.674463 0.188148 0.442407
O O3 0.000000 0.000000 0.500000
O O4 0.686524 0.052046 0.686334
O O5 0.442549 0.310059 0.825485
O O6 0.074504 0.302005 0.029239
O O7 0.500000 0.500000 0.500000
O O8 0.262640 0.495668 0.554941
O O9 0.269565 0.994012 0.100491
O O10 0.551066 0.944246 0.373793
O O11 0.855654 0.545142 0.613795
O O12 0.809351 0.782360 0.293338
O O13 0.894490 0.027613 0.097751
O O14 0.967569 0.434030 0.846021
O O15 0.812309 0.765406 0.700194
O O16 0.729322 0.287132 0.200609
O O17 0.920125 0.813221 0.082679
#
# Coordination Sequence:
#
# PCOD8025645 Si02
#       8
#     2   2   2   2   2   2   2   2
#     4  12  23  40  60  92 131 176 218 258 319 389
#     4  12  24  39  60  91 135 174 215 272 314 374
#     4  12  26  41  65  98 135 176 223 264 319 387
#     4  10  23  45  71  95 130 160 216 280 342 380
#     4  12  24  42  64  92 139 176 216 261 325 383
#     4  12  25  41  67  98 129 176 220 265 328 394
#     4  10  23  47  70  96 126 168 210 284 337 385
#     4  12  26  45  68  98 131 179 223 266 328 393
#
# _framework density 21.403441999999998
#
# number of rings (size 3 to 8) (size 9 to 14) (size 15 to 20)
#    0.000    0.500    3.750    4.500    5.250    0.000 
#    0.000    3.750    0.000    0.000    0.000    0.000 
#    0.000    0.000    0.000    0.000    0.000    0.000 
#
# Total GULP energy -198411.581467 kJ/mol
# GULP energy per Si atom -12400.723842 kJ/mol
# Density = 2.135473 g / cm^3
# Si number density = 21.403442 Si / 1000 Ang^3
#
#
#
# Elastic Constant Matrix: (Units=GPa)
#
#
# Indices 1 2 3 4 5 6 
#
# 1 68.0441 34.5512 8.1074 7.7450 6.2982 12.5244
# 2 34.5512 102.7097 22.4483 15.8577 -0.3062 -0.5715
# 3 8.1074 22.4483 107.6572 7.0267 5.0725 -3.3565
# 4 7.7450 15.8577 7.0267 42.5109 3.1346 -2.6343
# 5 6.2982 -0.3062 5.0725 3.1346 27.2833 1.7822
# 6 12.5244 -0.5715 -3.3565 -2.6343 1.7822 27.2806
#
#
#
# Elastic Compliance Matrix: (Units=1/GPa)
#
#
# Indices 1 2 3 4 5 6 
#
# 1 0.020354 -0.006647 -0.000156 -0.001493 -0.003960 -0.009389
# 2 -0.006647 0.012940 -0.002008 -0.003289 0.002260 0.002610
# 3 -0.000156 -0.002008 0.009888 -0.000641 -0.001837 0.001304
# 4 -0.001493 -0.003289 -0.000641 0.025525 -0.002713 0.003180
# 5 -0.003960 0.002260 -0.001837 -0.002713 0.038319 -0.001126
# 6 -0.009389 0.002610 0.001304 0.003180 -0.001126 0.041562
#
#
# Mechanical properties :
#
#
# Convention : Reuss Voigt Hill
#
# Bulk Modulus (GPa) = 39.12070 45.40274 42.26172
# Shear Modulus (GPa) = 28.61553 33.63522 31.12537
#
# Velocity S-wave (km/s) = 3.66041 3.96850 3.81756
# Velocity P-wave (km/s) = 6.01517 6.50058 6.26258
#
# Compressibility (1/GPa) = 0.02556192
#
# Stress axis : x y z
#
# Youngs Moduli (GPa) = 49.12933 77.27947 101.13061
#
# Poissons Ratio (x) = 0.51365 0.01574
# Poissons Ratio (y) = 0.32655 0.20308
# Poissons Ratio (z) = 0.00765 0.15519
#
# Static dielectric constant tensor:
#      x y z
#    x 3.832540 0.076370 0.112100 
#    y 0.076370 4.021610 0.051880 
#    z 0.112100 0.051880 4.738670 
# 
# 
# High freq. dielectric constant tensor:
#      x y z
#    x 1.819740 0.008280 -0.005820 
#    y 0.008280 1.845330 0.007090 
#    z -0.005820 0.007090 1.867410 
# 
# From -- ./inp_files/534354.got.cif
#   From: 2010.06.25/outbox.cif.g09.slc.cpg/sg2_268_cif.got.tgz:534354.got - 2010.06.27 13:26:56.
