data_PCOD8025744
_publ_section_title
;
Structure prediction by ZEFSAII (Michael W. Deem and Ramdas Pophale) SiO2 
 PCOD8025744
Probable space group: P -1
;
_chemical_formula_sum "Si O2"
_cell_formula_units_Z 16
_cell_length_a 22.613611
_cell_length_b 9.220308
_cell_length_c 15.029163
_cell_angle_alpha 122.324599
_cell_angle_beta 161.095754
_cell_angle_gamma 47.675753
_cell_volume 678.745864
_symmetry_space_group_name_H-M "P -1"
_symmetry_group_IT_number 2
_symmetry_cell_setting 'triclinic'
loop_
_space_group_symop_operation_xyz
x,y,z
-x,-y,-z
loop_
_atom_site_type_symbol
_atom_site_label
_atom_site_fract_x
_atom_site_fract_y
_atom_site_fract_z
Si Si1 0.866357 0.353985 0.258120
Si Si2 0.215676 0.881987 0.174601
Si Si3 0.977865 0.918216 0.213073
Si Si4 0.374926 0.138473 0.236959
Si Si5 0.370953 0.071039 0.931281
Si Si6 0.302386 0.076018 0.510260
Si Si7 0.553842 0.352057 0.112184
Si Si8 0.142802 0.549545 0.923863
O O1 0.820092 0.466362 0.133929
O O2 0.665480 0.528206 0.095332
O O3 0.883706 0.137671 0.204336
O O4 0.108049 0.287952 0.619815
O O5 0.456131 0.826425 0.458136
O O6 0.169991 0.991332 0.244546
O O7 0.250921 0.657888 0.158630
O O8 0.012367 0.041144 0.865237
O O9 0.225242 0.715566 0.536111
O O10 0.799332 0.862950 0.949984
O O11 0.547484 0.914755 0.351020
O O12 0.244573 0.320224 0.034637
O O13 0.383710 0.866179 0.914334
O O14 0.516487 0.103341 0.217985
O O15 0.500000 0.000000 0.000000
O O16 0.128419 0.301092 0.386944
O O17 0.500000 0.500000 0.000000
#
# Coordination Sequence:
#
# PCOD8025744 Si02
#       8
#     2   2   2   2   2   2   2   2
#     4  10  25  43  67  93 133 171 209 266 324 382
#     4   9  22  43  66  90 135 168 211 268 324 378
#     4  10  23  46  63  95 133 171 213 261 326 383
#     4  10  24  37  69  94 129 167 216 263 320 378
#     4  11  24  44  67  96 134 167 215 264 323 380
#     4  10  24  38  67  95 132 166 214 265 327 373
#     4  11  28  42  68  96 130 172 217 264 316 385
#     4  11  21  42  64 100 128 163 216 267 323 384
#
# _framework density 23.572886
#
# number of rings (size 3 to 8) (size 9 to 14) (size 15 to 20)
#    0.750    1.000    1.250    1.125    7.000    1.500 
#    4.500    0.625    0.000    0.000    0.000    0.000 
#    0.000    0.000    0.000    0.000    0.000    0.000 
#
# Total GULP energy -198213.435045 kJ/mol
# GULP energy per Si atom -12388.339690 kJ/mol
# Density = 2.351923 g / cm^3
# Si number density = 23.572886 Si / 1000 Ang^3
#
#
#
# Elastic Constant Matrix: (Units=GPa)
#
#
# Indices 1 2 3 4 5 6 
#
# 1 109.6308 21.1050 25.4535 -12.9862 -9.6810 -7.1927
# 2 21.1050 61.9389 13.3986 -10.7307 -5.7170 6.4843
# 3 25.4535 13.3986 110.8820 -17.5222 -12.3897 -2.4971
# 4 -12.9862 -10.7307 -17.5222 33.7962 -1.6534 -1.7264
# 5 -9.6810 -5.7170 -12.3897 -1.6534 47.1529 -4.5643
# 6 -7.1927 6.4843 -2.4971 -1.7264 -4.5643 36.0015
#
#
#
# Elastic Compliance Matrix: (Units=1/GPa)
#
#
# Indices 1 2 3 4 5 6 
#
# 1 0.010699 -0.003019 -0.001397 0.002669 0.001842 0.002946
# 2 -0.003019 0.018572 -0.000839 0.004174 0.001204 -0.003654
# 3 -0.001397 -0.000839 0.010530 0.004846 0.002662 0.001172
# 4 0.002669 0.004174 0.004846 0.034752 0.003765 0.002261
# 5 0.001842 0.001204 0.002662 0.003765 0.022894 0.003419
# 6 0.002946 -0.003654 0.001172 0.002261 0.003419 0.029646
#
#
# Mechanical properties :
#
#
# Convention : Reuss Voigt Hill
#
# Bulk Modulus (GPa) = 34.14163 44.70733 39.42448
# Shear Modulus (GPa) = 33.92825 38.22309 36.07567
#
# Velocity S-wave (km/s) = 3.79791 4.03114 3.91626
# Velocity P-wave (km/s) = 5.80922 6.37758 6.10002
#
# Compressibility (1/GPa) = 0.02928976
#
# Stress axis : x y z
#
# Youngs Moduli (GPa) = 93.46412 53.84431 94.96279
#
# Poissons Ratio (x) = 0.16258 0.13269
# Poissons Ratio (y) = 0.28221 0.07970
# Poissons Ratio (z) = 0.13060 0.04519
#
# Static dielectric constant tensor:
#      x y z
#    x 3.798590 0.484280 0.057390 
#    y 0.484280 3.619860 -0.296030 
#    z 0.057390 -0.296030 4.502960 
# 
# 
# High freq. dielectric constant tensor:
#      x y z
#    x 1.929630 -0.004320 -0.007550 
#    y -0.004320 1.918390 0.000410 
#    z -0.007550 0.000410 1.956160 
# 
# From -- ./inp_files/540526.got.cif
#   From: 2010.06.25/outbox.cif.g09.slc.cpg/sg2_271_cif.got.tgz:540526.got - 2010.06.27 13:26:56.
