data_PCOD8025460
_publ_section_title
;
Structure prediction by ZEFSAII (Michael W. Deem and Ramdas Pophale) SiO2 
 PCOD8025460
Probable space group: P -1
;
_chemical_formula_sum "Si O2"
_cell_formula_units_Z 16
_cell_length_a 9.638269
_cell_length_b 15.933197
_cell_length_c 14.816901
_cell_angle_alpha 152.882420
_cell_angle_beta 99.269545
_cell_angle_gamma 98.610334
_cell_volume 776.577184
_symmetry_space_group_name_H-M "P -1"
_symmetry_group_IT_number 2
_symmetry_cell_setting 'triclinic'
loop_
_space_group_symop_operation_xyz
x,y,z
-x,-y,-z
loop_
_atom_site_type_symbol
_atom_site_label
_atom_site_fract_x
_atom_site_fract_y
_atom_site_fract_z
Si Si1 0.302481 0.215518 0.966904
Si Si2 0.025710 0.742692 0.221806
Si Si3 0.214871 0.665983 0.674480
Si Si4 0.326403 0.019700 0.181721
Si Si5 0.308973 0.284678 0.827180
Si Si6 0.395770 0.454813 0.536236
Si Si7 0.991772 0.741305 0.008969
Si Si8 0.284709 0.785901 0.591262
O O1 0.474327 0.380167 0.209223
O O2 0.127619 0.179804 0.954999
O O3 0.355912 0.334125 0.986224
O O4 0.254727 0.960423 0.713338
O O5 0.843902 0.691210 0.193573
O O6 0.216018 0.001387 0.527805
O O7 0.038634 0.793980 0.167739
O O8 0.000000 0.500000 0.000000
O O9 0.249747 0.484049 0.524130
O O10 0.290450 0.795781 0.710050
O O11 0.000000 0.500000 0.500000
O O12 0.313313 0.863348 0.950868
O O13 0.282021 0.179800 0.289386
O O14 0.533837 0.165769 0.381171
O O15 0.186760 0.881529 0.115946
O O16 0.500000 0.500000 0.000000
O O17 0.500000 0.500000 0.500000
O O18 0.886956 0.468749 0.709595
#
# Coordination Sequence:
#
# PCOD8025460 Si02
#       8
#     2   2   2   2   2   2   2   2
#     4  11  24  43  67  95 131 173 214 272 323 387
#     4  10  23  45  67  99 136 168 218 280 331 398
#     4  12  25  43  61  95 131 173 220 269 319 385
#     4  12  25  40  65  92 127 171 216 265 322 386
#     4  10  24  44  69 100 134 174 221 271 338 398
#     4  12  24  43  66  93 132 175 216 268 325 377
#     4  11  25  41  66  99 125 170 220 266 327 392
#     4  12  23  44  63  92 134 167 220 269 321 385
#
# _framework density 20.603232999999999
#
# number of rings (size 3 to 8) (size 9 to 14) (size 15 to 20)
#    0.000    0.750    5.000    1.875    3.500    2.000 
#    0.000    0.000    0.000    0.000    0.000    0.000 
#    0.000    0.000    0.000    0.000    0.000    0.000 
#
# Total GULP energy -198341.458416 kJ/mol
# GULP energy per Si atom -12396.341151 kJ/mol
# Density = 2.055634 g / cm^3
# Si number density = 20.603233 Si / 1000 Ang^3
#
#
#
# Elastic Constant Matrix: (Units=GPa)
#
#
# Indices 1 2 3 4 5 6 
#
# 1 133.7908 45.6604 41.4162 24.5930 5.9419 -0.2051
# 2 45.6604 92.6031 38.5449 7.1705 11.1355 0.8094
# 3 41.4162 38.5449 156.4505 0.0487 9.4821 4.3615
# 4 24.5930 7.1705 0.0487 45.3878 -2.8720 -6.2310
# 5 5.9419 11.1355 9.4821 -2.8720 44.0713 10.2110
# 6 -0.2051 0.8094 4.3615 -6.2310 10.2110 44.5141
#
#
#
# Elastic Compliance Matrix: (Units=1/GPa)
#
#
# Indices 1 2 3 4 5 6 
#
# 1 0.010282 -0.003928 -0.001727 -0.005014 -0.000267 -0.000353
# 2 -0.003928 0.014007 -0.002265 -0.000177 -0.002657 0.000534
# 3 -0.001727 -0.002265 0.007456 0.001193 -0.000632 -0.000385
# 4 -0.005014 -0.000177 0.001193 0.025288 0.001398 0.003082
# 5 -0.000267 -0.002657 -0.000632 0.001398 0.024877 -0.005402
# 6 -0.000353 0.000534 -0.000385 0.003082 -0.005402 0.024162
#
#
# Mechanical properties :
#
#
# Convention : Reuss Voigt Hill
#
# Bulk Modulus (GPa) = 62.86895 70.45413 66.66154
# Shear Modulus (GPa) = 39.30461 43.94285 41.62373
#
# Velocity S-wave (km/s) = 4.37245 4.62325 4.49960
# Velocity P-wave (km/s) = 7.48809 7.92270 7.70846
#
# Compressibility (1/GPa) = 0.01590610
#
# Stress axis : x y z
#
# Youngs Moduli (GPa) = 97.25341 71.39400 134.12788
#
# Poissons Ratio (x) = 0.28042 0.23160
# Poissons Ratio (y) = 0.38199 0.30378
# Poissons Ratio (z) = 0.16793 0.16170
#
# Static dielectric constant tensor:
#      x y z
#    x 4.131980 -0.065920 -0.149020 
#    y -0.065920 3.764830 0.024120 
#    z -0.149020 0.024120 3.731960 
# 
# 
# High freq. dielectric constant tensor:
#      x y z
#    x 1.817780 -0.001790 -0.009100 
#    y -0.001790 1.805920 -0.003670 
#    z -0.009100 -0.003670 1.818150 
# 
# From -- ./inp_files/315297.got.cif
#   From: 2010.06.25/outbox.cif.g09.slc.cpg/sg2_158_cif.got.tgz:315297.got - 2010.06.27 13:26:56.
