data_PCOD8025011
_publ_section_title
;
Structure prediction by ZEFSAII (Michael W. Deem and Ramdas Pophale) SiO2 
 PCOD8025011
Probable space group: P -1
;
_chemical_formula_sum "Si O2"
_cell_formula_units_Z 16
_cell_length_a 8.682850
_cell_length_b 15.072477
_cell_length_c 11.155669
_cell_angle_alpha 38.522804
_cell_angle_beta 124.244892
_cell_angle_gamma 108.035452
_cell_volume 727.061637
_symmetry_space_group_name_H-M "P -1"
_symmetry_group_IT_number 2
_symmetry_cell_setting 'triclinic'
loop_
_space_group_symop_operation_xyz
x,y,z
-x,-y,-z
loop_
_atom_site_type_symbol
_atom_site_label
_atom_site_fract_x
_atom_site_fract_y
_atom_site_fract_z
Si Si1 0.271345 0.381190 0.894327
Si Si2 0.344225 0.690383 0.536959
Si Si3 0.286652 0.097164 0.820863
Si Si4 0.971646 0.657712 0.949539
Si Si5 0.590922 0.137631 0.383938
Si Si6 0.262456 0.359760 0.365137
Si Si7 0.923828 0.809784 0.128720
Si Si8 0.021328 0.050359 0.239330
O O1 0.315836 0.536162 0.732065
O O2 0.130621 0.341935 0.772535
O O3 0.177547 0.385375 0.979352
O O4 0.470834 0.253772 0.113425
O O5 0.406684 0.781217 0.574667
O O6 0.513332 0.662207 0.543321
O O7 0.144429 0.779947 0.297429
O O8 0.253933 0.262013 0.581814
O O9 0.220689 0.108096 0.918499
O O10 0.164557 0.010344 0.781961
O O11 0.500000 0.000000 0.000000
O O12 0.865368 0.686909 0.745154
O O13 0.030791 0.804579 0.856601
O O14 0.169794 0.530844 0.171672
O O15 0.500000 0.000000 0.500000
O O16 0.807121 0.076526 0.492928
O O17 0.898391 0.917693 0.889806
#
# Coordination Sequence:
#
# PCOD8025011 Si02
#       8
#     2   2   2   2   2   2   2   2
#     4  11  24  43  72 101 130 174 235 279 330 395
#     4  12  24  42  71  99 132 181 225 277 336 397
#     4  12  27  42  66  98 139 181 218 274 342 411
#     4  10  23  44  67  96 134 174 220 283 336 397
#     4  12  22  40  71 104 131 164 230 287 326 389
#     4  11  25  42  65  97 141 174 221 274 342 403
#     4  11  24  45  70  98 135 174 234 277 331 400
#     4  11  24  44  72  97 130 182 228 280 332 394
#
# _framework density 22.006387
#
# number of rings (size 3 to 8) (size 9 to 14) (size 15 to 20)
#    0.000    0.750    5.000    2.625    1.750    4.500 
#    0.000    3.750    0.000    0.000    0.000    0.000 
#    0.000    0.000    0.000    0.000    0.000    0.000 
#
# Total GULP energy -198449.335736 kJ/mol
# GULP energy per Si atom -12403.083484 kJ/mol
# Density = 2.195630 g / cm^3
# Si number density = 22.006387 Si / 1000 Ang^3
#
#
#
# Elastic Constant Matrix: (Units=GPa)
#
#
# Indices 1 2 3 4 5 6 
#
# 1 78.2301 29.1984 29.9946 -3.3987 35.1813 1.5313
# 2 29.1984 107.4847 16.8875 -7.7772 16.5438 6.8713
# 3 29.9946 16.8875 64.6523 2.0148 27.3688 -5.8398
# 4 -3.3987 -7.7772 2.0148 31.5971 1.7969 2.7635
# 5 35.1813 16.5438 27.3688 1.7969 39.7204 -0.8041
# 6 1.5313 6.8713 -5.8398 2.7635 -0.8041 34.9989
#
#
#
# Elastic Compliance Matrix: (Units=1/GPa)
#
#
# Indices 1 2 3 4 5 6 
#
# 1 0.022843 -0.002780 -0.002768 0.003071 -0.017337 -0.001556
# 2 -0.002780 0.010821 -0.001278 0.002737 -0.001338 -0.002463
# 3 -0.002768 -0.001278 0.022832 -0.001705 -0.012589 0.004027
# 4 0.003071 0.002737 -0.001705 0.033326 -0.004268 -0.003686
# 5 -0.017337 -0.001338 -0.012589 -0.004268 0.049964 0.000406
# 6 -0.001556 -0.002463 0.004027 -0.003686 0.000406 0.030096
#
#
# Mechanical properties :
#
#
# Convention : Reuss Voigt Hill
#
# Bulk Modulus (GPa) = 23.34173 44.72534 34.03354
# Shear Modulus (GPa) = 25.27597 32.88239 29.07918
#
# Velocity S-wave (km/s) = 3.39274 3.86971 3.63905
# Velocity P-wave (km/s) = 5.09680 6.35091 5.75810
#
# Compressibility (1/GPa) = 0.04284172
#
# Stress axis : x y z
#
# Youngs Moduli (GPa) = 43.77797 92.41202 43.79903
#
# Poissons Ratio (x) = 0.25691 0.12125
# Poissons Ratio (y) = 0.12170 0.05599
# Poissons Ratio (z) = 0.12120 0.11813
#
# Static dielectric constant tensor:
#      x y z
#    x 4.041380 0.237610 0.425460 
#    y 0.237610 4.363320 0.332030 
#    z 0.425460 0.332030 4.708660 
# 
# 
# High freq. dielectric constant tensor:
#      x y z
#    x 1.856550 0.008540 0.014200 
#    y 0.008540 1.879100 -0.004960 
#    z 0.014200 -0.004960 1.878310 
# 
# From -- ./inp_files/208416.got.cif
#   From: 2010.06.25/outbox.cif.g09.slc.cpg/sg2_105_cif.got.tgz:208416.got - 2010.06.27 13:26:56.
