data_PCOD8025851
_publ_section_title
;
Structure prediction by ZEFSAII (Michael W. Deem and Ramdas Pophale) SiO2 
 PCOD8025851
Probable space group: P -1
;
_chemical_formula_sum "Si O2"
_cell_formula_units_Z 14
_cell_length_a 10.001743
_cell_length_b 17.094088
_cell_length_c 5.107578
_cell_angle_alpha 63.733169
_cell_angle_beta 102.463428
_cell_angle_gamma 135.254953
_cell_volume 544.497052
_symmetry_space_group_name_H-M "P -1"
_symmetry_group_IT_number 2
_symmetry_cell_setting 'triclinic'
loop_
_space_group_symop_operation_xyz
x,y,z
-x,-y,-z
loop_
_atom_site_type_symbol
_atom_site_label
_atom_site_fract_x
_atom_site_fract_y
_atom_site_fract_z
Si Si1 0.045012 0.464905 0.320455
Si Si2 0.660074 0.930846 0.645981
Si Si3 0.616628 0.472119 0.844480
Si Si4 0.310985 0.798238 0.386546
Si Si5 0.249978 0.298617 0.631520
Si Si6 0.171926 0.912743 0.008675
Si Si7 0.529803 0.729512 0.559926
O O1 0.266898 0.533151 0.314329
O O2 0.000000 0.500000 0.500000
O O3 0.907180 0.319372 0.450336
O O4 0.000000 0.500000 0.000000
O O5 0.725393 0.976701 0.901722
O O6 0.449263 0.879969 0.574220
O O7 0.638814 0.817445 0.736511
O O8 0.818134 0.040182 0.343923
O O9 0.399187 0.392469 0.781914
O O10 0.730458 0.615500 0.709646
O O11 0.609119 0.413123 0.198782
O O12 0.295234 0.878570 0.089071
O O13 0.404154 0.753969 0.343722
O O14 0.308814 0.232152 0.629062
O O15 0.043687 0.199954 0.822951
#
# Coordination Sequence:
#
# PCOD8025851 Si02
#       7
#     2   2   2   2   2   2   2
#     4  12  24  43  74 108 141 182 237 291 354 420
#     4  10  27  44  77 100 148 177 245 291 350 413
#     4  11  24  47  68 106 142 189 232 294 354 428
#     4  10  23  46  70 108 136 189 232 298 348 418
#     4  11  26  44  72 101 146 186 236 289 357 424
#     4  12  25  49  71 109 136 194 234 291 352 421
#     4  10  24  44  73  98 141 186 228 297 349 411
#
# _framework density 25.711804999999998
#
# number of rings (size 3 to 8) (size 9 to 14) (size 15 to 20)
#    0.857    0.286    2.857    2.143    4.000    3.429 
#    2.571    0.000    0.000    0.000    0.000    0.000 
#    0.000    0.000    0.000    0.000    0.000    0.000 
#
# Total GULP energy -173442.422935 kJ/mol
# GULP energy per Si atom -12388.744495 kJ/mol
# Density = 2.565328 g / cm^3
# Si number density = 25.711805 Si / 1000 Ang^3
#
#
#
# Elastic Constant Matrix: (Units=GPa)
#
#
# Indices 1 2 3 4 5 6 
#
# 1 133.4182 15.5802 19.9010 -5.3280 -8.0366 0.0702
# 2 15.5802 62.3197 12.3805 -22.0847 -12.9603 21.4506
# 3 19.9010 12.3805 70.5308 -8.9341 -8.8389 -6.2600
# 4 -5.3280 -22.0847 -8.9341 39.8581 0.5006 -7.0711
# 5 -8.0366 -12.9603 -8.8389 0.5006 22.7477 -6.3635
# 6 0.0702 21.4506 -6.2600 -7.0711 -6.3635 43.3293
#
#
#
# Elastic Compliance Matrix: (Units=1/GPa)
#
#
# Indices 1 2 3 4 5 6 
#
# 1 0.008030 -0.001668 -0.001745 -0.000127 0.001421 0.000749
# 2 -0.001668 0.026993 -0.002248 0.012304 0.010824 -0.010088
# 3 -0.001745 -0.002248 0.016616 0.003036 0.005855 0.004872
# 4 -0.000127 0.012304 0.003036 0.032615 0.007649 0.000794
# 5 0.001421 0.010824 0.005855 0.007649 0.054043 0.004670
# 6 0.000749 -0.010088 0.004872 0.000794 0.004670 0.029591
#
#
# Mechanical properties :
#
#
# Convention : Reuss Voigt Hill
#
# Bulk Modulus (GPa) = 24.80271 40.22134 32.51202
# Shear Modulus (GPa) = 25.95392 35.74749 30.85070
#
# Velocity S-wave (km/s) = 3.18058 3.73274 3.46767
# Velocity P-wave (km/s) = 4.81201 5.85277 5.35772
#
# Compressibility (1/GPa) = 0.04031818
#
# Stress axis : x y z
#
# Youngs Moduli (GPa) = 124.52678 37.04600 60.18365
#
# Poissons Ratio (x) = 0.06180 0.10499
# Poissons Ratio (y) = 0.20774 0.13529
# Poissons Ratio (z) = 0.21725 0.08328
#
# Static dielectric constant tensor:
#      x y z
#    x 4.695920 0.085190 0.217190 
#    y 0.085190 4.659910 -0.509370 
#    z 0.217190 -0.509370 4.346640 
# 
# 
# High freq. dielectric constant tensor:
#      x y z
#    x 2.033250 -0.001350 0.003410 
#    y -0.001350 2.017920 -0.030890 
#    z 0.003410 -0.030890 2.018300 
# 
# From -- ./inp_files/46710.got.cif
#   From: 2010.06.25/outbox.cif.g09.slc.cpg/sg2_24_cif.got.tgz:46710.got - 2010.06.27 13:26:56.
