data_PCOD8025479
_publ_section_title
;
Structure prediction by ZEFSAII (Michael W. Deem and Ramdas Pophale) SiO2 
 PCOD8025479
Probable space group: P -1
;
_chemical_formula_sum "Si O2"
_cell_formula_units_Z 14
_cell_length_a 9.273467
_cell_length_b 19.604049
_cell_length_c 13.812409
_cell_angle_alpha 25.286107
_cell_angle_beta 35.966802
_cell_angle_gamma 42.975037
_cell_volume 629.938613
_symmetry_space_group_name_H-M "P -1"
_symmetry_group_IT_number 2
_symmetry_cell_setting 'triclinic'
loop_
_space_group_symop_operation_xyz
x,y,z
-x,-y,-z
loop_
_atom_site_type_symbol
_atom_site_label
_atom_site_fract_x
_atom_site_fract_y
_atom_site_fract_z
Si Si1 0.523724 0.849629 0.752216
Si Si2 0.556812 0.725771 0.479649
Si Si3 0.165304 0.457819 0.057469
Si Si4 0.720592 0.961543 0.707289
Si Si5 0.523336 0.826710 0.165879
Si Si6 0.242881 0.592030 0.515775
Si Si7 0.923714 0.341226 0.689754
O O1 0.730647 0.723268 0.767355
O O2 0.500000 0.000000 0.500000
O O3 0.602912 0.908113 0.739837
O O4 0.254997 0.767947 0.007611
O O5 0.409688 0.881733 0.384924
O O6 0.616884 0.712942 0.347758
O O7 0.818328 0.743165 0.368487
O O8 0.403001 0.570555 0.792503
O O9 0.995545 0.493051 0.198626
O O10 0.000000 0.500000 0.000000
O O11 0.000000 0.000000 0.500000
O O12 0.699370 0.825858 0.976679
O O13 0.265772 0.755910 0.356380
O O14 0.500000 0.000000 0.000000
O O15 0.500000 0.500000 0.500000
O O16 0.213697 0.624242 0.378361
O O17 0.000000 0.500000 0.500000
#
# Coordination Sequence:
#
# PCOD8025479 Si02
#       7
#     2   2   2   2   2   2   2
#     4  12  29  48  75 112 154 198 246 319 382 437
#     4  11  25  45  75 105 148 197 247 314 374 445
#     4  12  25  48  77 109 146 194 260 307 371 458
#     4  11  26  45  72 109 148 195 252 308 376 451
#     4  10  23  45  68 106 141 190 245 299 375 436
#     4  12  26  45  79 105 141 199 251 306 374 451
#     4  12  26  50  72 108 155 195 255 307 380 452
#
# _framework density 22.224385999999999
#
# number of rings (size 3 to 8) (size 9 to 14) (size 15 to 20)
#    0.000    0.571    4.286    2.571    8.000    3.429 
#    0.000    0.000    0.000    0.000    0.000    0.000 
#    0.000    0.000    0.000    0.000    0.000    0.000 
#
# Total GULP energy -173514.180560 kJ/mol
# GULP energy per Si atom -12393.870040 kJ/mol
# Density = 2.217380 g / cm^3
# Si number density = 22.224386 Si / 1000 Ang^3
#
#
#
# Elastic Constant Matrix: (Units=GPa)
#
#
# Indices 1 2 3 4 5 6 
#
# 1 133.9126 55.7011 66.4242 4.0122 -6.9436 -4.6754
# 2 55.7011 114.9796 56.1569 4.0472 7.7680 -16.9258
# 3 66.4242 56.1569 173.2658 19.3153 -0.3461 -7.1963
# 4 4.0122 4.0472 19.3153 37.9313 2.7598 -8.2490
# 5 -6.9436 7.7680 -0.3461 2.7598 42.9297 3.1451
# 6 -4.6754 -16.9258 -7.1963 -8.2490 3.1451 48.2382
#
#
#
# Elastic Compliance Matrix: (Units=1/GPa)
#
#
# Indices 1 2 3 4 5 6 
#
# 1 0.010664 -0.004099 -0.002834 0.000370 0.002488 -0.000927
# 2 -0.004099 0.012720 -0.002555 0.001530 -0.003389 0.004167
# 3 -0.002834 -0.002555 0.008074 -0.003700 0.000352 -0.000623
# 4 0.000370 0.001530 -0.003700 0.029360 -0.002516 0.005206
# 5 0.002488 -0.003389 0.000352 -0.002516 0.024689 -0.002935
# 6 -0.000927 0.004167 -0.000623 0.005206 -0.002935 0.023092
#
#
# Mechanical properties :
#
#
# Convention : Reuss Voigt Hill
#
# Bulk Modulus (GPa) = 80.13289 86.52473 83.32881
# Shear Modulus (GPa) = 37.95464 42.07822 40.01643
#
# Velocity S-wave (km/s) = 4.13703 4.35597 4.24791
# Velocity P-wave (km/s) = 7.67819 8.01973 7.85082
#
# Compressibility (1/GPa) = 0.01247927
#
# Stress axis : x y z
#
# Youngs Moduli (GPa) = 93.77169 78.61859 123.86052
#
# Poissons Ratio (x) = 0.32228 0.35108
# Poissons Ratio (y) = 0.38440 0.31650
# Poissons Ratio (z) = 0.26579 0.20089
#
# Static dielectric constant tensor:
#      x y z
#    x 4.655000 -0.128000 -0.028090 
#    y -0.128000 4.440110 0.131840 
#    z -0.028090 0.131840 4.613680 
# 
# 
# High freq. dielectric constant tensor:
#      x y z
#    x 1.878530 0.006030 -0.005030 
#    y 0.006030 1.879910 0.002590 
#    z -0.005030 0.002590 1.897120 
# 
# From -- ./inp_files/271424.got.cif
#   From: 2010.06.25/outbox.cif.g09.slc.cpg/sg2_136_cif.got.tgz:271424.got - 2010.06.27 13:26:56.
