data_PCOD8025892
_publ_section_title
;
Structure prediction by ZEFSAII (Michael W. Deem and Ramdas Pophale) SiO2 
 PCOD8025892
Probable space group: P -1
;
_chemical_formula_sum "Si O2"
_cell_formula_units_Z 16
_cell_length_a 8.279270
_cell_length_b 12.474839
_cell_length_c 16.274464
_cell_angle_alpha 28.666569
_cell_angle_beta 106.435396
_cell_angle_gamma 95.990255
_cell_volume 734.591139
_symmetry_space_group_name_H-M "P -1"
_symmetry_group_IT_number 2
_symmetry_cell_setting 'triclinic'
loop_
_space_group_symop_operation_xyz
x,y,z
-x,-y,-z
loop_
_atom_site_type_symbol
_atom_site_label
_atom_site_fract_x
_atom_site_fract_y
_atom_site_fract_z
Si Si1 0.651258 0.792597 0.203000
Si Si2 0.435967 0.022390 0.762862
Si Si3 0.973878 0.242765 0.786224
Si Si4 0.312831 0.209979 0.338147
Si Si5 0.843607 0.688116 0.581940
Si Si6 0.812578 0.173400 0.472508
Si Si7 0.496992 0.500166 0.902259
Si Si8 0.710096 0.281296 0.573122
O O1 0.676103 0.874471 0.242190
O O2 0.594688 0.555936 0.361931
O O3 0.833976 0.731620 0.220435
O O4 0.500000 0.000000 0.000000
O O5 0.291299 0.079775 0.632769
O O6 0.592241 0.133015 0.693046
O O7 0.513853 0.744398 0.969934
O O8 0.867827 0.455616 0.687081
O O9 0.872805 0.253048 0.678405
O O10 0.000000 0.000000 0.000000
O O11 0.254834 0.334303 0.333586
O O12 0.325317 0.432595 0.137724
O O13 0.500000 0.000000 0.500000
O O14 0.161139 0.102722 0.355732
O O15 0.022180 0.747636 0.582993
O O16 0.661360 0.315286 0.292796
O O17 0.777409 0.199149 0.547182
O O18 0.500000 0.500000 0.000000
#
# Coordination Sequence:
#
# PCOD8025892 Si02
#       8
#     2   2   2   2   2   2   2   2
#     4  12  25  43  67 101 137 188 242 287 351 417
#     4  12  25  40  70 101 141 188 235 292 350 420
#     4  12  28  46  70 104 150 191 237 295 351 425
#     4  10  23  46  72 100 134 181 232 291 350 421
#     4  12  25  46  70 103 144 187 234 290 361 418
#     4  11  23  45  75  99 141 186 232 298 359 415
#     4  11  24  46  70 104 138 182 242 294 356 427
#     4  12  24  47  70 104 146 190 239 287 356 420
#
# _framework density 21.780823000000002
#
# number of rings (size 3 to 8) (size 9 to 14) (size 15 to 20)
#    0.000    0.500    2.500    7.125    5.250    0.000 
#    0.000    1.250    0.000    0.000    0.000    0.000 
#    0.000    0.000    0.000    0.000    0.000    0.000 
#
# Total GULP energy -198311.761202 kJ/mol
# GULP energy per Si atom -12394.485075 kJ/mol
# Density = 2.173125 g / cm^3
# Si number density = 21.780823 Si / 1000 Ang^3
#
#
#
# Elastic Constant Matrix: (Units=GPa)
#
#
# Indices 1 2 3 4 5 6 
#
# 1 89.1568 51.6778 56.2115 -4.8744 -15.0712 -14.0668
# 2 51.6778 141.7594 52.0252 7.8189 -14.7945 -13.3274
# 3 56.2115 52.0252 124.4605 -1.8540 -23.5587 15.2694
# 4 -4.8744 7.8189 -1.8540 45.5234 6.6651 -11.8268
# 5 -15.0712 -14.7945 -23.5587 6.6651 38.7116 3.1897
# 6 -14.0668 -13.3274 15.2694 -11.8268 3.1897 42.5424
#
#
#
# Elastic Compliance Matrix: (Units=1/GPa)
#
#
# Indices 1 2 3 4 5 6 
#
# 1 0.021110 -0.003602 -0.009403 0.005399 -0.000698 0.010780
# 2 -0.003602 0.009702 -0.002567 -0.001701 0.000853 0.002233
# 3 -0.009403 -0.002567 0.015923 -0.003791 0.006622 -0.011179
# 4 0.005399 -0.001701 -0.003791 0.026296 -0.006239 0.010391
# 5 -0.000698 0.000853 0.006622 -0.006239 0.031521 -0.006438
# 6 0.010780 0.002233 -0.011179 0.010391 -0.006438 0.035153
#
#
# Mechanical properties :
#
#
# Convention : Reuss Voigt Hill
#
# Bulk Modulus (GPa) = 64.13476 75.02285 69.57880
# Shear Modulus (GPa) = 28.40187 38.38631 33.39409
#
# Velocity S-wave (km/s) = 3.61499 4.20264 3.91984
# Velocity P-wave (km/s) = 6.85081 7.62029 7.24577
#
# Compressibility (1/GPa) = 0.01559217
#
# Stress axis : x y z
#
# Youngs Moduli (GPa) = 47.37025 103.07239 62.80364
#
# Poissons Ratio (x) = 0.37127 0.59053
# Poissons Ratio (y) = 0.17063 0.16119
# Poissons Ratio (z) = 0.44541 0.26454
#
# Static dielectric constant tensor:
#      x y z
#    x 4.088340 0.047680 -0.226010 
#    y 0.047680 4.301330 -0.222330 
#    z -0.226010 -0.222330 4.163890 
# 
# 
# High freq. dielectric constant tensor:
#      x y z
#    x 1.858400 0.000320 -0.022310 
#    y 0.000320 1.877070 -0.001270 
#    z -0.022310 -0.001270 1.861210 
# 
# From -- ./inp_files/382007.got.cif
#   From: 2010.06.25/outbox.cif.g09.slc.cpg/sg2_192_cif.got.tgz:382007.got - 2010.06.27 13:26:56.
