data_PCOD8025923
_publ_section_title
;
Structure prediction by ZEFSAII (Michael W. Deem and Ramdas Pophale) SiO2 
 PCOD8025923
Probable space group: P -1
;
_chemical_formula_sum "Si O2"
_cell_formula_units_Z 16
_cell_length_a 11.563562
_cell_length_b 20.645459
_cell_length_c 5.112107
_cell_angle_alpha 60.145797
_cell_angle_beta 103.008614
_cell_angle_gamma 133.428129
_cell_volume 755.304505
_symmetry_space_group_name_H-M "P -1"
_symmetry_group_IT_number 2
_symmetry_cell_setting 'triclinic'
loop_
_space_group_symop_operation_xyz
x,y,z
-x,-y,-z
loop_
_atom_site_type_symbol
_atom_site_label
_atom_site_fract_x
_atom_site_fract_y
_atom_site_fract_z
Si Si1 0.525034 0.106901 0.524157
Si Si2 0.048330 0.954028 0.934020
Si Si3 0.321448 0.417212 0.697843
Si Si4 0.710223 0.687647 0.573365
Si Si5 0.330843 0.983932 0.183951
Si Si6 0.357947 0.592347 0.479435
Si Si7 0.214462 0.154940 0.372850
Si Si8 0.592130 0.301877 0.205818
O O1 0.660745 0.100250 0.569131
O O2 0.614473 0.222521 0.402444
O O3 0.422347 0.071710 0.275188
O O4 0.408138 0.032157 0.846233
O O5 0.892524 0.856282 0.895203
O O6 0.173076 0.049922 0.604035
O O7 0.142800 0.928252 0.183196
O O8 0.000000 0.000000 0.000000
O O9 0.500000 0.500000 0.500000
O O10 0.214858 0.331526 0.584479
O O11 0.254653 0.471801 0.622668
O O12 0.323088 0.372157 0.057326
O O13 0.545095 0.650662 0.455147
O O14 0.823999 0.807905 0.466666
O O15 0.313450 0.615903 0.677074
O O16 0.323042 0.634922 0.142644
O O17 0.402873 0.243242 0.223230
#
# Coordination Sequence:
#
# PCOD8025923 Si02
#       8
#     2   2   2   2   2   2   2   2
#     4  10  20  35  55  72  99 131 176 214 254 301
#     4  11  23  34  52  69 108 136 177 214 244 296
#     4  10  17  30  44  66  96 131 162 195 247 301
#     4  10  19  29  46  63  99 132 168 195 237 308
#     4  10  21  37  52  73  97 137 174 214 256 293
#     4  10  19  28  48  72  98 130 161 205 249 303
#     4  10  22  32  45  75  96 141 170 206 246 292
#     4  11  19  31  50  73 103 128 171 203 248 303
#
# _framework density 21.183509999999998
#
# number of rings (size 3 to 8) (size 9 to 14) (size 15 to 20)
#    0.000    1.750    1.250    6.750    8.750    0.000 
#    0.000    0.000    0.000    0.000    0.000    0.000 
#    0.000    6.000    0.000    0.000    0.000    0.000 
#
# Total GULP energy -198307.361504 kJ/mol
# GULP energy per Si atom -12394.210094 kJ/mol
# Density = 2.113529 g / cm^3
# Si number density = 21.183510 Si / 1000 Ang^3
#
#
#
# Elastic Constant Matrix: (Units=GPa)
#
#
# Indices 1 2 3 4 5 6 
#
# 1 64.5388 38.0570 25.5968 12.6077 22.3060 -18.9872
# 2 38.0570 123.0849 25.9374 15.0275 14.2387 -42.5445
# 3 25.5968 25.9374 80.3008 13.5660 15.4619 -14.0545
# 4 12.6077 15.0275 13.5660 39.1114 -9.8281 2.0478
# 5 22.3060 14.2387 15.4619 -9.8281 30.3120 -2.9072
# 6 -18.9872 -42.5445 -14.0545 2.0478 -2.9072 34.6803
#
#
#
# Elastic Compliance Matrix: (Units=1/GPa)
#
#
# Indices 1 2 3 4 5 6 
#
# 1 0.036055 0.003242 0.002115 -0.023489 -0.034538 0.023067
# 2 0.003242 0.018847 0.002587 -0.014221 -0.014719 0.025551
# 3 0.002115 0.002587 0.017741 -0.012097 -0.014688 0.011005
# 4 -0.023489 -0.014221 -0.012097 0.055909 0.044931 -0.034743
# 5 -0.034538 -0.014719 -0.014688 0.044931 0.083682 -0.038557
# 6 0.023067 0.025551 0.011005 -0.034743 -0.038557 0.076088
#
#
# Mechanical properties :
#
#
# Convention : Reuss Voigt Hill
#
# Bulk Modulus (GPa) = 11.29509 49.67855 30.48682
# Shear Modulus (GPa) = 16.55934 32.70962 24.63448
#
# Velocity S-wave (km/s) = 2.79894 3.93378 3.41384
# Velocity P-wave (km/s) = 3.97354 6.64343 5.47377
#
# Compressibility (1/GPa) = 0.08853405
#
# Stress axis : x y z
#
# Youngs Moduli (GPa) = 27.73503 53.05769 56.36611
#
# Poissons Ratio (x) = -0.17203 -0.11923
# Poissons Ratio (y) = -0.08993 -0.14584
# Poissons Ratio (z) = -0.05867 -0.13728
#
# Static dielectric constant tensor:
#      x y z
#    x 3.616910 -0.717450 0.176130 
#    y -0.717450 4.700820 -0.148210 
#    z 0.176130 -0.148210 4.288840 
# 
# 
# High freq. dielectric constant tensor:
#      x y z
#    x 1.774360 -0.052230 0.006660 
#    y -0.052230 1.829730 0.012570 
#    z 0.006660 0.012570 1.846240 
# 
# From -- ./inp_files/82983.got.cif
#   From: 2010.06.25/outbox.cif.g09.slc.cpg/sg2_42_cif.got.tgz:82983.got - 2010.06.27 13:26:56.
