data_PCOD8025775
_publ_section_title
;
Structure prediction by ZEFSAII (Michael W. Deem and Ramdas Pophale) SiO2 
 PCOD8025775
Probable space group: P -1
;
_chemical_formula_sum "Si O2"
_cell_formula_units_Z 14
_cell_length_a 13.288614
_cell_length_b 12.340123
_cell_length_c 8.741165
_cell_angle_alpha 118.880026
_cell_angle_beta 129.016579
_cell_angle_gamma 34.159905
_cell_volume 622.977983
_symmetry_space_group_name_H-M "P -1"
_symmetry_group_IT_number 2
_symmetry_cell_setting 'triclinic'
loop_
_space_group_symop_operation_xyz
x,y,z
-x,-y,-z
loop_
_atom_site_type_symbol
_atom_site_label
_atom_site_fract_x
_atom_site_fract_y
_atom_site_fract_z
Si Si1 0.727823 0.679065 0.467063
Si Si2 0.760985 0.139678 0.256393
Si Si3 0.290428 0.032780 0.362443
Si Si4 0.046403 0.225007 0.967696
Si Si5 0.913510 0.655966 0.204440
Si Si6 0.696276 0.590785 0.060115
Si Si7 0.080724 0.084694 0.464554
O O1 0.725402 0.817030 0.480520
O O2 0.897285 0.549288 0.671562
O O3 0.765564 0.554194 0.279459
O O4 0.515233 0.811427 0.437760
O O5 0.844967 0.213240 0.335529
O O6 0.775966 0.115478 0.438428
O O7 0.534964 0.284473 0.080365
O O8 0.929131 0.919197 0.201665
O O9 0.148456 0.040451 0.322412
O O10 0.236193 0.085374 0.168298
O O11 0.050281 0.343287 0.941247
O O12 0.837555 0.383278 0.973414
O O13 0.722049 0.703836 0.074435
O O14 0.876315 0.813135 0.355784
#
# Coordination Sequence:
#
# PCOD8025775 Si02
#       7
#     2   2   2   2   2   2   2
#     4  11  23  39  64 103 132 170 215 266 333 389
#     4  10  25  46  64  98 132 174 222 260 326 394
#     4  11  22  40  66  95 137 171 212 270 331 377
#     4  11  24  41  65 101 131 167 220 271 320 387
#     4  11  23  41  68  99 131 167 221 269 325 385
#     4  12  22  41  69  95 132 169 213 277 317 381
#     4  10  23  46  67  89 137 176 211 272 325 386
#
# _framework density 22.472704
#
# number of rings (size 3 to 8) (size 9 to 14) (size 15 to 20)
#    0.000    1.143    4.286    1.714    2.000    4.000 
#    2.571    3.571    0.000    0.000    0.000    0.000 
#    0.000    0.000    0.000    0.000    0.000    0.000 
#
# Total GULP energy -173548.196236 kJ/mol
# GULP energy per Si atom -12396.299731 kJ/mol
# Density = 2.242156 g / cm^3
# Si number density = 22.472704 Si / 1000 Ang^3
#
#
#
# Elastic Constant Matrix: (Units=GPa)
#
#
# Indices 1 2 3 4 5 6 
#
# 1 141.7519 21.7774 43.2437 -22.3977 -1.6528 -10.3500
# 2 21.7774 49.9125 4.8071 -12.0769 -1.0295 -10.4448
# 3 43.2437 4.8071 83.6919 -19.6161 -3.6786 -10.6537
# 4 -22.3977 -12.0769 -19.6161 22.9174 -1.8681 5.7659
# 5 -1.6528 -1.0295 -3.6786 -1.8681 41.7173 -5.2997
# 6 -10.3500 -10.4448 -10.6537 5.7659 -5.2997 20.2978
#
#
#
# Elastic Compliance Matrix: (Units=1/GPa)
#
#
# Indices 1 2 3 4 5 6 
#
# 1 0.009273 -0.002498 -0.003494 0.004690 0.000251 0.000343
# 2 -0.002498 0.026217 0.004304 0.012346 0.002972 0.011745
# 3 -0.003494 0.004304 0.017375 0.012243 0.002917 0.006836
# 4 0.004690 0.012346 0.012243 0.066184 0.004212 -0.002530
# 5 0.000251 0.002972 0.002917 0.004212 0.025602 0.008677
# 6 0.000343 0.011745 0.006836 -0.002530 0.008677 0.062057
#
#
# Mechanical properties :
#
#
# Convention : Reuss Voigt Hill
#
# Bulk Modulus (GPa) = 20.20637 46.11252 33.15945
# Shear Modulus (GPa) = 22.06726 30.68837 26.37782
#
# Velocity S-wave (km/s) = 3.13702 3.69939 3.42975
# Velocity P-wave (km/s) = 4.70449 6.22986 5.52012
#
# Compressibility (1/GPa) = 0.04948935
#
# Stress axis : x y z
#
# Youngs Moduli (GPa) = 107.83679 38.14370 57.55475
#
# Poissons Ratio (x) = 0.09528 0.20110
# Poissons Ratio (y) = 0.26935 -0.24773
# Poissons Ratio (z) = 0.37679 -0.16418
#
# Static dielectric constant tensor:
#      x y z
#    x 4.249640 0.041000 -0.160460 
#    y 0.041000 3.830210 0.091830 
#    z -0.160460 0.091830 4.050900 
# 
# 
# High freq. dielectric constant tensor:
#      x y z
#    x 1.887120 -0.004980 -0.011940 
#    y -0.004980 1.865080 0.002060 
#    z -0.011940 0.002060 1.888130 
# 
# From -- ./inp_files/176582.got.cif
#   From: 2010.06.25/outbox.cif.g09.slc.cpg/sg2_89_cif.got.tgz:176582.got - 2010.06.27 13:26:56.
