data_PCOD8025519
_publ_section_title
;
Structure prediction by ZEFSAII (Michael W. Deem and Ramdas Pophale) SiO2 
 PCOD8025519
Probable space group: P -1
;
_chemical_formula_sum "Si O2"
_cell_formula_units_Z 16
_cell_length_a 8.645933
_cell_length_b 8.250349
_cell_length_c 13.594898
_cell_angle_alpha 130.745154
_cell_angle_beta 88.180469
_cell_angle_gamma 102.959224
_cell_volume 707.309254
_symmetry_space_group_name_H-M "P -1"
_symmetry_group_IT_number 2
_symmetry_cell_setting 'triclinic'
loop_
_space_group_symop_operation_xyz
x,y,z
-x,-y,-z
loop_
_atom_site_type_symbol
_atom_site_label
_atom_site_fract_x
_atom_site_fract_y
_atom_site_fract_z
Si Si1 0.888702 0.775292 0.045316
Si Si2 0.697001 0.460616 0.252269
Si Si3 0.109984 0.757232 0.707552
Si Si4 0.177456 0.683427 0.458552
Si Si5 0.291005 0.832778 0.312040
Si Si6 0.522766 0.678000 0.487506
Si Si7 0.035840 0.423200 0.846040
Si Si8 0.554461 0.539573 0.901256
O O1 0.858061 0.625870 0.085883
O O2 0.950503 0.037075 0.169156
O O3 0.018798 0.678915 0.945369
O O4 0.721437 0.732348 0.972920
O O5 0.731242 0.267846 0.246534
O O6 0.642050 0.639660 0.387372
O O7 0.572295 0.374164 0.130104
O O8 0.869568 0.599823 0.263200
O O9 0.154222 0.803743 0.609048
O O10 0.964236 0.539842 0.638777
O O11 0.200033 0.834803 0.420134
O O12 0.346784 0.629337 0.429051
O O13 0.140878 0.748657 0.207890
O O14 0.413041 0.678780 0.236781
O O15 0.399571 0.074666 0.376190
O O16 0.500000 0.500000 0.500000
O O17 0.500000 0.500000 0.000000
#
# Coordination Sequence:
#
# PCOD8025519 Si02
#       8
#     2   2   2   2   2   2   2   2
#     4  10  24  45  68  98 136 183 225 291 336 402
#     4  12  24  44  68 101 140 177 232 284 334 417
#     4  11  26  44  72 100 144 179 223 291 341 401
#     4  11  24  46  67 104 139 179 228 273 347 414
#     4  11  25  44  73  98 137 188 221 284 344 408
#     4  12  27  44  69 104 140 174 228 288 346 405
#     4  10  23  45  69 101 132 179 245 269 339 414
#     4  11  24  42  69 102 136 180 237 280 335 410
#
# _framework density 22.620939
#
# number of rings (size 3 to 8) (size 9 to 14) (size 15 to 20)
#    0.000    1.000    5.000    0.375    5.250    1.500 
#    0.000    1.250    0.000    0.000    0.000    0.000 
#    0.000    0.000    0.000    0.000    0.000    0.000 
#
# Total GULP energy -198227.089907 kJ/mol
# GULP energy per Si atom -12389.193119 kJ/mol
# Density = 2.256945 g / cm^3
# Si number density = 22.620939 Si / 1000 Ang^3
#
#
#
# Elastic Constant Matrix: (Units=GPa)
#
#
# Indices 1 2 3 4 5 6 
#
# 1 105.7215 34.6377 60.2203 10.7474 -2.2980 -3.9560
# 2 34.6377 86.6896 54.1474 5.1403 6.7838 9.4228
# 3 60.2203 54.1474 103.5466 -4.3921 3.8960 -6.9727
# 4 10.7474 5.1403 -4.3921 26.0404 2.4784 -12.2176
# 5 -2.2980 6.7838 3.8960 2.4784 32.0119 -11.8409
# 6 -3.9560 9.4228 -6.9727 -12.2176 -11.8409 24.7148
#
#
#
# Elastic Compliance Matrix: (Units=1/GPa)
#
#
# Indices 1 2 3 4 5 6 
#
# 1 0.016551 0.002686 -0.012163 -0.013354 0.000028 -0.008394
# 2 0.002686 0.029878 -0.020219 -0.026331 -0.015336 -0.037030
# 3 -0.012163 -0.020219 0.030399 0.028818 0.009789 0.033274
# 4 -0.013354 -0.026331 0.028818 0.083309 0.019236 0.066431
# 5 0.000028 -0.015336 0.009789 0.019236 0.046808 0.040548
# 6 -0.008394 -0.037030 0.033274 0.066431 0.040548 0.114890
#
#
# Mechanical properties :
#
#
# Convention : Reuss Voigt Hill
#
# Bulk Modulus (GPa) = 57.35493 65.99648 61.67570
# Shear Modulus (GPa) = 12.91860 26.35025 19.63442
#
# Velocity S-wave (km/s) = 2.39234 3.41671 2.94934
# Velocity P-wave (km/s) = 5.74812 6.69354 6.23877
#
# Compressibility (1/GPa) = 0.01743529
#
# Stress axis : x y z
#
# Youngs Moduli (GPa) = 60.41943 33.46963 32.89561
#
# Poissons Ratio (x) = -0.08990 0.40011
# Poissons Ratio (y) = -0.16229 0.66513
# Poissons Ratio (z) = 0.73488 0.67674
#
# Static dielectric constant tensor:
#      x y z
#    x 4.321490 -0.086410 -0.018130 
#    y -0.086410 3.780870 -0.126850 
#    z -0.018130 -0.126850 3.215520 
# 
# 
# High freq. dielectric constant tensor:
#      x y z
#    x 1.909580 -0.002990 0.000970 
#    y -0.002990 1.870380 -0.023690 
#    z 0.000970 -0.023690 1.893880 
# 
# From -- ./inp_files/495715.got.cif
#   From: 2010.06.25/outbox.cif.g09.slc.cpg/sg2_248_cif.got.tgz:495715.got - 2010.06.27 13:26:56.
