data_PCOD8025012
_publ_section_title
;
Structure prediction by ZEFSAII (Michael W. Deem and Ramdas Pophale) SiO2 
 PCOD8025012
Probable space group: P -1
;
_chemical_formula_sum "Si O2"
_cell_formula_units_Z 16
_cell_length_a 20.231701
_cell_length_b 9.064972
_cell_length_c 15.742953
_cell_angle_alpha 48.707655
_cell_angle_beta 161.285390
_cell_angle_gamma 131.314628
_cell_volume 688.592129
_symmetry_space_group_name_H-M "P -1"
_symmetry_group_IT_number 2
_symmetry_cell_setting 'triclinic'
loop_
_space_group_symop_operation_xyz
x,y,z
-x,-y,-z
loop_
_atom_site_type_symbol
_atom_site_label
_atom_site_fract_x
_atom_site_fract_y
_atom_site_fract_z
Si Si1 0.183988 0.302083 0.552028
Si Si2 0.616286 0.991405 0.436165
Si Si3 0.151711 0.405552 0.659175
Si Si4 0.985076 0.008602 0.665161
Si Si5 0.854224 0.301893 0.722365
Si Si6 0.246121 0.799685 0.177754
Si Si7 0.268804 0.405582 0.276274
Si Si8 0.416832 0.799548 0.848531
O O1 0.077526 0.364450 0.486399
O O2 0.246179 0.500098 0.496134
O O3 0.020978 0.145273 0.361854
O O4 0.384450 0.189244 0.852849
O O5 0.806126 0.145065 0.647111
O O6 0.508901 0.098553 0.189323
O O7 0.453838 0.905788 0.344348
O O8 0.715139 0.809792 0.582419
O O9 0.360381 0.562767 0.852932
O O10 0.000000 0.500000 0.500000
O O11 0.170739 0.190097 0.803386
O O12 0.767023 0.094310 0.376450
O O13 0.049526 0.901669 0.869038
O O14 0.741609 0.189109 0.710077
O O15 0.104712 0.364263 0.013685
O O16 0.187467 0.562915 0.179920
O O17 0.500000 0.500000 0.500000
#
# Coordination Sequence:
#
# PCOD8025012 Si02
#       8
#     2   2   2   2   2   2   2   2
#     4  12  24  42  70 101 139 180 230 281 349 416
#     4  11  24  43  69  98 137 183 233 283 346 409
#     4  10  23  44  67  96 135 180 225 283 343 408
#     4  11  24  43  69  98 137 183 233 283 346 409
#     4  12  24  42  70 101 139 180 230 281 349 416
#     4  11  24  44  68  99 138 183 230 288 344 404
#     4  10  23  44  67  96 135 180 225 283 343 408
#     4  11  24  44  68  99 138 183 230 288 344 404
#
# _framework density 23.235814999999999
#
# number of rings (size 3 to 8) (size 9 to 14) (size 15 to 20)
#    0.000    1.000    2.500    3.750    3.500    0.000 
#    0.000    2.500    0.000    0.000    0.000    0.000 
#    0.000    0.000    0.000    0.000    0.000    0.000 
#
# Total GULP energy -198217.772100 kJ/mol
# GULP energy per Si atom -12388.610756 kJ/mol
# Density = 2.318293 g / cm^3
# Si number density = 23.235815 Si / 1000 Ang^3
#
#
#
# Elastic Constant Matrix: (Units=GPa)
#
#
# Indices 1 2 3 4 5 6 
#
# 1 81.9401 32.5302 19.4623 -18.5800 -13.2827 9.9593
# 2 32.5302 158.9624 39.5891 -12.3402 -7.2140 0.8479
# 3 19.4623 39.5891 104.3282 -18.3445 -10.1996 13.5775
# 4 -18.5800 -12.3402 -18.3445 34.0595 2.1938 -8.1082
# 5 -13.2827 -7.2140 -10.1996 2.1938 31.7871 -0.5930
# 6 9.9593 0.8479 13.5775 -8.1082 -0.5930 29.8253
#
#
#
# Elastic Compliance Matrix: (Units=1/GPa)
#
#
# Indices 1 2 3 4 5 6 
#
# 1 0.016025 -0.002518 0.000145 0.006734 0.005643 -0.003402
# 2 -0.002518 0.007456 -0.002550 0.000417 -0.000172 0.001900
# 3 0.000145 -0.002550 0.012161 0.004506 0.002994 -0.004227
# 4 0.006734 0.000417 0.004506 0.036856 0.001918 0.005746
# 5 0.005643 -0.000172 0.002994 0.001918 0.034569 -0.002034
# 6 -0.003402 0.001900 -0.004227 0.005746 -0.002034 0.038057
#
#
# Mechanical properties :
#
#
# Convention : Reuss Voigt Hill
#
# Bulk Modulus (GPa) = 38.76890 58.71044 48.73967
# Shear Modulus (GPa) = 30.56830 36.04433 33.30631
#
# Velocity S-wave (km/s) = 3.63101 3.94285 3.79014
# Velocity P-wave (km/s) = 5.85664 6.78603 6.33839
#
# Compressibility (1/GPa) = 0.02579387
#
# Stress axis : x y z
#
# Youngs Moduli (GPa) = 62.40413 134.12542 82.23048
#
# Poissons Ratio (x) = 0.33778 -0.01190
# Poissons Ratio (y) = 0.15716 0.20969
# Poissons Ratio (z) = -0.00903 0.34203
#
# Static dielectric constant tensor:
#      x y z
#    x 3.962570 0.033210 -0.038710 
#    y 0.033210 4.984860 -0.183820 
#    z -0.038710 -0.183820 4.016070 
# 
# 
# High freq. dielectric constant tensor:
#      x y z
#    x 1.908620 0.003380 0.002770 
#    y 0.003380 1.949590 -0.009790 
#    z 0.002770 -0.009790 1.908400 
# 
# From -- ./inp_files/540428.got.cif
#   From: 2010.06.25/outbox.cif.g09.slc.cpg/sg2_271_cif.got.tgz:540428.got - 2010.06.27 13:26:56.
