data_PCOD8025109
_publ_section_title
;
Structure prediction by ZEFSAII (Michael W. Deem and Ramdas Pophale) SiO2 
 PCOD8025109
Probable space group: P -1
;
_chemical_formula_sum "Si O2"
_cell_formula_units_Z 14
_cell_length_a 8.230394
_cell_length_b 9.996680
_cell_length_c 14.089060
_cell_angle_alpha 148.882662
_cell_angle_beta 97.573678
_cell_angle_gamma 75.961291
_cell_volume 574.479487
_symmetry_space_group_name_H-M "P -1"
_symmetry_group_IT_number 2
_symmetry_cell_setting 'triclinic'
loop_
_space_group_symop_operation_xyz
x,y,z
-x,-y,-z
loop_
_atom_site_type_symbol
_atom_site_label
_atom_site_fract_x
_atom_site_fract_y
_atom_site_fract_z
Si Si1 0.626675 0.548071 0.456029
Si Si2 0.149462 0.446855 0.167172
Si Si3 0.642136 0.335970 0.980938
Si Si4 0.910897 0.081919 0.692725
Si Si5 0.453040 0.004060 0.890552
Si Si6 0.733282 0.311580 0.501335
Si Si7 0.805103 0.593078 0.306880
O O1 0.741177 0.529304 0.549155
O O2 0.448164 0.781068 0.569274
O O3 0.744060 0.502788 0.346601
O O4 0.544825 0.296625 0.317725
O O5 0.268185 0.549147 0.312519
O O6 0.988045 0.393696 0.177561
O O7 0.080589 0.659802 0.208879
O O8 0.261428 0.180710 0.965721
O O9 0.583078 0.111169 0.899800
O O10 0.803139 0.168572 0.832556
O O11 0.500000 0.500000 0.000000
O O12 0.682127 0.559108 0.190883
O O13 0.825491 0.895119 0.505465
O O14 0.103233 0.937483 0.648344
O O15 0.500000 0.000000 0.000000
#
# Coordination Sequence:
#
# PCOD8025109 Si02
#       7
#     2   2   2   2   2   2   2
#     4  11  25  44  72 108 139 199 237 291 368 433
#     4  11  24  48  71 104 144 189 238 304 366 416
#     4  12  27  48  72 110 143 194 245 290 365 436
#     4  11  27  48  72 106 148 187 240 310 353 428
#     4  12  24  46  71 100 154 182 235 304 354 431
#     4  10  23  44  69 101 144 182 242 287 363 421
#     4  11  26  46  73 105 142 192 242 295 364 428
#
# _framework density 24.369886999999999
#
# number of rings (size 3 to 8) (size 9 to 14) (size 15 to 20)
#    0.000    0.857    4.286    1.714    6.000    7.429 
#    0.000    0.000    0.000    0.000    0.000    0.000 
#    0.000    0.000    0.000    0.000    0.000    0.000 
#
# Total GULP energy -173465.852474 kJ/mol
# GULP energy per Si atom -12390.418034 kJ/mol
# Density = 2.431442 g / cm^3
# Si number density = 24.369887 Si / 1000 Ang^3
#
#
#
# Elastic Constant Matrix: (Units=GPa)
#
#
# Indices 1 2 3 4 5 6 
#
# 1 143.2507 67.6992 28.5180 8.8342 -40.6464 15.2808
# 2 67.6992 140.8640 31.7882 -2.0876 -21.1214 -2.5696
# 3 28.5180 31.7882 82.6827 4.3646 -23.4629 -1.3716
# 4 8.8342 -2.0876 4.3646 38.8282 -0.1833 -11.0917
# 5 -40.6464 -21.1214 -23.4629 -0.1833 51.0870 -3.9520
# 6 15.2808 -2.5696 -1.3716 -11.0917 -3.9520 45.0417
#
#
#
# Elastic Compliance Matrix: (Units=1/GPa)
#
#
# Indices 1 2 3 4 5 6 
#
# 1 0.012138 -0.004881 -0.000118 -0.004360 0.007195 -0.004842
# 2 -0.004881 0.009988 -0.002438 0.002707 -0.000650 0.002761
# 3 -0.000118 -0.002438 0.014788 -0.001609 0.005719 0.000457
# 4 -0.004360 0.002707 -0.001609 0.029534 -0.002313 0.008655
# 5 0.007195 -0.000650 0.005719 -0.002313 0.027613 -0.000451
# 6 -0.004842 0.002761 0.000457 0.008655 -0.000451 0.026108
#
#
# Mechanical properties :
#
#
# Convention : Reuss Voigt Hill
#
# Bulk Modulus (GPa) = 45.37458 69.20091 57.28775
# Shear Modulus (GPa) = 35.11468 42.91084 39.01276
#
# Velocity S-wave (km/s) = 3.80004 4.20076 4.00541
# Velocity P-wave (km/s) = 6.15738 7.21015 6.70446
#
# Compressibility (1/GPa) = 0.02203877
#
# Stress axis : x y z
#
# Youngs Moduli (GPa) = 82.38659 100.12037 67.62195
#
# Poissons Ratio (x) = 0.48868 0.00801
# Poissons Ratio (y) = 0.40212 0.16488
# Poissons Ratio (z) = 0.00976 0.24411
#
# Static dielectric constant tensor:
#      x y z
#    x 4.885970 -0.206130 -0.133150 
#    y -0.206130 4.688460 -0.354570 
#    z -0.133150 -0.354570 4.844700 
# 
# 
# High freq. dielectric constant tensor:
#      x y z
#    x 1.976020 -0.002680 -0.024360 
#    y -0.002680 1.981500 -0.025760 
#    z -0.024360 -0.025760 1.973020 
# 
# From -- ./inp_files/494091.got.cif
#   From: 2010.06.25/outbox.cif.g09.slc.cpg/sg2_248_cif.got.tgz:494091.got - 2010.06.27 13:26:56.
