data_PCOD8025885
_publ_section_title
;
Structure prediction by ZEFSAII (Michael W. Deem and Ramdas Pophale) SiO2 
 PCOD8025885
Probable space group: P -1
;
_chemical_formula_sum "Si O2"
_cell_formula_units_Z 12
_cell_length_a 13.397933
_cell_length_b 6.170230
_cell_length_c 7.470230
_cell_angle_alpha 117.759434
_cell_angle_beta 101.090653
_cell_angle_gamma 73.970737
_cell_volume 523.753751
_symmetry_space_group_name_H-M "P -1"
_symmetry_group_IT_number 2
_symmetry_cell_setting 'triclinic'
loop_
_space_group_symop_operation_xyz
x,y,z
-x,-y,-z
loop_
_atom_site_type_symbol
_atom_site_label
_atom_site_fract_x
_atom_site_fract_y
_atom_site_fract_z
Si Si1 0.781094 0.110078 0.233132
Si Si2 0.604659 0.539812 0.457800
Si Si3 0.654484 0.844357 0.883405
Si Si4 0.071374 0.199908 0.582439
Si Si5 0.538980 0.747996 0.147467
Si Si6 0.019903 0.751496 0.788308
O O1 0.668313 0.276742 0.304379
O O2 0.868450 0.264374 0.275776
O O3 0.817717 0.919608 0.337493
O O4 0.756850 0.960374 0.988679
O O5 0.500000 0.500000 0.500000
O O6 0.680749 0.616493 0.664378
O O7 0.581206 0.737805 0.361899
O O8 0.555540 0.017378 0.819287
O O9 0.629455 0.760734 0.041910
O O10 0.029781 0.473679 0.772712
O O11 0.074367 0.233896 0.381706
O O12 0.000000 0.000000 0.500000
O O13 0.500000 0.500000 0.000000
O O14 0.000000 0.000000 0.000000
#
# Coordination Sequence:
#
# PCOD8025885 Si02
#       6
#     2   2   2   2   2   2
#     4  11  25  41  64 105 133 169 239 281 336 432
#     4  12  24  44  67  96 141 191 227 282 351 398
#     4  11  24  40  65  96 133 188 229 287 345 396
#     4   9  22  44  70  98 136 171 224 287 342 426
#     4  11  21  44  64  89 139 181 241 284 331 411
#     4  10  23  46  71  98 135 179 219 288 364 410
#
# _framework density 22.911529999999999
#
# number of rings (size 3 to 8) (size 9 to 14) (size 15 to 20)
#    0.000    1.333    3.333    1.500    2.333    8.000 
#    3.000    0.000    0.000    0.000    0.000    0.000 
#    0.000    0.000    0.000    0.000    0.000    0.000 
#
# Total GULP energy -148669.290301 kJ/mol
# GULP energy per Si atom -12389.107525 kJ/mol
# Density = 2.285938 g / cm^3
# Si number density = 22.911530 Si / 1000 Ang^3
#
#
#
# Elastic Constant Matrix: (Units=GPa)
#
#
# Indices 1 2 3 4 5 6 
#
# 1 59.4425 34.1326 31.8039 -6.0269 6.9200 -5.8335
# 2 34.1326 137.2235 49.3924 -4.7881 0.0764 -2.0363
# 3 31.8039 49.3924 156.5523 -2.4257 19.6149 -1.8305
# 4 -6.0269 -4.7881 -2.4257 54.3459 0.4444 6.5607
# 5 6.9200 0.0764 19.6149 0.4444 35.3997 -1.2923
# 6 -5.8335 -2.0363 -1.8305 6.5607 -1.2923 29.2548
#
#
#
# Elastic Compliance Matrix: (Units=1/GPa)
#
#
# Indices 1 2 3 4 5 6 
#
# 1 0.021479 -0.004298 -0.002615 0.001502 -0.002637 0.003367
# 2 -0.004298 0.009181 -0.002283 0.000253 0.002070 -0.000326
# 3 -0.002615 -0.002283 0.008136 -0.000055 -0.004004 -0.000336
# 4 0.001502 0.000253 -0.000055 0.019074 -0.000649 -0.003993
# 5 -0.002637 0.002070 -0.004004 -0.000649 0.031019 0.000884
# 6 0.003367 -0.000326 -0.000336 -0.003993 0.000884 0.035745
#
#
# Mechanical properties :
#
#
# Convention : Reuss Voigt Hill
#
# Bulk Modulus (GPa) = 49.00556 64.87511 56.94034
# Shear Modulus (GPa) = 33.37211 39.65940 36.51575
#
# Velocity S-wave (km/s) = 3.82064 4.16502 3.99654
# Velocity P-wave (km/s) = 6.39519 7.17682 6.79725
#
# Compressibility (1/GPa) = 0.02040585
#
# Stress axis : x y z
#
# Youngs Moduli (GPa) = 46.55628 108.92205 122.91271
#
# Poissons Ratio (x) = 0.46812 0.32137
# Poissons Ratio (y) = 0.20009 0.28058
# Poissons Ratio (z) = 0.12173 0.24864
#
# Static dielectric constant tensor:
#      x y z
#    x 3.684120 0.625210 0.750840 
#    y 0.625210 2.125950 -2.542020 
#    z 0.750840 -2.542020 2.552650 
# 
# 
# High freq. dielectric constant tensor:
#      x y z
#    x 1.873150 0.001420 0.025290 
#    y 0.001420 1.915880 0.004400 
#    z 0.025290 0.004400 1.923180 
# 
# From -- ./inp_files/287504.got.cif
#   From: 2010.06.25/outbox.cif.g09.slc.cpg/sg2_144_cif.got.tgz:287504.got - 2010.06.27 13:26:56.
