data_PCOD8025588
_publ_section_title
;
Structure prediction by ZEFSAII (Michael W. Deem and Ramdas Pophale) SiO2 
 PCOD8025588
Probable space group: P -1
;
_chemical_formula_sum "Si O2"
_cell_formula_units_Z 14
_cell_length_a 9.421326
_cell_length_b 12.336415
_cell_length_c 8.157290
_cell_angle_alpha 75.120998
_cell_angle_beta 102.063315
_cell_angle_gamma 144.693941
_cell_volume 529.566961
_symmetry_space_group_name_H-M "P -1"
_symmetry_group_IT_number 2
_symmetry_cell_setting 'triclinic'
loop_
_space_group_symop_operation_xyz
x,y,z
-x,-y,-z
loop_
_atom_site_type_symbol
_atom_site_label
_atom_site_fract_x
_atom_site_fract_y
_atom_site_fract_z
Si Si1 0.936398 0.147750 0.487633
Si Si2 0.714775 0.886971 0.135638
Si Si3 0.327024 0.737652 0.335182
Si Si4 0.922264 0.198191 0.834873
Si Si5 0.209604 0.168635 0.320660
Si Si6 0.817159 0.311135 0.326861
Si Si7 0.622537 0.402376 0.084177
O O1 0.798233 0.164149 0.350343
O O2 0.013492 0.234518 0.655718
O O3 0.172893 0.252834 0.399286
O O4 0.756785 0.926859 0.534405
O O5 0.583941 0.860875 0.269786
O O6 0.525411 0.678483 0.091533
O O7 0.971564 0.995691 0.214244
O O8 0.773186 0.003154 0.950041
O O9 0.347973 0.762809 0.526178
O O10 0.265219 0.816476 0.205802
O O11 0.107888 0.512467 0.339007
O O12 0.147045 0.369836 0.944101
O O13 0.452920 0.342848 0.211323
O O14 0.710055 0.325905 0.154062
#
# Coordination Sequence:
#
# PCOD8025588 Si02
#       7
#     2   2   2   2   2   2   2
#     4  10  23  46  69  98 135 174 234 277 331 398
#     4  12  25  43  67  98 147 180 216 275 339 410
#     4   9  21  41  70 103 134 170 227 286 330 398
#     4  10  23  45  70 103 133 178 229 275 343 396
#     4  11  26  45  64 104 138 181 228 273 336 404
#     4   9  21  44  71 102 128 173 233 281 335 390
#     4  11  25  45  72 100 139 176 224 284 332 405
#
# _framework density 26.436695
#
# number of rings (size 3 to 8) (size 9 to 14) (size 15 to 20)
#    0.000    1.714    1.429    1.714    4.000    7.429 
#    2.571    0.000    0.000    0.000    0.000    0.000 
#    0.000    0.000    0.000    0.000    0.000    0.000 
#
# Total GULP energy -173521.324449 kJ/mol
# GULP energy per Si atom -12394.380318 kJ/mol
# Density = 2.637652 g / cm^3
# Si number density = 26.436695 Si / 1000 Ang^3
#
#
#
# Elastic Constant Matrix: (Units=GPa)
#
#
# Indices 1 2 3 4 5 6 
#
# 1 120.1380 31.3470 14.0864 -9.8007 -11.1314 -3.6464
# 2 31.3470 58.7924 15.7139 17.8718 3.4817 6.0401
# 3 14.0864 15.7139 57.9469 6.2188 -10.7874 -3.1922
# 4 -9.8007 17.8718 6.2188 32.3323 4.7895 -5.6298
# 5 -11.1314 3.4817 -10.7874 4.7895 24.3587 4.5350
# 6 -3.6464 6.0401 -3.1922 -5.6298 4.5350 31.9216
#
#
#
# Elastic Compliance Matrix: (Units=1/GPa)
#
#
# Indices 1 2 3 4 5 6 
#
# 1 0.012271 -0.010048 -0.000237 0.009441 0.004275 0.004337
# 2 -0.010048 0.031428 -0.005510 -0.020350 -0.005579 -0.010442
# 3 -0.000237 -0.005510 0.021036 -0.002370 0.010229 0.001248
# 4 0.009441 -0.020350 -0.002370 0.048862 -0.006072 0.014172
# 5 0.004275 -0.005579 0.010229 -0.006072 0.050588 -0.005691
# 6 0.004337 -0.010442 0.001248 0.014172 -0.005691 0.037231
#
#
# Mechanical properties :
#
#
# Convention : Reuss Voigt Hill
#
# Bulk Modulus (GPa) = 30.16921 39.90801 35.03861
# Shear Modulus (GPa) = 20.48714 29.43784 24.96249
#
# Velocity S-wave (km/s) = 2.78681 3.34057 3.07618
# Velocity P-wave (km/s) = 4.66816 5.47792 5.08918
#
# Compressibility (1/GPa) = 0.03314638
#
# Stress axis : x y z
#
# Youngs Moduli (GPa) = 81.49041 31.81830 47.53714
#
# Poissons Ratio (x) = 0.31972 0.01125
# Poissons Ratio (y) = 0.81885 0.26192
# Poissons Ratio (z) = 0.01928 0.17531
#
# Static dielectric constant tensor:
#      x y z
#    x 4.898350 -0.064270 0.050710 
#    y -0.064270 4.534910 -0.074380 
#    z 0.050710 -0.074380 4.695430 
# 
# 
# High freq. dielectric constant tensor:
#      x y z
#    x 2.072110 0.005120 0.002640 
#    y 0.005120 2.050030 0.002740 
#    z 0.002640 0.002740 2.055640 
# 
# From -- ./inp_files/186853.got.cif
#   From: 2010.06.25/outbox.cif.g09.slc.cpg/sg2_94_cif.got.tgz:186853.got - 2010.06.27 13:26:56.
