data_PCOD8025275
_publ_section_title
;
Structure prediction by ZEFSAII (Michael W. Deem and Ramdas Pophale) SiO2 
 PCOD8025275
Probable space group: P -1
;
_chemical_formula_sum "Si O2"
_cell_formula_units_Z 14
_cell_length_a 9.425004
_cell_length_b 11.777778
_cell_length_c 14.814114
_cell_angle_alpha 149.663607
_cell_angle_beta 132.013679
_cell_angle_gamma 59.419647
_cell_volume 606.606834
_symmetry_space_group_name_H-M "P -1"
_symmetry_group_IT_number 2
_symmetry_cell_setting 'triclinic'
loop_
_space_group_symop_operation_xyz
x,y,z
-x,-y,-z
loop_
_atom_site_type_symbol
_atom_site_label
_atom_site_fract_x
_atom_site_fract_y
_atom_site_fract_z
Si Si1 0.785678 0.032968 0.907067
Si Si2 0.734501 0.861679 0.572966
Si Si3 0.114246 0.531690 0.853969
Si Si4 0.511447 0.731783 0.718096
Si Si5 0.193208 0.322814 0.048609
Si Si6 0.660579 0.337364 0.799452
Si Si7 0.905096 0.158136 0.386002
O O1 0.705144 0.885419 0.683265
O O2 0.632120 0.947056 0.861931
O O3 0.796617 0.303626 0.077982
O O4 0.000000 0.000000 0.000000
O O5 0.564909 0.674065 0.327894
O O6 0.939290 0.781025 0.587419
O O7 0.722893 0.094596 0.674397
O O8 0.966688 0.670221 0.937510
O O9 0.003623 0.283764 0.604161
O O10 0.285137 0.505696 0.979948
O O11 0.500000 0.500000 0.500000
O O12 0.609348 0.713619 0.843909
O O13 0.292571 0.758032 0.664209
O O14 0.216859 0.554267 0.160327
O O15 0.134342 0.116103 0.810003
#
# Coordination Sequence:
#
# PCOD8025275 Si02
#       7
#     2   2   2   2   2   2   2
#     4  11  20  43  70  95 140 178 218 283 344 393
#     4  10  23  44  72 101 134 184 231 273 346 408
#     4  11  24  43  69  98 140 175 229 281 338 398
#     4  12  24  44  71 104 140 177 224 287 348 399
#     4  12  23  46  68 102 139 177 225 284 342 404
#     4  10  23  45  71  96 140 184 221 287 340 395
#     4  12  25  43  70 107 132 179 237 274 341 415
#
# _framework density 23.079198000000002
#
# number of rings (size 3 to 8) (size 9 to 14) (size 15 to 20)
#    0.000    0.857    5.714    1.714    0.000    2.286 
#    0.000    8.571    0.000    0.000    0.000    0.000 
#    0.000    0.000    0.000    0.000    0.000    0.000 
#
# Total GULP energy -173553.926672 kJ/mol
# GULP energy per Si atom -12396.709048 kJ/mol
# Density = 2.302667 g / cm^3
# Si number density = 23.079198 Si / 1000 Ang^3
#
#
#
# Elastic Constant Matrix: (Units=GPa)
#
#
# Indices 1 2 3 4 5 6 
#
# 1 77.9167 36.1404 30.4021 2.3687 11.0867 -10.7288
# 2 36.1404 83.3987 43.0158 -18.3361 8.7861 18.9522
# 3 30.4021 43.0158 169.5497 -23.2620 -3.9441 1.4961
# 4 2.3687 -18.3361 -23.2620 40.1410 -5.6263 6.3058
# 5 11.0867 8.7861 -3.9441 -5.6263 36.6273 -1.2129
# 6 -10.7288 18.9522 1.4961 6.3058 -1.2129 42.6634
#
#
#
# Elastic Compliance Matrix: (Units=1/GPa)
#
#
# Indices 1 2 3 4 5 6 
#
# 1 0.023443 -0.014135 -0.002548 -0.012261 -0.005402 0.013923
# 2 -0.014135 0.026311 -0.002041 0.014300 -0.000629 -0.017303
# 3 -0.002548 -0.002041 0.007490 0.004013 0.002667 -0.000514
# 4 -0.012261 0.014300 0.004013 0.037688 0.006007 -0.014976
# 5 -0.005402 -0.000629 0.002667 0.006007 0.030258 -0.001200
# 6 0.013923 -0.017303 -0.000514 -0.014976 -0.001200 0.036824
#
#
# Mechanical properties :
#
#
# Convention : Reuss Voigt Hill
#
# Bulk Modulus (GPa) = 50.51582 61.10907 55.81244
# Shear Modulus (GPa) = 24.26459 38.64014 31.45236
#
# Velocity S-wave (km/s) = 3.24599 4.09619 3.69562
# Velocity P-wave (km/s) = 5.99868 6.99336 6.51503
#
# Compressibility (1/GPa) = 0.01979578
#
# Stress axis : x y z
#
# Youngs Moduli (GPa) = 42.65581 38.00712 133.51529
#
# Poissons Ratio (x) = 0.53725 0.34022
# Poissons Ratio (y) = 0.60296 0.27245
# Poissons Ratio (z) = 0.10870 0.07756
#
# Static dielectric constant tensor:
#      x y z
#    x 4.088650 -0.025350 0.284040 
#    y -0.025350 4.118980 -0.359250 
#    z 0.284040 -0.359250 4.705400 
# 
# 
# High freq. dielectric constant tensor:
#      x y z
#    x 1.898400 -0.001820 0.018300 
#    y -0.001820 1.900190 -0.018810 
#    z 0.018300 -0.018810 1.931900 
# 
# From -- ./inp_files/448110.got.cif
#   From: 2010.06.25/outbox.cif.g09.slc.cpg/sg2_225_cif.got.tgz:448110.got - 2010.06.27 13:26:56.
