data_PCOD8025280
_publ_section_title
;
Structure prediction by ZEFSAII (Michael W. Deem and Ramdas Pophale) SiO2 
 PCOD8025280
Probable space group: P -1
;
_chemical_formula_sum "Si O2"
_cell_formula_units_Z 14
_cell_length_a 15.048590
_cell_length_b 8.405127
_cell_length_c 11.903110
_cell_angle_alpha 70.904275
_cell_angle_beta 133.818221
_cell_angle_gamma 142.722893
_cell_volume 565.146352
_symmetry_space_group_name_H-M "P -1"
_symmetry_group_IT_number 2
_symmetry_cell_setting 'triclinic'
loop_
_space_group_symop_operation_xyz
x,y,z
-x,-y,-z
loop_
_atom_site_type_symbol
_atom_site_label
_atom_site_fract_x
_atom_site_fract_y
_atom_site_fract_z
Si Si1 0.367224 0.604530 0.631721
Si Si2 0.723992 0.346298 0.086714
Si Si3 0.379470 0.800300 0.219825
Si Si4 0.067961 0.192649 0.181176
Si Si5 0.268100 0.128938 0.235805
Si Si6 0.263052 0.319793 0.830216
Si Si7 0.823266 0.276561 0.599793
O O1 0.467575 0.583271 0.635997
O O2 0.228189 0.357270 0.667189
O O3 0.209292 0.560773 0.440243
O O4 0.585501 0.957333 0.792438
O O5 0.731749 0.537303 0.100926
O O6 0.927741 0.469283 0.288326
O O7 0.737977 0.383463 0.956675
O O8 0.500000 0.000000 0.000000
O O9 0.216814 0.533265 0.233692
O O10 0.628986 0.002123 0.403560
O O11 0.229449 0.219978 0.280569
O O12 0.954545 0.040736 0.241648
O O13 0.864708 0.969204 0.967993
O O14 0.198528 0.862432 0.276281
O O15 0.500000 0.500000 0.000000
#
# Coordination Sequence:
#
# PCOD8025280 Si02
#       7
#     2   2   2   2   2   2   2
#     4  10  24  42  68 105 139 179 230 291 342 403
#     4  12  22  45  74  99 137 187 230 280 346 415
#     4  10  24  42  71 107 129 186 234 279 343 418
#     4  11  22  41  72 100 138 188 228 279 351 412
#     4  11  20  42  70 100 139 182 229 290 341 403
#     4  12  24  44  68 104 141 183 229 292 345 410
#     4  10  23  44  72 102 141 175 234 291 338 407
#
# _framework density 24.772344
#
# number of rings (size 3 to 8) (size 9 to 14) (size 15 to 20)
#    0.857    0.286    5.714    1.286    0.000    3.429 
#    2.571    0.000    0.000    2.571    0.000    0.000 
#    0.000    0.000    0.000    0.000    0.000    0.000 
#
# Total GULP energy -173479.712737 kJ/mol
# GULP energy per Si atom -12391.408053 kJ/mol
# Density = 2.471596 g / cm^3
# Si number density = 24.772344 Si / 1000 Ang^3
#
#
#
# Elastic Constant Matrix: (Units=GPa)
#
#
# Indices 1 2 3 4 5 6 
#
# 1 114.6090 25.3542 36.8182 -7.6290 21.7790 22.7659
# 2 25.3542 142.7698 17.6769 -15.2357 3.2172 37.1198
# 3 36.8182 17.6769 80.9923 -11.4576 21.9231 6.4572
# 4 -7.6290 -15.2357 -11.4576 47.3894 8.2571 1.4961
# 5 21.7790 3.2172 21.9231 8.2571 40.1030 0.6857
# 6 22.7659 37.1198 6.4572 1.4961 0.6857 32.4894
#
#
#
# Elastic Compliance Matrix: (Units=1/GPa)
#
#
# Indices 1 2 3 4 5 6 
#
# 1 0.012687 0.001040 -0.003332 0.002840 -0.005576 -0.009429
# 2 0.001040 0.010790 -0.000751 0.004155 -0.001652 -0.013063
# 3 -0.003332 -0.000751 0.016999 0.004805 -0.008409 -0.000230
# 4 0.002840 0.004155 0.004805 0.026023 -0.009712 -0.008686
# 5 -0.005576 -0.001652 -0.008409 -0.009712 0.034570 0.007183
# 6 -0.009429 -0.013063 -0.000230 -0.008686 0.007183 0.052605
#
#
# Mechanical properties :
#
#
# Convention : Reuss Voigt Hill
#
# Bulk Modulus (GPa) = 29.07820 55.34108 42.20964
# Shear Modulus (GPa) = 29.20154 41.23114 35.21634
#
# Velocity S-wave (km/s) = 3.43708 4.08413 3.77450
# Velocity P-wave (km/s) = 5.24548 6.68046 6.00598
#
# Compressibility (1/GPa) = 0.03439003
#
# Stress axis : x y z
#
# Youngs Moduli (GPa) = 78.81959 92.68177 58.82562
#
# Poissons Ratio (x) = -0.09636 0.19598
# Poissons Ratio (y) = -0.08195 0.04419
# Poissons Ratio (z) = 0.26259 0.06962
#
# Static dielectric constant tensor:
#      x y z
#    x 4.591530 0.239410 0.193310 
#    y 0.239410 4.398350 -0.263240 
#    z 0.193310 -0.263240 4.570350 
# 
# 
# High freq. dielectric constant tensor:
#      x y z
#    x 1.972920 0.012670 0.015710 
#    y 0.012670 1.991260 -0.008090 
#    z 0.015710 -0.008090 1.980830 
# 
# From -- ./inp_files/447222.got.cif
#   From: 2010.06.25/outbox.cif.g09.slc.cpg/sg2_224_cif.got.tgz:447222.got - 2010.06.27 13:26:56.
