data_PCOD8025904
_publ_section_title
;
Structure prediction by ZEFSAII (Michael W. Deem and Ramdas Pophale) SiO2 
 PCOD8025904
Probable space group: P -1
;
_chemical_formula_sum "Si O2"
_cell_formula_units_Z 12
_cell_length_a 6.590093
_cell_length_b 16.317089
_cell_length_c 9.117255
_cell_angle_alpha 51.095190
_cell_angle_beta 133.066260
_cell_angle_gamma 120.168693
_cell_volume 552.665441
_symmetry_space_group_name_H-M "P -1"
_symmetry_group_IT_number 2
_symmetry_cell_setting 'triclinic'
loop_
_space_group_symop_operation_xyz
x,y,z
-x,-y,-z
loop_
_atom_site_type_symbol
_atom_site_label
_atom_site_fract_x
_atom_site_fract_y
_atom_site_fract_z
Si Si1 0.668831 0.973324 0.976642
Si Si2 0.733407 0.079681 0.605274
Si Si3 0.413389 0.559029 0.536224
Si Si4 0.921532 0.612014 0.886699
Si Si5 0.568599 0.221604 0.126305
Si Si6 0.821619 0.619260 0.154151
O O1 0.524249 0.872404 0.927347
O O2 0.681211 0.076325 0.759176
O O3 0.961248 0.956749 0.214813
O O4 0.500000 0.000000 0.000000
O O5 0.710940 0.190107 0.385995
O O6 0.500000 0.000000 0.500000
O O7 0.500000 0.500000 0.500000
O O8 0.684671 0.641317 0.623322
O O9 0.336938 0.474148 0.722521
O O10 0.158951 0.627812 0.318375
O O11 0.195918 0.697792 0.929149
O O12 0.758675 0.599424 0.974725
O O13 0.000000 0.500000 0.000000
O O14 0.287790 0.272286 0.969521
#
# Coordination Sequence:
#
# PCOD8025904 Si02
#       6
#     2   2   2   2   2   2
#     4  10  23  46  72  96 134 168 215 281 342 394
#     4   9  22  44  68  95 130 167 215 275 339 393
#     4  11  23  42  64  90 131 186 223 273 326 374
#     4  12  24  42  64  95 137 177 226 271 321 389
#     4  11  25  41  66 102 132 175 228 264 332 403
#     4  11  24  41  65  90 135 179 225 271 326 380
#
# _framework density 21.712955000000001
#
# number of rings (size 3 to 8) (size 9 to 14) (size 15 to 20)
#    0.000    1.333    3.333    0.500    0.000   12.000 
#    0.000    0.000    0.000    0.000    0.000    0.000 
#    0.000    0.000    0.000    0.000    0.000    0.000 
#
# Total GULP energy -148665.587119 kJ/mol
# GULP energy per Si atom -12388.798927 kJ/mol
# Density = 2.166353 g / cm^3
# Si number density = 21.712955 Si / 1000 Ang^3
#
#
#
# Elastic Constant Matrix: (Units=GPa)
#
#
# Indices 1 2 3 4 5 6 
#
# 1 194.1224 56.2921 75.9393 8.0800 -5.8720 -15.4138
# 2 56.2921 86.0140 43.3771 15.0446 1.5336 -2.0172
# 3 75.9393 43.3771 154.0314 13.3977 12.1877 -3.7273
# 4 8.0800 15.0446 13.3977 39.0391 12.7354 3.7106
# 5 -5.8720 1.5336 12.1877 12.7354 35.2124 4.5264
# 6 -15.4138 -2.0172 -3.7273 3.7106 4.5264 36.3920
#
#
#
# Elastic Compliance Matrix: (Units=1/GPa)
#
#
# Indices 1 2 3 4 5 6 
#
# 1 0.007527 -0.003444 -0.002834 -0.000189 0.002138 0.002460
# 2 -0.003444 0.015978 -0.002493 -0.005022 0.001473 -0.000500
# 3 -0.002834 -0.002493 0.008890 -0.000433 -0.003287 0.000025
# 4 -0.000189 -0.005022 -0.000433 0.031461 -0.010749 -0.002274
# 5 0.002138 0.001473 -0.003287 -0.010749 0.034037 -0.002487
# 6 0.002460 -0.000500 0.000025 -0.002274 -0.002487 0.029037
#
#
# Mechanical properties :
#
#
# Convention : Reuss Voigt Hill
#
# Bulk Modulus (GPa) = 67.33327 87.26497 77.29912
# Shear Modulus (GPa) = 33.46215 39.36600 36.41407
#
# Velocity S-wave (km/s) = 3.92996 4.26258 4.09964
# Velocity P-wave (km/s) = 7.18824 8.03141 7.62149
#
# Compressibility (1/GPa) = 0.01485150
#
# Stress axis : x y z
#
# Youngs Moduli (GPa) = 132.86157 62.58690 112.48555
#
# Poissons Ratio (x) = 0.21554 0.31879
# Poissons Ratio (y) = 0.45756 0.28048
# Poissons Ratio (z) = 0.37654 0.15606
#
# Static dielectric constant tensor:
#      x y z
#    x 4.237890 0.294760 -0.090220 
#    y 0.294760 3.560020 -0.031670 
#    z -0.090220 -0.031670 4.707220 
# 
# 
# High freq. dielectric constant tensor:
#      x y z
#    x 1.869350 0.011840 -0.002840 
#    y 0.011840 1.830100 0.017440 
#    z -0.002840 0.017440 1.876050 
# 
# From -- ./inp_files/137301.got.cif
#   From: 2010.06.25/outbox.cif.g09.slc.cpg/sg2_69_cif.got.tgz:137301.got - 2010.06.27 13:26:56.
