data_PCOD8025063
_publ_section_title
;
Structure prediction by ZEFSAII (Michael W. Deem and Ramdas Pophale) SiO2 
 PCOD8025063
Probable space group: P -1
;
_chemical_formula_sum "Si O2"
_cell_formula_units_Z 10
_cell_length_a 10.099152
_cell_length_b 9.403678
_cell_length_c 8.753169
_cell_angle_alpha 50.022751
_cell_angle_beta 111.189004
_cell_angle_gamma 77.026945
_cell_volume 456.758922
_symmetry_space_group_name_H-M "P -1"
_symmetry_group_IT_number 2
_symmetry_cell_setting 'triclinic'
loop_
_space_group_symop_operation_xyz
x,y,z
-x,-y,-z
loop_
_atom_site_type_symbol
_atom_site_label
_atom_site_fract_x
_atom_site_fract_y
_atom_site_fract_z
Si Si1 0.662009 0.968199 0.425817
Si Si2 0.877647 0.059186 0.263227
Si Si3 0.346207 0.973661 0.279762
Si Si4 0.993971 0.297789 0.698056
Si Si5 0.720954 0.520276 0.690387
O O1 0.443255 0.098064 0.233511
O O2 0.781254 0.678040 0.659476
O O3 0.709694 0.066113 0.239925
O O4 0.708088 0.026614 0.567204
O O5 0.003334 0.850913 0.334839
O O6 0.794136 0.317303 0.986152
O O7 0.000000 0.000000 0.500000
O O8 0.496138 0.699374 0.465999
O O9 0.167646 0.115365 0.004725
O O10 0.000000 0.500000 0.500000
O O11 0.807035 0.411021 0.634951
#
# Coordination Sequence:
#
# PCOD8025063 Si02
#       5
#     2   2   2   2   2
#     4   9  21  45  66  97 133 173 210 270 330 383
#     4  12  26  40  68 104 128 174 224 263 332 389
#     4   9  22  44  68  96 132 173 220 261 332 390
#     4  12  24  42  71  96 131 178 216 271 328 384
#     4  10  23  44  68  95 134 172 212 275 321 387
#
# _framework density 21.893388000000002
#
# number of rings (size 3 to 8) (size 9 to 14) (size 15 to 20)
#    1.200    0.400    2.000    1.800    2.800    6.400 
#    0.000    2.000    0.000    0.000    0.000    0.000 
#    0.000    0.000    0.000    0.000    0.000    0.000 
#
# Total GULP energy -123974.754799 kJ/mol
# GULP energy per Si atom -12397.475480 kJ/mol
# Density = 2.184356 g / cm^3
# Si number density = 21.893388 Si / 1000 Ang^3
#
#
#
# Elastic Constant Matrix: (Units=GPa)
#
#
# Indices 1 2 3 4 5 6 
#
# 1 80.7873 37.3222 26.3312 -11.0539 -26.7042 -27.6027
# 2 37.3222 141.6028 46.7754 5.4207 6.4980 -31.0436
# 3 26.3312 46.7754 85.1514 -15.8508 -11.5857 -13.7580
# 4 -11.0539 5.4207 -15.8508 29.2126 1.9527 -1.7587
# 5 -26.7042 6.4980 -11.5857 1.9527 39.0579 -2.7250
# 6 -27.6027 -31.0436 -13.7580 -1.7587 -2.7250 42.7524
#
#
#
# Elastic Compliance Matrix: (Units=1/GPa)
#
#
# Indices 1 2 3 4 5 6 
#
# 1 0.029870 -0.006547 0.002820 0.013569 0.022887 0.017456
# 2 -0.006547 0.012065 -0.006920 -0.007845 -0.008041 0.001472
# 3 0.002820 -0.006920 0.018685 0.012167 0.008281 0.003837
# 4 0.013569 -0.007845 0.012167 0.047172 0.012511 0.009717
# 5 0.022887 -0.008041 0.008281 0.012511 0.045468 0.015016
# 6 0.017456 0.001472 0.003837 0.009717 0.015016 0.038321
#
#
# Mechanical properties :
#
#
# Convention : Reuss Voigt Hill
#
# Bulk Modulus (GPa) = 25.42867 58.71101 42.06984
# Shear Modulus (GPa) = 22.12555 35.34542 28.73548
#
# Velocity S-wave (km/s) = 3.18245 4.02236 3.62680
# Velocity P-wave (km/s) = 5.01438 6.96042 6.06595
#
# Compressibility (1/GPa) = 0.03932569
#
# Stress axis : x y z
#
# Youngs Moduli (GPa) = 33.47871 82.88110 53.52028
#
# Poissons Ratio (x) = 0.54264 -0.15093
# Poissons Ratio (y) = 0.21919 0.37035
# Poissons Ratio (z) = -0.09441 0.57353
#
# Static dielectric constant tensor:
#      x y z
#    x 4.087220 -0.349890 -0.112270 
#    y -0.349890 2.888610 0.593610 
#    z -0.112270 0.593610 3.219590 
# 
# 
# High freq. dielectric constant tensor:
#      x y z
#    x 1.867810 -0.016630 -0.010930 
#    y -0.016630 1.867900 -0.003280 
#    z -0.010930 -0.003280 1.841420 
# 
# From -- ./inp_files/20241.got.cif
#   From: 2010.06.25/outbox.cif.g09.slc.cpg/sg2_11_cif.got.tgz:20241.got - 2010.06.27 13:26:56.
