data_PCOD8025898
_publ_section_title
;
Structure prediction by ZEFSAII (Michael W. Deem and Ramdas Pophale) SiO2 
 PCOD8025898
Probable space group: P -1
;
_chemical_formula_sum "Si O2"
_cell_formula_units_Z 16
_cell_length_a 16.806194
_cell_length_b 5.192677
_cell_length_c 9.371211
_cell_angle_alpha 75.839422
_cell_angle_beta 62.160269
_cell_angle_gamma 66.062786
_cell_volume 659.421178
_symmetry_space_group_name_H-M "P -1"
_symmetry_group_IT_number 2
_symmetry_cell_setting 'triclinic'
loop_
_space_group_symop_operation_xyz
x,y,z
-x,-y,-z
loop_
_atom_site_type_symbol
_atom_site_label
_atom_site_fract_x
_atom_site_fract_y
_atom_site_fract_z
Si Si1 0.617574 0.721009 0.630699
Si Si2 0.738905 0.255656 0.067292
Si Si3 0.558357 0.208110 0.065769
Si Si4 0.955492 0.085079 0.872281
Si Si5 0.007220 0.629471 0.661183
Si Si6 0.309814 0.249964 0.146945
Si Si7 0.147138 0.165361 0.454927
Si Si8 0.705002 0.202961 0.431544
O O1 0.504153 0.849395 0.743758
O O2 0.670963 0.582761 0.752794
O O3 0.637473 0.487810 0.523403
O O4 0.653521 0.971419 0.516908
O O5 0.661884 0.171329 0.051553
O O6 0.718436 0.265207 0.249332
O O7 0.848181 0.071104 0.964047
O O8 0.728160 0.570076 0.986407
O O9 0.500000 0.500000 0.000000
O O10 0.586232 0.979596 0.945470
O O11 0.961695 0.388207 0.779117
O O12 0.016741 0.832844 0.751196
O O13 0.000000 0.000000 0.000000
O O14 0.945098 0.832804 0.559123
O O15 0.113716 0.462527 0.532134
O O16 0.230501 0.119137 0.276342
O O17 0.189309 0.911856 0.568254
#
# Coordination Sequence:
#
# PCOD8025898 Si02
#       8
#     2   2   2   2   2   2   2   2
#     4  11  26  47  74 103 142 196 236 296 357 437
#     4  12  28  45  75 108 147 193 241 306 366 429
#     4  12  25  46  77 110 144 191 249 301 361 433
#     4  12  27  48  72 107 149 190 241 302 365 427
#     4  11  25  43  74 105 138 192 245 298 361 434
#     4  11  24  45  75 105 146 188 248 296 360 433
#     4  10  23  46  72 105 144 190 245 301 359 436
#     4  11  28  46  71 105 152 191 240 300 369 425
#
# _framework density 24.263704000000001
#
# number of rings (size 3 to 8) (size 9 to 14) (size 15 to 20)
#    0.000    0.750    2.500    3.750    5.250    7.000 
#    0.000    0.000    0.000    0.000    0.000    0.000 
#    0.000    0.000    0.000    0.000    0.000    0.000 
#
# Total GULP energy -198291.444532 kJ/mol
# GULP energy per Si atom -12393.215283 kJ/mol
# Density = 2.420848 g / cm^3
# Si number density = 24.263704 Si / 1000 Ang^3
#
#
#
# Elastic Constant Matrix: (Units=GPa)
#
#
# Indices 1 2 3 4 5 6 
#
# 1 82.8742 22.4731 28.9186 -10.8030 -5.1985 -12.8367
# 2 22.4731 82.3070 48.7778 11.2239 10.3659 2.1703
# 3 28.9186 48.7778 149.0540 0.9854 9.9578 -8.6068
# 4 -10.8030 11.2239 0.9854 46.8469 -10.4813 4.0697
# 5 -5.1985 10.3659 9.9578 -10.4813 42.9166 7.1290
# 6 -12.8367 2.1703 -8.6068 4.0697 7.1290 32.5445
#
#
#
# Elastic Compliance Matrix: (Units=1/GPa)
#
#
# Indices 1 2 3 4 5 6 
#
# 1 0.015470 -0.004638 -0.001515 0.005182 0.003861 0.004517
# 2 -0.004638 0.017681 -0.004663 -0.006078 -0.004832 -0.002423
# 3 -0.001515 -0.004663 0.008762 0.000051 -0.001467 0.002346
# 4 0.005182 -0.006078 0.000051 0.026241 0.008954 -0.002780
# 5 0.003861 -0.004832 -0.001467 0.008954 0.028442 -0.005893
# 6 0.004517 -0.002423 0.002346 -0.002780 -0.005893 0.034929
#
#
# Mechanical properties :
#
#
# Convention : Reuss Voigt Hill
#
# Bulk Modulus (GPa) = 49.30809 57.17491 53.24150
# Shear Modulus (GPa) = 31.26593 38.73262 34.99928
#
# Velocity S-wave (km/s) = 3.59359 3.99973 3.80209
# Velocity P-wave (km/s) = 6.13061 6.70415 6.42378
#
# Compressibility (1/GPa) = 0.02028065
#
# Stress axis : x y z
#
# Youngs Moduli (GPa) = 64.64035 56.55815 114.12891
#
# Poissons Ratio (x) = 0.26233 0.17290
# Poissons Ratio (y) = 0.29981 0.53219
# Poissons Ratio (z) = 0.09793 0.26374
#
# Static dielectric constant tensor:
#      x y z
#    x 4.655040 -0.253960 -0.227270 
#    y -0.253960 4.292550 0.027660 
#    z -0.227270 0.027660 4.884970 
# 
# 
# High freq. dielectric constant tensor:
#      x y z
#    x 1.967100 -0.007380 -0.009650 
#    y -0.007380 1.952180 0.007600 
#    z -0.009650 0.007600 1.987810 
# 
# From -- ./inp_files/323543.got.cif
#   From: 2010.06.25/outbox.cif.g09.slc.cpg/sg2_162_cif.got.tgz:323543.got - 2010.06.27 13:26:56.
