data_PCOD8025521
_publ_section_title
;
Structure prediction by ZEFSAII (Michael W. Deem and Ramdas Pophale) SiO2 
 PCOD8025521
Probable space group: P -1
;
_chemical_formula_sum "Si O2"
_cell_formula_units_Z 16
_cell_length_a 16.113743
_cell_length_b 8.759503
_cell_length_c 16.515439
_cell_angle_alpha 75.120877
_cell_angle_beta 145.111363
_cell_angle_gamma 132.151716
_cell_volume 713.043699
_symmetry_space_group_name_H-M "P -1"
_symmetry_group_IT_number 2
_symmetry_cell_setting 'triclinic'
loop_
_space_group_symop_operation_xyz
x,y,z
-x,-y,-z
loop_
_atom_site_type_symbol
_atom_site_label
_atom_site_fract_x
_atom_site_fract_y
_atom_site_fract_z
Si Si1 0.819268 0.178319 0.012892
Si Si2 0.706235 0.133924 0.540432
Si Si3 0.642434 0.468566 0.643208
Si Si4 0.070533 0.378860 0.929345
Si Si5 0.883819 0.209394 0.503137
Si Si6 0.398790 0.849185 0.850641
Si Si7 0.477088 0.385743 0.693769
Si Si8 0.596418 0.847284 0.720387
O O1 0.885098 0.420535 0.009720
O O2 0.075277 0.296999 0.204934
O O3 0.661138 0.030344 0.990794
O O4 0.636528 0.941071 0.830326
O O5 0.724258 0.149029 0.455771
O O6 0.594728 0.201795 0.469880
O O7 0.986679 0.364141 0.775463
O O8 0.528130 0.835978 0.477622
O O9 0.500000 0.500000 0.500000
O O10 0.655273 0.484703 0.747973
O O11 0.330899 0.512205 0.097499
O O12 0.863020 0.078645 0.850652
O O13 0.768755 0.169430 0.330854
O O14 0.192602 0.514758 0.728003
O O15 0.811597 0.955952 0.485085
O O16 0.500000 0.000000 0.000000
O O17 0.445294 0.543828 0.644842
#
# Coordination Sequence:
#
# PCOD8025521 Si02
#       8
#     2   2   2   2   2   2   2   2
#     4  12  23  41  67  96 139 179 237 284 349 410
#     4  11  23  40  67 100 141 182 232 281 346 422
#     4  11  24  41  63 102 145 181 222 288 350 417
#     4  12  22  38  64 104 141 187 230 274 342 433
#     4  10  23  45  69 101 137 178 236 300 343 411
#     4  11  23  46  77 101 127 184 247 295 350 408
#     4  11  24  41  65 100 148 186 218 283 353 414
#     4  12  23  39  63 103 146 189 223 277 348 427
#
# _framework density 22.439019999999999
#
# number of rings (size 3 to 8) (size 9 to 14) (size 15 to 20)
#    0.000    0.750    5.000    3.375    3.500    0.000 
#    0.000    0.625    0.000    3.750    0.000    0.000 
#    0.000    0.000    0.000    0.000    0.000    0.000 
#
# Total GULP energy -198244.220780 kJ/mol
# GULP energy per Si atom -12390.263799 kJ/mol
# Density = 2.238795 g / cm^3
# Si number density = 22.439020 Si / 1000 Ang^3
#
#
#
# Elastic Constant Matrix: (Units=GPa)
#
#
# Indices 1 2 3 4 5 6 
#
# 1 79.4823 45.1401 43.5695 -0.0079 -10.4398 2.9524
# 2 45.1401 167.6641 66.4960 18.5886 7.2650 -30.7057
# 3 43.5695 66.4960 120.6569 4.5121 -0.9619 -6.5714
# 4 -0.0079 18.5886 4.5121 31.7437 -5.9165 5.9036
# 5 -10.4398 7.2650 -0.9619 -5.9165 45.0343 -2.8463
# 6 2.9524 -30.7057 -6.5714 5.9036 -2.8463 44.0446
#
#
#
# Elastic Compliance Matrix: (Units=1/GPa)
#
#
# Indices 1 2 3 4 5 6 
#
# 1 0.019029 -0.005406 -0.004406 0.005980 0.005587 -0.006142
# 2 -0.005406 0.011613 -0.003675 -0.008624 -0.003781 0.008822
# 3 -0.004406 -0.003675 0.011851 0.000548 -0.000140 -0.000581
# 4 0.005980 -0.008624 0.000548 0.039926 0.007326 -0.011210
# 5 0.005587 -0.003781 -0.000140 0.007326 0.024918 -0.002403
# 6 -0.006142 0.008822 -0.000581 -0.011210 -0.002403 0.030526
#
#
# Mechanical properties :
#
#
# Convention : Reuss Voigt Hill
#
# Bulk Modulus (GPa) = 64.43498 75.35715 69.89607
# Shear Modulus (GPa) = 29.40988 38.33770 33.87379
#
# Velocity S-wave (km/s) = 3.62423 4.13792 3.88956
# Velocity P-wave (km/s) = 6.80377 7.51571 7.16858
#
# Compressibility (1/GPa) = 0.01551952
#
# Stress axis : x y z
#
# Youngs Moduli (GPa) = 52.55076 86.11158 84.38032
#
# Poissons Ratio (x) = 0.46550 0.37177
# Poissons Ratio (y) = 0.28408 0.31011
# Poissons Ratio (z) = 0.23153 0.31647
#
# Static dielectric constant tensor:
#      x y z
#    x 3.902790 0.020050 -0.261370 
#    y 0.020050 4.160040 0.118330 
#    z -0.261370 0.118330 4.287280 
# 
# 
# High freq. dielectric constant tensor:
#      x y z
#    x 1.859890 -0.001280 -0.020970 
#    y -0.001280 1.878030 0.006720 
#    z -0.020970 0.006720 1.896410 
# 
# From -- ./inp_files/529677.got.cif
#   From: 2010.06.25/outbox.cif.g09.slc.cpg/sg2_265_cif.got.tgz:529677.got - 2010.06.27 13:26:56.
