data_PCOD8025159
_publ_section_title
;
Structure prediction by ZEFSAII (Michael W. Deem and Ramdas Pophale) SiO2 
 PCOD8025159
Probable space group: P -1
;
_chemical_formula_sum "Si O2"
_cell_formula_units_Z 16
_cell_length_a 8.808764
_cell_length_b 13.058832
_cell_length_c 10.528539
_cell_angle_alpha 49.506201
_cell_angle_beta 67.565253
_cell_angle_gamma 95.595137
_cell_volume 741.510764
_symmetry_space_group_name_H-M "P -1"
_symmetry_group_IT_number 2
_symmetry_cell_setting 'triclinic'
loop_
_space_group_symop_operation_xyz
x,y,z
-x,-y,-z
loop_
_atom_site_type_symbol
_atom_site_label
_atom_site_fract_x
_atom_site_fract_y
_atom_site_fract_z
Si Si1 0.130167 0.435051 0.460972
Si Si2 0.400309 0.140670 0.518276
Si Si3 0.626703 0.932374 0.956948
Si Si4 0.533340 0.610334 0.283597
Si Si5 0.264353 0.525147 0.815879
Si Si6 0.968345 0.893937 0.217207
Si Si7 0.453941 0.860889 0.798135
Si Si8 0.118641 0.528172 0.127510
O O1 0.341988 0.565404 0.309157
O O2 0.104616 0.410932 0.336583
O O3 0.000000 0.500000 0.500000
O O4 0.089435 0.278759 0.672124
O O5 0.560852 0.302301 0.394744
O O6 0.420652 0.135300 0.364487
O O7 0.193977 0.114614 0.633212
O O8 0.418586 0.005556 0.690294
O O9 0.570486 0.875955 0.875780
O O10 0.846069 0.056395 0.797237
O O11 0.607592 0.786418 0.162670
O O12 0.500000 0.000000 0.000000
O O13 0.500000 0.500000 0.500000
O O14 0.678193 0.599818 0.147844
O O15 0.091661 0.503913 0.802307
O O16 0.201417 0.486460 0.012530
O O17 0.000000 0.000000 0.000000
O O18 0.251295 0.705847 0.984779
#
# Coordination Sequence:
#
# PCOD8025159 Si02
#       8
#     2   2   2   2   2   2   2   2
#     4  12  25  43  67  98 130 173 223 279 330 390
#     4  10  23  44  70 100 136 175 218 272 335 399
#     4  12  27  44  67  96 135 179 221 275 330 393
#     4  12  25  43  67  98 130 173 223 279 330 390
#     4  10  23  44  71 101 134 173 219 274 335 397
#     4  12  27  44  67  96 135 179 221 275 330 393
#     4  10  23  44  70 100 136 175 218 272 335 399
#     4  10  23  44  71 101 134 173 219 274 335 397
#
# _framework density 21.577569
#
# number of rings (size 3 to 8) (size 9 to 14) (size 15 to 20)
#    0.000    1.000    2.500    3.000    7.000    2.000 
#    0.000    0.000    0.000    0.000    0.000    0.000 
#    0.000    0.000    0.000    0.000    0.000    0.000 
#
# Total GULP energy -198445.890432 kJ/mol
# GULP energy per Si atom -12402.868152 kJ/mol
# Density = 2.152846 g / cm^3
# Si number density = 21.577569 Si / 1000 Ang^3
#
#
#
# Elastic Constant Matrix: (Units=GPa)
#
#
# Indices 1 2 3 4 5 6 
#
# 1 109.5706 46.7312 44.3845 19.8684 -25.4696 -15.0488
# 2 46.7312 103.8500 42.4587 -0.9705 -6.9725 -28.4854
# 3 44.3845 42.4587 104.2599 -0.9186 -2.6797 -18.6278
# 4 19.8684 -0.9705 -0.9186 34.0711 -4.0010 3.2416
# 5 -25.4696 -6.9725 -2.6797 -4.0010 51.6576 -0.6252
# 6 -15.0488 -28.4854 -18.6278 3.2416 -0.6252 48.6482
#
#
#
# Elastic Compliance Matrix: (Units=1/GPa)
#
#
# Indices 1 2 3 4 5 6 
#
# 1 0.016431 -0.004781 -0.004754 -0.009192 0.006511 0.001159
# 2 -0.004781 0.014527 -0.002835 0.002544 -0.000276 0.005769
# 3 -0.004754 -0.002835 0.013044 0.002671 -0.001823 0.001662
# 4 -0.009192 0.002544 0.002671 0.034948 -0.001376 -0.002677
# 5 0.006511 -0.000276 -0.001823 -0.001376 0.022349 0.001533
# 6 0.001159 0.005769 0.001662 -0.002677 0.001533 0.025127
#
#
# Mechanical properties :
#
#
# Convention : Reuss Voigt Hill
#
# Bulk Modulus (GPa) = 51.91659 64.98102 58.44881
# Shear Modulus (GPa) = 31.72884 39.14913 35.43899
#
# Velocity S-wave (km/s) = 3.83881 4.26413 4.05705
# Velocity P-wave (km/s) = 6.61523 7.37728 7.00662
#
# Compressibility (1/GPa) = 0.01926167
#
# Stress axis : x y z
#
# Youngs Moduli (GPa) = 60.86131 68.83714 76.66612
#
# Poissons Ratio (x) = 0.32908 0.36450
# Poissons Ratio (y) = 0.29095 0.21734
# Poissons Ratio (z) = 0.28936 0.19514
#
# Static dielectric constant tensor:
#      x y z
#    x 4.005610 0.059630 -0.077310 
#    y 0.059630 3.958630 -0.029090 
#    z -0.077310 -0.029090 4.087920 
# 
# 
# High freq. dielectric constant tensor:
#      x y z
#    x 1.859480 -0.000200 -0.003610 
#    y -0.000200 1.852570 -0.001130 
#    z -0.003610 -0.001130 1.857350 
# 
# From -- ./inp_files/271390.got.cif
#   From: 2010.06.25/outbox.cif.g09.slc.cpg/sg2_136_cif.got.tgz:271390.got - 2010.06.27 13:26:56.
