data_PCOD8025440
_publ_section_title
;
Structure prediction by ZEFSAII (Michael W. Deem and Ramdas Pophale) SiO2 
 PCOD8025440
Probable space group: P -1
;
_chemical_formula_sum "Si O2"
_cell_formula_units_Z 16
_cell_length_a 11.038076
_cell_length_b 9.740203
_cell_length_c 9.305805
_cell_angle_alpha 134.567299
_cell_angle_beta 97.491923
_cell_angle_gamma 81.063731
_cell_volume 703.803104
_symmetry_space_group_name_H-M "P -1"
_symmetry_group_IT_number 2
_symmetry_cell_setting 'triclinic'
loop_
_space_group_symop_operation_xyz
x,y,z
-x,-y,-z
loop_
_atom_site_type_symbol
_atom_site_label
_atom_site_fract_x
_atom_site_fract_y
_atom_site_fract_z
Si Si1 0.291164 0.686341 0.244665
Si Si2 0.978126 0.951607 0.697292
Si Si3 0.793872 0.518435 0.173447
Si Si4 0.627704 0.496355 0.600374
Si Si5 0.626480 0.927672 0.894290
Si Si6 0.011001 0.711464 0.245278
Si Si7 0.197154 0.757751 0.764379
Si Si8 0.284067 0.081395 0.397124
O O1 0.386465 0.601380 0.317450
O O2 0.154295 0.663856 0.265253
O O3 0.316798 0.909782 0.390298
O O4 0.305984 0.568320 0.009992
O O5 0.959247 0.834364 0.463168
O O6 0.066703 0.845607 0.748957
O O7 0.838962 0.963489 0.744808
O O8 0.014839 0.164344 0.814427
O O9 0.831296 0.365787 0.191567
O O10 0.727378 0.715480 0.371269
O O11 0.920080 0.535686 0.108385
O O12 0.500000 0.500000 0.500000
O O13 0.666267 0.710498 0.792724
O O14 0.735371 0.381512 0.444283
O O15 0.612725 0.922499 0.714180
O O16 0.500000 0.000000 0.000000
O O17 0.724756 0.066002 0.063385
#
# Coordination Sequence:
#
# PCOD8025440 Si02
#       8
#     2   2   2   2   2   2   2   2
#     4  11  23  44  71 100 140 182 227 282 340 409
#     4   9  20  38  67 102 146 181 220 278 341 409
#     4  11  23  39  69 103 145 175 226 273 343 414
#     4  12  27  48  72  99 129 182 240 287 341 405
#     4  12  26  47  71  96 135 180 235 288 340 404
#     4   9  19  38  63 106 142 184 222 266 342 416
#     4  12  24  44  70 100 144 182 225 287 343 398
#     4  10  23  45  67 106 143 177 228 282 341 410
#
# _framework density 22.733629000000001
#
# number of rings (size 3 to 8) (size 9 to 14) (size 15 to 20)
#    0.000    1.250    5.000    1.125    1.750    3.500 
#    0.000    3.125    0.000    0.000    0.000    0.000 
#    0.000    0.000    0.000    0.000    0.000    0.000 
#
# Total GULP energy -198382.219054 kJ/mol
# GULP energy per Si atom -12398.888691 kJ/mol
# Density = 2.268189 g / cm^3
# Si number density = 22.733629 Si / 1000 Ang^3
#
#
#
# Elastic Constant Matrix: (Units=GPa)
#
#
# Indices 1 2 3 4 5 6 
#
# 1 51.2632 50.1945 31.9202 -7.8663 -7.8603 3.6091
# 2 50.1945 204.3569 69.3051 -2.4127 10.8770 -11.3861
# 3 31.9202 69.3051 86.1804 9.1607 -6.3930 -7.0505
# 4 -7.8663 -2.4127 9.1607 45.4670 5.1406 4.2886
# 5 -7.8603 10.8770 -6.3930 5.1406 29.2427 -6.5183
# 6 3.6091 -11.3861 -7.0505 4.2886 -6.5183 28.7699
#
#
#
# Elastic Compliance Matrix: (Units=1/GPa)
#
#
# Indices 1 2 3 4 5 6 
#
# 1 0.033340 -0.006014 -0.008502 0.007244 0.006212 -0.008318
# 2 -0.006014 0.008449 -0.004966 0.000913 -0.005681 0.001458
# 3 -0.008502 -0.004966 0.020586 -0.007298 0.006858 0.006788
# 4 0.007244 0.000913 -0.007298 0.026202 -0.006304 -0.007670
# 5 0.006212 -0.005681 0.006858 -0.006304 0.042650 0.009256
# 6 -0.008318 0.001458 0.006788 -0.007670 0.009256 0.041283
#
#
# Mechanical properties :
#
#
# Convention : Reuss Voigt Hill
#
# Bulk Modulus (GPa) = 42.71609 71.62667 57.17138
# Shear Modulus (GPa) = 22.80201 33.38796 28.09498
#
# Velocity S-wave (km/s) = 3.17047 3.83647 3.51926
# Velocity P-wave (km/s) = 5.67742 7.15541 6.45883
#
# Compressibility (1/GPa) = 0.02341038
#
# Stress axis : x y z
#
# Youngs Moduli (GPa) = 29.99430 118.35300 48.57613
#
# Poissons Ratio (x) = 0.71181 0.41298
# Poissons Ratio (y) = 0.18039 0.24125
# Poissons Ratio (z) = 0.25500 0.58778
#
# Static dielectric constant tensor:
#      x y z
#    x 3.796860 0.225130 -0.234860 
#    y 0.225130 4.214940 0.181280 
#    z -0.234860 0.181280 4.372500 
# 
# 
# High freq. dielectric constant tensor:
#      x y z
#    x 1.878700 0.017410 -0.015790 
#    y 0.017410 1.901200 0.012130 
#    z -0.015790 0.012130 1.919080 
# 
# From -- ./inp_files/246063.got.cif
#   From: 2010.06.25/outbox.cif.g09.slc.cpg/sg2_124_cif.got.tgz:246063.got - 2010.06.27 13:26:56.
