data_PCOD8025201
_publ_section_title
;
Structure prediction by ZEFSAII (Michael W. Deem and Ramdas Pophale) SiO2 
 PCOD8025201
Probable space group: P -1
;
_chemical_formula_sum "Si O2"
_cell_formula_units_Z 16
_cell_length_a 10.943454
_cell_length_b 15.861446
_cell_length_c 9.559503
_cell_angle_alpha 59.974588
_cell_angle_beta 62.403072
_cell_angle_gamma 113.513813
_cell_volume 724.948562
_symmetry_space_group_name_H-M "P -1"
_symmetry_group_IT_number 2
_symmetry_cell_setting 'triclinic'
loop_
_space_group_symop_operation_xyz
x,y,z
-x,-y,-z
loop_
_atom_site_type_symbol
_atom_site_label
_atom_site_fract_x
_atom_site_fract_y
_atom_site_fract_z
Si Si1 0.156555 0.239473 0.734676
Si Si2 0.919711 0.266634 0.303074
Si Si3 0.588853 0.559551 0.060325
Si Si4 0.743169 0.907210 0.066491
Si Si5 0.756041 0.326849 0.530915
Si Si6 0.543800 0.125586 0.093990
Si Si7 0.276032 0.149795 0.191468
Si Si8 0.964490 0.317693 0.910802
O O1 0.407357 0.394760 0.391101
O O2 0.178020 0.155625 0.884985
O O3 0.108259 0.302309 0.809285
O O4 0.935695 0.097996 0.860615
O O5 0.948263 0.379671 0.289646
O O6 0.674364 0.075786 0.648409
O O7 0.905895 0.285199 0.132479
O O8 0.143310 0.325923 0.163414
O O9 0.500000 0.500000 0.000000
O O10 0.583401 0.667629 0.023891
O O11 0.474031 0.783552 0.358286
O O12 0.722727 0.899576 0.918233
O O13 0.871859 0.496186 0.376034
O O14 0.692131 0.229249 0.785861
O O15 0.427406 0.158082 0.194064
O O16 0.715119 0.177657 0.075739
O O17 0.000000 0.000000 0.500000
#
# Coordination Sequence:
#
# PCOD8025201 Si02
#       8
#     2   2   2   2   2   2   2   2
#     4  11  24  43  69 100 136 175 231 280 342 407
#     4  12  26  46  68 103 142 181 226 284 344 405
#     4  12  27  42  70 103 137 180 231 281 338 407
#     4  10  23  44  70  97 131 183 222 281 342 406
#     4  11  25  45  70  96 141 183 228 280 342 408
#     4  11  25  43  73  98 135 185 228 281 342 406
#     4  11  22  44  66  98 134 174 226 279 339 399
#     4  12  26  45  71 104 138 181 228 285 342 411
#
# _framework density 22.070530999999999
#
# number of rings (size 3 to 8) (size 9 to 14) (size 15 to 20)
#    0.000    0.750    1.250    6.000    5.250    1.500 
#    2.250    0.000    0.000    0.000    0.000    0.000 
#    0.000    0.000    0.000    0.000    0.000    0.000 
#
# Total GULP energy -198441.557408 kJ/mol
# GULP energy per Si atom -12402.597338 kJ/mol
# Density = 2.202030 g / cm^3
# Si number density = 22.070531 Si / 1000 Ang^3
#
#
#
# Elastic Constant Matrix: (Units=GPa)
#
#
# Indices 1 2 3 4 5 6 
#
# 1 94.2176 20.2684 13.4660 10.9832 -8.0961 2.8356
# 2 20.2684 97.4507 29.7485 6.4899 4.2137 -6.0759
# 3 13.4660 29.7485 97.6425 0.6587 5.1137 0.2683
# 4 10.9832 6.4899 0.6587 43.5431 -1.4116 -2.9498
# 5 -8.0961 4.2137 5.1137 -1.4116 36.5180 -1.2471
# 6 2.8356 -6.0759 0.2683 -2.9498 -1.2471 40.7449
#
#
#
# Elastic Compliance Matrix: (Units=1/GPa)
#
#
# Indices 1 2 3 4 5 6 
#
# 1 0.011826 -0.002148 -0.001106 -0.002637 0.002880 -0.001239
# 2 -0.002148 0.011955 -0.003271 -0.001111 -0.001378 0.001831
# 3 -0.001106 -0.003271 0.011466 0.000512 -0.001470 -0.000494
# 4 -0.002637 -0.001111 0.000512 0.023923 0.000457 0.001760
# 5 0.002880 -0.001378 -0.001470 0.000457 0.028422 0.000507
# 6 -0.001239 0.001831 -0.000494 0.001760 0.000507 0.025048
#
#
# Mechanical properties :
#
#
# Convention : Reuss Voigt Hill
#
# Bulk Modulus (GPa) = 45.05495 46.25296 45.65396
# Shear Modulus (GPa) = 37.56868 39.21637 38.39252
#
# Velocity S-wave (km/s) = 4.13026 4.21986 4.17530
# Velocity P-wave (km/s) = 6.57296 6.68920 6.63133
#
# Compressibility (1/GPa) = 0.02219512
#
# Stress axis : x y z
#
# Youngs Moduli (GPa) = 84.55872 83.64855 87.21760
#
# Poissons Ratio (x) = 0.17969 0.09647
# Poissons Ratio (y) = 0.18165 0.28532
# Poissons Ratio (z) = 0.09353 0.27364
#
# Static dielectric constant tensor:
#      x y z
#    x 4.220540 0.038500 0.085570 
#    y 0.038500 4.023710 -0.238020 
#    z 0.085570 -0.238020 3.808390 
# 
# 
# High freq. dielectric constant tensor:
#      x y z
#    x 1.885340 -0.008520 -0.007490 
#    y -0.008520 1.872540 -0.006320 
#    z -0.007490 -0.006320 1.873220 
# 
# From -- ./inp_files/272413.got.cif
#   From: 2010.06.25/outbox.cif.g09.slc.cpg/sg2_137_cif.got.tgz:272413.got - 2010.06.27 13:26:56.
