data_PCOD8025747
_publ_section_title
;
Structure prediction by ZEFSAII (Michael W. Deem and Ramdas Pophale) SiO2 
 PCOD8025747
Probable space group: P -1
;
_chemical_formula_sum "Si O2"
_cell_formula_units_Z 14
_cell_length_a 12.109500
_cell_length_b 7.564043
_cell_length_c 18.125096
_cell_angle_alpha 62.222548
_cell_angle_beta 152.276781
_cell_angle_gamma 133.781245
_cell_volume 501.817048
_symmetry_space_group_name_H-M "P -1"
_symmetry_group_IT_number 2
_symmetry_cell_setting 'triclinic'
loop_
_space_group_symop_operation_xyz
x,y,z
-x,-y,-z
loop_
_atom_site_type_symbol
_atom_site_label
_atom_site_fract_x
_atom_site_fract_y
_atom_site_fract_z
Si Si1 0.616823 0.268640 0.966060
Si Si2 0.641601 0.370223 0.687711
Si Si3 0.555706 0.387322 0.207627
Si Si4 0.325424 0.190419 0.959515
Si Si5 0.741109 0.023321 0.334294
Si Si6 0.198521 0.660003 0.501418
Si Si7 0.587584 0.792130 0.571101
O O1 0.648442 0.525936 0.923105
O O2 0.462512 0.132113 0.983597
O O3 0.395214 0.043747 0.816155
O O4 0.975174 0.382653 0.145458
O O5 0.554628 0.191351 0.742202
O O6 0.481623 0.499593 0.572888
O O7 0.484409 0.168166 0.562292
O O8 0.530031 0.243483 0.296272
O O9 0.933406 0.680721 0.360316
O O10 0.409625 0.161230 0.098287
O O11 0.500000 0.500000 0.000000
O O12 0.952055 0.022718 0.765254
O O13 0.000000 0.000000 0.500000
O O14 0.925184 0.329461 0.404691
O O15 0.358196 0.789115 0.491256
#
# Coordination Sequence:
#
# PCOD8025747 Si02
#       7
#     2   2   2   2   2   2   2
#     4  11  23  44  67 100 138 173 228 275 340 396
#     4  11  25  41  70 104 134 177 221 286 337 397
#     4  10  23  46  64  95 140 175 226 265 342 397
#     4  10  24  44  66  97 137 180 219 281 336 403
#     4  12  22  43  71 101 139 173 226 279 339 398
#     4  11  24  44  70 100 134 183 221 279 333 403
#     4  11  24  44  68 102 135 172 236 274 337 401
#
# _framework density 27.898613000000001
#
# number of rings (size 3 to 8) (size 9 to 14) (size 15 to 20)
#    0.000    1.143    2.857    2.143    6.000    1.143 
#   10.286    5.714    0.000    0.000    0.000    0.000 
#    0.000    0.000    0.000    0.000    0.000    0.000 
#
# Total GULP energy -173635.616039 kJ/mol
# GULP energy per Si atom -12402.544003 kJ/mol
# Density = 2.783511 g / cm^3
# Si number density = 27.898613 Si / 1000 Ang^3
#
#
#
# Elastic Constant Matrix: (Units=GPa)
#
#
# Indices 1 2 3 4 5 6 
#
# 1 169.9631 34.0503 49.1212 -2.1320 -19.4234 22.8539
# 2 34.0503 60.8898 1.5230 -0.1258 -12.8654 26.8613
# 3 49.1212 1.5230 153.1374 -0.6117 -21.7315 24.6245
# 4 -2.1320 -0.1258 -0.6117 43.0041 3.4418 -2.4094
# 5 -19.4234 -12.8654 -21.7315 3.4418 70.5471 -2.5089
# 6 22.8539 26.8613 24.6245 -2.4094 -2.5089 65.7269
#
#
#
# Elastic Compliance Matrix: (Units=1/GPa)
#
#
# Indices 1 2 3 4 5 6 
#
# 1 0.007398 -0.003901 -0.002227 0.000268 0.000623 -0.000110
# 2 -0.003901 0.023417 0.003047 -0.000908 0.003851 -0.009242
# 3 -0.002227 0.003047 0.008095 -0.000365 0.002332 -0.003428
# 4 0.000268 -0.000908 -0.000365 0.023432 -0.001304 0.001224
# 5 0.000623 0.003851 0.002332 -0.001304 0.015755 -0.002110
# 6 -0.000110 -0.009242 -0.003428 0.001224 -0.002110 0.020278
#
#
# Mechanical properties :
#
#
# Convention : Reuss Voigt Hill
#
# Bulk Modulus (GPa) = 30.53564 61.48659 46.01112
# Shear Modulus (GPa) = 43.30774 55.80867 49.55821
#
# Velocity S-wave (km/s) = 3.94423 4.47745 4.21927
# Velocity P-wave (km/s) = 5.63130 6.98693 6.34542
#
# Compressibility (1/GPa) = 0.03274862
#
# Stress axis : x y z
#
# Youngs Moduli (GPa) = 135.17038 42.70434 123.53530
#
# Poissons Ratio (x) = 0.16657 0.27513
# Poissons Ratio (y) = 0.52725 -0.37643
# Poissons Ratio (z) = 0.30104 -0.13013
#
# Static dielectric constant tensor:
#      x y z
#    x 5.752880 -0.120640 -0.583710 
#    y -0.120640 5.219220 -0.517350 
#    z -0.583710 -0.517350 5.837570 
# 
# 
# High freq. dielectric constant tensor:
#      x y z
#    x 2.147160 -0.017940 -0.008960 
#    y -0.017940 2.154930 -0.020430 
#    z -0.008960 -0.020430 2.136660 
# 
# From -- ./inp_files/393262.got.cif
#   From: 2010.06.25/outbox.cif.g09.slc.cpg/sg2_197_cif.got.tgz:393262.got - 2010.06.27 13:26:56.
