data_PCOD8025906
_publ_section_title
;
Structure prediction by ZEFSAII (Michael W. Deem and Ramdas Pophale) SiO2 
 PCOD8025906
Probable space group: P -1
;
_chemical_formula_sum "Si O2"
_cell_formula_units_Z 16
_cell_length_a 14.110965
_cell_length_b 13.674376
_cell_length_c 11.856383
_cell_angle_alpha 139.292051
_cell_angle_beta 29.902120
_cell_angle_gamma 136.245636
_cell_volume 728.744440
_symmetry_space_group_name_H-M "P -1"
_symmetry_group_IT_number 2
_symmetry_cell_setting 'triclinic'
loop_
_space_group_symop_operation_xyz
x,y,z
-x,-y,-z
loop_
_atom_site_type_symbol
_atom_site_label
_atom_site_fract_x
_atom_site_fract_y
_atom_site_fract_z
Si Si1 0.040703 0.943915 0.289505
Si Si2 0.050229 0.586938 0.642445
Si Si3 0.271980 0.928854 0.690938
Si Si4 0.367149 0.091532 0.952965
Si Si5 0.852480 0.609307 0.236011
Si Si6 0.314288 0.369320 0.799376
Si Si7 0.755221 0.981212 0.435700
Si Si8 0.700855 0.589286 0.624986
O O1 0.979807 0.763433 0.187887
O O2 0.924621 0.029719 0.394500
O O3 0.000000 0.000000 0.500000
O O4 0.270654 0.996763 0.078341
O O5 0.212021 0.743716 0.598246
O O6 0.123121 0.469580 0.549320
O O7 0.000000 0.500000 0.500000
O O8 0.859148 0.626325 0.930805
O O9 0.500000 0.000000 0.500000
O O10 0.229799 0.007281 0.919506
O O11 0.159127 0.984647 0.749563
O O12 0.592873 0.084420 0.710759
O O13 0.343364 0.265269 0.136269
O O14 0.703977 0.553891 0.238148
O O15 0.747510 0.628328 0.479022
O O16 0.000000 0.500000 0.000000
O O17 0.342477 0.196140 0.603999
O O18 0.512144 0.459723 0.725954
#
# Coordination Sequence:
#
# PCOD8025906 Si02
#       8
#     2   2   2   2   2   2   2   2
#     4  11  24  43  65  99 133 175 231 283 338 410
#     4  12  29  46  72 107 143 186 235 289 350 417
#     4  10  23  46  72  99 136 185 229 281 349 410
#     4  11  25  43  71  99 137 180 229 288 343 407
#     4  11  23  45  71  98 137 184 229 287 354 417
#     4  11  26  46  71 102 140 186 232 286 356 419
#     4  10  25  44  70  96 134 180 229 280 348 412
#     4  12  26  45  70 105 141 181 235 292 349 420
#
# _framework density 21.955570999999999
#
# number of rings (size 3 to 8) (size 9 to 14) (size 15 to 20)
#    0.000    1.000    2.500    3.375    8.750    3.000 
#    0.000    0.000    0.000    0.000    0.000    0.000 
#    0.000    0.000    0.000    0.000    0.000    0.000 
#
# Total GULP energy -198357.036832 kJ/mol
# GULP energy per Si atom -12397.314802 kJ/mol
# Density = 2.190560 g / cm^3
# Si number density = 21.955571 Si / 1000 Ang^3
#
#
#
# Elastic Constant Matrix: (Units=GPa)
#
#
# Indices 1 2 3 4 5 6 
#
# 1 108.3687 8.5807 28.1498 8.9152 17.8067 -14.3204
# 2 8.5807 75.9980 18.2745 5.3740 2.5080 -2.7834
# 3 28.1498 18.2745 93.1828 8.6608 11.8825 -3.4500
# 4 8.9152 5.3740 8.6608 40.3272 -2.2714 3.0769
# 5 17.8067 2.5080 11.8825 -2.2714 38.4854 4.1197
# 6 -14.3204 -2.7834 -3.4500 3.0769 4.1197 36.0374
#
#
#
# Elastic Compliance Matrix: (Units=1/GPa)
#
#
# Indices 1 2 3 4 5 6 
#
# 1 0.011655 -0.000187 -0.002349 -0.002750 -0.005379 0.005242
# 2 -0.000187 0.013913 -0.002483 -0.001362 -0.000231 0.000905
# 3 -0.002349 -0.002483 0.012493 -0.002033 -0.002789 0.000563
# 4 -0.002750 -0.001362 -0.002033 0.026563 0.003997 -0.004118
# 5 -0.005379 -0.000231 -0.002789 0.003997 0.030251 -0.006222
# 6 0.005242 0.000905 0.000563 -0.004118 -0.006222 0.031019
#
#
# Mechanical properties :
#
#
# Convention : Reuss Voigt Hill
#
# Bulk Modulus (GPa) = 35.68193 43.06217 39.37205
# Shear Modulus (GPa) = 34.41791 37.80630 36.11211
#
# Velocity S-wave (km/s) = 3.96361 4.15414 4.05999
# Velocity P-wave (km/s) = 6.10197 6.53185 6.32057
#
# Compressibility (1/GPa) = 0.02802539
#
# Stress axis : x y z
#
# Youngs Moduli (GPa) = 85.79645 71.87324 80.04166
#
# Poissons Ratio (x) = 0.01346 0.18799
# Poissons Ratio (y) = 0.01606 0.19871
# Poissons Ratio (z) = 0.20151 0.17843
#
# Static dielectric constant tensor:
#      x y z
#    x 4.478960 -0.088390 0.330550 
#    y -0.088390 3.894170 0.002390 
#    z 0.330550 0.002390 3.975970 
# 
# 
# High freq. dielectric constant tensor:
#      x y z
#    x 1.874180 -0.002850 0.010930 
#    y -0.002850 1.870160 -0.004250 
#    z 0.010930 -0.004250 1.869550 
# 
# From -- ./inp_files/455047.got.cif
#   From: 2010.06.25/outbox.cif.g09.slc.cpg/sg2_228_cif.got.tgz:455047.got - 2010.06.27 13:26:56.
