data_PCOD8025529
_publ_section_title
;
Structure prediction by ZEFSAII (Michael W. Deem and Ramdas Pophale) SiO2 
 PCOD8025529
Probable space group: P -1
;
_chemical_formula_sum "Si O2"
_cell_formula_units_Z 14
_cell_length_a 15.812558
_cell_length_b 15.284937
_cell_length_c 4.911142
_cell_angle_alpha 78.011570
_cell_angle_beta 92.475514
_cell_angle_gamma 29.742540
_cell_volume 511.273616
_symmetry_space_group_name_H-M "P -1"
_symmetry_group_IT_number 2
_symmetry_cell_setting 'triclinic'
loop_
_space_group_symop_operation_xyz
x,y,z
-x,-y,-z
loop_
_atom_site_type_symbol
_atom_site_label
_atom_site_fract_x
_atom_site_fract_y
_atom_site_fract_z
Si Si1 0.045261 0.516144 0.729852
Si Si2 0.295241 0.550559 0.739812
Si Si3 0.329194 0.818447 0.228120
Si Si4 0.606018 0.856086 0.352905
Si Si5 0.047199 0.223942 0.707055
Si Si6 0.215974 0.818263 0.709102
Si Si7 0.724233 0.584787 0.817607
O O1 0.154307 0.359673 0.557962
O O2 0.902380 0.736532 0.494992
O O3 0.240576 0.382344 0.938700
O O4 0.000000 0.500000 0.000000
O O5 0.439803 0.392431 0.613946
O O6 0.078206 0.732122 0.503738
O O7 0.331749 0.617317 0.794194
O O8 0.367899 0.419642 0.086076
O O9 0.275558 0.845194 0.511033
O O10 0.252172 0.810855 0.030321
O O11 0.237979 0.998028 0.997873
O O12 0.588081 0.766511 0.462850
O O13 0.500000 0.000000 0.500000
O O14 0.500000 0.000000 0.000000
O O15 0.929741 0.369881 0.854571
O O16 0.000000 0.000000 0.500000
#
# Coordination Sequence:
#
# PCOD8025529 Si02
#       7
#     2   2   2   2   2   2   2
#     4  10  23  45  69 103 138 187 234 294 360 436
#     4  11  25  44  71 104 146 187 245 297 354 431
#     4  12  27  45  72 109 139 195 243 291 359 426
#     4  11  22  43  69 100 133 178 233 284 357 423
#     4  10  24  44  68 100 147 185 235 300 361 416
#     4  12  25  46  74 104 149 192 237 298 357 422
#     4  10  23  45  72  98 148 190 231 305 366 418
#
# _framework density 27.382598000000002
#
# number of rings (size 3 to 8) (size 9 to 14) (size 15 to 20)
#    0.000    1.143    2.857    2.143    6.000    3.429 
#    0.000    0.000    0.000    0.000    0.000    0.000 
#    0.000    0.000    0.000    0.000    0.000    0.000 
#
# Total GULP energy -173444.034610 kJ/mol
# GULP energy per Si atom -12388.859615 kJ/mol
# Density = 2.732027 g / cm^3
# Si number density = 27.382598 Si / 1000 Ang^3
#
#
#
# Elastic Constant Matrix: (Units=GPa)
#
#
# Indices 1 2 3 4 5 6 
#
# 1 80.9967 14.4148 56.1428 -13.6378 -23.6220 13.3659
# 2 14.4148 128.6307 28.0699 -4.0345 -14.7096 -2.4443
# 3 56.1428 28.0699 138.6322 5.2410 -37.3279 8.9987
# 4 -13.6378 -4.0345 5.2410 47.9260 12.2594 -5.8062
# 5 -23.6220 -14.7096 -37.3279 12.2594 61.9871 1.2505
# 6 13.3659 -2.4443 8.9987 -5.8062 1.2505 46.9464
#
#
#
# Elastic Compliance Matrix: (Units=1/GPa)
#
#
# Indices 1 2 3 4 5 6 
#
# 1 0.019521 -0.000268 -0.007287 0.005388 0.001994 -0.003562
# 2 -0.000268 0.008246 -0.001408 0.000653 0.000861 0.000833
# 3 -0.007287 -0.001408 0.012102 -0.004971 0.005181 -0.001071
# 4 0.005388 0.000653 -0.004971 0.024790 -0.005742 0.002672
# 5 0.001994 0.000861 0.005181 -0.005742 0.021409 -0.002796
# 6 -0.003562 0.000833 -0.001071 0.002672 -0.002796 0.022969
#
#
# Mechanical properties :
#
#
# Convention : Reuss Voigt Hill
#
# Bulk Modulus (GPa) = 45.57244 60.61273 53.09258
# Shear Modulus (GPa) = 37.23640 48.01404 42.62522
#
# Velocity S-wave (km/s) = 3.69162 4.19197 3.94973
# Velocity P-wave (km/s) = 5.90337 6.75379 6.34285
#
# Compressibility (1/GPa) = 0.02194309
#
# Stress axis : x y z
#
# Youngs Moduli (GPa) = 51.22623 121.26709 82.63034
#
# Poissons Ratio (x) = 0.03252 0.60213
# Poissons Ratio (y) = 0.01374 0.11635
# Poissons Ratio (z) = 0.37329 0.17075
#
# Static dielectric constant tensor:
#      x y z
#    x 6.795820 0.094860 0.363090 
#    y 0.094860 5.510740 -0.352090 
#    z 0.363090 -0.352090 5.431330 
# 
# 
# High freq. dielectric constant tensor:
#      x y z
#    x 2.117430 0.013450 -0.006750 
#    y 0.013450 2.106420 0.004300 
#    z -0.006750 0.004300 2.126140 
# 
# From -- ./inp_files/97700.got.cif
#   From: 2010.06.25/outbox.cif.g09.slc.cpg/sg2_49_cif.got.tgz:97700.got - 2010.06.27 13:26:56.
