data_PCOD8025505
_publ_section_title
;
Structure prediction by ZEFSAII (Michael W. Deem and Ramdas Pophale) SiO2 
 PCOD8025505
Probable space group: P -1
;
_chemical_formula_sum "Si O2"
_cell_formula_units_Z 16
_cell_length_a 13.401149
_cell_length_b 6.838085
_cell_length_c 21.010575
_cell_angle_alpha 80.452882
_cell_angle_beta 157.459715
_cell_angle_gamma 101.203346
_cell_volume 723.520530
_symmetry_space_group_name_H-M "P -1"
_symmetry_group_IT_number 2
_symmetry_cell_setting 'triclinic'
loop_
_space_group_symop_operation_xyz
x,y,z
-x,-y,-z
loop_
_atom_site_type_symbol
_atom_site_label
_atom_site_fract_x
_atom_site_fract_y
_atom_site_fract_z
Si Si1 0.877759 0.313075 0.896740
Si Si2 0.675377 0.444727 0.046206
Si Si3 0.924427 0.112523 0.152501
Si Si4 0.121249 0.800341 0.575846
Si Si5 0.830943 0.557967 0.308198
Si Si6 0.906537 0.268479 0.670485
Si Si7 0.292903 0.052713 0.096066
Si Si8 0.615204 0.571500 0.631638
O O1 0.730829 0.149442 0.865716
O O2 0.671024 0.387710 0.719977
O O3 0.000000 0.500000 0.000000
O O4 0.094327 0.208142 0.991406
O O5 0.754050 0.217966 0.099548
O O6 0.947586 0.591522 0.195347
O O7 0.500000 0.500000 0.000000
O O8 0.488073 0.466610 0.874105
O O9 0.123506 0.277471 0.226227
O O10 0.743411 0.000383 0.997384
O O11 0.088518 0.960902 0.295396
O O12 0.092562 0.669505 0.631263
O O13 0.942686 0.677632 0.427001
O O14 0.420241 0.837524 0.727978
O O15 0.000000 0.000000 0.500000
O O16 0.924011 0.678800 0.294596
O O17 0.612047 0.309465 0.478824
O O18 0.500000 0.500000 0.500000
#
# Coordination Sequence:
#
# PCOD8025505 Si02
#       8
#     2   2   2   2   2   2   2   2
#     4  11  26  47  72 104 147 189 233 296 354 424
#     4  10  23  45  68  98 136 183 229 285 355 418
#     4  12  24  43  72 102 140 186 231 295 352 424
#     4  11  25  42  67  98 136 180 234 284 340 415
#     4  10  25  42  65  96 137 178 230 284 344 408
#     4  11  25  42  69 102 139 177 230 288 351 423
#     4  11  26  44  74 105 138 190 242 284 358 427
#     4  12  25  44  72 104 141 183 235 291 361 416
#
# _framework density 22.114094000000001
#
# number of rings (size 3 to 8) (size 9 to 14) (size 15 to 20)
#    0.000    1.000    2.500    2.625    5.250    6.000 
#    0.000    0.000    0.000    0.000    0.000    0.000 
#    0.000    0.000    0.000    0.000    0.000    0.000 
#
# Total GULP energy -198295.527124 kJ/mol
# GULP energy per Si atom -12393.470445 kJ/mol
# Density = 2.206376 g / cm^3
# Si number density = 22.114094 Si / 1000 Ang^3
#
#
#
# Elastic Constant Matrix: (Units=GPa)
#
#
# Indices 1 2 3 4 5 6 
#
# 1 69.6166 39.6588 27.1158 -18.7895 -7.1766 -0.2734
# 2 39.6588 136.1129 42.9125 -40.1614 -10.5414 -3.5811
# 3 27.1158 42.9125 132.3164 -21.9451 -10.3999 -4.3677
# 4 -18.7895 -40.1614 -21.9451 49.6214 -0.8667 -5.8247
# 5 -7.1766 -10.5414 -10.3999 -0.8667 30.0552 -7.7717
# 6 -0.2734 -3.5811 -4.3677 -5.8247 -7.7717 40.7912
#
#
#
# Elastic Compliance Matrix: (Units=1/GPa)
#
#
# Indices 1 2 3 4 5 6 
#
# 1 0.018278 -0.003526 -0.001801 0.003393 0.002766 0.000632
# 2 -0.003526 0.011407 -0.001335 0.007677 0.003595 0.002616
# 3 -0.001801 -0.001335 0.009045 0.002487 0.002747 0.001718
# 4 0.003393 0.007677 0.002487 0.029636 0.006902 0.006510
# 5 0.002766 0.003595 0.002747 0.006902 0.038665 0.008980
# 6 0.000632 0.002616 0.001718 0.006510 0.008980 0.027573
#
#
# Mechanical properties :
#
#
# Convention : Reuss Voigt Hill
#
# Bulk Modulus (GPa) = 39.35975 61.93557 50.64766
# Shear Modulus (GPa) = 31.96986 39.31747 35.64366
#
# Velocity S-wave (km/s) = 3.80633 4.22113 4.01909
# Velocity P-wave (km/s) = 6.09546 7.19898 6.67008
#
# Compressibility (1/GPa) = 0.02540666
#
# Stress axis : x y z
#
# Youngs Moduli (GPa) = 54.71085 87.66210 110.55992
#
# Poissons Ratio (x) = 0.30906 0.19915
# Poissons Ratio (y) = 0.19289 0.14759
# Poissons Ratio (z) = 0.09855 0.11702
#
# Static dielectric constant tensor:
#      x y z
#    x 4.122910 0.184820 -0.578280 
#    y 0.184820 4.213390 -0.445980 
#    z -0.578280 -0.445980 5.509850 
# 
# 
# High freq. dielectric constant tensor:
#      x y z
#    x 1.854990 0.001470 -0.006790 
#    y 0.001470 1.885100 -0.004220 
#    z -0.006790 -0.004220 1.892190 
# 
# From -- ./inp_files/84292.got.cif
#   From: 2010.06.25/outbox.cif.g09.slc.cpg/sg2_43_cif.got.tgz:84292.got - 2010.06.27 13:26:56.
