data_PCOD8025676
_publ_section_title
;
Structure prediction by ZEFSAII (Michael W. Deem and Ramdas Pophale) SiO2 
 PCOD8025676
Probable space group: P -1
;
_chemical_formula_sum "Si O2"
_cell_formula_units_Z 16
_cell_length_a 9.312510
_cell_length_b 13.784624
_cell_length_c 11.033711
_cell_angle_alpha 146.365109
_cell_angle_beta 83.669813
_cell_angle_gamma 111.896410
_cell_volume 670.417945
_symmetry_space_group_name_H-M "P -1"
_symmetry_group_IT_number 2
_symmetry_cell_setting 'triclinic'
loop_
_space_group_symop_operation_xyz
x,y,z
-x,-y,-z
loop_
_atom_site_type_symbol
_atom_site_label
_atom_site_fract_x
_atom_site_fract_y
_atom_site_fract_z
Si Si1 0.410015 0.049232 0.166210
Si Si2 0.203320 0.041631 0.825554
Si Si3 0.544944 0.701467 0.359790
Si Si4 0.924046 0.006418 0.638661
Si Si5 0.982941 0.622477 0.517416
Si Si6 0.493512 0.721361 0.112955
Si Si7 0.312210 0.313313 0.315521
Si Si8 0.814870 0.307598 0.016680
O O1 0.522893 0.217515 0.437330
O O2 0.292443 0.125273 0.199872
O O3 0.500000 0.000000 0.000000
O O4 0.295681 0.830662 0.006467
O O5 0.358575 0.079759 0.763525
O O6 0.043142 0.014729 0.742470
O O7 0.268750 0.243900 0.109307
O O8 0.147232 0.846584 0.716418
O O9 0.507337 0.770011 0.305550
O O10 0.744524 0.807122 0.469801
O O11 0.470006 0.459690 0.112170
O O12 0.908450 0.206460 0.837231
O O13 0.000000 0.000000 0.500000
O O14 0.813509 0.623645 0.555419
O O15 0.959872 0.516130 0.278403
O O16 0.000000 0.500000 0.500000
O O17 0.306524 0.663120 0.032765
O O18 0.500000 0.500000 0.500000
#
# Coordination Sequence:
#
# PCOD8025676 Si02
#       8
#     2   2   2   2   2   2   2   2
#     4  11  22  40  67 103 137 182 234 297 359 425
#     4  12  24  43  72 105 142 191 240 292 372 431
#     4  10  23  45  72  99 148 187 241 301 366 434
#     4  11  23  46  71 101 144 190 234 296 368 433
#     4  12  25  45  70 106 152 191 241 303 362 436
#     4  11  23  44  73 104 138 190 243 304 362 430
#     4  12  25  44  72 103 144 190 242 298 364 428
#     4  11  24  43  70 101 143 180 244 294 358 431
#
# _framework density 23.865708999999999
#
# number of rings (size 3 to 8) (size 9 to 14) (size 15 to 20)
#    0.000    0.750    1.250    7.875    0.000    3.000 
#    2.250    6.250    0.000    0.000    0.000    0.000 
#    0.000    0.000    0.000    0.000    0.000    0.000 
#
# Total GULP energy -198362.699223 kJ/mol
# GULP energy per Si atom -12397.668701 kJ/mol
# Density = 2.381139 g / cm^3
# Si number density = 23.865709 Si / 1000 Ang^3
#
#
#
# Elastic Constant Matrix: (Units=GPa)
#
#
# Indices 1 2 3 4 5 6 
#
# 1 101.8846 40.9743 50.0221 -12.5691 -1.4373 -16.7386
# 2 40.9743 114.3291 60.0337 -20.2540 -4.3443 -7.3229
# 3 50.0221 60.0337 142.8230 -29.1010 -0.0598 5.1353
# 4 -12.5691 -20.2540 -29.1010 46.8674 1.8194 -1.0835
# 5 -1.4373 -4.3443 -0.0598 1.8194 51.7372 -8.8690
# 6 -16.7386 -7.3229 5.1353 -1.0835 -8.8690 40.5896
#
#
#
# Elastic Compliance Matrix: (Units=1/GPa)
#
#
# Indices 1 2 3 4 5 6 
#
# 1 0.013763 -0.002356 -0.003987 0.000290 0.001203 0.006025
# 2 -0.002356 0.012229 -0.003939 0.002207 0.001233 0.002061
# 3 -0.003987 -0.003939 0.011014 0.004025 -0.001241 -0.003912
# 4 0.000290 0.002207 0.004025 0.024903 -0.000584 0.000546
# 5 0.001203 0.001233 -0.001241 -0.000584 0.020396 0.005316
# 6 0.006025 0.002061 -0.003912 0.000546 0.005316 0.029165
#
#
# Mechanical properties :
#
#
# Convention : Reuss Voigt Hill
#
# Bulk Modulus (GPa) = 60.82034 73.45521 67.13778
# Shear Modulus (GPa) = 36.35985 41.70595 39.03290
#
# Velocity S-wave (km/s) = 3.90746 4.18488 4.04855
# Velocity P-wave (km/s) = 6.77476 7.36181 7.07438
#
# Compressibility (1/GPa) = 0.01644187
#
# Stress axis : x y z
#
# Youngs Moduli (GPa) = 72.66073 81.77069 90.79205
#
# Poissons Ratio (x) = 0.19264 0.36199
# Poissons Ratio (y) = 0.17117 0.35765
# Poissons Ratio (z) = 0.28970 0.32212
#
# Static dielectric constant tensor:
#      x y z
#    x 4.176110 -0.242520 -0.103340 
#    y -0.242520 4.538870 -0.072820 
#    z -0.103340 -0.072820 4.452400 
# 
# 
# High freq. dielectric constant tensor:
#      x y z
#    x 1.940150 -0.013360 0.002170 
#    y -0.013360 1.951790 -0.010040 
#    z 0.002170 -0.010040 1.963090 
# 
# From -- ./inp_files/400016.got.cif
#   From: 2010.06.25/outbox.cif.g09.slc.cpg/sg2_201_cif.got.tgz:400016.got - 2010.06.27 13:26:56.
