data_PCOD8025973
_publ_section_title
;
Structure prediction by ZEFSAII (Michael W. Deem and Ramdas Pophale) SiO2 
 PCOD8025973
Probable space group: P -1
;
_chemical_formula_sum "Si O2"
_cell_formula_units_Z 16
_cell_length_a 13.443667
_cell_length_b 9.458973
_cell_length_c 18.199021
_cell_angle_alpha 40.845050
_cell_angle_beta 28.101763
_cell_angle_gamma 42.075990
_cell_volume 691.518158
_symmetry_space_group_name_H-M "P -1"
_symmetry_group_IT_number 2
_symmetry_cell_setting 'triclinic'
loop_
_space_group_symop_operation_xyz
x,y,z
-x,-y,-z
loop_
_atom_site_type_symbol
_atom_site_label
_atom_site_fract_x
_atom_site_fract_y
_atom_site_fract_z
Si Si1 0.469398 0.929647 0.905389
Si Si2 0.152511 0.319564 0.024145
Si Si3 0.558465 0.007347 0.374325
Si Si4 0.124538 0.404513 0.637448
Si Si5 0.252489 0.570372 0.222689
Si Si6 0.704308 0.948119 0.607875
Si Si7 0.932477 0.799301 0.717569
Si Si8 0.443005 0.495381 0.277876
O O1 0.514044 0.038871 0.755855
O O2 0.678993 0.924149 0.823373
O O3 0.433913 0.677173 0.022798
O O4 0.236169 0.076780 0.028164
O O5 0.021992 0.301732 0.190678
O O6 0.380720 0.370935 0.873999
O O7 0.000000 0.500000 0.000000
O O8 0.775576 0.815498 0.291750
O O9 0.500000 0.000000 0.500000
O O10 0.370927 0.963274 0.459313
O O11 0.578329 0.258564 0.248253
O O12 0.993006 0.599274 0.698338
O O13 0.320943 0.480254 0.439448
O O14 0.983359 0.315764 0.702123
O O15 0.264510 0.314056 0.299039
O O16 0.267690 0.613786 0.283502
O O17 0.922251 0.022209 0.459133
#
# Coordination Sequence:
#
# PCOD8025973 Si02
#       8
#     2   2   2   2   2   2   2   2
#     4  12  26  49  71 104 142 185 232 295 349 418
#     4  12  30  46  71 101 144 188 232 290 359 419
#     4   9  23  43  67 102 142 182 227 288 341 414
#     4  11  24  41  75 105 139 181 241 288 345 416
#     4  11  24  44  74 104 142 178 235 286 352 407
#     4  11  25  45  76 104 140 184 236 288 350 415
#     4  12  27  47  73 105 140 184 239 292 349 417
#     4  10  23  47  68 103 144 186 233 284 349 420
#
# _framework density 23.137498999999998
#
# number of rings (size 3 to 8) (size 9 to 14) (size 15 to 20)
#    0.000    1.000    2.500    2.250    8.750    2.500 
#    0.000    1.250    0.000    0.000    0.000    0.000 
#    0.000    0.000    0.000    0.000    0.000    0.000 
#
# Total GULP energy -198298.242754 kJ/mol
# GULP energy per Si atom -12393.640172 kJ/mol
# Density = 2.308484 g / cm^3
# Si number density = 23.137499 Si / 1000 Ang^3
#
#
#
# Elastic Constant Matrix: (Units=GPa)
#
#
# Indices 1 2 3 4 5 6 
#
# 1 137.4370 53.7867 39.6879 -4.4194 0.8189 -7.2453
# 2 53.7867 93.8222 37.5822 8.1393 -8.4779 -11.7111
# 3 39.6879 37.5822 114.2620 -13.9380 2.4424 3.7741
# 4 -4.4194 8.1393 -13.9380 29.7383 6.1449 -0.5635
# 5 0.8189 -8.4779 2.4424 6.1449 40.7116 2.3613
# 6 -7.2453 -11.7111 3.7741 -0.5635 2.3613 31.6679
#
#
#
# Elastic Compliance Matrix: (Units=1/GPa)
#
#
# Indices 1 2 3 4 5 6 
#
# 1 0.009928 -0.005497 -0.001288 0.002741 -0.001714 0.000569
# 2 -0.005497 0.017935 -0.005410 -0.009242 0.005248 0.005464
# 3 -0.001288 -0.005410 0.012057 0.007444 -0.002751 -0.003395
# 4 0.002741 -0.009242 0.007444 0.041786 -0.008600 -0.002293
# 5 -0.001714 0.005248 -0.002751 -0.008600 0.027171 -0.000303
# 6 0.000569 0.005464 -0.003395 -0.002293 -0.000303 0.034115
#
#
# Mechanical properties :
#
#
# Convention : Reuss Voigt Hill
#
# Bulk Modulus (GPa) = 64.38946 67.51497 65.95221
# Shear Modulus (GPa) = 28.97576 34.72120 31.84848
#
# Velocity S-wave (km/s) = 3.54267 3.87802 3.71413
# Velocity P-wave (km/s) = 6.68008 7.02106 6.85269
#
# Compressibility (1/GPa) = 0.01553049
#
# Stress axis : x y z
#
# Youngs Moduli (GPa) = 100.72869 55.75776 82.93612
#
# Poissons Ratio (x) = 0.30651 0.10682
# Poissons Ratio (y) = 0.55372 0.44865
# Poissons Ratio (z) = 0.12974 0.30163
#
# Static dielectric constant tensor:
#      x y z
#    x 4.500970 -0.150050 0.026950 
#    y -0.150050 4.482660 -0.103060 
#    z 0.026950 -0.103060 4.066440 
# 
# 
# High freq. dielectric constant tensor:
#      x y z
#    x 1.928670 0.001220 -0.001010 
#    y 0.001220 1.912700 -0.012550 
#    z -0.001010 -0.012550 1.903180 
# 
# From -- ./inp_files/566489.got.cif
#   From: 2010.06.25/outbox.cif.g09.slc.cpg/sg2_284_cif.got.tgz:566489.got - 2010.06.27 13:26:56.
