data_PCOD8025064
_publ_section_title
;
Structure prediction by ZEFSAII (Michael W. Deem and Ramdas Pophale) SiO2 
 PCOD8025064
Probable space group: P -1
;
_chemical_formula_sum "Si O2"
_cell_formula_units_Z 12
_cell_length_a 15.218263
_cell_length_b 24.097336
_cell_length_c 6.566355
_cell_angle_alpha 46.585681
_cell_angle_beta 120.370472
_cell_angle_gamma 158.197059
_cell_volume 565.906943
_symmetry_space_group_name_H-M "P -1"
_symmetry_group_IT_number 2
_symmetry_cell_setting 'triclinic'
loop_
_space_group_symop_operation_xyz
x,y,z
-x,-y,-z
loop_
_atom_site_type_symbol
_atom_site_label
_atom_site_fract_x
_atom_site_fract_y
_atom_site_fract_z
Si Si1 0.944040 0.910084 0.855135
Si Si2 0.311647 0.706072 0.887834
Si Si3 0.568099 0.726985 0.195797
Si Si4 0.566101 0.097912 0.138248
Si Si5 0.263924 0.374418 0.910771
Si Si6 0.253661 0.909747 0.855883
O O1 0.714702 0.793285 0.007054
O O2 0.837654 0.752584 0.065309
O O3 0.000000 0.000000 0.500000
O O4 0.217666 0.091729 0.847173
O O5 0.344401 0.758933 0.025253
O O6 0.492933 0.875924 0.504449
O O7 0.380889 0.665425 0.057901
O O8 0.000000 0.500000 0.000000
O O9 0.371267 0.526980 0.560109
O O10 0.793058 0.207743 0.998706
O O11 0.500000 0.000000 0.500000
O O12 0.314598 0.940962 0.088712
O O13 0.500000 0.500000 0.000000
O O14 0.011501 0.221126 0.149159
#
# Coordination Sequence:
#
# PCOD8025064 Si02
#       6
#     2   2   2   2   2   2
#     4  11  23  47  69  98 138 176 224 282 335 397
#     4  11  25  43  67 100 135 175 224 276 337 398
#     4  11  26  43  70  99 136 179 226 277 337 399
#     4   9  21  43  69  94 128 177 219 274 334 389
#     4  12  25  44  71 101 134 180 227 274 341 400
#     4  10  23  44  68  95 138 173 223 279 331 397
#
# _framework density 21.204901
#
# number of rings (size 3 to 8) (size 9 to 14) (size 15 to 20)
#    0.000    1.333    1.667    2.500    9.333    2.000 
#    6.000    0.000    0.000    0.000    0.000    0.000 
#    0.000    0.000    0.000    0.000    0.000    0.000 
#
# Total GULP energy -148770.163506 kJ/mol
# GULP energy per Si atom -12397.513625 kJ/mol
# Density = 2.115664 g / cm^3
# Si number density = 21.204901 Si / 1000 Ang^3
#
#
#
# Elastic Constant Matrix: (Units=GPa)
#
#
# Indices 1 2 3 4 5 6 
#
# 1 153.9348 79.3313 41.8015 -10.2495 0.9168 4.1297
# 2 79.3313 110.3647 44.9168 -11.3246 -13.8677 16.7471
# 3 41.8015 44.9168 102.2887 -5.3505 -1.1018 5.3021
# 4 -10.2495 -11.3246 -5.3505 34.2229 -0.6439 0.8163
# 5 0.9168 -13.8677 -1.1018 -0.6439 39.2036 -0.2468
# 6 4.1297 16.7471 5.3021 0.8163 -0.2468 51.1025
#
#
#
# Elastic Compliance Matrix: (Units=1/GPa)
#
#
# Indices 1 2 3 4 5 6 
#
# 1 0.010929 -0.008074 -0.001033 0.000337 -0.003124 0.001850
# 2 -0.008074 0.018569 -0.004351 0.003291 0.006658 -0.005002
# 3 -0.001033 -0.004351 0.012089 0.000113 -0.001172 0.000248
# 4 0.000337 0.003291 0.000113 0.030497 0.001650 -0.001597
# 5 -0.003124 0.006658 -0.001172 0.001650 0.027919 -0.001699
# 6 0.001850 -0.005002 0.000248 -0.001597 -0.001699 0.021050
#
#
# Mechanical properties :
#
#
# Convention : Reuss Voigt Hill
#
# Bulk Modulus (GPa) = 68.16086 77.63193 72.89639
# Shear Modulus (GPa) = 32.70962 38.27506 35.49234
#
# Velocity S-wave (km/s) = 3.93179 4.25315 4.09562
# Velocity P-wave (km/s) = 7.26813 7.79801 7.53772
#
# Compressibility (1/GPa) = 0.01467118
#
# Stress axis : x y z
#
# Youngs Moduli (GPa) = 91.49730 53.85368 82.71727
#
# Poissons Ratio (x) = 0.43483 0.08542
# Poissons Ratio (y) = 0.73878 0.35991
# Poissons Ratio (z) = 0.09449 0.23432
#
# Static dielectric constant tensor:
#      x y z
#    x 5.250570 -0.265640 0.253320 
#    y -0.265640 3.908970 0.020180 
#    z 0.253320 0.020180 3.752190 
# 
# 
# High freq. dielectric constant tensor:
#      x y z
#    x 1.861080 0.000520 0.001160 
#    y 0.000520 1.828090 0.008210 
#    z 0.001160 0.008210 1.827240 
# 
# From -- ./inp_files/26397.got.cif
#   From: 2010.06.25/outbox.cif.g09.slc.cpg/sg2_14_cif.got.tgz:26397.got - 2010.06.27 13:26:56.
