data_PCOD8025393
_publ_section_title
;
Structure prediction by ZEFSAII (Michael W. Deem and Ramdas Pophale) SiO2 
 PCOD8025393
Probable space group: P -1
;
_chemical_formula_sum "Si O2"
_cell_formula_units_Z 16
_cell_length_a 19.765930
_cell_length_b 12.599664
_cell_length_c 9.167126
_cell_angle_alpha 141.597805
_cell_angle_beta 112.167423
_cell_angle_gamma 39.882142
_cell_volume 751.840148
_symmetry_space_group_name_H-M "P -1"
_symmetry_group_IT_number 2
_symmetry_cell_setting 'triclinic'
loop_
_space_group_symop_operation_xyz
x,y,z
-x,-y,-z
loop_
_atom_site_type_symbol
_atom_site_label
_atom_site_fract_x
_atom_site_fract_y
_atom_site_fract_z
Si Si1 0.551465 0.546725 0.373649
Si Si2 0.036737 0.972044 0.662035
Si Si3 0.383594 0.335357 0.703936
Si Si4 0.114435 0.674525 0.817331
Si Si5 0.779415 0.065181 0.247735
Si Si6 0.439266 0.952130 0.970003
Si Si7 0.605459 0.462448 0.802969
Si Si8 0.845232 0.576913 0.692788
O O1 0.569525 0.671431 0.416097
O O2 0.682623 0.230957 0.212363
O O3 0.458329 0.763569 0.667237
O O4 0.483263 0.525756 0.208214
O O5 0.150165 0.890901 0.671828
O O6 0.061733 0.737316 0.495129
O O7 0.000000 0.000000 0.500000
O O8 0.922319 0.281472 0.995350
O O9 0.255227 0.483557 0.719026
O O10 0.500000 0.000000 0.500000
O O11 0.340836 0.559871 0.028944
O O12 0.126062 0.478145 0.518395
O O13 0.000000 0.000000 0.000000
O O14 0.719224 0.187141 0.491439
O O15 0.865047 0.728266 0.940238
O O16 0.515819 0.774176 0.989074
O O17 0.500000 0.000000 0.000000
O O18 0.291422 0.246997 0.199308
#
# Coordination Sequence:
#
# PCOD8025393 Si02
#       8
#     2   2   2   2   2   2   2   2
#     4  11  21  38  60  96 132 169 210 269 333 392
#     4  11  25  43  64  92 129 169 220 283 334 380
#     4  12  25  40  67  98 133 173 213 275 344 388
#     4  10  23  45  65  92 130 173 222 269 320 396
#     4  11  22  42  70  92 126 177 224 271 326 398
#     4  11  19  35  63  93 125 172 219 262 321 402
#     4  11  21  39  58  98 139 160 207 278 334 385
#     4  11  21  41  67  89 124 173 229 263 322 406
#
# _framework density 21.281120999999999
#
# number of rings (size 3 to 8) (size 9 to 14) (size 15 to 20)
#    0.000    1.000    2.500    7.125    0.000    2.000 
#    0.000    0.000    0.000    0.000    0.000    0.000 
#    0.000    0.000    0.000    0.000    0.000    0.000 
#
# Total GULP energy -198279.938925 kJ/mol
# GULP energy per Si atom -12392.496183 kJ/mol
# Density = 2.123268 g / cm^3
# Si number density = 21.281121 Si / 1000 Ang^3
#
#
#
# Elastic Constant Matrix: (Units=GPa)
#
#
# Indices 1 2 3 4 5 6 
#
# 1 71.3810 17.0293 19.6186 2.0842 -1.0182 2.2062
# 2 17.0293 79.3533 42.2482 -17.7419 -6.4711 0.0084
# 3 19.6186 42.2482 97.4846 -15.7481 -0.5496 1.4974
# 4 2.0842 -17.7419 -15.7481 39.0663 1.6032 -2.2290
# 5 -1.0182 -6.4711 -0.5496 1.6032 35.7461 -7.4749
# 6 2.2062 0.0084 1.4974 -2.2290 -7.4749 28.4582
#
#
#
# Elastic Compliance Matrix: (Units=1/GPa)
#
#
# Indices 1 2 3 4 5 6 
#
# 1 0.015456 -0.002755 -0.002399 -0.003112 -0.000244 -0.001379
# 2 -0.002755 0.018151 -0.006387 0.005788 0.003236 0.001848
# 3 -0.002399 -0.006387 0.013977 0.002876 -0.001276 -0.000657
# 4 -0.003112 0.005788 0.002876 0.029685 0.000187 0.002462
# 5 -0.000244 0.003236 -0.001276 0.000187 0.030206 0.008034
# 6 -0.001379 0.001848 -0.000657 0.002462 0.008034 0.037583
#
#
# Mechanical properties :
#
#
# Convention : Reuss Voigt Hill
#
# Bulk Modulus (GPa) = 40.81457 45.11234 42.96346
# Shear Modulus (GPa) = 28.35952 31.94232 30.15092
#
# Velocity S-wave (km/s) = 3.65446 3.87844 3.76811
# Velocity P-wave (km/s) = 6.08500 6.42656 6.25811
#
# Compressibility (1/GPa) = 0.02450106
#
# Stress axis : x y z
#
# Youngs Moduli (GPa) = 64.69974 55.09193 71.54832
#
# Poissons Ratio (x) = 0.15177 0.17168
# Poissons Ratio (y) = 0.17824 0.45699
# Poissons Ratio (z) = 0.15524 0.35188
#
# Static dielectric constant tensor:
#      x y z
#    x 3.852630 0.033540 0.010690 
#    y 0.033540 3.719130 -0.089930 
#    z 0.010690 -0.089930 3.749320 
# 
# 
# High freq. dielectric constant tensor:
#      x y z
#    x 1.831770 -0.001510 -0.003280 
#    y -0.001510 1.823470 -0.021910 
#    z -0.003280 -0.021910 1.851870 
# 
# From -- ./inp_files/223034.got.cif
#   From: 2010.06.25/outbox.cif.g09.slc.cpg/sg2_112_cif.got.tgz:223034.got - 2010.06.27 13:26:56.
