data_PCOD8025419
_publ_section_title
;
Structure prediction by ZEFSAII (Michael W. Deem and Ramdas Pophale) SiO2 
 PCOD8025419
Probable space group: P -1
;
_chemical_formula_sum "Si O2"
_cell_formula_units_Z 14
_cell_length_a 5.061733
_cell_length_b 23.984833
_cell_length_c 7.240787
_cell_angle_alpha 50.358023
_cell_angle_beta 111.882702
_cell_angle_gamma 87.166680
_cell_volume 575.173514
_symmetry_space_group_name_H-M "P -1"
_symmetry_group_IT_number 2
_symmetry_cell_setting 'triclinic'
loop_
_space_group_symop_operation_xyz
x,y,z
-x,-y,-z
loop_
_atom_site_type_symbol
_atom_site_label
_atom_site_fract_x
_atom_site_fract_y
_atom_site_fract_z
Si Si1 0.929651 0.933161 0.896663
Si Si2 0.645348 0.853456 0.268353
Si Si3 0.195053 0.656998 0.212214
Si Si4 0.432037 0.097613 0.450848
Si Si5 0.451199 0.252160 0.038346
Si Si6 0.640595 0.551001 0.817920
Si Si7 0.701039 0.692948 0.729870
O O1 0.803215 0.928427 0.669391
O O2 0.752718 0.022691 0.735891
O O3 0.875231 0.872685 0.152293
O O4 0.291799 0.913825 0.011016
O O5 0.735067 0.862409 0.485621
O O6 0.691418 0.762366 0.440035
O O7 0.333470 0.723779 0.091148
O O8 0.460584 0.574227 0.525426
O O9 0.913767 0.691462 0.214780
O O10 0.054086 0.644524 0.004587
O O11 0.512666 0.160773 0.217174
O O12 0.526126 0.265455 0.244220
O O13 0.577911 0.633753 0.725665
O O14 0.500000 0.500000 0.000000
O O15 0.000000 0.500000 0.000000
#
# Coordination Sequence:
#
# PCOD8025419 Si02
#       7
#     2   2   2   2   2   2   2
#     4  11  26  40  65 101 136 184 223 285 335 381
#     4  11  25  42  68  97 132 182 233 272 326 400
#     4  10  23  45  66  95 127 170 211 267 320 389
#     4  10  24  43  65  97 143 176 230 281 335 380
#     4   9  22  41  68  91 128 176 217 262 314 387
#     4  12  28  44  69 102 129 162 209 266 329 401
#     4   9  26  42  70  93 131 171 218 261 327 389
#
# _framework density 24.340482999999999
#
# number of rings (size 3 to 8) (size 9 to 14) (size 15 to 20)
#    0.857    0.857    0.000    1.714   10.000    5.714 
#    0.000    0.000    0.000    0.000    0.000    0.000 
#    0.000    0.000    0.000    0.000    0.000    0.000 
#
# Total GULP energy -173599.305987 kJ/mol
# GULP energy per Si atom -12399.950428 kJ/mol
# Density = 2.428508 g / cm^3
# Si number density = 24.340483 Si / 1000 Ang^3
#
#
#
# Elastic Constant Matrix: (Units=GPa)
#
#
# Indices 1 2 3 4 5 6 
#
# 1 76.3259 -2.5260 7.0972 4.3587 0.4594 16.9125
# 2 -2.5260 55.9624 -3.1282 -16.8485 2.8391 0.5389
# 3 7.0972 -3.1282 119.8066 -6.9547 7.3838 10.9099
# 4 4.3587 -16.8485 -6.9547 35.4377 10.4863 -1.0055
# 5 0.4594 2.8391 7.3838 10.4863 31.0114 -3.1356
# 6 16.9125 0.5389 10.9099 -1.0055 -3.1356 21.1368
#
#
#
# Elastic Compliance Matrix: (Units=1/GPa)
#
#
# Indices 1 2 3 4 5 6 
#
# 1 0.016149 0.000371 0.000221 -0.001833 -0.001050 -0.013288
# 2 0.000371 0.022289 0.001965 0.012984 -0.007139 -0.002320
# 3 0.000221 0.001965 0.009375 0.003856 -0.004277 -0.005517
# 4 -0.001833 0.012984 0.003856 0.039993 -0.015733 -0.001286
# 5 -0.001050 -0.007139 -0.004277 -0.015733 0.040106 0.008431
# 6 -0.013288 -0.002320 -0.005517 -0.001286 0.008431 0.062040
#
#
# Mechanical properties :
#
#
# Convention : Reuss Voigt Hill
#
# Bulk Modulus (GPa) = 18.89399 28.33121 23.61260
# Shear Modulus (GPa) = 24.69385 34.22730 29.46058
#
# Velocity S-wave (km/s) = 3.18860 3.75399 3.48279
# Velocity P-wave (km/s) = 4.61904 5.51858 5.08872
#
# Compressibility (1/GPa) = 0.05292688
#
# Stress axis : x y z
#
# Youngs Moduli (GPa) = 61.92420 44.86465 106.66873
#
# Poissons Ratio (x) = -0.01663 -0.02361
# Poissons Ratio (y) = -0.02295 -0.20961
# Poissons Ratio (z) = -0.01371 -0.08816
#
# Static dielectric constant tensor:
#      x y z
#    x 3.964420 0.142210 0.043740 
#    y 0.142210 4.177310 0.044630 
#    z 0.043740 0.044630 4.519040 
# 
# 
# High freq. dielectric constant tensor:
#      x y z
#    x 1.953940 0.015660 0.002510 
#    y 0.015660 1.951580 0.002870 
#    z 0.002510 0.002870 1.977860 
# 
# From -- ./inp_files/143094.got.cif
#   From: 2010.06.25/outbox.cif.g09.slc.cpg/sg2_72_cif.got.tgz:143094.got - 2010.06.27 13:26:56.
