data_PCOD8025321
_publ_section_title
;
Structure prediction by ZEFSAII (Michael W. Deem and Ramdas Pophale) SiO2 
 PCOD8025321
Probable space group: P -1
;
_chemical_formula_sum "Si O2"
_cell_formula_units_Z 16
_cell_length_a 14.541702
_cell_length_b 5.177680
_cell_length_c 10.606789
_cell_angle_alpha 114.761210
_cell_angle_beta 65.345952
_cell_angle_gamma 82.685416
_cell_volume 613.357588
_symmetry_space_group_name_H-M "P -1"
_symmetry_group_IT_number 2
_symmetry_cell_setting 'triclinic'
loop_
_space_group_symop_operation_xyz
x,y,z
-x,-y,-z
loop_
_atom_site_type_symbol
_atom_site_label
_atom_site_fract_x
_atom_site_fract_y
_atom_site_fract_z
Si Si1 0.161691 0.337926 0.118092
Si Si2 0.536331 0.870696 0.145941
Si Si3 0.600291 0.525849 0.792086
Si Si4 0.070900 0.693436 0.466879
Si Si5 0.220346 0.880813 0.566095
Si Si6 0.614506 0.292373 0.337288
Si Si7 0.223401 0.669630 0.919896
Si Si8 0.058669 0.533386 0.846215
O O1 0.168512 0.514895 0.277532
O O2 0.209125 0.457008 0.995101
O O3 0.034801 0.368270 0.184756
O O4 0.228342 0.984323 0.034024
O O5 0.488758 0.633751 0.185284
O O6 0.441889 0.186371 0.220282
O O7 0.609225 0.972749 0.224232
O O8 0.615062 0.674736 0.948004
O O9 0.707607 0.251718 0.627236
O O10 0.122805 0.749316 0.580969
O O11 0.000000 0.500000 0.500000
O O12 0.000000 0.000000 0.500000
O O13 0.293409 0.781463 0.625594
O O14 0.160211 0.242632 0.678799
O O15 0.500000 0.500000 0.500000
O O16 0.657566 0.475304 0.245100
O O17 0.122680 0.759022 0.893660
O O18 0.000000 0.500000 0.000000
#
# Coordination Sequence:
#
# PCOD8025321 Si02
#       8
#     2   2   2   2   2   2   2   2
#     4  11  24  50  76 108 152 206 261 323 391 474
#     4  10  24  50  73 107 150 205 255 324 384 452
#     4  10  24  48  77 106 149 200 262 315 387 466
#     4  12  28  50  78 111 157 202 259 329 394 461
#     4  12  27  48  79 118 155 210 261 324 402 473
#     4  12  27  48  78 116 163 205 265 326 392 467
#     4  11  26  46  75 112 148 211 258 319 394 475
#     4  10  23  44  73 106 153 196 256 319 390 462
#
# _framework density 26.085926000000001
#
# number of rings (size 3 to 8) (size 9 to 14) (size 15 to 20)
#    0.000    1.000    2.500    2.625    7.000    3.500 
#    4.500    0.000    0.000    0.000    0.000    0.000 
#    0.000    0.000    0.000    0.000    0.000    0.000 
#
# Total GULP energy -198235.034828 kJ/mol
# GULP energy per Si atom -12389.689677 kJ/mol
# Density = 2.602655 g / cm^3
# Si number density = 26.085926 Si / 1000 Ang^3
#
#
#
# Elastic Constant Matrix: (Units=GPa)
#
#
# Indices 1 2 3 4 5 6 
#
# 1 120.8198 42.2400 55.3490 -3.8923 29.2101 7.6245
# 2 42.2400 106.5609 33.1106 15.0174 -1.6230 20.2506
# 3 55.3490 33.1106 165.6524 11.5960 -5.4979 12.7359
# 4 -3.8923 15.0174 11.5960 27.5539 5.7071 -6.4554
# 5 29.2101 -1.6230 -5.4979 5.7071 63.9606 5.6300
# 6 7.6245 20.2506 12.7359 -6.4554 5.6300 40.9260
#
#
#
# Elastic Compliance Matrix: (Units=1/GPa)
#
#
# Indices 1 2 3 4 5 6 
#
# 1 0.015507 -0.007328 -0.005255 0.011591 -0.009235 0.005471
# 2 -0.007328 0.015795 0.001198 -0.013672 0.005933 -0.009796
# 3 -0.005255 0.001198 0.008456 -0.006709 0.004096 -0.003867
# 4 0.011591 -0.013672 -0.006709 0.054817 -0.012611 0.017075
# 5 -0.009235 0.005933 0.004096 -0.012611 0.022143 -0.007525
# 6 0.005471 -0.009796 -0.003867 0.017075 -0.007525 0.033194
#
#
# Mechanical properties :
#
#
# Convention : Reuss Voigt Hill
#
# Bulk Modulus (GPa) = 58.86064 72.71469 65.78767
# Shear Modulus (GPa) = 28.03564 43.97701 36.00633
#
# Velocity S-wave (km/s) = 3.28188 4.11037 3.71927
# Velocity P-wave (km/s) = 6.08064 7.10369 6.61198
#
# Compressibility (1/GPa) = 0.01698928
#
# Stress axis : x y z
#
# Youngs Moduli (GPa) = 64.48693 63.30955 118.25972
#
# Poissons Ratio (x) = 0.46392 0.62147
# Poissons Ratio (y) = 0.47255 -0.14172
# Poissons Ratio (z) = 0.33889 -0.07587
#
# Static dielectric constant tensor:
#      x y z
#    x 5.233250 0.206670 0.543180 
#    y 0.206670 4.364890 -0.116110 
#    z 0.543180 -0.116110 5.038940 
# 
# 
# High freq. dielectric constant tensor:
#      x y z
#    x 2.067330 0.017130 0.003070 
#    y 0.017130 2.021130 0.006000 
#    z 0.003070 0.006000 2.069850 
# 
# From -- ./inp_files/442321.got.cif
#   From: 2010.06.25/outbox.cif.g09.slc.cpg/sg2_222_cif.got.tgz:442321.got - 2010.06.27 13:26:56.
