data_PCOD8025454
_publ_section_title
;
Structure prediction by ZEFSAII (Michael W. Deem and Ramdas Pophale) SiO2 
 PCOD8025454
Probable space group: P -1
;
_chemical_formula_sum "Si O2"
_cell_formula_units_Z 12
_cell_length_a 8.685907
_cell_length_b 9.220529
_cell_length_c 8.840750
_cell_angle_alpha 88.418113
_cell_angle_beta 121.379299
_cell_angle_gamma 108.176015
_cell_volume 566.333735
_symmetry_space_group_name_H-M "P -1"
_symmetry_group_IT_number 2
_symmetry_cell_setting 'triclinic'
loop_
_space_group_symop_operation_xyz
x,y,z
-x,-y,-z
loop_
_atom_site_type_symbol
_atom_site_label
_atom_site_fract_x
_atom_site_fract_y
_atom_site_fract_z
Si Si1 0.686758 0.116321 0.008259
Si Si2 0.529047 0.588067 0.670591
Si Si3 0.091274 0.876129 0.596116
Si Si4 0.502519 0.917059 0.657873
Si Si5 0.854068 0.568683 0.353444
Si Si6 0.811489 0.473688 0.999800
O O1 0.875165 0.127285 0.204459
O O2 0.688868 0.291780 0.976634
O O3 0.500000 0.000000 0.000000
O O4 0.676857 0.033690 0.843828
O O5 0.500000 0.500000 0.500000
O O6 0.558736 0.767334 0.655737
O O7 0.358794 0.526737 0.703672
O O8 0.704750 0.561985 0.843001
O O9 0.291308 0.880414 0.623412
O O10 0.911432 0.735785 0.449279
O O11 0.000000 0.000000 0.500000
O O12 0.500000 0.000000 0.500000
O O13 0.000000 0.500000 0.500000
O O14 0.869053 0.569032 0.180912
O O15 0.000000 0.500000 0.000000
#
# Coordination Sequence:
#
# PCOD8025454 Si02
#       6
#     2   2   2   2   2   2
#     4  10  23  45  67  97 138 182 228 281 348 412
#     4  12  27  45  72 103 140 186 234 288 349 417
#     4  11  26  42  71 100 137 182 229 284 347 415
#     4  11  25  45  68 100 141 181 226 285 351 416
#     4  12  23  46  70 101 141 181 236 285 348 415
#     4  12  27  45  74 105 139 185 238 294 347 418
#
# _framework density 21.188918000000001
#
# number of rings (size 3 to 8) (size 9 to 14) (size 15 to 20)
#    0.000    0.667    3.333    3.500   11.667    0.000 
#    0.000    1.667    0.000    0.000    0.000    0.000 
#    0.000    0.000    0.000    0.000    0.000    0.000 
#
# Total GULP energy -148700.357421 kJ/mol
# GULP energy per Si atom -12391.696452 kJ/mol
# Density = 2.114069 g / cm^3
# Si number density = 21.188918 Si / 1000 Ang^3
#
#
#
# Elastic Constant Matrix: (Units=GPa)
#
#
# Indices 1 2 3 4 5 6 
#
# 1 92.3282 25.8629 55.1714 -13.1805 2.2341 -6.1100
# 2 25.8629 175.8881 78.7921 -8.8468 0.5875 -25.8494
# 3 55.1714 78.7921 211.6533 -7.8008 -21.9791 -25.4327
# 4 -13.1805 -8.8468 -7.8008 47.7651 -10.6313 3.5106
# 5 2.2341 0.5875 -21.9791 -10.6313 43.1765 -3.6549
# 6 -6.1100 -25.8494 -25.4327 3.5106 -3.6549 42.6978
#
#
#
# Elastic Compliance Matrix: (Units=1/GPa)
#
#
# Indices 1 2 3 4 5 6 
#
# 1 0.013439 -0.000354 -0.003567 0.002694 -0.001911 -0.000801
# 2 -0.000354 0.007224 -0.002338 0.000446 -0.000922 0.002815
# 3 -0.003567 -0.002338 0.007324 0.000535 0.004310 0.002762
# 4 0.002694 0.000446 0.000535 0.023171 0.005796 -0.000434
# 5 -0.001911 -0.000922 0.004310 0.005796 0.027197 0.003587
# 6 -0.000801 0.002815 0.002762 -0.000434 0.003587 0.026997
#
#
# Mechanical properties :
#
#
# Convention : Reuss Voigt Hill
#
# Bulk Modulus (GPa) = 64.64369 88.83582 76.73975
# Shear Modulus (GPa) = 40.64141 48.06409 44.35275
#
# Velocity S-wave (km/s) = 4.38431 4.76790 4.58012
# Velocity P-wave (km/s) = 7.49693 8.50453 8.01658
#
# Compressibility (1/GPa) = 0.01546941
#
# Stress axis : x y z
#
# Youngs Moduli (GPa) = 74.40880 138.42637 136.53783
#
# Poissons Ratio (x) = 0.04903 0.48699
# Poissons Ratio (y) = 0.02635 0.31924
# Poissons Ratio (z) = 0.26539 0.32365
#
# Static dielectric constant tensor:
#      x y z
#    x 3.612160 0.022320 0.029930 
#    y 0.022320 3.905060 -0.008310 
#    z 0.029930 -0.008310 3.983240 
# 
# 
# High freq. dielectric constant tensor:
#      x y z
#    x 1.820060 -0.005460 -0.008080 
#    y -0.005460 1.847650 0.000430 
#    z -0.008080 0.000430 1.859000 
# 
# From -- ./inp_files/146473.got.cif
#   From: 2010.06.25/outbox.cif.g09.slc.cpg/sg2_74_cif.got.tgz:146473.got - 2010.06.27 13:26:56.
