data_PCOD8025088
_publ_section_title
;
Structure prediction by ZEFSAII (Michael W. Deem and Ramdas Pophale) SiO2 
 PCOD8025088
Probable space group: P -1
;
_chemical_formula_sum "Si O2"
_cell_formula_units_Z 16
_cell_length_a 15.178570
_cell_length_b 12.089912
_cell_length_c 9.375533
_cell_angle_alpha 119.442792
_cell_angle_beta 69.332715
_cell_angle_gamma 57.815826
_cell_volume 699.462824
_symmetry_space_group_name_H-M "P -1"
_symmetry_group_IT_number 2
_symmetry_cell_setting 'triclinic'
loop_
_space_group_symop_operation_xyz
x,y,z
-x,-y,-z
loop_
_atom_site_type_symbol
_atom_site_label
_atom_site_fract_x
_atom_site_fract_y
_atom_site_fract_z
Si Si1 0.808795 0.292358 0.843289
Si Si2 0.694157 0.576196 0.826894
Si Si3 0.975211 0.458827 0.634831
Si Si4 0.313882 0.574605 0.543504
Si Si5 0.236739 0.123059 0.770019
Si Si6 0.522696 0.365727 0.568536
Si Si7 0.302278 0.158784 0.451686
Si Si8 0.113340 0.637676 0.895741
O O1 0.692457 0.471548 0.883796
O O2 0.668301 0.367123 0.067008
O O3 0.862207 0.351911 0.946783
O O4 0.000000 0.000000 0.500000
O O5 0.897393 0.408666 0.614776
O O6 0.661574 0.551650 0.677751
O O7 0.522912 0.875577 0.128627
O O8 0.000000 0.500000 0.500000
O O9 0.175488 0.225653 0.455228
O O10 0.811926 0.717941 0.982140
O O11 0.490495 0.370348 0.423033
O O12 0.312193 0.720002 0.571452
O O13 0.134699 0.737275 0.843593
O O14 0.235118 0.197308 0.670238
O O15 0.430169 0.824404 0.504604
O O16 0.091372 0.177714 0.890253
O O17 0.266448 0.351552 0.579553
#
# Coordination Sequence:
#
# PCOD8025088 Si02
#       8
#     2   2   2   2   2   2   2   2
#     4  11  25  45  67 103 133 178 238 290 342 412
#     4  12  25  43  74 103 137 182 226 294 353 401
#     4  11  26  43  66 110 142 177 228 292 347 410
#     4  10  25  45  63 102 135 182 231 274 347 416
#     4  11  22  43  72  97 138 185 228 282 344 413
#     4  10  24  47  68  95 137 186 233 280 344 416
#     4  11  24  44  72 105 140 179 235 283 347 423
#     4  10  23  44  68  98 140 183 223 279 349 416
#
# _framework density 22.874697000000001
#
# number of rings (size 3 to 8) (size 9 to 14) (size 15 to 20)
#    0.000    1.250    1.250    4.500    7.000    5.000 
#    9.000    0.000    0.000    0.000    0.000    0.000 
#    0.000    0.000    0.000    0.000    0.000    0.000 
#
# Total GULP energy -198308.682075 kJ/mol
# GULP energy per Si atom -12394.292630 kJ/mol
# Density = 2.282263 g / cm^3
# Si number density = 22.874697 Si / 1000 Ang^3
#
#
#
# Elastic Constant Matrix: (Units=GPa)
#
#
# Indices 1 2 3 4 5 6 
#
# 1 130.9064 22.7834 26.0746 -19.2077 -0.3447 -4.2131
# 2 22.7834 101.9700 31.3420 -22.0154 8.3976 -6.0427
# 3 26.0746 31.3420 63.1162 -15.7587 8.4788 -21.6889
# 4 -19.2077 -22.0154 -15.7587 42.2472 -2.6193 -3.4112
# 5 -0.3447 8.3976 8.4788 -2.6193 26.0938 -11.3042
# 6 -4.2131 -6.0427 -21.6889 -3.4112 -11.3042 30.1705
#
#
#
# Elastic Compliance Matrix: (Units=1/GPa)
#
#
# Indices 1 2 3 4 5 6 
#
# 1 0.008706 -0.000620 -0.002866 0.002646 0.001458 -0.000123
# 2 -0.000620 0.012535 -0.005287 0.003946 -0.002783 -0.001974
# 3 -0.002866 -0.005287 0.028663 0.008467 0.002279 0.020957
# 4 0.002646 0.003946 0.008467 0.031382 0.004585 0.012512
# 5 0.001458 -0.002783 0.002279 0.004585 0.047439 0.019577
# 6 -0.000123 -0.001974 0.020957 0.012512 0.019577 0.056547
#
#
# Mechanical properties :
#
#
# Convention : Reuss Voigt Hill
#
# Bulk Modulus (GPa) = 30.90643 50.71031 40.80837
# Shear Modulus (GPa) = 23.40772 34.08848 28.74810
#
# Velocity S-wave (km/s) = 3.20238 3.86453 3.54893
# Velocity P-wave (km/s) = 5.21672 6.49074 5.88829
#
# Compressibility (1/GPa) = 0.03235572
#
# Stress axis : x y z
#
# Youngs Moduli (GPa) = 114.86249 79.77864 34.88855
#
# Poissons Ratio (x) = 0.04949 0.10000
# Poissons Ratio (y) = 0.07125 0.18447
# Poissons Ratio (z) = 0.32922 0.42182
#
# Static dielectric constant tensor:
#      x y z
#    x 4.241900 -0.015970 -0.015970 
#    y -0.015970 4.174860 -0.196700 
#    z -0.015970 -0.196700 3.988720 
# 
# 
# High freq. dielectric constant tensor:
#      x y z
#    x 1.913190 -0.006490 -0.005820 
#    y -0.006490 1.909420 -0.019280 
#    z -0.005820 -0.019280 1.891610 
# 
# From -- ./inp_files/272651.got.cif
#   From: 2010.06.25/outbox.cif.g09.slc.cpg/sg2_137_cif.got.tgz:272651.got - 2010.06.27 13:26:56.
