data_PCOD8025651
_publ_section_title
;
Structure prediction by ZEFSAII (Michael W. Deem and Ramdas Pophale) SiO2 
 PCOD8025651
Probable space group: P -1
;
_chemical_formula_sum "Si O2"
_cell_formula_units_Z 16
_cell_length_a 9.072332
_cell_length_b 6.436594
_cell_length_c 18.308974
_cell_angle_alpha 83.744960
_cell_angle_beta 113.866353
_cell_angle_gamma 130.648727
_cell_volume 723.168293
_symmetry_space_group_name_H-M "P -1"
_symmetry_group_IT_number 2
_symmetry_cell_setting 'triclinic'
loop_
_space_group_symop_operation_xyz
x,y,z
-x,-y,-z
loop_
_atom_site_type_symbol
_atom_site_label
_atom_site_fract_x
_atom_site_fract_y
_atom_site_fract_z
Si Si1 0.567638 0.263615 0.461576
Si Si2 0.283447 0.959597 0.168682
Si Si3 0.159952 0.871919 0.740020
Si Si4 0.574891 0.999799 0.342499
Si Si5 0.204798 0.549634 0.874329
Si Si6 0.746934 0.307545 0.968007
Si Si7 0.702524 0.579249 0.612876
Si Si8 0.486463 0.462237 0.859454
O O1 0.738036 0.537113 0.536609
O O2 0.360909 0.232777 0.405784
O O3 0.500000 0.000000 0.500000
O O4 0.654224 0.259621 0.400526
O O5 0.381832 0.900671 0.253447
O O6 0.362617 0.940652 0.104511
O O7 0.026027 0.742169 0.134437
O O8 0.383039 0.277393 0.181170
O O9 0.180317 0.670931 0.793812
O O10 0.914885 0.740012 0.698457
O O11 0.216194 0.881582 0.666571
O O12 0.313114 0.181443 0.790479
O O13 0.491801 0.728188 0.381278
O O14 0.357550 0.483865 0.893066
O O15 0.301564 0.776806 0.951935
O O16 0.668115 0.475992 0.932556
O O17 0.000000 0.500000 0.000000
#
# Coordination Sequence:
#
# PCOD8025651 Si02
#       8
#     2   2   2   2   2   2   2   2
#     4   9  22  44  71  99 131 172 217 266 324 395
#     4  11  24  44  67  96 133 174 221 278 334 386
#     4  12  26  41  67 103 136 173 222 271 330 393
#     4  11  22  42  69  97 136 169 217 273 323 395
#     4  11  25  43  67  95 130 181 222 280 329 392
#     4  10  24  45  66  91 135 176 229 278 332 388
#     4  10  23  45  71  98 133 175 213 267 333 390
#     4  12  25  41  65 101 131 176 228 273 336 388
#
# _framework density 22.124862
#
# number of rings (size 3 to 8) (size 9 to 14) (size 15 to 20)
#    0.000    1.250    3.750    0.375    3.500    7.500 
#    0.000    5.625    0.000    0.000    0.000    0.000 
#    0.000    0.000    0.000    0.000    0.000    0.000 
#
# Total GULP energy -198349.017733 kJ/mol
# GULP energy per Si atom -12396.813608 kJ/mol
# Density = 2.207451 g / cm^3
# Si number density = 22.124862 Si / 1000 Ang^3
#
#
#
# Elastic Constant Matrix: (Units=GPa)
#
#
# Indices 1 2 3 4 5 6 
#
# 1 115.9959 46.6828 44.2405 -9.5330 -3.9827 -16.9911
# 2 46.6828 95.4821 26.7938 -2.8560 -0.5284 -9.2681
# 3 44.2405 26.7938 99.7750 -7.9823 -6.3044 -10.0411
# 4 -9.5330 -2.8560 -7.9823 26.4517 -9.4002 2.9758
# 5 -3.9827 -0.5284 -6.3044 -9.4002 54.7953 -1.6228
# 6 -16.9911 -9.2681 -10.0411 2.9758 -1.6228 28.7957
#
#
#
# Elastic Compliance Matrix: (Units=1/GPa)
#
#
# Indices 1 2 3 4 5 6 
#
# 1 0.012868 -0.004725 -0.003678 0.002896 0.001098 0.004552
# 2 -0.004725 0.013265 -0.001478 -0.001022 -0.000530 0.001042
# 3 -0.003678 -0.001478 0.012528 0.002717 0.001671 0.001536
# 4 0.002896 -0.001022 0.002717 0.042497 0.007755 -0.001628
# 5 0.001098 -0.000530 0.001671 0.007755 0.019888 0.001380
# 6 0.004552 0.001042 0.001536 -0.001628 0.001380 0.038531
#
#
# Mechanical properties :
#
#
# Convention : Reuss Voigt Hill
#
# Bulk Modulus (GPa) = 52.90828 60.74301 56.82565
# Shear Modulus (GPa) = 30.18663 34.91092 32.54877
#
# Velocity S-wave (km/s) = 3.69775 3.97659 3.83971
# Velocity P-wave (km/s) = 6.49589 6.97127 6.73777
#
# Compressibility (1/GPa) = 0.01890063
#
# Stress axis : x y z
#
# Youngs Moduli (GPa) = 77.71496 75.38366 79.82375
#
# Poissons Ratio (x) = 0.35616 0.29356
# Poissons Ratio (y) = 0.36717 0.11796
# Poissons Ratio (z) = 0.28580 0.11140
#
# Static dielectric constant tensor:
#      x y z
#    x 4.238110 -0.215100 -0.282970 
#    y -0.215100 3.853410 0.125230 
#    z -0.282970 0.125230 4.358560 
# 
# 
# High freq. dielectric constant tensor:
#      x y z
#    x 1.877310 -0.009710 -0.004200 
#    y -0.009710 1.858570 0.001310 
#    z -0.004200 0.001310 1.885370 
# 
# From -- ./inp_files/56939.got.cif
#   From: 2010.06.25/outbox.cif.g09.slc.cpg/sg2_29_cif.got.tgz:56939.got - 2010.06.27 13:26:56.
