data_PCOD8025027
_publ_section_title
;
Structure prediction by ZEFSAII (Michael W. Deem and Ramdas Pophale) SiO2 
 PCOD8025027
Probable space group: P -1
;
_chemical_formula_sum "Si O2"
_cell_formula_units_Z 10
_cell_length_a 12.163098
_cell_length_b 9.330884
_cell_length_c 24.946227
_cell_angle_alpha 29.434502
_cell_angle_beta 19.169203
_cell_angle_gamma 38.932192
_cell_volume 438.948153
_symmetry_space_group_name_H-M "P -1"
_symmetry_group_IT_number 2
_symmetry_cell_setting 'triclinic'
loop_
_space_group_symop_operation_xyz
x,y,z
-x,-y,-z
loop_
_atom_site_type_symbol
_atom_site_label
_atom_site_fract_x
_atom_site_fract_y
_atom_site_fract_z
Si Si1 0.502405 0.735602 0.968271
Si Si2 0.863900 0.674772 0.641029
Si Si3 0.538302 0.354810 0.703638
Si Si4 0.399033 0.685769 0.759698
Si Si5 0.725930 0.198950 0.377404
O O1 0.883557 0.832735 0.788208
O O2 0.383565 0.009851 0.906946
O O3 0.500000 0.500000 0.000000
O O4 0.209535 0.587711 0.195132
O O5 0.502665 0.646715 0.785660
O O6 0.112156 0.611639 0.501476
O O7 0.000000 0.000000 0.500000
O O8 0.613028 0.557833 0.657165
O O9 0.274584 0.455812 0.750188
O O10 0.505888 0.052527 0.579963
O O11 0.000000 0.500000 0.000000
O O12 0.500000 0.000000 0.500000
#
# Coordination Sequence:
#
# PCOD8025027 Si02
#       5
#     2   2   2   2   2
#     4  12  25  47  69 100 142 179 228 287 337 408
#     4  12  24  45  71 102 139 180 226 285 341 404
#     4  11  25  45  73 100 139 184 228 276 352 400
#     4  11  24  46  70 103 139 178 232 283 335 412
#     4  10  23  44  67  99 137 174 230 281 327 411
#
# _framework density 22.781735000000001
#
# number of rings (size 3 to 8) (size 9 to 14) (size 15 to 20)
#    0.000    0.800    4.000    3.000    5.600    1.600 
#    3.600    2.000    0.000    0.000    0.000    0.000 
#    0.000    0.000    0.000    0.000    0.000    0.000 
#
# Total GULP energy -123895.686687 kJ/mol
# GULP energy per Si atom -12389.568669 kJ/mol
# Density = 2.272988 g / cm^3
# Si number density = 22.781735 Si / 1000 Ang^3
#
#
#
# Elastic Constant Matrix: (Units=GPa)
#
#
# Indices 1 2 3 4 5 6 
#
# 1 98.4830 54.7067 49.9630 -6.9707 23.8861 5.2396
# 2 54.7067 101.7076 49.6443 -20.0163 12.7014 -16.3196
# 3 49.9630 49.6443 155.2114 -9.5886 35.7300 -7.7634
# 4 -6.9707 -20.0163 -9.5886 38.8670 -14.3734 17.7270
# 5 23.8861 12.7014 35.7300 -14.3734 57.2774 -14.4209
# 6 5.2396 -16.3196 -7.7634 17.7270 -14.4209 42.9167
#
#
#
# Elastic Compliance Matrix: (Units=1/GPa)
#
#
# Indices 1 2 3 4 5 6 
#
# 1 0.018430 -0.009706 -0.001744 -0.000893 -0.006721 -0.008146
# 2 -0.009706 0.018174 -0.003183 0.005568 0.005150 0.006951
# 3 -0.001744 -0.003183 0.008980 -0.001250 -0.004582 -0.000396
# 4 -0.000893 0.005568 -0.001250 0.035161 0.006105 -0.010472
# 5 -0.006721 0.005150 -0.004582 0.006105 0.025526 0.008005
# 6 -0.008146 0.006951 -0.000396 -0.010472 0.008005 0.033882
#
#
# Mechanical properties :
#
#
# Convention : Reuss Voigt Hill
#
# Bulk Modulus (GPa) = 61.27437 73.78111 67.52774
# Shear Modulus (GPa) = 28.59462 41.21808 34.90635
#
# Velocity S-wave (km/s) = 3.54666 4.25815 3.91859
# Velocity P-wave (km/s) = 6.61259 7.52544 7.08374
#
# Compressibility (1/GPa) = 0.01632004
#
# Stress axis : x y z
#
# Youngs Moduli (GPa) = 54.25809 55.02364 111.35973
#
# Poissons Ratio (x) = 0.53404 0.19420
# Poissons Ratio (y) = 0.52661 0.35441
# Poissons Ratio (z) = 0.09462 0.17511
#
# Static dielectric constant tensor:
#      x y z
#    x 7.313810 -2.934860 3.142140 
#    y -2.934860 6.548530 -2.887550 
#    z 3.142140 -2.887550 6.635720 
# 
# 
# High freq. dielectric constant tensor:
#      x y z
#    x 1.913670 -0.015610 0.022360 
#    y -0.015610 1.878570 -0.013320 
#    z 0.022360 -0.013320 1.909140 
# 
# From -- ./inp_files/144037.got.cif
#   From: 2010.06.25/outbox.cif.g09.slc.cpg/sg2_73_cif.got.tgz:144037.got - 2010.06.27 13:26:56.
