data_PCOD8025207
_publ_section_title
;
Structure prediction by ZEFSAII (Michael W. Deem and Ramdas Pophale) SiO2 
 PCOD8025207
Probable space group: P -1
;
_chemical_formula_sum "Si O2"
_cell_formula_units_Z 16
_cell_length_a 11.675864
_cell_length_b 6.963933
_cell_length_c 11.166396
_cell_angle_alpha 78.834251
_cell_angle_beta 78.793085
_cell_angle_gamma 56.351815
_cell_volume 737.287415
_symmetry_space_group_name_H-M "P -1"
_symmetry_group_IT_number 2
_symmetry_cell_setting 'triclinic'
loop_
_space_group_symop_operation_xyz
x,y,z
-x,-y,-z
loop_
_atom_site_type_symbol
_atom_site_label
_atom_site_fract_x
_atom_site_fract_y
_atom_site_fract_z
Si Si1 0.195661 0.966090 0.141069
Si Si2 0.726094 0.928318 0.647603
Si Si3 0.004754 0.513086 0.357671
Si Si4 0.892473 0.309229 0.228893
Si Si5 0.713370 0.743510 0.055703
Si Si6 0.388371 0.464926 0.087466
Si Si7 0.786420 0.008854 0.366721
Si Si8 0.462307 0.940187 0.732085
O O1 0.276836 0.928633 0.253792
O O2 0.033150 0.087183 0.179463
O O3 0.249213 0.712999 0.107818
O O4 0.220060 0.116831 0.022665
O O5 0.833439 0.652091 0.693668
O O6 0.573404 0.985912 0.643105
O O7 0.782912 0.997316 0.513255
O O8 0.000000 0.500000 0.500000
O O9 0.918987 0.413187 0.328818
O O10 0.926736 0.785890 0.309002
O O11 0.831568 0.496646 0.113480
O O12 0.785525 0.234266 0.297271
O O13 0.602499 0.891251 0.161867
O O14 0.638755 0.700457 0.967853
O O15 0.455268 0.328312 0.213442
O O16 0.500000 0.500000 0.000000
O O17 0.653580 0.012817 0.345246
#
# Coordination Sequence:
#
# PCOD8025207 Si02
#       8
#     2   2   2   2   2   2   2   2
#     4  11  25  44  67 102 134 176 226 278 333 406
#     4  10  23  44  70  98 134 180 224 276 336 399
#     4   9  21  43  69  93 134 177 220 274 334 385
#     4  11  25  42  70 102 134 175 226 278 336 395
#     4  12  24  45  67  98 141 174 222 280 335 398
#     4  12  24  41  67  98 134 182 223 267 339 400
#     4  11  24  45  68 100 138 175 228 279 330 397
#     4  12  23  44  69  98 140 177 222 276 340 396
#
# _framework density 21.701170999999999
#
# number of rings (size 3 to 8) (size 9 to 14) (size 15 to 20)
#    0.000    1.000    3.750    2.625    1.750    5.000 
#    2.250    1.250    0.000    0.000    0.000    0.000 
#    0.000    0.000    0.000    0.000    0.000    0.000 
#
# Total GULP energy -198405.413269 kJ/mol
# GULP energy per Si atom -12400.338329 kJ/mol
# Density = 2.165178 g / cm^3
# Si number density = 21.701171 Si / 1000 Ang^3
#
#
#
# Elastic Constant Matrix: (Units=GPa)
#
#
# Indices 1 2 3 4 5 6 
#
# 1 82.1486 15.5505 16.3235 0.6513 0.7985 -6.4959
# 2 15.5505 99.4017 31.9122 -4.2614 -1.5295 -1.5319
# 3 16.3235 31.9122 73.3480 -0.4546 -0.7095 -0.9616
# 4 0.6513 -4.2614 -0.4546 33.0608 -2.0641 3.4826
# 5 0.7985 -1.5295 -0.7095 -2.0641 35.8606 -4.0084
# 6 -6.4959 -1.5319 -0.9616 3.4826 -4.0084 27.7690
#
#
#
# Elastic Compliance Matrix: (Units=1/GPa)
#
#
# Indices 1 2 3 4 5 6 
#
# 1 0.013125 -0.001296 -0.002323 -0.000780 -0.000103 0.003001
# 2 -0.001296 0.011902 -0.004874 0.001519 0.000535 0.000071
# 3 -0.002323 -0.004874 0.016268 -0.000331 0.000125 -0.000189
# 4 -0.000780 0.001519 -0.000331 0.030942 0.001434 -0.003784
# 5 -0.000103 0.000535 0.000125 0.001434 0.028436 0.003935
# 6 0.003001 0.000071 -0.000189 -0.003784 0.003935 0.037753
#
#
# Mechanical properties :
#
#
# Convention : Reuss Voigt Hill
#
# Bulk Modulus (GPa) = 41.14028 42.49675 41.81851
# Shear Modulus (GPa) = 30.57796 32.07888 31.32842
#
# Velocity S-wave (km/s) = 3.75780 3.84892 3.80363
# Velocity P-wave (km/s) = 6.15035 6.27515 6.21306
#
# Compressibility (1/GPa) = 0.02430708
#
# Stress axis : x y z
#
# Youngs Moduli (GPa) = 76.19279 84.01734 61.46967
#
# Poissons Ratio (x) = 0.10889 0.14282
# Poissons Ratio (y) = 0.09875 0.29963
# Poissons Ratio (z) = 0.17703 0.40954
#
# Static dielectric constant tensor:
#      x y z
#    x 4.037910 -0.318360 -0.016960 
#    y -0.318360 4.333530 0.102650 
#    z -0.016960 0.102650 3.794150 
# 
# 
# High freq. dielectric constant tensor:
#      x y z
#    x 1.853230 -0.011090 0.005790 
#    y -0.011090 1.859020 0.003240 
#    z 0.005790 0.003240 1.852410 
# 
# From -- ./inp_files/68458.got.cif
#   From: 2010.06.25/outbox.cif.g09.slc.cpg/sg2_35_cif.got.tgz:68458.got - 2010.06.27 13:26:56.
