data_PCOD8025624
_publ_section_title
;
Structure prediction by ZEFSAII (Michael W. Deem and Ramdas Pophale) SiO2 
 PCOD8025624
Probable space group: P -1
;
_chemical_formula_sum "Si O2"
_cell_formula_units_Z 16
_cell_length_a 8.553290
_cell_length_b 11.530896
_cell_length_c 14.462463
_cell_angle_alpha 110.814938
_cell_angle_beta 63.210087
_cell_angle_gamma 57.815153
_cell_volume 663.287181
_symmetry_space_group_name_H-M "P -1"
_symmetry_group_IT_number 2
_symmetry_cell_setting 'triclinic'
loop_
_space_group_symop_operation_xyz
x,y,z
-x,-y,-z
loop_
_atom_site_type_symbol
_atom_site_label
_atom_site_fract_x
_atom_site_fract_y
_atom_site_fract_z
Si Si1 0.386816 0.945062 0.410736
Si Si2 0.589653 0.854478 0.014098
Si Si3 0.391604 0.709527 0.006138
Si Si4 0.026331 0.229713 0.768644
Si Si5 0.273706 0.467797 0.710870
Si Si6 0.281557 0.156429 0.338962
Si Si7 0.278979 0.739560 0.841941
Si Si8 0.321394 0.398926 0.471091
O O1 0.701430 0.843881 0.282870
O O2 0.495070 0.738860 0.337416
O O3 0.157387 0.110713 0.601918
O O4 0.188603 0.093334 0.412389
O O5 0.343333 0.885040 0.084872
O O6 0.576642 0.936229 0.137849
O O7 0.939759 0.592654 0.830757
O O8 0.500000 0.000000 0.000000
O O9 0.063784 0.835498 0.160379
O O10 0.473156 0.633697 0.855435
O O11 0.693584 0.494686 0.924870
O O12 0.180514 0.656043 0.828523
O O13 0.421133 0.379281 0.542922
O O14 0.351333 0.232471 0.408530
O O15 0.025273 0.345723 0.384891
O O16 0.468290 0.662639 0.679362
O O17 0.000000 0.000000 0.000000
#
# Coordination Sequence:
#
# PCOD8025624 Si02
#       8
#     2   2   2   2   2   2   2   2
#     4  11  24  43  74 105 143 183 243 298 356 424
#     4  12  24  46  69 102 140 190 237 288 357 423
#     4  11  25  45  70 100 145 188 234 289 358 427
#     4  10  23  45  71 100 143 191 226 293 365 419
#     4  12  26  45  73 105 141 187 241 295 356 430
#     4  11  25  42  76 105 139 189 238 293 354 430
#     4  12  28  44  71 105 143 185 239 300 353 425
#     4  11  24  46  71 103 145 188 239 294 357 426
#
# _framework density 24.122281000000001
#
# number of rings (size 3 to 8) (size 9 to 14) (size 15 to 20)
#    0.000    0.750    2.500    4.875    7.000    3.500 
#    0.000    1.875    0.000    0.000    0.000    0.000 
#    0.000    0.000    0.000    0.000    0.000    0.000 
#
# Total GULP energy -198316.346264 kJ/mol
# GULP energy per Si atom -12394.771642 kJ/mol
# Density = 2.406738 g / cm^3
# Si number density = 24.122281 Si / 1000 Ang^3
#
#
#
# Elastic Constant Matrix: (Units=GPa)
#
#
# Indices 1 2 3 4 5 6 
#
# 1 80.9601 39.6132 30.2958 -2.0762 21.4253 20.8342
# 2 39.6132 134.2104 23.8214 -20.9483 18.7304 21.8644
# 3 30.2958 23.8214 110.9514 -19.5986 9.9389 18.0963
# 4 -2.0762 -20.9483 -19.5986 27.7023 -0.1020 1.4904
# 5 21.4253 18.7304 9.9389 -0.1020 42.6456 -6.6774
# 6 20.8342 21.8644 18.0963 1.4904 -6.6774 33.2885
#
#
#
# Elastic Compliance Matrix: (Units=1/GPa)
#
#
# Indices 1 2 3 4 5 6 
#
# 1 0.020142 -0.002372 -0.002386 -0.001377 -0.010368 -0.011770
# 2 -0.002372 0.011698 0.001960 0.010512 -0.005770 -0.008892
# 3 -0.002386 0.001960 0.012801 0.010777 -0.003875 -0.008013
# 4 -0.001377 0.010512 0.010777 0.052398 -0.008819 -0.016016
# 5 -0.010368 -0.005770 -0.003875 -0.008819 0.035180 0.019837
# 6 -0.011770 -0.008892 -0.008013 -0.016016 0.019837 0.052300
#
#
# Mechanical properties :
#
#
# Convention : Reuss Voigt Hill
#
# Bulk Modulus (GPa) = 25.61048 57.06476 41.33762
# Shear Modulus (GPa) = 24.61478 36.22004 30.41741
#
# Velocity S-wave (km/s) = 3.19786 3.87915 3.55486
# Velocity P-wave (km/s) = 4.92697 6.61600 5.83295
#
# Compressibility (1/GPa) = 0.03904652
#
# Stress axis : x y z
#
# Youngs Moduli (GPa) = 49.64642 85.48446 78.11787
#
# Poissons Ratio (x) = 0.20280 0.18635
# Poissons Ratio (y) = 0.11778 -0.15314
# Poissons Ratio (z) = 0.11843 -0.16758
#
# Static dielectric constant tensor:
#      x y z
#    x 4.221860 0.114930 0.032370 
#    y 0.114930 4.714310 -0.083430 
#    z 0.032370 -0.083430 4.222840 
# 
# 
# High freq. dielectric constant tensor:
#      x y z
#    x 1.928760 0.008010 0.005520 
#    y 0.008010 1.983540 -0.002640 
#    z 0.005520 -0.002640 1.965740 
# 
# From -- ./inp_files/500541.got.cif
#   From: 2010.06.25/outbox.cif.g09.slc.cpg/sg2_251_cif.got.tgz:500541.got - 2010.06.27 13:26:56.
