data_PCOD8025177
_publ_section_title
;
Structure prediction by ZEFSAII (Michael W. Deem and Ramdas Pophale) SiO2 
 PCOD8025177
Probable space group: P -1
;
_chemical_formula_sum "Si O2"
_cell_formula_units_Z 14
_cell_length_a 8.064198
_cell_length_b 16.662754
_cell_length_c 7.112203
_cell_angle_alpha 82.432462
_cell_angle_beta 37.031687
_cell_angle_gamma 76.148806
_cell_volume 555.934418
_symmetry_space_group_name_H-M "P -1"
_symmetry_group_IT_number 2
_symmetry_cell_setting 'triclinic'
loop_
_space_group_symop_operation_xyz
x,y,z
-x,-y,-z
loop_
_atom_site_type_symbol
_atom_site_label
_atom_site_fract_x
_atom_site_fract_y
_atom_site_fract_z
Si Si1 0.470258 0.910235 0.495856
Si Si2 0.954133 0.336951 0.967601
Si Si3 0.242338 0.741548 0.292432
Si Si4 0.956604 0.409026 0.342723
Si Si5 0.692470 0.760213 0.597721
Si Si6 0.002524 0.835852 0.835593
Si Si7 0.610005 0.565715 0.759527
O O1 0.542235 0.847560 0.623244
O O2 0.148192 0.910603 0.740718
O O3 0.500000 0.000000 0.500000
O O4 0.668189 0.874541 0.147892
O O5 0.177402 0.491379 0.565422
O O6 0.669608 0.376405 0.098037
O O7 0.032568 0.386567 0.062485
O O8 0.908533 0.246359 0.092890
O O9 0.262922 0.647741 0.380014
O O10 0.018347 0.763742 0.322188
O O11 0.115620 0.812415 0.533616
O O12 0.545403 0.747058 0.932626
O O13 0.218291 0.387018 0.262446
O O14 0.751002 0.678485 0.424385
O O15 0.500000 0.500000 0.000000
#
# Coordination Sequence:
#
# PCOD8025177 Si02
#       7
#     2   2   2   2   2   2   2
#     4  11  23  44  69 103 144 185 227 285 358 426
#     4  10  23  47  71 103 140 188 247 291 362 422
#     4  11  24  44  71 101 140 180 242 297 345 416
#     4  10  25  45  72 100 145 187 238 303 360 426
#     4  11  24  43  70 104 133 183 236 293 352 425
#     4  10  23  44  70 103 138 186 237 285 349 429
#     4  11  24  45  69 105 143 187 238 301 367 421
#
# _framework density 25.182827
#
# number of rings (size 3 to 8) (size 9 to 14) (size 15 to 20)
#    0.000    1.429    0.000    4.286    6.000    0.571 
#   10.286    4.286    0.000    2.571    0.000    0.000 
#    0.000    0.000    0.000    0.000    0.000    0.000 
#
# Total GULP energy -173439.563285 kJ/mol
# GULP energy per Si atom -12388.540235 kJ/mol
# Density = 2.512551 g / cm^3
# Si number density = 25.182827 Si / 1000 Ang^3
#
#
#
# Elastic Constant Matrix: (Units=GPa)
#
#
# Indices 1 2 3 4 5 6 
#
# 1 100.1705 31.1531 34.4918 10.0579 18.2298 7.8869
# 2 31.1531 102.2178 23.2296 21.1205 9.9092 17.5477
# 3 34.4918 23.2296 126.3833 19.2246 28.9148 4.4201
# 4 10.0579 21.1205 19.2246 23.5247 11.0769 -2.4790
# 5 18.2298 9.9092 28.9148 11.0769 45.1861 3.2207
# 6 7.8869 17.5477 4.4201 -2.4790 3.2207 30.8567
#
#
#
# Elastic Compliance Matrix: (Units=1/GPa)
#
#
# Indices 1 2 3 4 5 6 
#
# 1 0.012181 -0.002889 -0.002158 0.000454 -0.002953 -0.000816
# 2 -0.002889 0.014937 0.000059 -0.014105 0.001959 -0.009102
# 3 -0.002158 0.000059 0.010377 -0.005678 -0.004321 -0.000973
# 4 0.000454 -0.014105 -0.005678 0.066297 -0.010790 0.015171
# 5 -0.002953 0.001959 -0.004321 -0.010790 0.028558 -0.003588
# 6 -0.000816 -0.009102 -0.000973 0.015171 -0.003588 0.039526
#
#
# Mechanical properties :
#
#
# Convention : Reuss Voigt Hill
#
# Bulk Modulus (GPa) = 36.34057 56.28007 46.31032
# Shear Modulus (GPa) = 26.17438 35.90664 31.04051
#
# Velocity S-wave (km/s) = 3.22743 3.78012 3.51466
# Velocity P-wave (km/s) = 5.32451 6.43813 5.90762
#
# Compressibility (1/GPa) = 0.02751745
#
# Stress axis : x y z
#
# Youngs Moduli (GPa) = 82.09686 66.94631 96.36656
#
# Poissons Ratio (x) = 0.19343 0.20798
# Poissons Ratio (y) = 0.23721 -0.00566
# Poissons Ratio (z) = 0.17719 -0.00393
#
# Static dielectric constant tensor:
#      x y z
#    x 4.749340 0.186420 0.426500 
#    y 0.186420 5.410790 0.276210 
#    z 0.426500 0.276210 5.695640 
# 
# 
# High freq. dielectric constant tensor:
#      x y z
#    x 1.995990 0.011260 0.008790 
#    y 0.011260 1.999040 0.004980 
#    z 0.008790 0.004980 2.033890 
# 
# From -- ./inp_files/200516.got.cif
#   From: 2010.06.25/outbox.cif.g09.slc.cpg/sg2_101_cif.got.tgz:200516.got - 2010.06.27 13:26:56.
