data_PCOD8025293
_publ_section_title
;
Structure prediction by ZEFSAII (Michael W. Deem and Ramdas Pophale) SiO2 
 PCOD8025293
Probable space group: P -1
;
_chemical_formula_sum "Si O2"
_cell_formula_units_Z 14
_cell_length_a 12.284318
_cell_length_b 8.512991
_cell_length_c 13.355288
_cell_angle_alpha 64.089029
_cell_angle_beta 125.357123
_cell_angle_gamma 71.368141
_cell_volume 640.859573
_symmetry_space_group_name_H-M "P -1"
_symmetry_group_IT_number 2
_symmetry_cell_setting 'triclinic'
loop_
_space_group_symop_operation_xyz
x,y,z
-x,-y,-z
loop_
_atom_site_type_symbol
_atom_site_label
_atom_site_fract_x
_atom_site_fract_y
_atom_site_fract_z
Si Si1 0.691563 0.105390 0.887767
Si Si2 0.659562 0.758859 0.233647
Si Si3 0.019832 0.559561 0.101859
Si Si4 0.827554 0.933152 0.588097
Si Si5 0.367631 0.459054 0.247582
Si Si6 0.107518 0.155624 0.578363
Si Si7 0.128086 0.894419 0.841846
O O1 0.475454 0.234266 0.772172
O O2 0.621817 0.366632 0.736126
O O3 0.868580 0.953577 0.114603
O O4 0.802001 0.882363 0.921598
O O5 0.754708 0.811191 0.340629
O O6 0.854802 0.452096 0.373674
O O7 0.500000 0.000000 0.000000
O O8 0.045580 0.377642 0.245700
O O9 0.216564 0.491823 0.224546
O O10 0.000000 0.500000 0.000000
O O11 0.846641 0.966584 0.473086
O O12 0.908628 0.013223 0.676033
O O13 0.591560 0.134988 0.445432
O O14 0.291397 0.579374 0.058475
O O15 0.192157 0.919035 0.764595
#
# Coordination Sequence:
#
# PCOD8025293 Si02
#       7
#     2   2   2   2   2   2   2
#     4  10  23  44  72  92 135 181 216 274 338 398
#     4  11  21  42  64 101 140 178 221 269 341 399
#     4  12  24  46  70  98 134 175 230 287 329 390
#     4  12  25  43  69 103 138 173 226 283 329 393
#     4  10  24  45  67  96 135 181 225 266 343 391
#     4  11  25  38  70 104 136 176 223 275 330 408
#     4  10  23  45  65  98 139 172 224 268 339 404
#
# _framework density 21.845659999999999
#
# number of rings (size 3 to 8) (size 9 to 14) (size 15 to 20)
#    0.857    0.286    2.857    3.000    4.000    1.714 
#    0.000    1.429    0.000    0.000    0.000    0.000 
#    0.000    0.000    0.000    0.000    0.000    0.000 
#
# Total GULP energy -173509.333509 kJ/mol
# GULP energy per Si atom -12393.523822 kJ/mol
# Density = 2.179594 g / cm^3
# Si number density = 21.845660 Si / 1000 Ang^3
#
#
#
# Elastic Constant Matrix: (Units=GPa)
#
#
# Indices 1 2 3 4 5 6 
#
# 1 112.3695 36.1680 15.2460 6.7157 20.1989 14.7199
# 2 36.1680 93.0427 33.1252 -1.4176 17.6102 -5.9282
# 3 15.2460 33.1252 62.5883 5.9881 16.3603 -3.1708
# 4 6.7157 -1.4176 5.9881 27.0995 0.6704 4.2124
# 5 20.1989 17.6102 16.3603 0.6704 49.0332 -1.3981
# 6 14.7199 -5.9282 -3.1708 4.2124 -1.3981 35.5050
#
#
#
# Elastic Compliance Matrix: (Units=1/GPa)
#
#
# Indices 1 2 3 4 5 6 
#
# 1 0.011750 -0.004403 0.000323 -0.002281 -0.003491 -0.005444
# 2 -0.004403 0.015414 -0.006830 0.002914 -0.001386 0.003389
# 3 0.000323 -0.006830 0.021287 -0.005190 -0.004682 0.001058
# 4 -0.002281 0.002914 -0.005190 0.039310 0.000983 -0.003656
# 5 -0.003491 -0.001386 -0.004682 0.000983 0.023925 0.001623
# 6 -0.005444 0.003389 0.001058 -0.003656 0.001623 0.031580
#
#
# Mechanical properties :
#
#
# Convention : Reuss Voigt Hill
#
# Bulk Modulus (GPa) = 37.55086 48.56432 43.05759
# Shear Modulus (GPa) = 28.74174 34.55830 31.65002
#
# Velocity S-wave (km/s) = 3.63116 3.98166 3.81044
# Velocity P-wave (km/s) = 5.89973 6.58917 6.25396
#
# Compressibility (1/GPa) = 0.02663055
#
# Stress axis : x y z
#
# Youngs Moduli (GPa) = 85.10891 64.87689 46.97610
#
# Poissons Ratio (x) = 0.28568 -0.01519
# Poissons Ratio (y) = 0.37477 0.32085
# Poissons Ratio (z) = -0.02751 0.44311
#
# Static dielectric constant tensor:
#      x y z
#    x 4.173840 0.369530 -0.002940 
#    y 0.369530 3.851610 0.095800 
#    z -0.002940 0.095800 3.896130 
# 
# 
# High freq. dielectric constant tensor:
#      x y z
#    x 1.867890 0.021980 0.002450 
#    y 0.021980 1.849770 0.006070 
#    z 0.002450 0.006070 1.850630 
# 
# From -- ./inp_files/514126.got.cif
#   From: 2010.06.25/outbox.cif.g09.slc.cpg/sg2_258_cif.got.tgz:514126.got - 2010.06.27 13:26:56.
