data_PCOD8025539
_publ_section_title
;
Structure prediction by ZEFSAII (Michael W. Deem and Ramdas Pophale) SiO2 
 PCOD8025539
Probable space group: P -1
;
_chemical_formula_sum "Si O2"
_cell_formula_units_Z 16
_cell_length_a 21.380680
_cell_length_b 5.896071
_cell_length_c 6.521372
_cell_angle_alpha 102.097485
_cell_angle_beta 86.669371
_cell_angle_gamma 120.337707
_cell_volume 692.653383
_symmetry_space_group_name_H-M "P -1"
_symmetry_group_IT_number 2
_symmetry_cell_setting 'triclinic'
loop_
_space_group_symop_operation_xyz
x,y,z
-x,-y,-z
loop_
_atom_site_type_symbol
_atom_site_label
_atom_site_fract_x
_atom_site_fract_y
_atom_site_fract_z
Si Si1 0.884839 0.007712 0.633709
Si Si2 0.771744 0.614947 0.865980
Si Si3 0.660027 0.673577 0.653481
Si Si4 0.446545 0.215763 0.050336
Si Si5 0.828232 0.541279 0.235375
Si Si6 0.982098 0.737079 0.095460
Si Si7 0.549503 0.156665 0.332062
Si Si8 0.213661 0.816453 0.468074
O O1 0.838392 0.902545 0.834387
O O2 0.860867 0.755536 0.447959
O O3 0.970345 0.138428 0.684126
O O4 0.864966 0.212506 0.565361
O O5 0.694511 0.574803 0.804229
O O6 0.777720 0.372458 0.727718
O O7 0.775504 0.591734 0.107386
O O8 0.618862 0.796192 0.809465
O O9 0.611245 0.439602 0.459874
O O10 0.721897 0.883982 0.530725
O O11 0.495043 0.168941 0.188858
O O12 0.500000 0.500000 0.000000
O O13 0.415921 0.998713 0.827273
O O14 0.783170 0.255029 0.306686
O O15 0.895800 0.566812 0.101756
O O16 0.000000 0.500000 0.000000
O O17 0.000000 0.000000 0.000000
O O18 0.500000 0.000000 0.500000
#
# Coordination Sequence:
#
# PCOD8025539 Si02
#       8
#     2   2   2   2   2   2   2   2
#     4  10  23  45  69 106 141 187 249 304 371 434
#     4  10  23  47  66 101 146 185 240 299 358 451
#     4  11  25  48  72 103 150 190 239 301 376 441
#     4  11  25  47  74 108 141 186 237 300 371 435
#     4  11  24  46  74 103 145 190 249 302 368 447
#     4  12  26  44  81 107 148 200 251 319 385 441
#     4  11  25  47  75 107 145 180 242 308 356 446
#     4  10  25  45  68 101 145 191 241 300 365 450
#
# _framework density 23.099577
#
# number of rings (size 3 to 8) (size 9 to 14) (size 15 to 20)
#    0.000    1.250    2.500    1.500    5.250    2.500 
#   18.000    0.000    0.000    0.000    0.000    0.000 
#    0.000    0.000    0.000    0.000    0.000    0.000 
#
# Total GULP energy -198255.772409 kJ/mol
# GULP energy per Si atom -12390.985776 kJ/mol
# Density = 2.304700 g / cm^3
# Si number density = 23.099577 Si / 1000 Ang^3
#
#
#
# Elastic Constant Matrix: (Units=GPa)
#
#
# Indices 1 2 3 4 5 6 
#
# 1 109.4123 31.8865 46.8671 7.2310 2.6210 -11.8880
# 2 31.8865 110.4431 55.3894 -6.4025 2.5404 -13.2624
# 3 46.8671 55.3894 138.0547 -6.1447 11.7176 -3.3928
# 4 7.2310 -6.4025 -6.1447 42.2725 -4.9995 3.0066
# 5 2.6210 2.5404 11.7176 -4.9995 35.4845 1.2159
# 6 -11.8880 -13.2624 -3.3928 3.0066 1.2159 36.7355
#
#
#
# Elastic Compliance Matrix: (Units=1/GPa)
#
#
# Indices 1 2 3 4 5 6 
#
# 1 0.011545 -0.001421 -0.003389 -0.002925 -0.000152 0.003155
# 2 -0.001421 0.012077 -0.004284 0.001295 0.000722 0.003375
# 3 -0.003389 -0.004284 0.010349 0.001246 -0.002627 -0.001702
# 4 -0.002925 0.001295 0.001246 0.025108 0.003336 -0.002529
# 5 -0.000152 0.000722 -0.002627 0.003336 0.029522 -0.001281
# 6 0.003155 0.003375 -0.001702 -0.002529 -0.001281 0.029553
#
#
# Mechanical properties :
#
#
# Convention : Reuss Voigt Hill
#
# Bulk Modulus (GPa) = 63.35524 69.57733 66.46629
# Shear Modulus (GPa) = 35.30993 37.81629 36.56311
#
# Velocity S-wave (km/s) = 3.91397 4.05050 3.98282
# Velocity P-wave (km/s) = 6.92186 7.21536 7.07013
#
# Compressibility (1/GPa) = 0.01578401
#
# Stress axis : x y z
#
# Youngs Moduli (GPa) = 86.61543 82.80407 96.62525
#
# Poissons Ratio (x) = 0.11765 0.32747
# Poissons Ratio (y) = 0.12307 0.41391
# Poissons Ratio (z) = 0.29355 0.35471
#
# Static dielectric constant tensor:
#      x y z
#    x 4.643610 -0.006240 0.096540 
#    y -0.006240 4.646010 -0.017730 
#    z 0.096540 -0.017730 4.485640 
# 
# 
# High freq. dielectric constant tensor:
#      x y z
#    x 1.918810 -0.013620 0.007960 
#    y -0.013620 1.922150 -0.000740 
#    z 0.007960 -0.000740 1.916940 
# 
# From -- ./inp_files/12821.got.cif
#   From: 2010.06.25/outbox.cif.g09.slc.cpg/sg2_7_cif.got.tgz:12821.got - 2010.06.27 13:26:56.
