data_PCOD8025218
_publ_section_title
;
Structure prediction by ZEFSAII (Michael W. Deem and Ramdas Pophale) SiO2 
 PCOD8025218
Probable space group: P -1
;
_chemical_formula_sum "Si O2"
_cell_formula_units_Z 12
_cell_length_a 12.083574
_cell_length_b 11.215390
_cell_length_c 6.674798
_cell_angle_alpha 113.684852
_cell_angle_beta 62.007494
_cell_angle_gamma 137.481401
_cell_volume 537.459620
_symmetry_space_group_name_H-M "P -1"
_symmetry_group_IT_number 2
_symmetry_cell_setting 'triclinic'
loop_
_space_group_symop_operation_xyz
x,y,z
-x,-y,-z
loop_
_atom_site_type_symbol
_atom_site_label
_atom_site_fract_x
_atom_site_fract_y
_atom_site_fract_z
Si Si1 0.702118 0.376693 0.379597
Si Si2 0.466704 0.349248 0.298347
Si Si3 0.337459 0.921071 0.950544
Si Si4 0.995918 0.220406 0.654883
Si Si5 0.419210 0.236121 0.848431
Si Si6 0.157173 0.105721 0.652799
O O1 0.616744 0.353800 0.223483
O O2 0.719826 0.233531 0.259462
O O3 0.580041 0.336710 0.635333
O O4 0.881287 0.576567 0.383863
O O5 0.500000 0.500000 0.500000
O O6 0.285829 0.165653 0.399487
O O7 0.462416 0.371562 0.078517
O O8 0.381088 0.073411 0.877562
O O9 0.180056 0.836553 0.173927
O O10 0.500000 0.000000 0.000000
O O11 0.073463 0.189734 0.753413
O O12 0.976729 0.107380 0.405037
O O13 0.251132 0.166802 0.827546
#
# Coordination Sequence:
#
# PCOD8025218 Si02
#       6
#     2   2   2   2   2   2
#     4  11  24  42  70 105 137 178 234 281 338 411
#     4  11  21  45  69 100 136 178 223 285 342 404
#     4  12  23  46  72  93 143 190 227 279 347 405
#     4  11  23  46  67 103 146 177 224 296 341 392
#     4  11  24  45  74 100 132 190 229 276 342 423
#     4  10  23  44  70  99 143 180 227 281 351 401
#
# _framework density 22.327259000000002
#
# number of rings (size 3 to 8) (size 9 to 14) (size 15 to 20)
#    0.000    1.000    5.000    2.000    0.000    3.333 
#    3.000    1.667    0.000    0.000    0.000    0.000 
#    0.000    0.000    0.000    0.000    0.000    0.000 
#
# Total GULP energy -148765.959529 kJ/mol
# GULP energy per Si atom -12397.163294 kJ/mol
# Density = 2.227644 g / cm^3
# Si number density = 22.327259 Si / 1000 Ang^3
#
#
#
# Elastic Constant Matrix: (Units=GPa)
#
#
# Indices 1 2 3 4 5 6 
#
# 1 107.9605 37.4714 49.5195 -3.9231 8.5509 17.5955
# 2 37.4714 136.6569 50.7840 9.8786 -1.4489 6.8438
# 3 49.5195 50.7840 128.5581 25.2743 22.0820 2.5968
# 4 -3.9231 9.8786 25.2743 37.2727 -2.6349 -7.0278
# 5 8.5509 -1.4489 22.0820 -2.6349 38.3375 2.0703
# 6 17.5955 6.8438 2.5968 -7.0278 2.0703 29.2918
#
#
#
# Elastic Compliance Matrix: (Units=1/GPa)
#
#
# Indices 1 2 3 4 5 6 
#
# 1 0.013417 -0.001691 -0.005346 0.004365 0.000657 -0.006190
# 2 -0.001691 0.009123 -0.003317 -0.000365 0.002667 -0.001098
# 3 -0.005346 -0.003317 0.014440 -0.009869 -0.007978 0.000902
# 4 0.004365 -0.000365 -0.009869 0.035773 0.006808 0.006440
# 5 0.000657 0.002667 -0.007978 0.006808 0.031149 -0.000879
# 6 -0.006190 -0.001098 0.000902 0.006440 -0.000879 0.039641
#
#
# Mechanical properties :
#
#
# Convention : Reuss Voigt Hill
#
# Bulk Modulus (GPa) = 61.44940 72.08060 66.76500
# Shear Modulus (GPa) = 29.46786 36.67378 33.07082
#
# Velocity S-wave (km/s) = 3.63687 4.05724 3.85279
# Velocity P-wave (km/s) = 6.72441 7.36899 7.05407
#
# Compressibility (1/GPa) = 0.01627355
#
# Stress axis : x y z
#
# Youngs Moduli (GPa) = 74.53179 109.60775 69.24987
#
# Poissons Ratio (x) = 0.18532 0.37022
# Poissons Ratio (y) = 0.12602 0.22968
# Poissons Ratio (z) = 0.39846 0.36354
#
# Static dielectric constant tensor:
#      x y z
#    x 4.367180 -0.095490 -0.005640 
#    y -0.095490 4.488580 -0.022470 
#    z -0.005640 -0.022470 4.164510 
# 
# 
# High freq. dielectric constant tensor:
#      x y z
#    x 1.879620 0.000140 -0.006560 
#    y 0.000140 1.898450 0.013430 
#    z -0.006560 0.013430 1.866850 
# 
# From -- ./inp_files/25485.got.cif
#   From: 2010.06.25/outbox.cif.g09.slc.cpg/sg2_13_cif.got.tgz:25485.got - 2010.06.27 13:26:56.
