data_PCOD8025646
_publ_section_title
;
Structure prediction by ZEFSAII (Michael W. Deem and Ramdas Pophale) SiO2 
 PCOD8025646
Probable space group: P -1
;
_chemical_formula_sum "Si O2"
_cell_formula_units_Z 14
_cell_length_a 7.008021
_cell_length_b 10.361961
_cell_length_c 11.316354
_cell_angle_alpha 55.034713
_cell_angle_beta 64.127670
_cell_angle_gamma 80.309148
_cell_volume 602.196526
_symmetry_space_group_name_H-M "P -1"
_symmetry_group_IT_number 2
_symmetry_cell_setting 'triclinic'
loop_
_space_group_symop_operation_xyz
x,y,z
-x,-y,-z
loop_
_atom_site_type_symbol
_atom_site_label
_atom_site_fract_x
_atom_site_fract_y
_atom_site_fract_z
Si Si1 0.694117 0.078250 0.479722
Si Si2 0.330259 0.286946 0.729275
Si Si3 0.503440 0.388189 0.382087
Si Si4 0.890337 0.250034 0.965565
Si Si5 0.700150 0.562698 0.834894
Si Si6 0.084469 0.174100 0.191374
Si Si7 0.462557 0.015923 0.180953
O O1 0.683595 0.268005 0.392977
O O2 0.667551 0.991609 0.657233
O O3 0.914146 0.047663 0.371750
O O4 0.500000 0.000000 0.500000
O O5 0.348411 0.342608 0.559172
O O6 0.382869 0.433127 0.728194
O O7 0.495068 0.158148 0.781984
O O8 0.088149 0.207108 0.854591
O O9 0.367210 0.371841 0.307585
O O10 0.843775 0.422514 0.846234
O O11 0.955679 0.255397 0.082317
O O12 0.685375 0.124323 0.067202
O O13 0.830977 0.700448 0.799261
O O14 0.500000 0.500000 0.000000
O O15 0.279691 0.093649 0.114695
#
# Coordination Sequence:
#
# PCOD8025646 Si02
#       7
#     2   2   2   2   2   2   2
#     4  11  21  43  70 100 136 170 225 281 340 401
#     4  10  24  46  68  95 138 183 230 273 327 398
#     4  10  23  45  71  96 136 178 227 281 326 401
#     4  12  24  43  67 102 137 180 222 279 335 400
#     4  12  23  42  70 104 136 170 226 279 343 404
#     4  12  24  42  72 102 138 176 215 286 350 388
#     4  11  24  43  66 101 134 182 225 274 334 406
#
# _framework density 23.248224
#
# number of rings (size 3 to 8) (size 9 to 14) (size 15 to 20)
#    0.000    0.857    2.857    4.714    0.000    1.143 
#    2.571    0.000    0.000    0.000    0.000    0.000 
#    0.000    0.000    0.000    0.000    0.000    0.000 
#
# Total GULP energy -173593.663393 kJ/mol
# GULP energy per Si atom -12399.547385 kJ/mol
# Density = 2.319531 g / cm^3
# Si number density = 23.248224 Si / 1000 Ang^3
#
#
#
# Elastic Constant Matrix: (Units=GPa)
#
#
# Indices 1 2 3 4 5 6 
#
# 1 96.6973 17.7109 33.6589 1.5959 -31.0458 -1.6752
# 2 17.7109 84.3359 12.3265 -15.0506 -17.4154 -8.2158
# 3 33.6589 12.3265 85.3568 8.8588 -25.6453 1.2175
# 4 1.5959 -15.0506 8.8588 41.9466 -2.5251 0.3208
# 5 -31.0458 -17.4154 -25.6453 -2.5251 44.6782 4.7113
# 6 -1.6752 -8.2158 1.2175 0.3208 4.7113 40.9547
#
#
#
# Elastic Compliance Matrix: (Units=1/GPa)
#
#
# Indices 1 2 3 4 5 6 
#
# 1 0.014046 -0.000899 -0.003126 0.000268 0.007673 -0.000398
# 2 -0.000899 0.014347 -0.000992 0.005643 0.004473 0.002312
# 3 -0.003126 -0.000992 0.015296 -0.003083 0.006202 -0.001471
# 4 0.000268 0.005643 -0.003083 0.026622 0.002038 0.000792
# 5 0.007673 0.004473 0.006202 0.002038 0.033432 -0.002835
# 6 -0.000398 0.002312 -0.001471 0.000792 -0.002835 0.025228
#
#
# Mechanical properties :
#
#
# Convention : Reuss Voigt Hill
#
# Bulk Modulus (GPa) = 29.71340 43.75363 36.73352
# Shear Modulus (GPa) = 33.28356 39.02880 36.15618
#
# Velocity S-wave (km/s) = 3.78783 4.10174 3.94791
# Velocity P-wave (km/s) = 5.65145 6.42600 6.05113
#
# Compressibility (1/GPa) = 0.03365485
#
# Stress axis : x y z
#
# Youngs Moduli (GPa) = 71.19215 69.69969 65.37799
#
# Poissons Ratio (x) = 0.06269 0.20437
# Poissons Ratio (y) = 0.06403 0.06485
# Poissons Ratio (z) = 0.22254 0.06913
#
# Static dielectric constant tensor:
#      x y z
#    x 4.855090 -0.597670 0.204870 
#    y -0.597670 4.475540 -0.120110 
#    z 0.204870 -0.120110 4.279290 
# 
# 
# High freq. dielectric constant tensor:
#      x y z
#    x 1.921420 -0.013350 -0.002630 
#    y -0.013350 1.920280 -0.002780 
#    z -0.002630 -0.002780 1.935540 
# 
# From -- ./inp_files/63605.got.cif
#   From: 2010.06.25/outbox.cif.g09.slc.cpg/sg2_32_cif.got.tgz:63605.got - 2010.06.27 13:26:56.
