data_PCOD8025802
_publ_section_title
;
Structure prediction by ZEFSAII (Michael W. Deem and Ramdas Pophale) SiO2 
 PCOD8025802
Probable space group: P -1
;
_chemical_formula_sum "Si O2"
_cell_formula_units_Z 14
_cell_length_a 20.928254
_cell_length_b 6.800770
_cell_length_c 8.885552
_cell_angle_alpha 53.853638
_cell_angle_beta 39.515611
_cell_angle_gamma 63.267834
_cell_volume 649.765370
_symmetry_space_group_name_H-M "P -1"
_symmetry_group_IT_number 2
_symmetry_cell_setting 'triclinic'
loop_
_space_group_symop_operation_xyz
x,y,z
-x,-y,-z
loop_
_atom_site_type_symbol
_atom_site_label
_atom_site_fract_x
_atom_site_fract_y
_atom_site_fract_z
Si Si1 0.046151 0.604882 0.022267
Si Si2 0.231717 0.891742 0.632787
Si Si3 0.898124 0.865961 0.705118
Si Si4 0.134740 0.290574 0.492300
Si Si5 0.772728 0.203367 0.971460
Si Si6 0.455125 0.761590 0.274359
Si Si7 0.541036 0.251864 0.376127
O O1 0.099604 0.403331 0.115411
O O2 0.960038 0.736694 0.213128
O O3 0.139812 0.787779 0.743971
O O4 0.000000 0.500000 0.000000
O O5 0.335621 0.761108 0.465402
O O6 0.232253 0.174931 0.451199
O O7 0.207367 0.884928 0.856240
O O8 0.887143 0.861212 0.549423
O O9 0.801637 0.993846 0.896406
O O10 0.000000 0.000000 0.500000
O O11 0.154402 0.570428 0.294855
O O12 0.658629 0.276559 0.120169
O O13 0.493071 0.492840 0.274676
O O14 0.484638 0.772391 0.390410
O O15 0.500000 0.000000 0.000000
O O16 0.500000 0.000000 0.500000
#
# Coordination Sequence:
#
# PCOD8025802 Si02
#       7
#     2   2   2   2   2   2   2
#     4  12  24  42  64  97 137 173 218 268 323 391
#     4  11  24  42  67  95 134 175 215 273 327 391
#     4  12  23  40  67  95 129 176 220 265 323 390
#     4  12  24  44  65  94 137 172 219 269 322 394
#     4  11  24  43  66  97 132 174 220 266 336 394
#     4  10  23  46  68  98 136 172 222 278 341 396
#     4  10  24  43  69 100 132 171 223 283 332 399
#
# _framework density 21.546237999999999
#
# number of rings (size 3 to 8) (size 9 to 14) (size 15 to 20)
#    0.000    0.857    2.857    4.286    2.000    2.857 
#    0.000    0.000    0.000    0.000    0.000    0.000 
#    0.000    0.000    0.000    0.000    0.000    0.000 
#
# Total GULP energy -173573.230691 kJ/mol
# GULP energy per Si atom -12398.087907 kJ/mol
# Density = 2.149720 g / cm^3
# Si number density = 21.546238 Si / 1000 Ang^3
#
#
#
# Elastic Constant Matrix: (Units=GPa)
#
#
# Indices 1 2 3 4 5 6 
#
# 1 120.1692 63.1501 44.1779 8.1519 6.5451 -9.5993
# 2 63.1501 138.7660 37.3816 10.7773 4.8751 -17.8070
# 3 44.1779 37.3816 91.6853 5.0301 2.9152 -3.8960
# 4 8.1519 10.7773 5.0301 40.2341 -5.0183 2.3419
# 5 6.5451 4.8751 2.9152 -5.0183 29.8977 -8.7205
# 6 -9.5993 -17.8070 -3.8960 2.3419 -8.7205 44.8531
#
#
#
# Elastic Compliance Matrix: (Units=1/GPa)
#
#
# Indices 1 2 3 4 5 6 
#
# 1 0.012254 -0.004316 -0.004022 -0.001050 -0.001679 0.000288
# 2 -0.004316 0.010201 -0.001852 -0.001798 0.000056 0.003070
# 3 -0.004022 -0.001852 0.013614 -0.000408 -0.000348 -0.000460
# 4 -0.001050 -0.001798 -0.000408 0.026252 0.004543 -0.001462
# 5 -0.001679 0.000056 -0.000348 0.004543 0.036496 0.006491
# 6 0.000288 0.003070 -0.000460 -0.001462 0.006491 0.024874
#
#
# Mechanical properties :
#
#
# Convention : Reuss Voigt Hill
#
# Bulk Modulus (GPa) = 63.73710 71.11549 67.42630
# Shear Modulus (GPa) = 33.49004 36.72438 35.10721
#
# Velocity S-wave (km/s) = 3.94678 4.13297 4.04095
# Velocity P-wave (km/s) = 7.10037 7.47348 7.28931
#
# Compressibility (1/GPa) = 0.01568945
#
# Stress axis : x y z
#
# Youngs Moduli (GPa) = 81.60864 98.02987 73.45528
#
# Poissons Ratio (x) = 0.42305 0.29540
# Poissons Ratio (y) = 0.35218 0.13607
# Poissons Ratio (z) = 0.32819 0.18159
#
# Static dielectric constant tensor:
#      x y z
#    x 3.820960 -0.110360 -0.030160 
#    y -0.110360 4.531330 -0.118910 
#    z -0.030160 -0.118910 4.040430 
# 
# 
# High freq. dielectric constant tensor:
#      x y z
#    x 1.848880 -0.017860 0.007920 
#    y -0.017860 1.862330 -0.004380 
#    z 0.007920 -0.004380 1.849000 
# 
# From -- ./inp_files/37138.got.cif
#   From: 2010.06.25/outbox.cif.g09.slc.cpg/sg2_19_cif.got.tgz:37138.got - 2010.06.27 13:26:56.
