data_PCOD8025414
_publ_section_title
;
Structure prediction by ZEFSAII (Michael W. Deem and Ramdas Pophale) SiO2 
 PCOD8025414
Probable space group: P -1
;
_chemical_formula_sum "Si O2"
_cell_formula_units_Z 16
_cell_length_a 9.369426
_cell_length_b 18.001810
_cell_length_c 13.272372
_cell_angle_alpha 133.891853
_cell_angle_beta 28.856841
_cell_angle_gamma 132.786591
_cell_volume 761.698067
_symmetry_space_group_name_H-M "P -1"
_symmetry_group_IT_number 2
_symmetry_cell_setting 'triclinic'
loop_
_space_group_symop_operation_xyz
x,y,z
-x,-y,-z
loop_
_atom_site_type_symbol
_atom_site_label
_atom_site_fract_x
_atom_site_fract_y
_atom_site_fract_z
Si Si1 0.810306 0.473562 0.751785
Si Si2 0.641299 0.054173 0.062906
Si Si3 0.169472 0.951008 0.621798
Si Si4 0.277038 0.392040 0.505528
Si Si5 0.165801 0.655038 0.577249
Si Si6 0.643443 0.771490 0.531643
Si Si7 0.271764 0.888214 0.274922
Si Si8 0.745135 0.755710 0.804853
O O1 0.731434 0.398153 0.634480
O O2 0.950431 0.418580 0.706275
O O3 0.054386 0.576294 0.664177
O O4 0.500000 0.500000 0.000000
O O5 0.591011 0.173210 0.208333
O O6 0.465043 0.995628 0.212588
O O7 0.500000 0.000000 0.000000
O O8 0.991123 0.046122 0.837329
O O9 0.182090 0.909237 0.462908
O O10 0.001389 0.850348 0.693322
O O11 0.500000 0.000000 0.500000
O O12 0.500000 0.500000 0.500000
O O13 0.253942 0.316073 0.544283
O O14 0.372523 0.334379 0.291743
O O15 0.471826 0.730387 0.496909
O O16 0.894306 0.711849 0.768242
O O17 0.949893 0.851762 0.382865
O O18 0.457736 0.795855 0.062708
#
# Coordination Sequence:
#
# PCOD8025414 Si02
#       8
#     2   2   2   2   2   2   2   2
#     4  10  23  45  66  89 129 171 215 271 327 382
#     4  11  24  44  64  97 136 167 218 277 324 388
#     4  11  25  42  66  97 133 176 221 269 329 393
#     4  11  22  45  67  94 134 170 216 273 324 389
#     4  10  24  41  63  97 129 164 218 273 321 386
#     4  12  23  42  67  97 130 175 217 269 330 388
#     4  11  24  43  69  95 132 176 220 269 332 391
#     4  10  24  43  66  97 136 170 219 274 323 395
#
# _framework density 21.005699
#
# number of rings (size 3 to 8) (size 9 to 14) (size 15 to 20)
#    0.000    1.250    3.750    1.125    5.250    2.000 
#    2.250    1.250    0.000    0.000    0.000    0.000 
#    0.000    0.000    0.000    0.000    0.000    0.000 
#
# Total GULP energy -198374.726613 kJ/mol
# GULP energy per Si atom -12398.420413 kJ/mol
# Density = 2.095789 g / cm^3
# Si number density = 21.005699 Si / 1000 Ang^3
#
#
#
# Elastic Constant Matrix: (Units=GPa)
#
#
# Indices 1 2 3 4 5 6 
#
# 1 105.4916 38.4950 52.0321 -0.7581 -17.3150 8.6656
# 2 38.4950 74.1095 46.9664 14.7056 -8.3832 17.4721
# 3 52.0321 46.9664 149.1990 13.2786 -28.6172 6.9236
# 4 -0.7581 14.7056 13.2786 21.3586 -4.3671 -13.4299
# 5 -17.3150 -8.3832 -28.6172 -4.3671 31.6061 -1.3359
# 6 8.6656 17.4721 6.9236 -13.4299 -1.3359 41.9779
#
#
#
# Elastic Compliance Matrix: (Units=1/GPa)
#
#
# Indices 1 2 3 4 5 6 
#
# 1 0.014662 -0.009330 -0.002606 0.013213 0.005264 0.005681
# 2 -0.009330 0.032571 -0.003899 -0.035760 -0.005899 -0.022616
# 3 -0.002606 -0.003899 0.010329 -0.002601 0.006524 -0.000168
# 4 0.013213 -0.035760 -0.002601 0.105299 0.011920 0.046653
# 5 0.005264 -0.005899 0.006524 0.011920 0.040741 0.005403
# 6 0.005681 -0.022616 -0.000168 0.046653 0.005403 0.047188
#
#
# Mechanical properties :
#
#
# Convention : Reuss Voigt Hill
#
# Bulk Modulus (GPa) = 38.62142 67.08746 52.85444
# Shear Modulus (GPa) = 17.17682 31.74227 24.45954
#
# Velocity S-wave (km/s) = 2.86269 3.89154 3.41607
# Velocity P-wave (km/s) = 5.41781 7.22490 6.38560
#
# Compressibility (1/GPa) = 0.02589237
#
# Stress axis : x y z
#
# Youngs Moduli (GPa) = 68.20470 30.70198 96.81232
#
# Poissons Ratio (x) = 0.28645 0.25231
# Poissons Ratio (y) = 0.63636 0.37744
# Poissons Ratio (z) = 0.17775 0.11970
#
# Static dielectric constant tensor:
#      x y z
#    x 4.092970 0.051190 -0.372540 
#    y 0.051190 3.816330 -0.036300 
#    z -0.372540 -0.036300 3.761020 
# 
# 
# High freq. dielectric constant tensor:
#      x y z
#    x 1.834540 -0.002630 -0.010490 
#    y -0.002630 1.823500 0.015000 
#    z -0.010490 0.015000 1.824330 
# 
# From -- ./inp_files/110804.got.cif
#   From: 2010.06.25/outbox.cif.g09.slc.cpg/sg2_56_cif.got.tgz:110804.got - 2010.06.27 13:26:56.
