data_PCOD8025825
_publ_section_title
;
Structure prediction by ZEFSAII (Michael W. Deem and Ramdas Pophale) SiO2 
 PCOD8025825
Probable space group: P -1
;
_chemical_formula_sum "Si O2"
_cell_formula_units_Z 16
_cell_length_a 10.968311
_cell_length_b 6.971412
_cell_length_c 12.007456
_cell_angle_alpha 52.576657
_cell_angle_beta 97.738454
_cell_angle_gamma 100.638337
_cell_volume 716.331285
_symmetry_space_group_name_H-M "P -1"
_symmetry_group_IT_number 2
_symmetry_cell_setting 'triclinic'
loop_
_space_group_symop_operation_xyz
x,y,z
-x,-y,-z
loop_
_atom_site_type_symbol
_atom_site_label
_atom_site_fract_x
_atom_site_fract_y
_atom_site_fract_z
Si Si1 0.790270 0.500965 0.970302
Si Si2 0.729970 0.244357 0.514400
Si Si3 0.014675 0.510449 0.832349
Si Si4 0.846450 0.032023 0.403538
Si Si5 0.408061 0.248676 0.260966
Si Si6 0.621957 0.089262 0.209919
Si Si7 0.916936 0.503789 0.595263
Si Si8 0.532188 0.560385 0.354228
O O1 0.708756 0.701431 0.845959
O O2 0.890995 0.449177 0.910112
O O3 0.867804 0.596102 0.058079
O O4 0.699739 0.250927 0.069188
O O5 0.836467 0.178265 0.466629
O O6 0.789088 0.334321 0.609063
O O7 0.661634 0.459004 0.376786
O O8 0.623093 0.020266 0.598417
O O9 0.056073 0.803060 0.722206
O O10 0.982934 0.392877 0.748216
O O11 0.710860 0.988048 0.347791
O O12 0.893632 0.777524 0.526602
O O13 0.530701 0.258886 0.197048
O O14 0.427050 0.438684 0.298789
O O15 0.545493 0.849738 0.230009
O O16 0.000000 0.500000 0.500000
O O17 0.500000 0.500000 0.500000
#
# Coordination Sequence:
#
# PCOD8025825 Si02
#       8
#     2   2   2   2   2   2   2   2
#     4  10  25  45  70  94 136 199 232 269 334 405
#     4  12  24  40  69 108 138 175 220 288 361 405
#     4  10  23  46  69  95 138 182 236 280 329 405
#     4  11  22  42  70 101 143 175 220 292 353 406
#     4  12  25  42  71  98 140 181 227 277 346 414
#     4  11  23  44  68  98 139 180 229 281 336 415
#     4  12  25  40  72 109 136 175 228 289 356 401
#     4  12  24  42  68 105 141 172 222 291 352 408
#
# _framework density 22.336036
#
# number of rings (size 3 to 8) (size 9 to 14) (size 15 to 20)
#    0.000    0.750    5.000    2.625    3.500    0.500 
#    0.000    1.875    2.750    0.000    0.000    0.000 
#    0.000    0.000    0.000    0.000    0.000    0.000 
#
# Total GULP energy -198418.987479 kJ/mol
# GULP energy per Si atom -12401.186717 kJ/mol
# Density = 2.228520 g / cm^3
# Si number density = 22.336036 Si / 1000 Ang^3
#
#
#
# Elastic Constant Matrix: (Units=GPa)
#
#
# Indices 1 2 3 4 5 6 
#
# 1 103.0070 26.2107 45.4189 10.9385 1.1091 -4.3830
# 2 26.2107 111.1107 40.4812 11.2424 -1.1097 4.2772
# 3 45.4189 40.4812 90.4278 16.3408 -6.7164 3.0907
# 4 10.9385 11.2424 16.3408 34.3004 11.6597 3.4494
# 5 1.1091 -1.1097 -6.7164 11.6597 53.7563 2.3976
# 6 -4.3830 4.2772 3.0907 3.4494 2.3976 39.9152
#
#
#
# Elastic Compliance Matrix: (Units=1/GPa)
#
#
# Indices 1 2 3 4 5 6 
#
# 1 0.012765 -0.000818 -0.006041 -0.000811 -0.000952 0.002084
# 2 -0.000818 0.010883 -0.004210 -0.001223 0.000018 -0.000825
# 3 -0.006041 -0.004210 0.017382 -0.006066 0.003581 -0.001249
# 4 -0.000811 -0.001223 -0.006066 0.035779 -0.008434 -0.002074
# 5 -0.000952 0.000018 0.003581 -0.008434 0.020940 -0.000913
# 6 0.002084 -0.000825 -0.001249 -0.002074 -0.000913 0.025701
#
#
# Mechanical properties :
#
#
# Convention : Reuss Voigt Hill
#
# Bulk Modulus (GPa) = 52.93320 58.75191 55.84255
# Shear Modulus (GPa) = 32.91960 38.42337 35.67149
#
# Velocity S-wave (km/s) = 3.84322 4.15208 4.00063
# Velocity P-wave (km/s) = 6.59119 7.02475 6.81142
#
# Compressibility (1/GPa) = 0.01889174
#
# Stress axis : x y z
#
# Youngs Moduli (GPa) = 78.34081 91.88905 57.53024
#
# Poissons Ratio (x) = 0.07518 0.34751
# Poissons Ratio (y) = 0.06409 0.24222
# Poissons Ratio (z) = 0.47322 0.38688
#
# Static dielectric constant tensor:
#      x y z
#    x 4.304190 0.286380 0.109570 
#    y 0.286380 4.090950 0.175940 
#    z 0.109570 0.175940 4.007260 
# 
# 
# High freq. dielectric constant tensor:
#      x y z
#    x 1.899190 0.018030 -0.000960 
#    y 0.018030 1.867720 0.008650 
#    z -0.000960 0.008650 1.867800 
# 
# From -- ./inp_files/70867.got.cif
#   From: 2010.06.25/outbox.cif.g09.slc.cpg/sg2_36_cif.got.tgz:70867.got - 2010.06.27 13:26:56.
