data_PCOD8025787
_publ_section_title
;
Structure prediction by ZEFSAII (Michael W. Deem and Ramdas Pophale) SiO2 
 PCOD8025787
Probable space group: P -1
;
_chemical_formula_sum "Si O2"
_cell_formula_units_Z 16
_cell_length_a 13.240181
_cell_length_b 10.304624
_cell_length_c 11.187543
_cell_angle_alpha 113.660988
_cell_angle_beta 74.855895
_cell_angle_gamma 48.358325
_cell_volume 665.042679
_symmetry_space_group_name_H-M "P -1"
_symmetry_group_IT_number 2
_symmetry_cell_setting 'triclinic'
loop_
_space_group_symop_operation_xyz
x,y,z
-x,-y,-z
loop_
_atom_site_type_symbol
_atom_site_label
_atom_site_fract_x
_atom_site_fract_y
_atom_site_fract_z
Si Si1 0.217378 0.289497 0.300407
Si Si2 0.640236 0.195402 0.194491
Si Si3 0.497383 0.997294 0.309619
Si Si4 0.619793 0.204315 0.939329
Si Si5 0.844949 0.643907 0.919399
Si Si6 0.230127 0.824374 0.618805
Si Si7 0.681146 0.977512 0.434972
Si Si8 0.856026 0.150182 0.718082
O O1 0.183050 0.394896 0.217854
O O2 0.000000 0.500000 0.500000
O O3 0.342350 0.238772 0.339604
O O4 0.363975 0.981186 0.122342
O O5 0.667302 0.219605 0.059784
O O6 0.390880 0.505350 0.422465
O O7 0.771486 0.137287 0.225778
O O8 0.729143 0.931542 0.078741
O O9 0.518594 0.099914 0.435619
O O10 0.403475 0.964069 0.385151
O O11 0.724387 0.685942 0.067194
O O12 0.375981 0.509194 0.090237
O O13 0.798178 0.055197 0.736305
O O14 0.089252 0.366575 0.777806
O O15 0.306403 0.869346 0.531218
O O16 0.990759 0.063506 0.749786
O O17 0.000000 0.000000 0.500000
#
# Coordination Sequence:
#
# PCOD8025787 Si02
#       8
#     2   2   2   2   2   2   2   2
#     4  11  24  44  67 101 138 176 227 287 341 401
#     4  10  23  46  68 101 141 173 231 279 337 412
#     4  11  24  43  68 101 137 182 220 287 337 400
#     4  10  25  46  68 103 134 177 236 277 335 421
#     4  11  23  46  70 100 137 177 230 281 336 409
#     4  11  24  45  72 100 139 184 219 285 343 404
#     4  11  25  44  70 102 138 175 234 277 332 415
#     4  11  24  44  72  98 135 183 224 283 339 401
#
# _framework density 24.058605
#
# number of rings (size 3 to 8) (size 9 to 14) (size 15 to 20)
#    0.000    1.250    3.750    0.750    3.500    1.500 
#    0.000    0.000    0.000    0.000    0.000    0.000 
#    0.000    0.000    0.000    0.000    0.000    0.000 
#
# Total GULP energy -198265.305960 kJ/mol
# GULP energy per Si atom -12391.581623 kJ/mol
# Density = 2.400385 g / cm^3
# Si number density = 24.058605 Si / 1000 Ang^3
#
#
#
# Elastic Constant Matrix: (Units=GPa)
#
#
# Indices 1 2 3 4 5 6 
#
# 1 75.0152 33.5198 33.3241 19.6364 -14.6102 -18.7491
# 2 33.5198 85.3765 38.0856 13.6170 0.4950 -27.3485
# 3 33.3241 38.0856 133.4790 -4.2460 -24.7458 -9.5983
# 4 19.6364 13.6170 -4.2460 31.3554 -0.8677 0.9162
# 5 -14.6102 0.4950 -24.7458 -0.8677 38.6627 0.7564
# 6 -18.7491 -27.3485 -9.5983 0.9162 0.7564 44.5659
#
#
#
# Elastic Compliance Matrix: (Units=1/GPa)
#
#
# Indices 1 2 3 4 5 6 
#
# 1 0.022718 -0.002836 -0.003699 -0.013546 0.005809 0.007200
# 2 -0.002836 0.019753 -0.005420 -0.007972 -0.005168 0.010013
# 3 -0.003699 -0.005420 0.011074 0.006414 0.005957 -0.002730
# 4 -0.013546 -0.007972 0.006414 0.045011 0.000297 -0.010140
# 5 0.005809 -0.005168 0.005957 0.000297 0.031945 0.000007
# 6 0.007200 0.010013 -0.002730 -0.010140 0.000007 0.031233
#
#
# Mechanical properties :
#
#
# Convention : Reuss Voigt Hill
#
# Bulk Modulus (GPa) = 33.74347 55.96996 44.85671
# Shear Modulus (GPa) = 25.57281 35.51287 30.54284
#
# Velocity S-wave (km/s) = 3.26381 3.84617 3.56690
# Velocity P-wave (km/s) = 5.31594 6.56038 5.97067
#
# Compressibility (1/GPa) = 0.02963536
#
# Stress axis : x y z
#
# Youngs Moduli (GPa) = 44.01819 50.62599 90.30412
#
# Poissons Ratio (x) = 0.14358 0.33401
# Poissons Ratio (y) = 0.12484 0.48943
# Poissons Ratio (z) = 0.16281 0.27438
#
# Static dielectric constant tensor:
#      x y z
#    x 4.050410 -0.349790 -0.128320 
#    y -0.349790 4.867710 -0.294410 
#    z -0.128320 -0.294410 4.443510 
# 
# 
# High freq. dielectric constant tensor:
#      x y z
#    x 1.937290 -0.022000 -0.005920 
#    y -0.022000 1.971110 -0.008540 
#    z -0.005920 -0.008540 1.956290 
# 
# From -- ./inp_files/428718.got.cif
#   From: 2010.06.25/outbox.cif.g09.slc.cpg/sg2_215_cif.got.tgz:428718.got - 2010.06.27 13:26:56.
