data_PCOD8025113
_publ_section_title
;
Structure prediction by ZEFSAII (Michael W. Deem and Ramdas Pophale) SiO2 
 PCOD8025113
Probable space group: P -1
;
_chemical_formula_sum "Si O2"
_cell_formula_units_Z 16
_cell_length_a 11.166076
_cell_length_b 12.109668
_cell_length_c 5.904308
_cell_angle_alpha 119.543117
_cell_angle_beta 89.957977
_cell_angle_gamma 73.558610
_cell_volume 656.681791
_symmetry_space_group_name_H-M "P -1"
_symmetry_group_IT_number 2
_symmetry_cell_setting 'triclinic'
loop_
_space_group_symop_operation_xyz
x,y,z
-x,-y,-z
loop_
_atom_site_type_symbol
_atom_site_label
_atom_site_fract_x
_atom_site_fract_y
_atom_site_fract_z
Si Si1 0.586341 0.612416 0.912730
Si Si2 0.742334 0.142119 0.446431
Si Si3 0.728204 0.724819 0.692187
Si Si4 0.963399 0.627838 0.289909
Si Si5 0.684529 0.379236 0.009687
Si Si6 0.113532 0.159736 0.874167
Si Si7 0.523660 0.862598 0.493045
Si Si8 0.873059 0.292751 0.290388
O O1 0.652704 0.628925 0.693872
O O2 0.677933 0.482707 0.911021
O O3 0.452516 0.589982 0.840060
O O4 0.568032 0.741731 0.195621
O O5 0.734818 0.227991 0.760767
O O6 0.603851 0.136472 0.377651
O O7 0.789576 0.207456 0.301518
O O8 0.839322 0.995621 0.348297
O O9 0.845722 0.631022 0.452064
O O10 0.633780 0.842138 0.657970
O O11 0.773928 0.797125 0.971369
O O12 0.929946 0.762943 0.281685
O O13 0.086105 0.617690 0.431909
O O14 0.000000 0.500000 0.000000
O O15 0.787012 0.393109 0.204805
O O16 0.998861 0.188626 0.078731
O O17 0.500000 0.000000 0.500000
#
# Coordination Sequence:
#
# PCOD8025113 Si02
#       8
#     2   2   2   2   2   2   2   2
#     4  10  23  44  69 102 139 176 227 285 343 409
#     4  11  24  43  68 101 139 180 229 282 340 406
#     4  11  24  44  72  98 135 183 227 278 345 410
#     4  11  27  48  69 101 138 179 230 286 344 407
#     4  10  24  44  69 101 138 180 226 284 345 406
#     4  11  26  44  65 100 141 181 231 285 336 402
#     4  11  24  42  70 105 141 180 226 285 341 403
#     4  11  25  44  71  98 134 184 230 280 345 409
#
# _framework density 24.364923000000001
#
# number of rings (size 3 to 8) (size 9 to 14) (size 15 to 20)
#    0.000    1.250    0.000    4.125    0.000   17.000 
#    0.000    5.625    0.000    2.250    0.000    0.000 
#    0.000    0.000    0.000    0.000    0.000    0.000 
#
# Total GULP energy -198520.591121 kJ/mol
# GULP energy per Si atom -12407.536945 kJ/mol
# Density = 2.430947 g / cm^3
# Si number density = 24.364923 Si / 1000 Ang^3
#
#
#
# Elastic Constant Matrix: (Units=GPa)
#
#
# Indices 1 2 3 4 5 6 
#
# 1 151.2250 61.4367 49.3988 -13.4956 -3.1933 -5.1662
# 2 61.4367 147.2760 57.6675 3.2096 6.5692 -9.6175
# 3 49.3988 57.6675 102.6363 6.4482 0.5410 -12.1428
# 4 -13.4956 3.2096 6.4482 44.6866 -4.9137 0.2131
# 5 -3.1933 6.5692 0.5410 -4.9137 48.2801 -21.2701
# 6 -5.1662 -9.6175 -12.1428 0.2131 -21.2701 45.0505
#
#
#
# Elastic Compliance Matrix: (Units=1/GPa)
#
#
# Indices 1 2 3 4 5 6 
#
# 1 0.009064 -0.002719 -0.003024 0.003534 0.001514 0.000342
# 2 -0.002719 0.009583 -0.004009 -0.001106 -0.001592 -0.000093
# 3 -0.003024 -0.004009 0.013982 -0.002510 0.001350 0.003215
# 4 0.003534 -0.001106 -0.002510 0.024244 0.003290 0.000931
# 5 0.001514 -0.001592 0.001350 0.003290 0.027057 0.012957
# 6 0.000342 -0.000093 0.003215 0.000931 0.012957 0.029196
#
#
# Mechanical properties :
#
#
# Convention : Reuss Voigt Hill
#
# Bulk Modulus (GPa) = 76.19201 82.01595 79.10398
# Shear Modulus (GPa) = 36.49462 43.11240 39.80351
#
# Velocity S-wave (km/s) = 3.87439 4.21104 4.04622
# Velocity P-wave (km/s) = 7.16614 7.57485 7.37333
#
# Compressibility (1/GPa) = 0.01312474
#
# Stress axis : x y z
#
# Youngs Moduli (GPa) = 110.32255 104.35145 71.51984
#
# Poissons Ratio (x) = 0.28375 0.21631
# Poissons Ratio (y) = 0.29999 0.28670
# Poissons Ratio (z) = 0.33366 0.41832
#
# Static dielectric constant tensor:
#      x y z
#    x 4.792920 -0.015880 -0.138140 
#    y -0.015880 4.455780 -0.056170 
#    z -0.138140 -0.056170 4.299870 
# 
# 
# High freq. dielectric constant tensor:
#      x y z
#    x 1.990400 -0.001930 -0.012340 
#    y -0.001930 1.970140 -0.000390 
#    z -0.012340 -0.000390 1.966030 
# 
# From -- ./inp_files/71836.got.cif
#   From: 2010.06.25/outbox.cif.g09.slc.cpg/sg2_36_cif.got.tgz:71836.got - 2010.06.27 13:26:56.
