data_PCOD8025302
_publ_section_title
;
Structure prediction by ZEFSAII (Michael W. Deem and Ramdas Pophale) SiO2 
 PCOD8025302
Probable space group: P -1
;
_chemical_formula_sum "Si O2"
_cell_formula_units_Z 16
_cell_length_a 14.871477
_cell_length_b 8.280874
_cell_length_c 9.216655
_cell_angle_alpha 78.161485
_cell_angle_beta 121.215591
_cell_angle_gamma 64.507501
_cell_volume 729.032265
_symmetry_space_group_name_H-M "P -1"
_symmetry_group_IT_number 2
_symmetry_cell_setting 'triclinic'
loop_
_space_group_symop_operation_xyz
x,y,z
-x,-y,-z
loop_
_atom_site_type_symbol
_atom_site_label
_atom_site_fract_x
_atom_site_fract_y
_atom_site_fract_z
Si Si1 0.750380 0.442428 0.401470
Si Si2 0.253146 0.922372 0.034702
Si Si3 0.755153 0.396585 0.069171
Si Si4 0.508955 0.852999 0.658220
Si Si5 0.976530 0.374086 0.782759
Si Si6 0.008042 0.692134 0.867690
Si Si7 0.502289 0.101620 0.840928
Si Si8 0.731626 0.132998 0.613578
O O1 0.760040 0.418168 0.241149
O O2 0.853436 0.476872 0.545397
O O3 0.596438 0.642964 0.278806
O O4 0.778695 0.242550 0.541162
O O5 0.349894 0.981728 0.071966
O O6 0.277763 0.818032 0.232785
O O7 0.288059 0.747902 0.976043
O O8 0.097915 0.142161 0.859657
O O9 0.909308 0.252888 0.161330
O O10 0.659662 0.629711 0.866251
O O11 0.416433 0.786109 0.567699
O O12 0.500000 0.000000 0.500000
O O13 0.444093 0.021098 0.702014
O O14 0.027836 0.509574 0.819594
O O15 0.927443 0.373130 0.904105
O O16 0.846491 0.882518 0.718228
O O17 0.500000 0.000000 0.000000
#
# Coordination Sequence:
#
# PCOD8025302 Si02
#       8
#     2   2   2   2   2   2   2   2
#     4  12  27  44  66 101 141 180 218 271 343 400
#     4  11  25  45  70  99 135 176 227 279 330 398
#     4  12  27  44  66 101 141 177 219 277 336 403
#     4  12  26  45  73  99 130 177 232 279 331 395
#     4  10  23  44  73 100 131 174 226 279 333 394
#     4  10  23  44  73 101 131 171 229 280 328 395
#     4  12  26  46  68  98 137 176 222 280 337 396
#     4  11  25  44  70 102 132 176 226 278 335 397
#
# _framework density 21.946902000000001
#
# number of rings (size 3 to 8) (size 9 to 14) (size 15 to 20)
#    0.000    0.750    2.500    3.750    8.750    6.500 
#    0.000    0.000    0.000    0.000    0.000    0.000 
#    0.000    0.000    0.000    0.000    0.000    0.000 
#
# Total GULP energy -198335.197007 kJ/mol
# GULP energy per Si atom -12395.949813 kJ/mol
# Density = 2.189695 g / cm^3
# Si number density = 21.946902 Si / 1000 Ang^3
#
#
#
# Elastic Constant Matrix: (Units=GPa)
#
#
# Indices 1 2 3 4 5 6 
#
# 1 87.5324 16.0483 45.8711 -0.3150 2.4954 -7.1577
# 2 16.0483 123.8644 50.5740 17.1236 -2.7673 -4.1872
# 3 45.8711 50.5740 121.7858 19.1700 -7.2661 -6.6341
# 4 -0.3150 17.1236 19.1700 30.6928 6.3219 -3.1759
# 5 2.4954 -2.7673 -7.2661 6.3219 32.9141 -0.3600
# 6 -7.1577 -4.1872 -6.6341 -3.1759 -0.3600 31.0053
#
#
#
# Elastic Compliance Matrix: (Units=1/GPa)
#
#
# Indices 1 2 3 4 5 6 
#
# 1 0.015247 0.000016 -0.006662 0.005323 -0.003619 0.002600
# 2 0.000016 0.010035 -0.003566 -0.003496 0.000730 0.000246
# 3 -0.006662 -0.003566 0.013682 -0.007569 0.004682 0.000187
# 4 0.005323 -0.003496 -0.007569 0.041789 -0.010359 0.003297
# 5 -0.003619 0.000730 0.004682 -0.010359 0.033737 -0.000405
# 6 0.002600 0.000246 0.000187 0.003297 -0.000405 0.033259
#
#
# Mechanical properties :
#
#
# Convention : Reuss Voigt Hill
#
# Bulk Modulus (GPa) = 53.93529 62.01882 57.97706
# Shear Modulus (GPa) = 28.67742 33.63506 31.15624
#
# Velocity S-wave (km/s) = 3.61871 3.91905 3.77187
# Velocity P-wave (km/s) = 6.48759 6.98559 6.74119
#
# Compressibility (1/GPa) = 0.01854074
#
# Stress axis : x y z
#
# Youngs Moduli (GPa) = 65.58482 99.64876 73.08820
#
# Poissons Ratio (x) = -0.00156 0.48689
# Poissons Ratio (y) = -0.00102 0.26063
# Poissons Ratio (z) = 0.43690 0.35534
#
# Static dielectric constant tensor:
#      x y z
#    x 3.781210 0.008980 0.030710 
#    y 0.008980 3.874990 0.157830 
#    z 0.030710 0.157830 3.993890 
# 
# 
# High freq. dielectric constant tensor:
#      x y z
#    x 1.863370 -0.002080 0.003050 
#    y -0.002080 1.880030 0.005940 
#    z 0.003050 0.005940 1.863410 
# 
# From -- ./inp_files/298349.got.cif
#   From: 2010.06.25/outbox.cif.g09.slc.cpg/sg2_150_cif.got.tgz:298349.got - 2010.06.27 13:26:56.
