data_PCOD8025060
_publ_section_title
;
Structure prediction by ZEFSAII (Michael W. Deem and Ramdas Pophale) SiO2 
 PCOD8025060
Probable space group: P -1
;
_chemical_formula_sum "Si O2"
_cell_formula_units_Z 14
_cell_length_a 6.693919
_cell_length_b 7.996171
_cell_length_c 16.647773
_cell_angle_alpha 52.100395
_cell_angle_beta 119.522426
_cell_angle_gamma 112.265630
_cell_volume 608.069894
_symmetry_space_group_name_H-M "P -1"
_symmetry_group_IT_number 2
_symmetry_cell_setting 'triclinic'
loop_
_space_group_symop_operation_xyz
x,y,z
-x,-y,-z
loop_
_atom_site_type_symbol
_atom_site_label
_atom_site_fract_x
_atom_site_fract_y
_atom_site_fract_z
Si Si1 0.163249 0.335671 0.473846
Si Si2 0.201125 0.670036 0.726701
Si Si3 0.316139 0.221972 0.836210
Si Si4 0.971527 0.223469 0.629048
Si Si5 0.493164 0.971248 0.411549
Si Si6 0.820259 0.211642 0.986132
Si Si7 0.234240 0.536288 0.938336
O O1 0.162183 0.566089 0.446398
O O2 0.407805 0.249704 0.530514
O O3 0.041605 0.324492 0.366607
O O4 0.027491 0.180821 0.559033
O O5 0.285622 0.437117 0.812627
O O6 0.180911 0.707522 0.807369
O O7 0.386283 0.829163 0.670722
O O8 0.206814 0.227680 0.724115
O O9 0.172394 0.033039 0.914046
O O10 0.590712 0.207384 0.885803
O O11 0.772482 0.036836 0.668136
O O12 0.500000 0.000000 0.500000
O O13 0.798809 0.352309 0.018064
O O14 0.056048 0.316068 0.958466
O O15 0.500000 0.500000 0.000000
#
# Coordination Sequence:
#
# PCOD8025060 Si02
#       7
#     2   2   2   2   2   2   2
#     4  10  23  46  62  98 135 176 228 275 338 411
#     4  11  24  43  67  97 134 174 227 276 332 409
#     4  10  23  45  66 100 132 178 223 271 341 399
#     4  10  23  44  68  94 140 176 225 281 334 414
#     4  12  25  41  70 100 136 181 224 284 338 398
#     4  10  24  46  69  96 135 175 220 286 334 397
#     4  11  24  45  69  98 131 172 228 280 336 399
#
# _framework density 23.023668000000001
#
# number of rings (size 3 to 8) (size 9 to 14) (size 15 to 20)
#    0.000    1.429    2.857    0.857    4.000    1.714 
#    5.143    0.000    0.000    0.000    0.000    0.000 
#    0.000    0.000    0.000    0.000    0.000    0.000 
#
# Total GULP energy -173479.786751 kJ/mol
# GULP energy per Si atom -12391.413339 kJ/mol
# Density = 2.297127 g / cm^3
# Si number density = 23.023668 Si / 1000 Ang^3
#
#
#
# Elastic Constant Matrix: (Units=GPa)
#
#
# Indices 1 2 3 4 5 6 
#
# 1 120.2877 40.1925 51.3662 9.0850 -2.2746 23.1642
# 2 40.1925 55.7916 24.5876 1.3702 4.4971 12.8272
# 3 51.3662 24.5876 120.5839 7.3444 -4.5727 11.5710
# 4 9.0850 1.3702 7.3444 32.9109 5.8495 -1.4156
# 5 -2.2746 4.4971 -4.5727 5.8495 35.9255 -1.0328
# 6 23.1642 12.8272 11.5710 -1.4156 -1.0328 47.4460
#
#
#
# Elastic Compliance Matrix: (Units=1/GPa)
#
#
# Indices 1 2 3 4 5 6 
#
# 1 0.013191 -0.007144 -0.003562 -0.003003 0.001659 -0.003694
# 2 -0.007144 0.024906 -0.002053 0.002028 -0.004241 -0.002777
# 3 -0.003562 -0.002053 0.010409 -0.001550 0.001601 -0.000256
# 4 -0.003003 0.002028 -0.001550 0.032614 -0.005890 0.002141
# 5 0.001659 -0.004241 0.001601 -0.005890 0.029646 0.000416
# 6 -0.003694 -0.002777 -0.000256 0.002141 0.000416 0.023766
#
#
# Mechanical properties :
#
#
# Convention : Reuss Voigt Hill
#
# Bulk Modulus (GPa) = 43.50293 58.77288 51.13790
# Shear Modulus (GPa) = 29.81302 35.29094 32.55198
#
# Velocity S-wave (km/s) = 3.60236 3.91936 3.76420
# Velocity P-wave (km/s) = 6.01984 6.78708 6.41494
#
# Compressibility (1/GPa) = 0.02298696
#
# Stress axis : x y z
#
# Youngs Moduli (GPa) = 75.80930 40.15175 96.07351
#
# Poissons Ratio (x) = 0.28683 0.34224
# Poissons Ratio (y) = 0.54156 0.19725
# Poissons Ratio (z) = 0.27005 0.08244
#
# Static dielectric constant tensor:
#      x y z
#    x 4.303740 0.205960 -0.052620 
#    y 0.205960 4.344580 0.025950 
#    z -0.052620 0.025950 4.253700 
# 
# 
# High freq. dielectric constant tensor:
#      x y z
#    x 1.905580 0.006650 0.000040 
#    y 0.006650 1.918140 0.005430 
#    z 0.000040 0.005430 1.911400 
# 
# From -- ./inp_files/53144.got.cif
#   From: 2010.06.25/outbox.cif.g09.slc.cpg/sg2_27_cif.got.tgz:53144.got - 2010.06.27 13:26:56.
