data_PCOD8025501
_publ_section_title
;
Structure prediction by ZEFSAII (Michael W. Deem and Ramdas Pophale) SiO2 
 PCOD8025501
Probable space group: P -1
;
_chemical_formula_sum "Si O2"
_cell_formula_units_Z 16
_cell_length_a 9.211913
_cell_length_b 13.824492
_cell_length_c 11.927547
_cell_angle_alpha 68.356012
_cell_angle_beta 147.905230
_cell_angle_gamma 102.085530
_cell_volume 733.631653
_symmetry_space_group_name_H-M "P -1"
_symmetry_group_IT_number 2
_symmetry_cell_setting 'triclinic'
loop_
_space_group_symop_operation_xyz
x,y,z
-x,-y,-z
loop_
_atom_site_type_symbol
_atom_site_label
_atom_site_fract_x
_atom_site_fract_y
_atom_site_fract_z
Si Si1 0.683243 0.056691 0.242885
Si Si2 0.667808 0.118389 0.962341
Si Si3 0.382087 0.226806 0.138314
Si Si4 0.295397 0.109912 0.347148
Si Si5 0.826791 0.362711 0.657437
Si Si6 0.619856 0.739099 0.470962
Si Si7 0.919287 0.448172 0.214388
Si Si8 0.355725 0.577473 0.734249
O O1 0.570236 0.125131 0.247159
O O2 0.487856 0.973717 0.133923
O O3 0.661727 0.132631 0.086899
O O4 0.000000 0.000000 0.500000
O O5 0.517762 0.226331 0.755030
O O6 0.986977 0.087093 0.144157
O O7 0.339853 0.200561 0.251317
O O8 0.541302 0.321946 0.191083
O O9 0.079559 0.259526 0.867961
O O10 0.351023 0.155093 0.486746
O O11 0.500000 0.000000 0.500000
O O12 0.558127 0.332230 0.549410
O O13 0.775332 0.399419 0.481606
O O14 0.905960 0.460515 0.736860
O O15 0.924309 0.665445 0.682302
O O16 0.878612 0.445530 0.323592
O O17 0.618321 0.477151 0.943912
#
# Coordination Sequence:
#
# PCOD8025501 Si02
#       8
#     2   2   2   2   2   2   2   2
#     4  11  26  46  68 100 137 178 230 286 338 399
#     4  11  26  44  68 102 134 178 230 281 339 400
#     4  11  24  42  68  97 135 178 226 272 342 407
#     4  12  26  45  68 100 142 182 226 276 337 405
#     4  11  23  44  67 100 133 181 224 277 341 407
#     4  12  25  43  70 102 139 178 226 279 342 401
#     4  10  25  43  68 101 131 175 232 280 339 402
#     4  10  23  45  68  97 137 177 222 280 342 404
#
# _framework density 21.809308999999999
#
# number of rings (size 3 to 8) (size 9 to 14) (size 15 to 20)
#    0.000    1.000    2.500    3.000    7.000    3.500 
#    0.000    0.000    0.000    0.000    0.000    0.000 
#    0.000    0.000    0.000    0.000    0.000    0.000 
#
# Total GULP energy -198472.355813 kJ/mol
# GULP energy per Si atom -12404.522238 kJ/mol
# Density = 2.175967 g / cm^3
# Si number density = 21.809309 Si / 1000 Ang^3
#
#
#
# Elastic Constant Matrix: (Units=GPa)
#
#
# Indices 1 2 3 4 5 6 
#
# 1 93.5965 30.3173 52.7185 -6.6641 -0.8012 2.8058
# 2 30.3173 72.9946 34.0310 -3.8913 15.6648 -2.3225
# 3 52.7185 34.0310 127.0932 -15.2051 2.4417 -6.2452
# 4 -6.6641 -3.8913 -15.2051 30.5647 3.4711 4.9245
# 5 -0.8012 15.6648 2.4417 3.4711 49.9512 -4.4695
# 6 2.8058 -2.3225 -6.2452 4.9245 -4.4695 39.8514
#
#
#
# Elastic Compliance Matrix: (Units=1/GPa)
#
#
# Indices 1 2 3 4 5 6 
#
# 1 0.015088 -0.004230 -0.005220 0.000289 0.001626 -0.001980
# 2 -0.004230 0.018044 -0.002895 0.000539 -0.005604 0.000201
# 3 -0.005220 -0.002895 0.011344 0.003878 0.000136 0.001513
# 4 0.000289 0.000539 0.003878 0.035815 -0.003216 -0.004168
# 5 0.001626 -0.005604 0.000136 -0.003216 0.022241 0.002472
# 6 -0.001980 0.000201 0.001513 -0.004168 0.002472 0.026274
#
#
# Mechanical properties :
#
#
# Convention : Reuss Voigt Hill
#
# Bulk Modulus (GPa) = 50.53825 58.64643 54.59234
# Shear Modulus (GPa) = 31.23215 35.84795 33.54005
#
# Velocity S-wave (km/s) = 3.78836 4.05865 3.92583
# Velocity P-wave (km/s) = 6.50835 6.99375 6.75541
#
# Compressibility (1/GPa) = 0.01978699
#
# Stress axis : x y z
#
# Youngs Moduli (GPa) = 66.27663 55.42033 88.14939
#
# Poissons Ratio (x) = 0.23441 0.46015
# Poissons Ratio (y) = 0.28033 0.25520
# Poissons Ratio (z) = 0.34597 0.16044
#
# Static dielectric constant tensor:
#      x y z
#    x 4.111220 0.303550 -0.048090 
#    y 0.303550 3.792220 -0.046460 
#    z -0.048090 -0.046460 4.118890 
# 
# 
# High freq. dielectric constant tensor:
#      x y z
#    x 1.866690 0.021220 -0.000190 
#    y 0.021220 1.852530 -0.002840 
#    z -0.000190 -0.002840 1.869890 
# 
# From -- ./inp_files/52209.got.cif
#   From: 2010.06.25/outbox.cif.g09.slc.cpg/sg2_27_cif.got.tgz:52209.got - 2010.06.27 13:26:56.
