data_PCOD8025550
_publ_section_title
;
Structure prediction by ZEFSAII (Michael W. Deem and Ramdas Pophale) SiO2 
 PCOD8025550
Probable space group: P -1
;
_chemical_formula_sum "Si O2"
_cell_formula_units_Z 16
_cell_length_a 9.108670
_cell_length_b 11.982576
_cell_length_c 16.542696
_cell_angle_alpha 46.379825
_cell_angle_beta 130.073930
_cell_angle_gamma 143.642511
_cell_volume 758.335062
_symmetry_space_group_name_H-M "P -1"
_symmetry_group_IT_number 2
_symmetry_cell_setting 'triclinic'
loop_
_space_group_symop_operation_xyz
x,y,z
-x,-y,-z
loop_
_atom_site_type_symbol
_atom_site_label
_atom_site_fract_x
_atom_site_fract_y
_atom_site_fract_z
Si Si1 0.404841 0.369185 0.114324
Si Si2 0.104049 0.675888 0.384742
Si Si3 0.133035 0.593281 0.714288
Si Si4 0.972438 0.409024 0.149657
Si Si5 0.919636 0.928049 0.199767
Si Si6 0.598316 0.329818 0.943325
Si Si7 0.691578 0.973817 0.436577
Si Si8 0.045153 0.949318 0.668473
O O1 0.596874 0.345055 0.229392
O O2 0.374087 0.477580 0.119435
O O3 0.500000 0.500000 0.000000
O O4 0.140696 0.139334 0.127832
O O5 0.401212 0.851502 0.414419
O O6 0.000000 0.500000 0.500000
O O7 0.063268 0.580697 0.330604
O O8 0.969009 0.770848 0.295399
O O9 0.018821 0.498372 0.808845
O O10 0.158605 0.789354 0.615313
O O11 0.052095 0.274640 0.249675
O O12 0.188191 0.608437 0.076098
O O13 0.682948 0.273012 0.080017
O O14 0.678742 0.848622 0.099534
O O15 0.862021 0.944703 0.263834
O O16 0.799621 0.916166 0.571161
O O17 0.735464 0.927064 0.384849
#
# Coordination Sequence:
#
# PCOD8025550 Si02
#       8
#     2   2   2   2   2   2   2   2
#     4  12  24  46  68  97 140 178 222 281 337 400
#     4  12  27  41  70 104 134 177 224 275 339 406
#     4  11  23  45  67  98 134 179 220 274 338 395
#     4  10  23  45  69  92 137 176 222 281 330 393
#     4  12  26  43  70 103 133 180 224 277 341 403
#     4  11  24  44  66 102 132 175 226 276 335 398
#     4  10  24  46  66  98 135 176 226 278 329 397
#     4  10  23  45  69  93 135 179 222 279 332 392
#
# _framework density 21.098852999999998
#
# number of rings (size 3 to 8) (size 9 to 14) (size 15 to 20)
#    0.000    1.000    5.000    0.750    5.250    2.000 
#    4.500    2.500    0.000    0.000    0.000    0.000 
#    0.000    0.000    0.000    0.000    0.000    0.000 
#
# Total GULP energy -198355.091208 kJ/mol
# GULP energy per Si atom -12397.193200 kJ/mol
# Density = 2.105083 g / cm^3
# Si number density = 21.098853 Si / 1000 Ang^3
#
#
#
# Elastic Constant Matrix: (Units=GPa)
#
#
# Indices 1 2 3 4 5 6 
#
# 1 90.8757 23.7198 23.9245 1.8651 -5.6555 -9.0907
# 2 23.7198 89.8922 25.2877 4.8526 -5.9324 -0.5366
# 3 23.9245 25.2877 98.5848 4.7722 2.1906 -2.2039
# 4 1.8651 4.8526 4.7722 31.1704 1.3418 1.5562
# 5 -5.6555 -5.9324 2.1906 1.3418 42.2752 5.8960
# 6 -9.0907 -0.5366 -2.2039 1.5562 5.8960 32.6703
#
#
#
# Elastic Compliance Matrix: (Units=1/GPa)
#
#
# Indices 1 2 3 4 5 6 
#
# 1 0.012683 -0.002587 -0.002357 -0.000197 0.001022 0.003152
# 2 -0.002587 0.012735 -0.002628 -0.001454 0.001754 -0.000935
# 3 -0.002357 -0.002628 0.011483 -0.001170 -0.001293 0.000365
# 4 -0.000197 -0.001454 -0.001170 0.032618 -0.000991 -0.001532
# 5 0.001022 0.001754 -0.001293 -0.000991 0.024720 -0.004188
# 6 0.003152 -0.000935 0.000365 -0.001532 -0.004188 0.032324
#
#
# Mechanical properties :
#
#
# Convention : Reuss Voigt Hill
#
# Bulk Modulus (GPa) = 45.96238 47.24630 46.60434
# Shear Modulus (GPa) = 33.56612 34.98457 34.27535
#
# Velocity S-wave (km/s) = 3.99293 4.07643 4.03490
# Velocity P-wave (km/s) = 6.56427 6.67816 6.62146
#
# Compressibility (1/GPa) = 0.02175692
#
# Stress axis : x y z
#
# Youngs Moduli (GPa) = 78.84736 78.52363 87.08294
#
# Poissons Ratio (x) = 0.20311 0.20526
# Poissons Ratio (y) = 0.20395 0.22889
# Poissons Ratio (z) = 0.18585 0.20639
#
# Static dielectric constant tensor:
#      x y z
#    x 4.138210 -0.090080 0.029060 
#    y -0.090080 3.539190 0.097130 
#    z 0.029060 0.097130 3.995880 
# 
# 
# High freq. dielectric constant tensor:
#      x y z
#    x 1.849040 -0.004270 0.005880 
#    y -0.004270 1.804700 0.004330 
#    z 0.005880 0.004330 1.842180 
# 
# From -- ./inp_files/37628.got.cif
#   From: 2010.06.25/outbox.cif.g09.slc.cpg/sg2_19_cif.got.tgz:37628.got - 2010.06.27 13:26:56.
