data_PCOD8025841
_publ_section_title
;
Structure prediction by ZEFSAII (Michael W. Deem and Ramdas Pophale) SiO2 
 PCOD8025841
Probable space group: P -1
;
_chemical_formula_sum "Si O2"
_cell_formula_units_Z 14
_cell_length_a 7.934222
_cell_length_b 11.035154
_cell_length_c 8.736639
_cell_angle_alpha 58.035702
_cell_angle_beta 80.425130
_cell_angle_gamma 63.912397
_cell_volume 580.622547
_symmetry_space_group_name_H-M "P -1"
_symmetry_group_IT_number 2
_symmetry_cell_setting 'triclinic'
loop_
_space_group_symop_operation_xyz
x,y,z
-x,-y,-z
loop_
_atom_site_type_symbol
_atom_site_label
_atom_site_fract_x
_atom_site_fract_y
_atom_site_fract_z
Si Si1 0.683636 0.790176 0.754986
Si Si2 0.360530 0.412135 0.587870
Si Si3 0.987770 0.923302 0.209601
Si Si4 0.939892 0.231342 0.149938
Si Si5 0.780559 0.368161 0.777343
Si Si6 0.359209 0.471245 0.876034
Si Si7 0.618000 0.883177 0.353479
O O1 0.894442 0.764968 0.775338
O O2 0.633503 0.822520 0.564388
O O3 0.537364 0.940061 0.769387
O O4 0.668487 0.630791 0.913720
O O5 0.500000 0.500000 0.500000
O O6 0.214285 0.485389 0.417788
O O7 0.269013 0.443032 0.750208
O O8 0.449796 0.225137 0.669971
O O9 0.179716 0.761936 0.279830
O O10 0.816180 0.873622 0.273686
O O11 0.964599 0.049702 0.263295
O O12 0.000000 0.000000 0.000000
O O13 0.744499 0.343774 0.188253
O O14 0.938763 0.300686 0.931611
O O15 0.581211 0.414178 0.859596
#
# Coordination Sequence:
#
# PCOD8025841 Si02
#       7
#     2   2   2   2   2   2   2
#     4  11  26  44  72 105 140 186 238 287 354 410
#     4  10  25  43  73 102 137 183 236 282 355 412
#     4  10  24  44  71 105 136 188 228 286 349 410
#     4  11  24  43  72 103 142 181 239 281 348 423
#     4  10  23  46  70 101 141 182 232 287 350 411
#     4  11  24  44  72 103 139 186 231 291 351 412
#     4  11  26  48  70 101 147 184 232 295 346 419
#
# _framework density 24.112047
#
# number of rings (size 3 to 8) (size 9 to 14) (size 15 to 20)
#    0.000    1.429    0.000    3.429   10.000    7.429 
#    0.000    0.000    0.000    0.000    0.000    0.000 
#    0.000    0.000    0.000    0.000    0.000    0.000 
#
# Total GULP energy -173442.231808 kJ/mol
# GULP energy per Si atom -12388.730843 kJ/mol
# Density = 2.405717 g / cm^3
# Si number density = 24.112047 Si / 1000 Ang^3
#
#
#
# Elastic Constant Matrix: (Units=GPa)
#
#
# Indices 1 2 3 4 5 6 
#
# 1 78.1526 34.5493 2.8410 4.0168 -9.5442 -3.2937
# 2 34.5493 183.9786 -8.3715 12.2741 -12.8311 -7.7634
# 3 2.8410 -8.3715 67.2292 7.8203 -5.3222 -1.9627
# 4 4.0168 12.2741 7.8203 26.4616 0.7745 0.1000
# 5 -9.5442 -12.8311 -5.3222 0.7745 39.6519 1.7657
# 6 -3.2937 -7.7634 -1.9627 0.1000 1.7657 40.5948
#
#
#
# Elastic Compliance Matrix: (Units=1/GPa)
#
#
# Indices 1 2 3 4 5 6 
#
# 1 0.014281 -0.002443 -0.000579 -0.000940 0.002563 0.000554
# 2 -0.002443 0.006318 0.001403 -0.003027 0.001659 0.001013
# 3 -0.000579 0.001403 0.015921 -0.005345 0.002516 0.000895
# 4 -0.000940 -0.003027 -0.005345 0.040999 -0.002684 -0.000898
# 5 0.002563 0.001659 0.002516 -0.002684 0.026786 -0.000512
# 6 0.000554 0.001013 0.000895 -0.000898 -0.000512 0.024940
#
#
# Mechanical properties :
#
#
# Convention : Reuss Voigt Hill
#
# Bulk Modulus (GPa) = 30.04690 43.04424 36.54557
# Shear Modulus (GPa) = 34.82404 41.36442 38.09423
#
# Velocity S-wave (km/s) = 3.80446 4.14636 3.97909
# Velocity P-wave (km/s) = 5.63800 6.38855 6.02497
#
# Compressibility (1/GPa) = 0.03328130
#
# Stress axis : x y z
#
# Youngs Moduli (GPa) = 70.02129 158.26567 62.81110
#
# Poissons Ratio (x) = 0.38671 0.03639
# Poissons Ratio (y) = 0.17109 -0.08813
# Poissons Ratio (z) = 0.04056 -0.22205
#
# Static dielectric constant tensor:
#      x y z
#    x 3.997880 -0.024570 0.345650 
#    y -0.024570 5.204830 -0.203020 
#    z 0.345650 -0.203020 4.861260 
# 
# 
# High freq. dielectric constant tensor:
#      x y z
#    x 1.927970 -0.002070 0.010010 
#    y -0.002070 1.988220 -0.000750 
#    z 0.010010 -0.000750 1.962090 
# 
# From -- ./inp_files/174808.got.cif
#   From: 2010.06.25/outbox.cif.g09.slc.cpg/sg2_88_cif.got.tgz:174808.got - 2010.06.27 13:26:56.
