data_PCOD8025737
_publ_section_title
;
Structure prediction by ZEFSAII (Michael W. Deem and Ramdas Pophale) SiO2 
 PCOD8025737
Probable space group: P -1
;
_chemical_formula_sum "Si O2"
_cell_formula_units_Z 16
_cell_length_a 9.102299
_cell_length_b 5.774573
_cell_length_c 15.942014
_cell_angle_alpha 84.918341
_cell_angle_beta 85.227834
_cell_angle_gamma 128.019091
_cell_volume 647.330651
_symmetry_space_group_name_H-M "P -1"
_symmetry_group_IT_number 2
_symmetry_cell_setting 'triclinic'
loop_
_space_group_symop_operation_xyz
x,y,z
-x,-y,-z
loop_
_atom_site_type_symbol
_atom_site_label
_atom_site_fract_x
_atom_site_fract_y
_atom_site_fract_z
Si Si1 0.792487 0.821116 0.116465
Si Si2 0.523035 0.019049 0.701637
Si Si3 0.862633 0.566345 0.978089
Si Si4 0.420160 0.689035 0.141047
Si Si5 0.780730 0.879940 0.726463
Si Si6 0.071397 0.009583 0.587662
Si Si7 0.172019 0.398783 0.714080
Si Si8 0.551552 0.812361 0.454847
O O1 0.637174 0.861466 0.096571
O O2 0.755802 0.723813 0.218553
O O3 0.761957 0.568974 0.065516
O O4 0.007841 0.117106 0.085828
O O5 0.584549 0.133850 0.788993
O O6 0.557563 0.265358 0.627207
O O7 0.640356 0.901318 0.676091
O O8 0.296724 0.749768 0.712844
O O9 0.697731 0.322115 0.930232
O O10 0.000000 0.500000 0.000000
O O11 0.332581 0.357101 0.186481
O O12 0.887348 0.792499 0.664116
O O13 0.945977 0.212864 0.746969
O O14 0.197855 0.337000 0.618001
O O15 0.218178 0.941535 0.574040
O O16 0.000000 0.000000 0.500000
O O17 0.500000 0.500000 0.500000
O O18 0.500000 0.000000 0.500000
#
# Coordination Sequence:
#
# PCOD8025737 Si02
#       8
#     2   2   2   2   2   2   2   2
#     4  11  24  47  74 103 152 192 250 317 382 465
#     4  12  27  45  79 110 149 202 257 321 387 471
#     4  11  27  45  73 110 150 196 247 315 390 465
#     4  12  26  45  77 109 149 196 258 311 389 468
#     4  10  25  47  76 109 150 195 265 310 391 461
#     4  10  23  45  76 106 152 198 258 315 383 456
#     4  10  23  47  76 107 153 198 255 317 393 450
#     4  12  28  49  76 111 159 205 264 329 401 466
#
# _framework density 24.716889999999999
#
# number of rings (size 3 to 8) (size 9 to 14) (size 15 to 20)
#    0.750    0.250    2.500    2.625    7.000    1.500 
#    0.000    1.875    0.000    0.000    0.000    0.000 
#    0.000    0.000    0.000    0.000    0.000    0.000 
#
# Total GULP energy -198210.135974 kJ/mol
# GULP energy per Si atom -12388.133498 kJ/mol
# Density = 2.466063 g / cm^3
# Si number density = 24.716890 Si / 1000 Ang^3
#
#
#
# Elastic Constant Matrix: (Units=GPa)
#
#
# Indices 1 2 3 4 5 6 
#
# 1 144.2144 17.9017 49.4743 8.3770 2.4426 6.2390
# 2 17.9017 85.0951 28.9971 15.3341 6.4543 5.9176
# 3 49.4743 28.9971 131.5699 37.5812 17.8283 -0.2388
# 4 8.3770 15.3341 37.5812 40.9065 3.6740 3.9352
# 5 2.4426 6.4543 17.8283 3.6740 50.3992 1.7770
# 6 6.2390 5.9176 -0.2388 3.9352 1.7770 39.9256
#
#
#
# Elastic Compliance Matrix: (Units=1/GPa)
#
#
# Indices 1 2 3 4 5 6 
#
# 1 0.008200 -0.000828 -0.003591 0.001987 0.000884 -0.001415
# 2 -0.000828 0.013195 -0.001611 -0.003081 -0.000803 -0.001497
# 3 -0.003591 -0.001611 0.012691 -0.010207 -0.003437 0.002035
# 4 0.001987 -0.003081 -0.010207 0.034765 0.001495 -0.003408
# 5 0.000884 -0.000803 -0.003437 0.001495 0.021048 -0.001124
# 6 -0.001415 -0.001497 0.002035 -0.003408 -0.001124 0.025888
#
#
# Mechanical properties :
#
#
# Convention : Reuss Voigt Hill
#
# Bulk Modulus (GPa) = 45.40051 61.51397 53.45724
# Shear Modulus (GPa) = 36.98615 43.88001 40.43308
#
# Velocity S-wave (km/s) = 3.87252 4.21801 4.04895
# Velocity P-wave (km/s) = 6.19704 6.97593 6.59799
#
# Compressibility (1/GPa) = 0.02202618
#
# Stress axis : x y z
#
# Youngs Moduli (GPa) = 121.95779 75.78795 78.79905
#
# Poissons Ratio (x) = 0.06276 0.28294
# Poissons Ratio (y) = 0.10099 0.12692
# Poissons Ratio (z) = 0.43790 0.12207
#
# Static dielectric constant tensor:
#      x y z
#    x 4.561130 0.410780 -0.002530 
#    y 0.410780 4.375290 -0.005000 
#    z -0.002530 -0.005000 4.485900 
# 
# 
# High freq. dielectric constant tensor:
#      x y z
#    x 1.992140 0.023880 0.006010 
#    y 0.023880 1.965810 0.004940 
#    z 0.006010 0.004940 1.984510 
# 
# From -- ./inp_files/553538.got.cif
#   From: 2010.06.25/outbox.cif.g09.slc.cpg/sg2_277_cif.got.tgz:553538.got - 2010.06.27 13:26:56.
