data_PCOD8025876
_publ_section_title
;
Structure prediction by ZEFSAII (Michael W. Deem and Ramdas Pophale) SiO2 
 PCOD8025876
Probable space group: P -1
;
_chemical_formula_sum "Si O2"
_cell_formula_units_Z 14
_cell_length_a 11.444603
_cell_length_b 6.329958
_cell_length_c 15.296657
_cell_angle_alpha 60.973497
_cell_angle_beta 133.549677
_cell_angle_gamma 133.905921
_cell_volume 578.602627
_symmetry_space_group_name_H-M "P -1"
_symmetry_group_IT_number 2
_symmetry_cell_setting 'triclinic'
loop_
_space_group_symop_operation_xyz
x,y,z
-x,-y,-z
loop_
_atom_site_type_symbol
_atom_site_label
_atom_site_fract_x
_atom_site_fract_y
_atom_site_fract_z
Si Si1 0.302915 0.198931 0.077605
Si Si2 0.540085 0.073602 0.108553
Si Si3 0.154261 0.313140 0.477712
Si Si4 0.084230 0.202083 0.263035
Si Si5 0.449561 0.492710 0.266158
Si Si6 0.039573 0.399386 0.718180
Si Si7 0.979740 0.628112 0.103491
O O1 0.425156 0.215318 0.053871
O O2 0.430457 0.297667 0.212001
O O3 0.109887 0.865328 0.048951
O O4 0.233111 0.420093 0.988335
O O5 0.765845 0.302970 0.205271
O O6 0.467499 0.784598 0.186034
O O7 0.500000 0.000000 0.000000
O O8 0.166856 0.310885 0.380217
O O9 0.364602 0.443831 0.598869
O O10 0.079543 0.520802 0.422638
O O11 0.000000 0.000000 0.500000
O O12 0.264788 0.312848 0.269998
O O13 0.957346 0.320997 0.136505
O O14 0.937475 0.845289 0.264330
O O15 0.913567 0.246770 0.772812
#
# Coordination Sequence:
#
# PCOD8025876 Si02
#       7
#     2   2   2   2   2   2   2
#     4  11  25  45  78 106 149 196 251 300 381 439
#     4  12  28  49  75 112 154 195 244 311 378 455
#     4  11  26  47  73 111 149 195 254 311 369 438
#     4  11  25  47  78 107 151 195 251 309 373 444
#     4  12  25  48  74 110 149 197 253 307 366 449
#     4  11  25  47  74 106 147 196 247 305 385 432
#     4  10  23  46  71 113 143 192 249 310 364 445
#
# _framework density 24.196224999999998
#
# number of rings (size 3 to 8) (size 9 to 14) (size 15 to 20)
#    0.000    0.857    4.286    1.286    2.000    8.571 
#    0.000    0.714    0.000    0.000    0.000    0.000 
#    0.000    0.000    0.000    0.000    0.000    0.000 
#
# Total GULP energy -173503.178807 kJ/mol
# GULP energy per Si atom -12393.084201 kJ/mol
# Density = 2.414115 g / cm^3
# Si number density = 24.196225 Si / 1000 Ang^3
#
#
#
# Elastic Constant Matrix: (Units=GPa)
#
#
# Indices 1 2 3 4 5 6 
#
# 1 139.0962 40.7907 59.4977 1.9201 9.4925 -18.7051
# 2 40.7907 126.9514 56.1736 -14.8209 11.2203 -21.1843
# 3 59.4977 56.1736 145.3160 -10.2072 13.6831 -16.4340
# 4 1.9201 -14.8209 -10.2072 41.9749 -5.9355 -0.1852
# 5 9.4925 11.2203 13.6831 -5.9355 40.0303 -3.9975
# 6 -18.7051 -21.1843 -16.4340 -0.1852 -3.9975 34.8433
#
#
#
# Elastic Compliance Matrix: (Units=1/GPa)
#
#
# Indices 1 2 3 4 5 6 
#
# 1 0.009319 -0.001337 -0.003047 -0.001739 -0.000787 0.002654
# 2 -0.001337 0.010711 -0.002803 0.003063 -0.000834 0.004393
# 3 -0.003047 -0.002803 0.009554 0.001270 -0.001469 0.001005
# 4 -0.001739 0.003063 0.001270 0.025746 0.003140 0.002025
# 5 -0.000787 -0.000834 -0.001469 0.003140 0.026513 0.001436
# 6 0.002654 0.004393 0.001005 0.002025 0.001436 0.033445
#
#
# Mechanical properties :
#
#
# Convention : Reuss Voigt Hill
#
# Bulk Modulus (GPa) = 65.74080 80.47639 73.10860
# Shear Modulus (GPa) = 37.11117 40.36313 38.73715
#
# Velocity S-wave (km/s) = 3.92057 4.08874 4.00554
# Velocity P-wave (km/s) = 6.90821 7.45805 7.18839
#
# Compressibility (1/GPa) = 0.01521125
#
# Stress axis : x y z
#
# Youngs Moduli (GPa) = 107.30703 93.36106 104.67360
#
# Poissons Ratio (x) = 0.12481 0.31892
# Poissons Ratio (y) = 0.14345 0.29336
# Poissons Ratio (z) = 0.32694 0.26165
#
# Static dielectric constant tensor:
#      x y z
#    x 4.394040 -0.055230 -0.120270 
#    y -0.055230 4.765640 0.010610 
#    z -0.120270 0.010610 4.962490 
# 
# 
# High freq. dielectric constant tensor:
#      x y z
#    x 1.963840 0.000860 -0.006710 
#    y 0.000860 1.975610 -0.014520 
#    z -0.006710 -0.014520 1.960810 
# 
# From -- ./inp_files/27500.got.cif
#   From: 2010.06.25/outbox.cif.g09.slc.cpg/sg2_14_cif.got.tgz:27500.got - 2010.06.27 13:26:56.
