data_PCOD8025701
_publ_section_title
;
Structure prediction by ZEFSAII (Michael W. Deem and Ramdas Pophale) SiO2 
 PCOD8025701
Probable space group: P -1
;
_chemical_formula_sum "Si O2"
_cell_formula_units_Z 14
_cell_length_a 5.502026
_cell_length_b 9.011629
_cell_length_c 12.240869
_cell_angle_alpha 76.508481
_cell_angle_beta 79.789039
_cell_angle_gamma 84.521317
_cell_volume 579.903999
_symmetry_space_group_name_H-M "P -1"
_symmetry_group_IT_number 2
_symmetry_cell_setting 'triclinic'
loop_
_space_group_symop_operation_xyz
x,y,z
-x,-y,-z
loop_
_atom_site_type_symbol
_atom_site_label
_atom_site_fract_x
_atom_site_fract_y
_atom_site_fract_z
Si Si1 0.013625 0.174621 0.839432
Si Si2 0.855329 0.115205 0.632847
Si Si3 0.308359 0.129090 0.453622
Si Si4 0.628061 0.358333 0.455423
Si Si5 0.655369 0.084707 0.061126
Si Si6 0.516217 0.608940 0.877081
Si Si7 0.070610 0.524070 0.770167
O O1 0.115254 0.341491 0.790391
O O2 0.830324 0.137294 0.760838
O O3 0.236812 0.043991 0.840797
O O4 0.873919 0.167915 0.967342
O O5 0.661987 0.231798 0.568443
O O6 0.121243 0.161746 0.562680
O O7 0.820646 0.936849 0.633655
O O8 0.444355 0.286036 0.392078
O O9 0.500000 0.000000 0.500000
O O10 0.500000 0.500000 0.500000
O O11 0.876206 0.403096 0.365763
O O12 0.493230 0.213096 0.117743
O O13 0.500000 0.000000 0.000000
O O14 0.276333 0.581012 0.827120
O O15 0.786311 0.572725 0.809378
O O16 0.500000 0.500000 0.000000
#
# Coordination Sequence:
#
# PCOD8025701 Si02
#       7
#     2   2   2   2   2   2   2
#     4  11  26  46  74 109 144 202 249 317 386 454
#     4  10  23  45  74 101 150 190 251 307 374 455
#     4   9  21  43  66 100 144 189 240 302 365 444
#     4  11  26  44  73 110 152 197 254 308 379 460
#     4  11  27  48  75 107 149 191 262 315 386 457
#     4  12  27  51  80 109 154 201 258 324 385 458
#     4  12  29  48  79 113 154 204 255 315 398 453
#
# _framework density 24.141929000000001
#
# number of rings (size 3 to 8) (size 9 to 14) (size 15 to 20)
#    0.000    1.143    1.429    2.143    8.000    8.000 
#    0.000    0.000    0.000    0.000    0.000    0.000 
#    0.000    0.000    0.000    0.000    0.000    0.000 
#
# Total GULP energy -173570.948646 kJ/mol
# GULP energy per Si atom -12397.924903 kJ/mol
# Density = 2.408698 g / cm^3
# Si number density = 24.141929 Si / 1000 Ang^3
#
#
#
# Elastic Constant Matrix: (Units=GPa)
#
#
# Indices 1 2 3 4 5 6 
#
# 1 122.5093 56.7786 30.1561 8.9677 -0.8088 3.1163
# 2 56.7786 190.3761 50.0507 9.9270 0.4229 8.3864
# 3 30.1561 50.0507 98.3272 2.9124 5.8079 2.4060
# 4 8.9677 9.9270 2.9124 33.8275 0.0180 -0.6797
# 5 -0.8088 0.4229 5.8079 0.0180 44.4326 4.1767
# 6 3.1163 8.3864 2.4060 -0.6797 4.1767 46.0452
#
#
#
# Elastic Compliance Matrix: (Units=1/GPa)
#
#
# Indices 1 2 3 4 5 6 
#
# 1 0.009835 -0.002364 -0.001782 -0.001764 0.000455 -0.000209
# 2 -0.002364 0.006765 -0.002680 -0.001148 0.000335 -0.000979
# 3 -0.001782 -0.002680 0.012167 0.000215 -0.001609 0.000122
# 4 -0.001764 -0.001148 0.000215 0.030363 -0.000135 0.000778
# 5 0.000455 0.000335 -0.001609 -0.000135 0.022918 -0.002089
# 6 -0.000209 -0.000979 0.000122 0.000778 -0.002089 0.022105
#
#
# Mechanical properties :
#
#
# Convention : Reuss Voigt Hill
#
# Bulk Modulus (GPa) = 66.16975 76.13151 71.15063
# Shear Modulus (GPa) = 40.70234 43.14286 41.92260
#
# Velocity S-wave (km/s) = 4.11050 4.23194 4.17166
# Velocity P-wave (km/s) = 7.07081 7.44866 7.26219
#
# Compressibility (1/GPa) = 0.01511264
#
# Stress axis : x y z
#
# Youngs Moduli (GPa) = 101.68179 147.82452 82.19203
#
# Poissons Ratio (x) = 0.34951 0.14648
# Poissons Ratio (y) = 0.24041 0.22029
# Poissons Ratio (z) = 0.18121 0.39619
#
# Static dielectric constant tensor:
#      x y z
#    x 3.690740 -0.126130 0.069540 
#    y -0.126130 4.449090 0.142310 
#    z 0.069540 0.142310 4.220830 
# 
# 
# High freq. dielectric constant tensor:
#      x y z
#    x 1.967320 0.004300 -0.001550 
#    y 0.004300 1.976190 -0.002720 
#    z -0.001550 -0.002720 1.953380 
# 
# From -- ./inp_files/360623.got.cif
#   From: 2010.06.25/outbox.cif.g09.slc.cpg/sg2_181_cif.got.tgz:360623.got - 2010.06.27 13:26:56.
