data_PCOD8025103
_publ_section_title
;
Structure prediction by ZEFSAII (Michael W. Deem and Ramdas Pophale) SiO2 
 PCOD8025103
Probable space group: P -1
;
_chemical_formula_sum "Si O2"
_cell_formula_units_Z 16
_cell_length_a 19.589357
_cell_length_b 8.791076
_cell_length_c 6.684651
_cell_angle_alpha 60.987776
_cell_angle_beta 131.044658
_cell_angle_gamma 122.056864
_cell_volume 718.862314
_symmetry_space_group_name_H-M "P -1"
_symmetry_group_IT_number 2
_symmetry_cell_setting 'triclinic'
loop_
_space_group_symop_operation_xyz
x,y,z
-x,-y,-z
loop_
_atom_site_type_symbol
_atom_site_label
_atom_site_fract_x
_atom_site_fract_y
_atom_site_fract_z
Si Si1 0.890535 0.808143 0.854881
Si Si2 0.694744 0.674270 0.702980
Si Si3 0.980176 0.108903 0.585891
Si Si4 0.640811 0.300873 0.044944
Si Si5 0.460667 0.323707 0.899375
Si Si6 0.957320 0.289052 0.067397
Si Si7 0.601599 0.039366 0.771682
Si Si8 0.257129 0.902655 0.347691
O O1 0.782488 0.669624 0.728345
O O2 0.965984 0.776782 0.864255
O O3 0.894032 0.006673 0.641371
O O4 0.923358 0.814106 0.145195
O O5 0.596583 0.620636 0.426101
O O6 0.720651 0.881069 0.704312
O O7 0.684563 0.522121 0.953973
O O8 0.951625 0.265625 0.314253
O O9 0.000000 0.000000 0.500000
O O10 0.712756 0.211183 0.346255
O O11 0.546595 0.259564 0.023782
O O12 0.611926 0.203275 0.840416
O O13 0.500000 0.500000 0.000000
O O14 0.391607 0.148321 0.996488
O O15 0.854860 0.194734 0.833706
O O16 0.000000 0.500000 0.000000
O O17 0.500000 0.000000 0.500000
O O18 0.687335 0.114672 0.733970
#
# Coordination Sequence:
#
# PCOD8025103 Si02
#       8
#     2   2   2   2   2   2   2   2
#     4  10  23  44  69 100 140 183 238 294 354 420
#     4  12  26  46  76 105 144 194 245 294 363 436
#     4   9  19  42  65  93 132 176 224 289 348 410
#     4  12  27  48  73 108 152 185 244 303 359 436
#     4  12  25  47  74 108 149 194 238 297 368 432
#     4  11  27  44  71 104 146 186 241 299 363 431
#     4  12  24  46  76 105 149 190 236 307 359 426
#     4  12  27  48  73 111 143 194 245 297 369 429
#
# _framework density 22.257390000000001
#
# number of rings (size 3 to 8) (size 9 to 14) (size 15 to 20)
#    0.000    0.750    2.500    5.250    5.250    1.500 
#    2.250    0.000    0.000    0.000    0.000    0.000 
#    0.000    0.000    0.000    0.000    0.000    0.000 
#
# Total GULP energy -198269.251209 kJ/mol
# GULP energy per Si atom -12391.828201 kJ/mol
# Density = 2.220673 g / cm^3
# Si number density = 22.257390 Si / 1000 Ang^3
#
#
#
# Elastic Constant Matrix: (Units=GPa)
#
#
# Indices 1 2 3 4 5 6 
#
# 1 105.4649 26.2852 41.2649 9.0788 5.0498 5.4510
# 2 26.2852 141.8564 65.2954 -8.5147 -1.8990 1.6156
# 3 41.2649 65.2954 149.9706 -17.3871 -6.4563 1.5068
# 4 9.0788 -8.5147 -17.3871 40.5343 -0.2079 -8.7354
# 5 5.0498 -1.8990 -6.4563 -0.2079 32.3434 4.5170
# 6 5.4510 1.6156 1.5068 -8.7354 4.5170 31.0629
#
#
#
# Elastic Compliance Matrix: (Units=1/GPa)
#
#
# Indices 1 2 3 4 5 6 
#
# 1 0.011748 -0.000860 -0.003498 -0.004953 -0.002207 -0.002919
# 2 -0.000860 0.008884 -0.003572 0.000530 -0.000056 0.000020
# 3 -0.003498 -0.003572 0.009789 0.004520 0.002140 0.001285
# 4 -0.004953 0.000530 0.004520 0.029750 0.000656 0.008893
# 5 -0.002207 -0.000056 0.002140 0.000656 0.032281 -0.004223
# 6 -0.002919 0.000020 0.001285 0.008893 -0.004223 0.035757
#
#
# Mechanical properties :
#
#
# Convention : Reuss Voigt Hill
#
# Bulk Modulus (GPa) = 68.68255 73.66475 71.17365
# Shear Modulus (GPa) = 33.57464 38.41789 35.99626
#
# Velocity S-wave (km/s) = 3.88812 4.15911 4.02590
# Velocity P-wave (km/s) = 7.14716 7.49886 7.32512
#
# Compressibility (1/GPa) = 0.01455974
#
# Stress axis : x y z
#
# Youngs Moduli (GPa) = 85.12316 112.56187 102.15584
#
# Poissons Ratio (x) = 0.09685 0.35731
# Poissons Ratio (y) = 0.07324 0.36494
# Poissons Ratio (z) = 0.29773 0.40211
#
# Static dielectric constant tensor:
#      x y z
#    x 4.158800 0.341130 -0.275180 
#    y 0.341130 3.974160 -1.056300 
#    z -0.275180 -1.056300 5.339720 
# 
# 
# High freq. dielectric constant tensor:
#      x y z
#    x 1.881700 0.007050 -0.007860 
#    y 0.007050 1.879920 -0.012220 
#    z -0.007860 -0.012220 1.890260 
# 
# From -- ./inp_files/106562.got.cif
#   From: 2010.06.25/outbox.cif.g09.slc.cpg/sg2_54_cif.got.tgz:106562.got - 2010.06.27 13:26:56.
