data_PCOD8025165
_publ_section_title
;
Structure prediction by ZEFSAII (Michael W. Deem and Ramdas Pophale) SiO2 
 PCOD8025165
Probable space group: P -1
;
_chemical_formula_sum "Si O2"
_cell_formula_units_Z 16
_cell_length_a 12.381016
_cell_length_b 15.187795
_cell_length_c 18.573065
_cell_angle_alpha 149.748197
_cell_angle_beta 150.229854
_cell_angle_gamma 51.518205
_cell_volume 751.533901
_symmetry_space_group_name_H-M "P -1"
_symmetry_group_IT_number 2
_symmetry_cell_setting 'triclinic'
loop_
_space_group_symop_operation_xyz
x,y,z
-x,-y,-z
loop_
_atom_site_type_symbol
_atom_site_label
_atom_site_fract_x
_atom_site_fract_y
_atom_site_fract_z
Si Si1 0.697262 0.725083 0.297862
Si Si2 0.389711 0.901149 0.289913
Si Si3 0.201157 0.149880 0.276373
Si Si4 0.863228 0.498155 0.725950
Si Si5 0.115116 0.893203 0.541480
Si Si6 0.120285 0.331899 0.490821
Si Si7 0.588487 0.267691 0.139628
Si Si8 0.497384 0.556400 0.650644
O O1 0.579626 0.869025 0.326939
O O2 0.758589 0.731597 0.421808
O O3 0.950211 0.816548 0.463456
O O4 0.500000 0.500000 0.000000
O O5 0.500000 0.000000 0.500000
O O6 0.361198 0.061856 0.340733
O O7 0.138899 0.682367 0.997745
O O8 0.053637 0.189874 0.282333
O O9 0.381519 0.343155 0.471318
O O10 0.000000 0.000000 0.000000
O O11 0.881301 0.303770 0.628355
O O12 0.752793 0.588925 0.784914
O O13 0.688523 0.431416 0.506517
O O14 0.000000 0.000000 0.500000
O O15 0.403258 0.055602 0.844026
O O16 0.337133 0.559544 0.755570
O O17 0.855775 0.299585 0.343469
O O18 0.445753 0.281774 0.138373
#
# Coordination Sequence:
#
# PCOD8025165 Si02
#       8
#     2   2   2   2   2   2   2   2
#     4  12  25  44  69  96 139 182 231 287 348 409
#     4  12  26  44  70 100 138 182 230 284 347 417
#     4  11  23  42  70 103 134 179 232 278 345 406
#     4  11  25  45  67  99 141 175 231 284 344 402
#     4  12  28  45  67 101 139 186 230 281 348 417
#     4  10  23  44  70 101 136 176 234 290 337 420
#     4  10  24  43  70  99 134 176 229 282 347 398
#     4  10  24  44  69 102 134 177 225 292 335 407
#
# _framework density 21.289791999999998
#
# number of rings (size 3 to 8) (size 9 to 14) (size 15 to 20)
#    0.000    1.000    3.750    1.500    5.250    3.000 
#    0.000    1.250    0.000    0.000    0.000    0.000 
#    0.000    0.000    0.000    0.000    0.000    0.000 
#
# Total GULP energy -198367.087146 kJ/mol
# GULP energy per Si atom -12397.942947 kJ/mol
# Density = 2.124134 g / cm^3
# Si number density = 21.289792 Si / 1000 Ang^3
#
#
#
# Elastic Constant Matrix: (Units=GPa)
#
#
# Indices 1 2 3 4 5 6 
#
# 1 85.9028 17.1358 23.4930 -0.2710 11.8999 -12.2029
# 2 17.1358 123.9389 6.1791 6.1277 3.0676 2.2868
# 3 23.4930 6.1791 64.7645 4.7275 -1.4598 1.6334
# 4 -0.2710 6.1277 4.7275 26.4389 -5.3996 -5.4651
# 5 11.8999 3.0676 -1.4598 -5.3996 19.0264 -3.1274
# 6 -12.2029 2.2868 1.6334 -5.4651 -3.1274 39.4729
#
#
#
# Elastic Compliance Matrix: (Units=1/GPa)
#
#
# Indices 1 2 3 4 5 6 
#
# 1 0.015451 -0.001746 -0.005805 0.000720 -0.008881 0.004514
# 2 -0.001746 0.008493 0.000019 -0.002550 -0.001244 -0.001484
# 3 -0.005805 0.000019 0.017919 -0.003065 0.003694 -0.002669
# 4 0.000720 -0.002550 -0.003065 0.043228 0.013231 0.007531
# 5 -0.008881 -0.001244 0.003694 0.013231 0.063009 0.003998
# 6 0.004514 -0.001484 -0.002669 0.007531 0.003998 0.028285
#
#
# Mechanical properties :
#
#
# Convention : Reuss Voigt Hill
#
# Bulk Modulus (GPa) = 37.31547 40.91357 39.11452
# Shear Modulus (GPa) = 24.95236 32.17420 28.56328
#
# Velocity S-wave (km/s) = 3.42721 3.89170 3.66682
# Velocity P-wave (km/s) = 5.76424 6.28116 6.02824
#
# Compressibility (1/GPa) = 0.02679854
#
# Stress axis : x y z
#
# Youngs Moduli (GPa) = 64.72254 117.74103 55.80758
#
# Poissons Ratio (x) = 0.20556 0.32394
# Poissons Ratio (y) = 0.11300 -0.00104
# Poissons Ratio (z) = 0.37569 -0.00218
#
# Static dielectric constant tensor:
#      x y z
#    x 4.065070 -0.016330 -0.000500 
#    y -0.016330 4.231510 0.150170 
#    z -0.000500 0.150170 3.698850 
# 
# 
# High freq. dielectric constant tensor:
#      x y z
#    x 1.845170 -0.005050 -0.001440 
#    y -0.005050 1.849250 0.004280 
#    z -0.001440 0.004280 1.833100 
# 
# From -- ./inp_files/218330.got.cif
#   From: 2010.06.25/outbox.cif.g09.slc.cpg/sg2_110_cif.got.tgz:218330.got - 2010.06.27 13:26:56.
