data_PCOD8025119
_publ_section_title
;
Structure prediction by ZEFSAII (Michael W. Deem and Ramdas Pophale) SiO2 
 PCOD8025119
Probable space group: P -1
;
_chemical_formula_sum "Si O2"
_cell_formula_units_Z 12
_cell_length_a 13.891005
_cell_length_b 9.188846
_cell_length_c 14.777448
_cell_angle_alpha 134.434217
_cell_angle_beta 160.007477
_cell_angle_gamma 49.105591
_cell_volume 460.450994
_symmetry_space_group_name_H-M "P -1"
_symmetry_group_IT_number 2
_symmetry_cell_setting 'triclinic'
loop_
_space_group_symop_operation_xyz
x,y,z
-x,-y,-z
loop_
_atom_site_type_symbol
_atom_site_label
_atom_site_fract_x
_atom_site_fract_y
_atom_site_fract_z
Si Si1 0.817908 0.265674 0.084780
Si Si2 0.290679 0.615084 0.300291
Si Si3 0.049969 0.039026 0.782812
Si Si4 0.563249 0.770246 0.434187
Si Si5 0.004330 0.682974 0.446361
Si Si6 0.604906 0.777805 0.975144
O O1 0.787038 0.076420 0.043233
O O2 0.101671 0.250220 0.269388
O O3 0.853190 0.479296 0.265210
O O4 0.550126 0.277080 0.787548
O O5 0.500000 0.500000 0.500000
O O6 0.410445 0.618819 0.305260
O O7 0.230225 0.849364 0.380438
O O8 0.000000 0.500000 0.000000
O O9 0.957337 0.872301 0.553480
O O10 0.269203 0.210173 0.010631
O O11 0.500000 0.000000 0.500000
O O12 0.332361 0.631500 0.688456
O O13 0.862560 0.725246 0.243671
O O14 0.500000 0.000000 0.000000
#
# Coordination Sequence:
#
# PCOD8025119 Si02
#       6
#     2   2   2   2   2   2
#     4  12  27  46  78 106 147 190 238 299 358 438
#     4  12  30  48  75 107 142 191 247 300 351 430
#     4  11  26  48  75 108 149 188 242 299 363 429
#     4  12  27  52  72 103 148 193 242 295 362 417
#     4  11  25  47  73 110 143 191 237 299 364 426
#     4  10  23  44  69 103 146 189 234 291 354 423
#
# _framework density 26.061406000000002
#
# number of rings (size 3 to 8) (size 9 to 14) (size 15 to 20)
#    0.000    0.667    1.667    5.000    9.333    6.667 
#    0.000    5.833    0.000    0.000    0.000    0.000 
#    0.000    0.000    0.000    0.000    0.000    0.000 
#
# Total GULP energy -148809.703519 kJ/mol
# GULP energy per Si atom -12400.808627 kJ/mol
# Density = 2.600209 g / cm^3
# Si number density = 26.061406 Si / 1000 Ang^3
#
#
#
# Elastic Constant Matrix: (Units=GPa)
#
#
# Indices 1 2 3 4 5 6 
#
# 1 118.7726 17.8789 31.1573 -16.7562 -11.0705 20.1318
# 2 17.8789 97.6442 26.2817 -15.4651 -14.5451 18.6245
# 3 31.1573 26.2817 128.7371 -20.7480 -14.1796 10.9545
# 4 -16.7562 -15.4651 -20.7480 49.6938 5.3862 -3.7811
# 5 -11.0705 -14.5451 -14.1796 5.3862 31.6681 -7.3457
# 6 20.1318 18.6245 10.9545 -3.7811 -7.3457 49.4782
#
#
#
# Elastic Compliance Matrix: (Units=1/GPa)
#
#
# Indices 1 2 3 4 5 6 
#
# 1 0.009851 -0.000199 -0.001547 0.002204 0.001544 -0.003193
# 2 -0.000199 0.012258 -0.001341 0.002518 0.003722 -0.003491
# 3 -0.001547 -0.001341 0.009126 0.002585 0.002413 -0.000331
# 4 0.002204 0.002518 0.002585 0.022773 -0.000980 -0.000822
# 5 0.001544 0.003722 0.002413 -0.000980 0.035691 0.002660
# 6 -0.003193 -0.003491 -0.000331 -0.000822 0.002660 0.023230
#
#
# Mechanical properties :
#
#
# Convention : Reuss Voigt Hill
#
# Bulk Modulus (GPa) = 39.90271 55.08774 47.49523
# Shear Modulus (GPa) = 39.22884 44.15711 41.69297
#
# Velocity S-wave (km/s) = 3.88396 4.12071 4.00409
# Velocity P-wave (km/s) = 5.95464 6.61996 6.29610
#
# Compressibility (1/GPa) = 0.02506095
#
# Stress axis : x y z
#
# Youngs Moduli (GPa) = 101.51025 81.57992 109.57174
#
# Poissons Ratio (x) = 0.01627 0.16946
# Poissons Ratio (y) = 0.02024 0.14697
# Poissons Ratio (z) = 0.15699 0.10943
#
# Static dielectric constant tensor:
#      x y z
#    x 5.302440 -0.027010 0.457630 
#    y -0.027010 5.652310 -0.015760 
#    z 0.457630 -0.015760 4.982210 
# 
# 
# High freq. dielectric constant tensor:
#      x y z
#    x 2.040140 -0.000620 0.008460 
#    y -0.000620 2.084380 0.002210 
#    z 0.008460 0.002210 2.037400 
# 
# From -- ./inp_files/203915.got.cif
#   From: 2010.06.25/outbox.cif.g09.slc.cpg/sg2_102_cif.got.tgz:203915.got - 2010.06.27 13:26:56.
