data_PCOD8025884
_publ_section_title
;
Structure prediction by ZEFSAII (Michael W. Deem and Ramdas Pophale) SiO2 
 PCOD8025884
Probable space group: P -1
;
_chemical_formula_sum "Si O2"
_cell_formula_units_Z 16
_cell_length_a 8.518371
_cell_length_b 11.358125
_cell_length_c 11.033467
_cell_angle_alpha 80.985473
_cell_angle_beta 135.498852
_cell_angle_gamma 102.328494
_cell_volume 730.978443
_symmetry_space_group_name_H-M "P -1"
_symmetry_group_IT_number 2
_symmetry_cell_setting 'triclinic'
loop_
_space_group_symop_operation_xyz
x,y,z
-x,-y,-z
loop_
_atom_site_type_symbol
_atom_site_label
_atom_site_fract_x
_atom_site_fract_y
_atom_site_fract_z
Si Si1 0.267194 0.464524 0.308141
Si Si2 0.058522 0.244780 0.380395
Si Si3 0.535635 0.584159 0.822733
Si Si4 0.872854 0.001850 0.559705
Si Si5 0.977926 0.659715 0.168430
Si Si6 0.090436 0.084994 0.925022
Si Si7 0.127439 0.392814 0.624920
Si Si8 0.603168 0.166881 0.250027
O O1 0.500000 0.500000 0.500000
O O2 0.096606 0.362327 0.299035
O O3 0.310698 0.410943 0.212437
O O4 0.150442 0.583982 0.210306
O O5 0.208596 0.141906 0.437356
O O6 0.128545 0.284712 0.548872
O O7 0.793025 0.184230 0.244797
O O8 0.384864 0.454942 0.777647
O O9 0.398897 0.697965 0.721893
O O10 0.717223 0.596380 0.027921
O O11 0.670538 0.080681 0.411202
O O12 0.000000 0.000000 0.500000
O O13 0.013563 0.045907 0.752098
O O14 0.008849 0.793963 0.110994
O O15 0.013269 0.668273 0.330105
O O16 0.364210 0.107805 0.071678
O O17 0.000000 0.000000 0.000000
O O18 0.000000 0.500000 0.500000
#
# Coordination Sequence:
#
# PCOD8025884 Si02
#       8
#     2   2   2   2   2   2   2   2
#     4  12  24  40  64 100 135 171 215 279 339 401
#     4  11  23  40  69  99 132 173 226 274 330 411
#     4  11  23  40  65  99 138 172 219 279 343 397
#     4  10  24  44  71 100 136 182 238 283 341 407
#     4  11  24  42  66  94 137 175 222 276 342 409
#     4  11  27  47  70 103 138 180 235 290 342 407
#     4  12  20  41  69  99 129 176 226 268 334 414
#     4  10  23  46  71  98 134 186 228 280 338 413
#
# _framework density 21.888470000000002
#
# number of rings (size 3 to 8) (size 9 to 14) (size 15 to 20)
#    0.000    1.000    3.750    2.250    5.250    4.500 
#    0.000    0.000    0.000    0.000    0.000    0.000 
#    0.000    0.000    0.000    0.000    0.000    0.000 
#
# Total GULP energy -198263.492925 kJ/mol
# GULP energy per Si atom -12391.468308 kJ/mol
# Density = 2.183865 g / cm^3
# Si number density = 21.888470 Si / 1000 Ang^3
#
#
#
# Elastic Constant Matrix: (Units=GPa)
#
#
# Indices 1 2 3 4 5 6 
#
# 1 81.0513 25.5057 22.1766 -10.0625 -3.0929 4.6824
# 2 25.5057 116.8703 51.8830 -11.5347 20.9246 -6.8572
# 3 22.1766 51.8830 106.2607 -7.1597 3.6558 -3.5361
# 4 -10.0625 -11.5347 -7.1597 38.9409 -4.6882 2.0638
# 5 -3.0929 20.9246 3.6558 -4.6882 33.8792 -1.9844
# 6 4.6824 -6.8572 -3.5361 2.0638 -1.9844 40.8898
#
#
#
# Elastic Compliance Matrix: (Units=1/GPa)
#
#
# Indices 1 2 3 4 5 6 
#
# 1 0.014328 -0.002896 -0.001565 0.003105 0.003564 -0.002246
# 2 -0.002896 0.013161 -0.005429 0.001156 -0.007551 0.001644
# 3 -0.001565 -0.005429 0.012366 0.000476 0.001966 0.000409
# 4 0.003105 0.001156 0.000476 0.027372 0.003227 -0.001346
# 5 0.003564 -0.007551 0.001966 0.003227 0.034741 0.000019
# 6 -0.002246 0.001644 0.000409 -0.001346 0.000019 0.025093
#
#
# Mechanical properties :
#
#
# Convention : Reuss Voigt Hill
#
# Bulk Modulus (GPa) = 49.80924 55.92364 52.86644
# Shear Modulus (GPa) = 32.56606 36.38310 34.47458
#
# Velocity S-wave (km/s) = 3.86141 4.08144 3.97295
# Velocity P-wave (km/s) = 6.53345 6.91489 6.72687
#
# Compressibility (1/GPa) = 0.02007660
#
# Stress axis : x y z
#
# Youngs Moduli (GPa) = 69.79134 75.98050 80.86443
#
# Poissons Ratio (x) = 0.22002 0.12652
# Poissons Ratio (y) = 0.20210 0.43905
# Poissons Ratio (z) = 0.10919 0.41253
#
# Static dielectric constant tensor:
#      x y z
#    x 4.134020 -0.287590 -0.342050 
#    y -0.287590 4.448620 0.187790 
#    z -0.342050 0.187790 4.595540 
# 
# 
# High freq. dielectric constant tensor:
#      x y z
#    x 1.845810 -0.006310 -0.003620 
#    y -0.006310 1.879900 -0.002850 
#    z -0.003620 -0.002850 1.863800 
# 
# From -- ./inp_files/390131.got.cif
#   From: 2010.06.25/outbox.cif.g09.slc.cpg/sg2_196_cif.got.tgz:390131.got - 2010.06.27 13:26:56.
