data_PCOD8025072
_publ_section_title
;
Structure prediction by ZEFSAII (Michael W. Deem and Ramdas Pophale) SiO2 
 PCOD8025072
Probable space group: P -1
;
_chemical_formula_sum "Si O2"
_cell_formula_units_Z 16
_cell_length_a 18.794894
_cell_length_b 17.176851
_cell_length_c 6.656667
_cell_angle_alpha 108.109139
_cell_angle_beta 72.522232
_cell_angle_gamma 159.562664
_cell_volume 712.963589
_symmetry_space_group_name_H-M "P -1"
_symmetry_group_IT_number 2
_symmetry_cell_setting 'triclinic'
loop_
_space_group_symop_operation_xyz
x,y,z
-x,-y,-z
loop_
_atom_site_type_symbol
_atom_site_label
_atom_site_fract_x
_atom_site_fract_y
_atom_site_fract_z
Si Si1 0.067879 0.899090 0.618894
Si Si2 0.256440 0.655979 0.930471
Si Si3 0.136615 0.795487 0.306050
Si Si4 0.347067 0.216720 0.976349
Si Si5 0.498235 0.749947 0.817105
Si Si6 0.597333 0.067699 0.674038
Si Si7 0.380815 0.502623 0.398712
Si Si8 0.780434 0.814093 0.569392
O O1 0.851001 0.720416 0.654346
O O2 0.041725 0.780098 0.469018
O O3 0.151262 0.978164 0.837699
O O4 0.235347 0.124841 0.523886
O O5 0.305370 0.611382 0.908808
O O6 0.031324 0.429591 0.847292
O O7 0.410636 0.849221 0.792802
O O8 0.270337 0.724049 0.173861
O O9 0.248416 0.851775 0.422033
O O10 0.301245 0.989300 0.154841
O O11 0.499221 0.404858 0.826573
O O12 0.478713 0.285733 0.042759
O O13 0.251478 0.187868 0.177294
O O14 0.470002 0.674637 0.566937
O O15 0.500000 0.000000 0.500000
O O16 0.379404 0.426548 0.505502
O O17 0.000000 0.000000 0.500000
#
# Coordination Sequence:
#
# PCOD8025072 Si02
#       8
#     2   2   2   2   2   2   2   2
#     4  11  24  43  65  98 134 177 230 280 336 397
#     4  10  23  44  68  96 137 172 215 269 332 399
#     4  11  21  45  68  93 140 177 216 270 332 395
#     4  12  24  41  66 100 130 178 230 281 336 395
#     4  11  24  41  66  97 135 176 225 277 332 394
#     4  10  24  43  69 105 132 168 218 269 327 399
#     4  11  24  42  66  94 134 180 230 284 332 394
#     4  10  24  44  67  93 137 179 226 284 339 394
#
# _framework density 22.441541000000001
#
# number of rings (size 3 to 8) (size 9 to 14) (size 15 to 20)
#    0.000    1.250    3.750    0.750    1.750    8.500 
#    2.250    0.000    0.000    0.000    0.000    0.000 
#    0.000    0.000    0.000    0.000    0.000    0.000 
#
# Total GULP energy -198339.903935 kJ/mol
# GULP energy per Si atom -12396.243996 kJ/mol
# Density = 2.239046 g / cm^3
# Si number density = 22.441541 Si / 1000 Ang^3
#
#
#
# Elastic Constant Matrix: (Units=GPa)
#
#
# Indices 1 2 3 4 5 6 
#
# 1 140.2337 33.2412 51.7099 -2.8170 1.8752 0.4702
# 2 33.2412 99.5522 37.9955 13.0002 1.1193 -2.6433
# 3 51.7099 37.9955 108.3852 4.8484 0.8045 -5.7628
# 4 -2.8170 13.0002 4.8484 33.7980 5.9201 -5.4497
# 5 1.8752 1.1193 0.8045 5.9201 36.3072 7.4872
# 6 0.4702 -2.6433 -5.7628 -5.4497 7.4872 27.6896
#
#
#
# Elastic Compliance Matrix: (Units=1/GPa)
#
#
# Indices 1 2 3 4 5 6 
#
# 1 0.009005 -0.001839 -0.003768 0.001999 -0.000532 -0.000575
# 2 -0.001839 0.012524 -0.003338 -0.004701 0.000668 -0.000574
# 3 -0.003768 -0.003338 0.012338 -0.000350 -0.000404 0.002354
# 4 0.001999 -0.004701 -0.000350 0.034183 -0.007198 0.008119
# 5 -0.000532 0.000668 -0.000404 -0.007198 0.030741 -0.009740
# 6 -0.000575 -0.000574 0.002354 0.008119 -0.009740 0.040791
#
#
# Mechanical properties :
#
#
# Convention : Reuss Voigt Hill
#
# Bulk Modulus (GPa) = 62.58865 66.00715 64.29790
# Shear Modulus (GPa) = 30.71277 34.57393 32.64335
#
# Velocity S-wave (km/s) = 3.70343 3.92933 3.81805
# Velocity P-wave (km/s) = 6.79981 7.07552 6.93903
#
# Compressibility (1/GPa) = 0.01597734
#
# Stress axis : x y z
#
# Youngs Moduli (GPa) = 111.04368 79.84413 81.05099
#
# Poissons Ratio (x) = 0.14686 0.30538
# Poissons Ratio (y) = 0.20425 0.27056
# Poissons Ratio (z) = 0.41838 0.26653
#
# Static dielectric constant tensor:
#      x y z
#    x 4.417500 -0.035360 -0.062100 
#    y -0.035360 4.175070 0.089260 
#    z -0.062100 0.089260 3.779600 
# 
# 
# High freq. dielectric constant tensor:
#      x y z
#    x 1.909750 0.011720 -0.006340 
#    y 0.011720 1.894090 0.010370 
#    z -0.006340 0.010370 1.861480 
# 
# From -- ./inp_files/120107.got.cif
#   From: 2010.06.25/outbox.cif.g09.slc.cpg/sg2_61_cif.got.tgz:120107.got - 2010.06.27 13:26:56.
