data_PCOD8025925
_publ_section_title
;
Structure prediction by ZEFSAII (Michael W. Deem and Ramdas Pophale) SiO2 
 PCOD8025925
Probable space group: P -1
;
_chemical_formula_sum "Si O2"
_cell_formula_units_Z 16
_cell_length_a 11.515800
_cell_length_b 18.743392
_cell_length_c 8.883943
_cell_angle_alpha 152.894327
_cell_angle_beta 54.681687
_cell_angle_gamma 133.804936
_cell_volume 626.313251
_symmetry_space_group_name_H-M "P -1"
_symmetry_group_IT_number 2
_symmetry_cell_setting 'triclinic'
loop_
_space_group_symop_operation_xyz
x,y,z
-x,-y,-z
loop_
_atom_site_type_symbol
_atom_site_label
_atom_site_fract_x
_atom_site_fract_y
_atom_site_fract_z
Si Si1 0.864490 0.571487 0.579164
Si Si2 0.134294 0.767171 0.978011
Si Si3 0.638824 0.911893 0.788477
Si Si4 0.411462 0.352144 0.163204
Si Si5 0.635877 0.983637 0.271390
Si Si6 0.127536 0.260447 0.688125
Si Si7 0.417779 0.603115 0.180353
Si Si8 0.977085 0.310155 0.620855
O O1 0.708307 0.600492 0.753369
O O2 0.978180 0.692232 0.588445
O O3 0.807076 0.359312 0.215885
O O4 0.969465 0.648279 0.790748
O O5 0.056618 0.847511 0.309369
O O6 0.280687 0.908920 0.034972
O O7 0.769353 0.841113 0.557032
O O8 0.472745 0.779749 0.574374
O O9 0.591410 0.941067 0.047030
O O10 0.500000 0.500000 0.500000
O O11 0.326974 0.164834 0.961052
O O12 0.533350 0.346724 0.936593
O O13 0.500000 0.000000 0.500000
O O14 0.792163 0.171109 0.522633
O O15 0.101320 0.268983 0.545782
O O16 0.224527 0.465856 0.067181
O O17 0.500000 0.500000 0.000000
O O18 0.000000 0.500000 0.000000
#
# Coordination Sequence:
#
# PCOD8025925 Si02
#       8
#     2   2   2   2   2   2   2   2
#     4  11  24  45  76 112 151 200 256 311 389 455
#     4  11  24  43  77 113 154 197 251 317 384 465
#     4  11  24  50  77 114 154 202 261 323 385 464
#     4  12  27  49  81 115 158 209 260 321 388 471
#     4  12  31  52  78 113 154 208 266 326 398 461
#     4  11  24  44  79 113 154 202 256 311 393 461
#     4  10  23  46  74 113 155 199 250 314 386 462
#     4  12  26  48  75 110 154 200 259 325 379 461
#
# _framework density 25.546323000000001
#
# number of rings (size 3 to 8) (size 9 to 14) (size 15 to 20)
#    0.000    0.750    2.500    4.875    7.000    1.000 
#    2.250    0.625    0.000    0.000    0.000    0.000 
#    0.000    0.000    0.000    0.000    0.000    0.000 
#
# Total GULP energy -198329.487523 kJ/mol
# GULP energy per Si atom -12395.592970 kJ/mol
# Density = 2.548818 g / cm^3
# Si number density = 25.546323 Si / 1000 Ang^3
#
#
#
# Elastic Constant Matrix: (Units=GPa)
#
#
# Indices 1 2 3 4 5 6 
#
# 1 95.7542 36.3928 42.3374 3.6667 -2.4529 -17.2586
# 2 36.3928 181.3774 63.1267 2.2930 2.0184 -12.4656
# 3 42.3374 63.1267 118.9695 0.4319 10.5215 2.0646
# 4 3.6667 2.2930 0.4319 44.1869 -1.3820 -0.8501
# 5 -2.4529 2.0184 10.5215 -1.3820 48.1088 3.2807
# 6 -17.2586 -12.4656 2.0646 -0.8501 3.2807 36.9235
#
#
#
# Elastic Compliance Matrix: (Units=1/GPa)
#
#
# Indices 1 2 3 4 5 6 
#
# 1 0.014103 -0.000688 -0.004882 -0.000920 0.001347 0.006492
# 2 -0.000688 0.007041 -0.003555 -0.000222 0.000289 0.002224
# 3 -0.004882 -0.003555 0.012319 0.000315 -0.002516 -0.003940
# 4 -0.000920 -0.000222 0.000315 0.022732 0.000550 -0.000048
# 5 0.001347 0.000289 -0.002516 0.000550 0.021479 -0.001028
# 6 0.006492 0.002224 -0.003940 -0.000048 -0.001028 0.031179
#
#
# Mechanical properties :
#
#
# Convention : Reuss Voigt Hill
#
# Bulk Modulus (GPa) = 65.73017 75.53501 70.63259
# Shear Modulus (GPa) = 37.82893 42.79346 40.31119
#
# Velocity S-wave (km/s) = 3.85229 4.09728 3.97667
# Velocity P-wave (km/s) = 6.75074 7.21219 6.98527
#
# Compressibility (1/GPa) = 0.01521371
#
# Stress axis : x y z
#
# Youngs Moduli (GPa) = 70.90483 142.02718 81.17585
#
# Poissons Ratio (x) = 0.09767 0.39634
# Poissons Ratio (y) = 0.04876 0.28855
# Poissons Ratio (z) = 0.34619 0.50485
#
# Static dielectric constant tensor:
#      x y z
#    x 4.738170 0.298510 0.141080 
#    y 0.298510 3.550250 0.613570 
#    z 0.141080 0.613570 4.949830 
# 
# 
# High freq. dielectric constant tensor:
#      x y z
#    x 2.026460 -0.011930 0.000880 
#    y -0.011930 2.044760 -0.002750 
#    z 0.000880 -0.002750 2.014240 
# 
# From -- ./inp_files/280246.got.cif
#   From: 2010.06.25/outbox.cif.g09.slc.cpg/sg2_141_cif.got.tgz:280246.got - 2010.06.27 13:26:56.
