data_PCOD8025498
_publ_section_title
;
Structure prediction by ZEFSAII (Michael W. Deem and Ramdas Pophale) SiO2 
 PCOD8025498
Probable space group: P -1
;
_chemical_formula_sum "Si O2"
_cell_formula_units_Z 16
_cell_length_a 15.011598
_cell_length_b 12.703328
_cell_length_c 9.233312
_cell_angle_alpha 101.141105
_cell_angle_beta 88.699820
_cell_angle_gamma 152.036628
_cell_volume 767.031272
_symmetry_space_group_name_H-M "P -1"
_symmetry_group_IT_number 2
_symmetry_cell_setting 'triclinic'
loop_
_space_group_symop_operation_xyz
x,y,z
-x,-y,-z
loop_
_atom_site_type_symbol
_atom_site_label
_atom_site_fract_x
_atom_site_fract_y
_atom_site_fract_z
Si Si1 0.355883 0.571472 0.551608
Si Si2 0.234418 0.827607 0.712728
Si Si3 0.225008 0.995427 0.267987
Si Si4 0.918392 0.161967 0.086266
Si Si5 0.031786 0.385053 0.598019
Si Si6 0.385851 0.656899 0.248552
Si Si7 0.378648 0.292215 0.844600
Si Si8 0.777630 0.798679 0.477421
O O1 0.548241 0.803101 0.707502
O O2 0.158303 0.412369 0.583115
O O3 0.404646 0.675895 0.424343
O O4 0.334938 0.420309 0.496077
O O5 0.171668 0.819264 0.861437
O O6 0.181476 0.646179 0.675805
O O7 0.116245 0.761431 0.571052
O O8 0.473583 0.093684 0.746856
O O9 0.230049 0.105268 0.398178
O O10 0.093981 0.762058 0.289092
O O11 0.136659 0.928351 0.098507
O O12 0.157151 0.426630 0.152744
O O13 0.827955 0.972496 0.144251
O O14 0.469179 0.639940 0.169358
O O15 0.324500 0.292611 0.698421
O O16 0.500000 0.500000 0.000000
O O17 0.000000 0.000000 0.500000
#
# Coordination Sequence:
#
# PCOD8025498 Si02
#       8
#     2   2   2   2   2   2   2   2
#     4  12  23  41  69  96 126 173 215 262 319 387
#     4  10  23  45  68  97 127 165 217 277 315 385
#     4  12  25  43  64 100 131 170 214 265 320 387
#     4  11  25  43  66  95 136 168 214 268 324 376
#     4  11  23  43  71  96 126 166 220 269 324 379
#     4  11  23  42  67  94 131 170 219 260 322 383
#     4  11  25  43  62  97 133 173 220 263 310 386
#     4  12  24  41  65  91 137 170 210 264 318 374
#
# _framework density 20.859643999999999
#
# number of rings (size 3 to 8) (size 9 to 14) (size 15 to 20)
#    0.000    0.750    5.000    2.625    3.500    4.500 
#    0.000    1.250    0.000    0.000    0.000    0.000 
#    0.000    0.000    0.000    0.000    0.000    0.000 
#
# Total GULP energy -198445.032244 kJ/mol
# GULP energy per Si atom -12402.814515 kJ/mol
# Density = 2.081217 g / cm^3
# Si number density = 20.859644 Si / 1000 Ang^3
#
#
#
# Elastic Constant Matrix: (Units=GPa)
#
#
# Indices 1 2 3 4 5 6 
#
# 1 56.4618 35.7741 32.1076 4.2907 5.2506 -1.8719
# 2 35.7741 128.9839 42.0048 17.0016 11.1588 21.9145
# 3 32.1076 42.0048 112.2056 7.1351 -0.2002 -1.5910
# 4 4.2907 17.0016 7.1351 31.9250 -0.7070 -0.8579
# 5 5.2506 11.1588 -0.2002 -0.7070 23.4157 0.3870
# 6 -1.8719 21.9145 -1.5910 -0.8579 0.3870 27.1468
#
#
#
# Elastic Compliance Matrix: (Units=1/GPa)
#
#
# Indices 1 2 3 4 5 6 
#
# 1 0.024824 -0.006442 -0.004682 0.001263 -0.002609 0.006715
# 2 -0.006442 0.013858 -0.003125 -0.006251 -0.005177 -0.011938
# 3 -0.004682 -0.003125 0.011475 -0.000138 0.002586 0.002831
# 4 0.001263 -0.006251 -0.000138 0.034760 0.003642 0.006172
# 5 -0.002609 -0.005177 0.002586 0.003642 0.045831 0.003613
# 6 0.006715 -0.011938 0.002831 0.006172 0.003613 0.047246
#
#
# Mechanical properties :
#
#
# Convention : Reuss Voigt Hill
#
# Bulk Modulus (GPa) = 46.16979 57.49159 51.83069
# Shear Modulus (GPa) = 23.39595 29.01514 26.20555
#
# Velocity S-wave (km/s) = 3.35265 3.73362 3.54825
# Velocity P-wave (km/s) = 6.09660 6.79761 6.45663
#
# Compressibility (1/GPa) = 0.02165919
#
# Stress axis : x y z
#
# Youngs Moduli (GPa) = 40.28300 72.16298 87.14366
#
# Poissons Ratio (x) = 0.46489 0.40797
# Poissons Ratio (y) = 0.25951 0.27234
# Poissons Ratio (z) = 0.18859 0.22552
#
# Static dielectric constant tensor:
#      x y z
#    x 3.826760 0.017230 0.024940 
#    y 0.017230 4.056290 -0.055020 
#    z 0.024940 -0.055020 3.737340 
# 
# 
# High freq. dielectric constant tensor:
#      x y z
#    x 1.808570 0.008020 -0.001650 
#    y 0.008020 1.843490 0.004460 
#    z -0.001650 0.004460 1.810050 
# 
# From -- ./inp_files/187961.got.cif
#   From: 2010.06.25/outbox.cif.g09.slc.cpg/sg2_94_cif.got.tgz:187961.got - 2010.06.27 13:26:56.
