data_PCOD8025184
_publ_section_title
;
Structure prediction by ZEFSAII (Michael W. Deem and Ramdas Pophale) SiO2 
 PCOD8025184
Probable space group: P -1
;
_chemical_formula_sum "Si O2"
_cell_formula_units_Z 16
_cell_length_a 5.457378
_cell_length_b 10.914328
_cell_length_c 11.461053
_cell_angle_alpha 107.929576
_cell_angle_beta 82.573707
_cell_angle_gamma 108.458177
_cell_volume 615.712572
_symmetry_space_group_name_H-M "P -1"
_symmetry_group_IT_number 2
_symmetry_cell_setting 'triclinic'
loop_
_space_group_symop_operation_xyz
x,y,z
-x,-y,-z
loop_
_atom_site_type_symbol
_atom_site_label
_atom_site_fract_x
_atom_site_fract_y
_atom_site_fract_z
Si Si1 0.542613 0.170316 0.038735
Si Si2 0.078551 0.577698 0.671963
Si Si3 0.301522 0.688388 0.469592
Si Si4 0.313889 0.287791 0.739175
Si Si5 0.018161 0.174504 0.180733
Si Si6 0.572845 0.957850 0.228492
Si Si7 0.150382 0.905065 0.405643
Si Si8 0.763243 0.461682 0.090351
O O1 0.801556 0.178463 0.097456
O O2 0.570326 0.317545 0.022891
O O3 0.267350 0.132886 0.112340
O O4 0.518274 0.057103 0.906603
O O5 0.319750 0.666822 0.602139
O O6 0.891658 0.675887 0.723789
O O7 0.167978 0.549378 0.783572
O O8 0.949917 0.432042 0.584718
O O9 0.547378 0.667872 0.381179
O O10 0.265117 0.833462 0.480998
O O11 0.442176 0.189630 0.769151
O O12 0.359240 0.413916 0.862550
O O13 0.017408 0.210483 0.704705
O O14 0.861142 0.061077 0.249732
O O15 0.375304 0.003238 0.339467
O O16 0.000000 0.000000 0.500000
O O17 0.000000 0.500000 0.000000
#
# Coordination Sequence:
#
# PCOD8025184 Si02
#       8
#     2   2   2   2   2   2   2   2
#     4  11  26  46  73 108 148 196 245 307 369 445
#     4  10  23  44  70 104 141 189 242 307 367 432
#     4  10  23  46  68 102 141 181 254 296 366 439
#     4  11  25  43  72  99 142 186 240 304 368 435
#     4  11  26  46  73 108 151 192 251 297 375 444
#     4  11  27  43  71 102 144 192 243 299 373 438
#     4  11  26  44  70 102 140 191 242 306 373 439
#     4  11  24  45  76 107 146 186 248 302 379 442
#
# _framework density 25.986153999999999
#
# number of rings (size 3 to 8) (size 9 to 14) (size 15 to 20)
#    0.000    1.250    1.250    2.250   12.250    2.000 
#    2.250    0.000    0.000    0.000    0.000    0.000 
#    0.000    0.000    0.000    0.000    0.000    0.000 
#
# Total GULP energy -198275.788799 kJ/mol
# GULP energy per Si atom -12392.236800 kJ/mol
# Density = 2.592701 g / cm^3
# Si number density = 25.986154 Si / 1000 Ang^3
#
#
#
# Elastic Constant Matrix: (Units=GPa)
#
#
# Indices 1 2 3 4 5 6 
#
# 1 69.7876 7.0283 23.3137 -12.7727 -32.1985 8.5483
# 2 7.0283 102.2918 29.2078 -1.5452 -33.1286 10.1577
# 3 23.3137 29.2078 116.3871 -22.8371 -37.8479 -6.6868
# 4 -12.7727 -1.5452 -22.8371 57.1248 0.8439 -10.2111
# 5 -32.1985 -33.1286 -37.8479 0.8439 46.5548 0.4758
# 6 8.5483 10.1577 -6.6868 -10.2111 0.4758 36.4827
#
#
#
# Elastic Compliance Matrix: (Units=1/GPa)
#
#
# Indices 1 2 3 4 5 6 
#
# 1 0.025619 0.006024 0.001537 0.005038 0.023228 -0.006291
# 2 0.006024 0.014699 -0.000530 0.000303 0.014248 -0.005702
# 3 0.001537 -0.000530 0.013668 0.006320 0.011643 0.003910
# 4 0.005038 0.000303 0.006320 0.022111 0.008376 0.005973
# 5 0.023228 0.014248 0.011643 0.008376 0.057055 -0.005675
# 6 -0.006291 -0.005702 0.003910 0.005973 -0.005675 0.032935
#
#
# Mechanical properties :
#
#
# Convention : Reuss Voigt Hill
#
# Bulk Modulus (GPa) = 14.69562 45.28512 29.99037
# Shear Modulus (GPa) = 28.61938 43.29358 35.95648
#
# Velocity S-wave (km/s) = 3.32223 4.08612 3.72382
# Velocity P-wave (km/s) = 4.51484 6.30288 5.48225
#
# Compressibility (1/GPa) = 0.06804748
#
# Stress axis : x y z
#
# Youngs Moduli (GPa) = 39.03419 68.03338 73.16242
#
# Poissons Ratio (x) = -0.40986 -0.11245
# Poissons Ratio (y) = -0.23516 0.03881
# Poissons Ratio (z) = -0.05999 0.03609
#
# Static dielectric constant tensor:
#      x y z
#    x 4.196970 -0.024280 -0.136790 
#    y -0.024280 5.726830 0.166200 
#    z -0.136790 0.166200 5.174410 
# 
# 
# High freq. dielectric constant tensor:
#      x y z
#    x 2.006370 -0.002810 -0.010210 
#    y -0.002810 2.074770 -0.002800 
#    z -0.010210 -0.002800 2.051100 
# 
# From -- ./inp_files/84326.got.cif
#   From: 2010.06.25/outbox.cif.g09.slc.cpg/sg2_43_cif.got.tgz:84326.got - 2010.06.27 13:26:56.
