data_PCOD8025754
_publ_section_title
;
Structure prediction by ZEFSAII (Michael W. Deem and Ramdas Pophale) SiO2 
 PCOD8025754
Probable space group: P -1
;
_chemical_formula_sum "Si O2"
_cell_formula_units_Z 16
_cell_length_a 18.957301
_cell_length_b 11.447225
_cell_length_c 16.280421
_cell_angle_alpha 23.091228
_cell_angle_beta 149.004626
_cell_angle_gamma 149.728720
_cell_volume 662.364958
_symmetry_space_group_name_H-M "P -1"
_symmetry_group_IT_number 2
_symmetry_cell_setting 'triclinic'
loop_
_space_group_symop_operation_xyz
x,y,z
-x,-y,-z
loop_
_atom_site_type_symbol
_atom_site_label
_atom_site_fract_x
_atom_site_fract_y
_atom_site_fract_z
Si Si1 0.224669 0.626711 0.565693
Si Si2 0.169146 0.220004 0.511781
Si Si3 0.425321 0.298788 0.920825
Si Si4 0.892475 0.291974 0.763710
Si Si5 0.219475 0.625362 0.914574
Si Si6 0.560215 0.688702 0.647353
Si Si7 0.255504 0.466415 0.872644
Si Si8 0.388676 0.619613 0.359128
O O1 0.285573 0.345261 0.792544
O O2 0.090593 0.608228 0.381637
O O3 0.181761 0.593756 0.641064
O O4 0.353282 0.963258 0.453051
O O5 0.207345 0.523394 0.415661
O O6 0.222459 0.361263 0.381025
O O7 0.254781 0.972171 0.769091
O O8 0.000000 0.000000 0.500000
O O9 0.453146 0.458416 0.756104
O O10 0.570636 0.445439 0.028688
O O11 0.375097 0.917442 0.105300
O O12 0.047207 0.401699 0.894592
O O13 0.821395 0.912092 0.946846
O O14 0.252892 0.661727 0.826488
O O15 0.318690 0.458486 0.166880
O O16 0.461106 0.726878 0.450886
O O17 0.500000 0.500000 0.500000
#
# Coordination Sequence:
#
# PCOD8025754 Si02
#       8
#     2   2   2   2   2   2   2   2
#     4  12  23  36  66  99 131 175 218 279 352 398
#     4  10  24  45  70  93 137 187 223 276 342 402
#     4  11  23  39  63  99 135 167 222 284 337 408
#     4  11  23  43  67  95 133 184 225 275 341 408
#     4  10  23  46  65  92 136 179 230 280 333 408
#     4  11  24  40  67  97 136 177 222 288 345 395
#     4  11  22  38  65  97 134 170 222 283 338 401
#     4  12  25  43  72 102 136 182 229 281 344 407
#
# _framework density 24.155868000000002
#
# number of rings (size 3 to 8) (size 9 to 14) (size 15 to 20)
#    0.000    1.000    3.750    4.125    1.750    3.500 
#    0.000    0.000    0.000    9.000    0.000    0.000 
#    0.000    0.000    0.000    0.000    0.000    0.000 
#
# Total GULP energy -198243.463255 kJ/mol
# GULP energy per Si atom -12390.216453 kJ/mol
# Density = 2.410089 g / cm^3
# Si number density = 24.155868 Si / 1000 Ang^3
#
#
#
# Elastic Constant Matrix: (Units=GPa)
#
#
# Indices 1 2 3 4 5 6 
#
# 1 90.5496 6.8198 23.7351 -11.8439 -5.0396 7.9683
# 2 6.8198 34.5546 8.2835 -4.1674 -7.3628 8.8739
# 3 23.7351 8.2835 107.3422 -22.6437 -2.7624 0.3263
# 4 -11.8439 -4.1674 -22.6437 37.5528 -3.8182 -2.0348
# 5 -5.0396 -7.3628 -2.7624 -3.8182 43.2436 -1.7893
# 6 7.9683 8.8739 0.3263 -2.0348 -1.7893 32.4838
#
#
#
# Elastic Compliance Matrix: (Units=1/GPa)
#
#
# Indices 1 2 3 4 5 6 
#
# 1 0.012271 -0.000679 -0.002086 0.002529 0.001298 -0.002574
# 2 -0.000679 0.033077 -0.001710 0.002511 0.005317 -0.008402
# 3 -0.002086 -0.001710 0.011202 0.006055 0.000769 0.001288
# 4 0.002529 0.002511 0.006055 0.031804 0.003952 0.000843
# 5 0.001298 0.005317 0.000769 0.003952 0.024572 -0.000178
# 6 -0.002574 -0.008402 0.001288 0.000843 -0.000178 0.033741
#
#
# Mechanical properties :
#
#
# Convention : Reuss Voigt Hill
#
# Bulk Modulus (GPa) = 21.00855 34.45815 27.73335
# Shear Modulus (GPa) = 29.15677 35.56322 32.36000
#
# Velocity S-wave (km/s) = 3.47800 3.84114 3.66407
# Velocity P-wave (km/s) = 4.98443 5.82824 5.42277
#
# Compressibility (1/GPa) = 0.04759966
#
# Stress axis : x y z
#
# Youngs Moduli (GPa) = 81.49142 30.23219 89.26596
#
# Poissons Ratio (x) = 0.02053 0.18622
# Poissons Ratio (y) = 0.05535 0.15268
# Poissons Ratio (z) = 0.17000 0.05171
#
# Static dielectric constant tensor:
#      x y z
#    x 4.693440 0.072400 0.105940 
#    y 0.072400 4.334340 -0.084570 
#    z 0.105940 -0.084570 4.602030 
# 
# 
# High freq. dielectric constant tensor:
#      x y z
#    x 1.955300 0.005080 0.008060 
#    y 0.005080 1.945240 -0.011840 
#    z 0.008060 -0.011840 1.967790 
# 
# From -- ./inp_files/577884.got.cif
#   From: 2010.06.25/outbox.cif.g09.slc.cpg/sg2_289_cif.got.tgz:577884.got - 2010.06.27 13:26:56.
