data_PCOD8025434
_publ_section_title
;
Structure prediction by ZEFSAII (Michael W. Deem and Ramdas Pophale) SiO2 
 PCOD8025434
Probable space group: P -1
;
_chemical_formula_sum "Si O2"
_cell_formula_units_Z 12
_cell_length_a 14.718247
_cell_length_b 17.835065
_cell_length_c 6.541248
_cell_angle_alpha 66.811477
_cell_angle_beta 67.897206
_cell_angle_gamma 18.929692
_cell_volume 511.992783
_symmetry_space_group_name_H-M "P -1"
_symmetry_group_IT_number 2
_symmetry_cell_setting 'triclinic'
loop_
_space_group_symop_operation_xyz
x,y,z
-x,-y,-z
loop_
_atom_site_type_symbol
_atom_site_label
_atom_site_fract_x
_atom_site_fract_y
_atom_site_fract_z
Si Si1 0.267349 0.573448 0.231839
Si Si2 0.520251 0.674149 0.299813
Si Si3 0.907990 0.704383 0.890846
Si Si4 0.306131 0.003307 0.956204
Si Si5 0.269019 0.750124 0.139443
Si Si6 0.136285 0.386092 0.287027
O O1 0.410496 0.393007 0.447187
O O2 0.212705 0.698055 0.277626
O O3 0.977353 0.767027 0.178444
O O4 0.467645 0.439038 0.022693
O O5 0.344455 0.732672 0.310376
O O6 0.811258 0.459465 0.162441
O O7 0.326545 0.903879 0.175325
O O8 0.851758 0.718392 0.688597
O O9 0.670372 0.943181 0.949181
O O10 0.926933 0.603531 0.097263
O O11 0.551509 0.820038 0.776698
O O12 0.000000 0.000000 0.000000
O O13 0.000000 0.500000 0.500000
#
# Coordination Sequence:
#
# PCOD8025434 Si02
#       6
#     2   2   2   2   2   2
#     4  11  25  43  69 100 138 186 229 280 347 406
#     4  11  24  43  69 102 138 181 232 283 342 407
#     4  10  23  45  67 102 140 177 233 287 336 419
#     4  11  23  46  72 102 142 181 231 288 339 414
#     4  11  23  45  67  99 142 178 234 287 333 413
#     4  10  24  45  71 101 138 182 230 282 348 414
#
# _framework density 23.437828
#
# number of rings (size 3 to 8) (size 9 to 14) (size 15 to 20)
#    0.000    1.333    3.333    1.000    2.333    2.667 
#    9.000    0.000    0.000    0.000    0.000    0.000 
#    0.000    0.000    0.000    0.000    0.000    0.000 
#
# Total GULP energy -148750.492415 kJ/mol
# GULP energy per Si atom -12395.874368 kJ/mol
# Density = 2.338448 g / cm^3
# Si number density = 23.437828 Si / 1000 Ang^3
#
#
#
# Elastic Constant Matrix: (Units=GPa)
#
#
# Indices 1 2 3 4 5 6 
#
# 1 131.0885 35.3808 40.7937 3.5134 21.1068 11.4724
# 2 35.3808 93.7692 33.1879 0.3705 17.7926 -2.5354
# 3 40.7937 33.1879 101.0075 -3.7832 17.8257 3.4696
# 4 3.5134 0.3705 -3.7832 44.8412 1.8661 7.1464
# 5 21.1068 17.7926 17.8257 1.8661 28.6989 0.9458
# 6 11.4724 -2.5354 3.4696 7.1464 0.9458 36.3813
#
#
#
# Elastic Compliance Matrix: (Units=1/GPa)
#
#
# Indices 1 2 3 4 5 6 
#
# 1 0.009926 -0.002128 -0.002458 -0.000330 -0.004338 -0.002866
# 2 -0.002128 0.013468 -0.002742 -0.000291 -0.005131 0.002062
# 3 -0.002458 -0.002742 0.012665 0.001599 -0.004436 -0.000823
# 4 -0.000330 -0.000291 0.001599 0.023276 -0.001932 -0.004591
# 5 -0.004338 -0.005131 -0.004436 -0.001932 0.044075 0.000667
# 6 -0.002866 0.002062 -0.000823 -0.004591 0.000667 0.029497
#
#
# Mechanical properties :
#
#
# Convention : Reuss Voigt Hill
#
# Bulk Modulus (GPa) = 46.72276 60.51001 53.61638
# Shear Modulus (GPa) = 32.32107 36.41778 34.36942
#
# Velocity S-wave (km/s) = 3.71754 3.94611 3.83353
# Velocity P-wave (km/s) = 6.19716 6.82903 6.52075
#
# Compressibility (1/GPa) = 0.02140285
#
# Stress axis : x y z
#
# Youngs Moduli (GPa) = 100.74660 74.24737 78.95900
#
# Poissons Ratio (x) = 0.15803 0.19406
# Poissons Ratio (y) = 0.21443 0.21650
# Poissons Ratio (z) = 0.24761 0.20359
#
# Static dielectric constant tensor:
#      x y z
#    x 4.754240 0.135900 0.147890 
#    y 0.135900 4.274640 0.010510 
#    z 0.147890 0.010510 4.043450 
# 
# 
# High freq. dielectric constant tensor:
#      x y z
#    x 1.943290 -0.001030 0.001060 
#    y -0.001030 1.931010 -0.000760 
#    z 0.001060 -0.000760 1.907380 
# 
# From -- ./inp_files/3215.got.cif
#   From: 2010.06.25/outbox.cif.g09.slc.cpg/sg2_2_cif.got.tgz:3215.got - 2010.06.27 13:26:56.
