data_PCOD8025022
_publ_section_title
;
Structure prediction by ZEFSAII (Michael W. Deem and Ramdas Pophale) SiO2 
 PCOD8025022
Probable space group: P -1
;
_chemical_formula_sum "Si O2"
_cell_formula_units_Z 12
_cell_length_a 8.751233
_cell_length_b 13.200578
_cell_length_c 9.451582
_cell_angle_alpha 32.637009
_cell_angle_beta 70.629062
_cell_angle_gamma 69.377145
_cell_volume 549.788869
_symmetry_space_group_name_H-M "P -1"
_symmetry_group_IT_number 2
_symmetry_cell_setting 'triclinic'
loop_
_space_group_symop_operation_xyz
x,y,z
-x,-y,-z
loop_
_atom_site_type_symbol
_atom_site_label
_atom_site_fract_x
_atom_site_fract_y
_atom_site_fract_z
Si Si1 0.074914 0.112801 0.722297
Si Si2 0.606689 0.854057 0.035133
Si Si3 0.561350 0.291770 0.275550
Si Si4 0.865893 0.088689 0.549812
Si Si5 0.636338 0.205303 0.061234
Si Si6 0.710607 0.624056 0.531551
O O1 0.123231 0.309485 0.537415
O O2 0.949274 0.167173 0.569077
O O3 0.231094 0.976436 0.780642
O O4 0.000000 0.000000 0.000000
O O5 0.494176 0.772845 0.049406
O O6 0.689747 0.675704 0.312048
O O7 0.500000 0.000000 0.000000
O O8 0.751500 0.936004 0.812876
O O9 0.747874 0.264607 0.308594
O O10 0.439525 0.246277 0.490802
O O11 0.500000 0.500000 0.000000
O O12 0.551944 0.168604 0.280916
O O13 0.000000 0.000000 0.500000
O O14 0.719038 0.398948 0.814381
#
# Coordination Sequence:
#
# PCOD8025022 Si02
#       6
#     2   2   2   2   2   2
#     4  12  24  43  66  98 141 175 221 284 352 401
#     4  12  22  43  70  99 132 186 233 273 338 411
#     4  10  23  44  67  98 134 181 234 272 336 416
#     4  12  24  41  69 103 138 179 224 285 354 398
#     4  11  24  43  69  97 134 180 232 281 334 409
#     4  11  24  44  69  98 132 182 235 279 330 415
#
# _framework density 21.826559
#
# number of rings (size 3 to 8) (size 9 to 14) (size 15 to 20)
#    0.000    0.667    6.667    0.500    2.333    2.000 
#    0.000    3.333    0.000    0.000    0.000    0.000 
#    0.000    0.000    0.000    0.000    0.000    0.000 
#
# Total GULP energy -148757.001673 kJ/mol
# GULP energy per Si atom -12396.416806 kJ/mol
# Density = 2.177688 g / cm^3
# Si number density = 21.826559 Si / 1000 Ang^3
#
#
#
# Elastic Constant Matrix: (Units=GPa)
#
#
# Indices 1 2 3 4 5 6 
#
# 1 139.4456 46.7082 59.4398 1.4710 9.8369 33.7390
# 2 46.7082 75.5489 32.0947 17.1469 0.1970 21.1697
# 3 59.4398 32.0947 97.4992 5.3420 5.9466 10.9447
# 4 1.4710 17.1469 5.3420 40.4071 6.2837 -2.1096
# 5 9.8369 0.1970 5.9466 6.2837 50.0950 5.3859
# 6 33.7390 21.1697 10.9447 -2.1096 5.3859 53.0843
#
#
#
# Elastic Compliance Matrix: (Units=1/GPa)
#
#
# Indices 1 2 3 4 5 6 
#
# 1 0.012182 -0.004383 -0.005490 0.002133 -0.001493 -0.004626
# 2 -0.004383 0.020933 -0.003279 -0.009029 0.002896 -0.005539
# 3 -0.005490 -0.003279 0.014528 -0.000103 -0.000823 0.001881
# 4 0.002133 -0.009029 -0.000103 0.029415 -0.004479 0.003890
# 5 -0.001493 0.002896 -0.000823 -0.004479 0.021157 -0.002361
# 6 -0.004626 -0.005539 0.001881 0.003890 -0.002361 0.023993
#
#
# Mechanical properties :
#
#
# Convention : Reuss Voigt Hill
#
# Bulk Modulus (GPa) = 46.86387 65.44213 56.15300
# Shear Modulus (GPa) = 32.12849 40.33401 36.23125
#
# Velocity S-wave (km/s) = 3.84082 4.30342 4.07868
# Velocity P-wave (km/s) = 6.41769 7.39868 6.92558
#
# Compressibility (1/GPa) = 0.02133840
#
# Stress axis : x y z
#
# Youngs Moduli (GPa) = 82.08974 47.77157 68.83453
#
# Poissons Ratio (x) = 0.20938 0.37792
# Poissons Ratio (y) = 0.35979 0.22570
# Poissons Ratio (z) = 0.45069 0.15663
#
# Static dielectric constant tensor:
#      x y z
#    x 4.291950 -0.029780 -0.021340 
#    y -0.029780 4.640070 0.769400 
#    z -0.021340 0.769400 4.260480 
# 
# 
# High freq. dielectric constant tensor:
#      x y z
#    x 1.861020 0.006560 0.006780 
#    y 0.006560 1.863670 0.023390 
#    z 0.006780 0.023390 1.865950 
# 
# From -- ./inp_files/156434.got.cif
#   From: 2010.06.25/outbox.cif.g09.slc.cpg/sg2_79_cif.got.tgz:156434.got - 2010.06.27 13:26:56.
