data_PCOD8025244
_publ_section_title
;
Structure prediction by ZEFSAII (Michael W. Deem and Ramdas Pophale) SiO2 
 PCOD8025244
Probable space group: P -1
;
_chemical_formula_sum "Si O2"
_cell_formula_units_Z 16
_cell_length_a 8.790047
_cell_length_b 8.897907
_cell_length_c 11.871977
_cell_angle_alpha 86.788002
_cell_angle_beta 127.009069
_cell_angle_gamma 106.699074
_cell_volume 701.859846
_symmetry_space_group_name_H-M "P -1"
_symmetry_group_IT_number 2
_symmetry_cell_setting 'triclinic'
loop_
_space_group_symop_operation_xyz
x,y,z
-x,-y,-z
loop_
_atom_site_type_symbol
_atom_site_label
_atom_site_fract_x
_atom_site_fract_y
_atom_site_fract_z
Si Si1 0.957611 0.353881 0.070093
Si Si2 0.031139 0.129197 0.415520
Si Si3 0.642203 0.182916 0.546372
Si Si4 0.407257 0.910154 0.848058
Si Si5 0.961568 0.640927 0.414208
Si Si6 0.333459 0.571189 0.879918
Si Si7 0.719791 0.092690 0.813737
Si Si8 0.257991 0.196599 0.297357
O O1 0.801554 0.380222 0.088821
O O2 0.160339 0.334677 0.217508
O O3 0.868193 0.189047 0.971357
O O4 0.000000 0.500000 0.000000
O O5 0.127640 0.286930 0.525100
O O6 0.181554 0.114910 0.386878
O O7 0.829412 0.121525 0.258623
O O8 0.000000 0.000000 0.500000
O O9 0.711127 0.218904 0.706098
O O10 0.499176 0.276149 0.423202
O O11 0.839988 0.227556 0.554170
O O12 0.500000 0.000000 0.500000
O O13 0.444239 0.738326 0.859704
O O14 0.501946 0.014010 0.776753
O O15 0.500000 0.000000 0.000000
O O16 0.800624 0.572475 0.248820
O O17 0.000000 0.500000 0.500000
O O18 0.500000 0.500000 0.000000
O O19 0.795410 0.948717 0.809388
#
# Coordination Sequence:
#
# PCOD8025244 Si02
#       8
#     2   2   2   2   2   2   2   2
#     4  12  26  46  66 104 145 187 241 298 366 436
#     4  12  24  42  73 110 144 187 245 298 367 437
#     4  10  23  44  71 107 142 189 241 291 363 439
#     4  12  24  47  73 105 146 189 252 302 358 445
#     4  12  25  48  74 104 150 192 247 306 359 434
#     4  12  29  49  71 105 146 195 246 306 373 428
#     4  11  23  44  73 102 142 193 238 298 358 441
#     4  11  23  44  71 107 142 186 239 293 362 434
#
# _framework density 22.796574
#
# number of rings (size 3 to 8) (size 9 to 14) (size 15 to 20)
#    0.000    0.500    3.750    4.875    3.500    1.000 
#    4.500    4.375    0.000    0.000    0.000    0.000 
#    0.000    0.000    0.000    0.000    0.000    0.000 
#
# Total GULP energy -198250.939343 kJ/mol
# GULP energy per Si atom -12390.683709 kJ/mol
# Density = 2.274469 g / cm^3
# Si number density = 22.796574 Si / 1000 Ang^3
#
#
#
# Elastic Constant Matrix: (Units=GPa)
#
#
# Indices 1 2 3 4 5 6 
#
# 1 87.7250 13.2297 40.1427 12.8946 -7.2738 -9.1887
# 2 13.2297 81.3303 30.8470 3.0966 4.2775 -4.4379
# 3 40.1427 30.8470 133.1511 6.8477 8.0247 -16.2155
# 4 12.8946 3.0966 6.8477 49.1482 -9.9899 -2.0572
# 5 -7.2738 4.2775 8.0247 -9.9899 45.6183 -5.0522
# 6 -9.1887 -4.4379 -16.2155 -2.0572 -5.0522 43.7402
#
#
#
# Elastic Compliance Matrix: (Units=1/GPa)
#
#
# Indices 1 2 3 4 5 6 
#
# 1 0.014049 -0.000764 -0.003892 -0.002493 0.002630 0.001618
# 2 -0.000764 0.013563 -0.002824 -0.000461 -0.000994 0.000032
# 3 -0.003892 -0.002824 0.009753 -0.000455 -0.001920 0.002268
# 4 -0.002493 -0.000461 -0.000455 0.022074 0.004652 0.000836
# 5 0.002630 -0.000994 -0.001920 0.004652 0.024094 0.002742
# 6 0.001618 0.000032 0.002268 0.000836 0.002742 0.024402
#
#
# Mechanical properties :
#
#
# Convention : Reuss Voigt Hill
#
# Bulk Modulus (GPa) = 44.63350 52.29392 48.46371
# Shear Modulus (GPa) = 38.35424 42.23383 40.29403
#
# Velocity S-wave (km/s) = 4.10623 4.30890 4.20878
# Velocity P-wave (km/s) = 6.48868 6.90975 6.70252
#
# Compressibility (1/GPa) = 0.02240470
#
# Stress axis : x y z
#
# Youngs Moduli (GPa) = 71.17755 73.73223 102.53049
#
# Poissons Ratio (x) = 0.05636 0.39903
# Poissons Ratio (y) = 0.05441 0.28955
# Poissons Ratio (z) = 0.27701 0.20822
#
# Static dielectric constant tensor:
#      x y z
#    x 5.091360 -0.946970 0.548860 
#    y -0.946970 5.142470 -0.901960 
#    z 0.548860 -0.901960 5.052070 
# 
# 
# High freq. dielectric constant tensor:
#      x y z
#    x 1.901810 0.000600 -0.010890 
#    y 0.000600 1.896080 -0.007120 
#    z -0.010890 -0.007120 1.920270 
# 
# From -- ./inp_files/379320.got.cif
#   From: 2010.06.25/outbox.cif.g09.slc.cpg/sg2_190_cif.got.tgz:379320.got - 2010.06.27 13:26:56.
