data_PCOD8025298
_publ_section_title
;
Structure prediction by ZEFSAII (Michael W. Deem and Ramdas Pophale) SiO2 
 PCOD8025298
Probable space group: P -1
;
_chemical_formula_sum "Si O2"
_cell_formula_units_Z 16
_cell_length_a 16.050789
_cell_length_b 8.250407
_cell_length_c 9.614352
_cell_angle_alpha 81.898532
_cell_angle_beta 37.058652
_cell_angle_gamma 71.853946
_cell_volume 716.115451
_symmetry_space_group_name_H-M "P -1"
_symmetry_group_IT_number 2
_symmetry_cell_setting 'triclinic'
loop_
_space_group_symop_operation_xyz
x,y,z
-x,-y,-z
loop_
_atom_site_type_symbol
_atom_site_label
_atom_site_fract_x
_atom_site_fract_y
_atom_site_fract_z
Si Si1 0.260360 0.397072 0.473560
Si Si2 0.058945 0.941393 0.189018
Si Si3 0.922109 0.679036 0.505621
Si Si4 0.744939 0.884037 0.955562
Si Si5 0.324218 0.721905 0.687010
Si Si6 0.759218 0.221949 0.512001
Si Si7 0.457278 0.860864 0.985230
Si Si8 0.356148 0.336263 0.660562
O O1 0.132736 0.344531 0.574163
O O2 0.206091 0.604357 0.519931
O O3 0.410005 0.316212 0.196943
O O4 0.285969 0.324886 0.605299
O O5 0.035084 0.784427 0.326713
O O6 0.114984 0.060560 0.201996
O O7 0.179709 0.866660 0.918339
O O8 0.907734 0.062187 0.307913
O O9 0.781954 0.779631 0.773901
O O10 0.000000 0.500000 0.500000
O O11 0.711334 0.770160 0.134923
O O12 0.603289 0.053354 0.094082
O O13 0.338945 0.751775 0.499366
O O14 0.310987 0.532844 0.753601
O O15 0.466589 0.741693 0.570699
O O16 0.671577 0.184485 0.761700
O O17 0.500000 0.000000 0.000000
#
# Coordination Sequence:
#
# PCOD8025298 Si02
#       8
#     2   2   2   2   2   2   2   2
#     4  11  25  45  70 100 136 185 227 286 343 403
#     4  12  25  44  67 102 138 183 229 279 349 411
#     4  12  26  45  70  99 140 183 227 280 347 414
#     4  12  25  43  71 100 140 178 229 287 337 410
#     4  10  23  44  72  99 141 184 228 280 343 407
#     4  11  24  43  68 102 142 175 233 283 341 413
#     4  12  23  42  67 102 136 177 230 287 340 399
#     4  10  24  47  69 105 137 180 234 283 338 407
#
# _framework density 22.342768
#
# number of rings (size 3 to 8) (size 9 to 14) (size 15 to 20)
#    0.000    0.750    2.500    4.125    1.750    5.000 
#    4.500    3.125    0.000    0.000    0.000    0.000 
#    0.000    0.000    0.000    0.000    0.000    0.000 
#
# Total GULP energy -198474.099703 kJ/mol
# GULP energy per Si atom -12404.631231 kJ/mol
# Density = 2.229191 g / cm^3
# Si number density = 22.342768 Si / 1000 Ang^3
#
#
#
# Elastic Constant Matrix: (Units=GPa)
#
#
# Indices 1 2 3 4 5 6 
#
# 1 132.2467 49.1636 35.1768 -25.1001 4.9706 -3.6103
# 2 49.1636 117.7108 40.2862 -17.0498 3.1269 -6.8204
# 3 35.1768 40.2862 82.6650 -8.4179 9.1400 7.8314
# 4 -25.1001 -17.0498 -8.4179 49.0528 -1.5807 -1.3592
# 5 4.9706 3.1269 9.1400 -1.5807 30.5911 2.3127
# 6 -3.6103 -6.8204 7.8314 -1.3592 2.3127 30.4118
#
#
#
# Elastic Compliance Matrix: (Units=1/GPa)
#
#
# Indices 1 2 3 4 5 6 
#
# 1 0.010030 -0.002618 -0.002696 0.003786 -0.000474 0.001503
# 2 -0.002618 0.011716 -0.004784 0.002027 0.000490 0.003602
# 3 -0.002696 -0.004784 0.016434 -0.000487 -0.003602 -0.005373
# 4 0.003786 0.002027 -0.000487 0.023012 0.000359 0.002031
# 5 -0.000474 0.000490 -0.003602 0.000359 0.033931 -0.001583
# 6 0.001503 0.003602 -0.005373 0.002031 -0.001583 0.035463
#
#
# Mechanical properties :
#
#
# Convention : Reuss Voigt Hill
#
# Bulk Modulus (GPa) = 55.61440 64.65286 60.13363
# Shear Modulus (GPa) = 31.89258 35.87751 33.88504
#
# Velocity S-wave (km/s) = 3.78222 4.01156 3.89858
# Velocity P-wave (km/s) = 6.63469 7.10327 6.87298
#
# Compressibility (1/GPa) = 0.01798095
#
# Stress axis : x y z
#
# Youngs Moduli (GPa) = 99.70538 85.35598 60.85043
#
# Poissons Ratio (x) = 0.22347 0.16408
# Poissons Ratio (y) = 0.26104 0.29114
# Poissons Ratio (z) = 0.26885 0.40838
#
# Static dielectric constant tensor:
#      x y z
#    x 4.351760 -0.367360 0.293330 
#    y -0.367360 4.691760 -0.270080 
#    z 0.293330 -0.270080 4.189820 
# 
# 
# High freq. dielectric constant tensor:
#      x y z
#    x 1.890550 -0.003180 0.001480 
#    y -0.003180 1.894650 0.006840 
#    z 0.001480 0.006840 1.873240 
# 
# From -- ./inp_files/262924.got.cif
#   From: 2010.06.25/outbox.cif.g09.slc.cpg/sg2_132_cif.got.tgz:262924.got - 2010.06.27 13:26:56.
