data_PCOD8025944
_publ_section_title
;
Structure prediction by ZEFSAII (Michael W. Deem and Ramdas Pophale) SiO2 
 PCOD8025944
Probable space group: P -1
;
_chemical_formula_sum "Si O2"
_cell_formula_units_Z 16
_cell_length_a 7.721303
_cell_length_b 7.077002
_cell_length_c 15.713901
_cell_angle_alpha 116.787817
_cell_angle_beta 91.339623
_cell_angle_gamma 99.774058
_cell_volume 750.503458
_symmetry_space_group_name_H-M "P -1"
_symmetry_group_IT_number 2
_symmetry_cell_setting 'triclinic'
loop_
_space_group_symop_operation_xyz
x,y,z
-x,-y,-z
loop_
_atom_site_type_symbol
_atom_site_label
_atom_site_fract_x
_atom_site_fract_y
_atom_site_fract_z
Si Si1 0.994154 0.211796 0.094664
Si Si2 0.322659 0.504246 0.450467
Si Si3 0.123239 0.045514 0.796651
Si Si4 0.598036 0.233254 0.655418
Si Si5 0.358007 0.511472 0.126032
Si Si6 0.720445 0.467786 0.059538
Si Si7 0.755085 0.072026 0.395374
Si Si8 0.885946 0.974783 0.633710
O O1 0.194021 0.344022 0.129464
O O2 0.863507 0.349434 0.078609
O O3 0.922044 0.143697 0.173241
O O4 0.000000 0.000000 0.000000
O O5 0.500000 0.500000 0.500000
O O6 0.366919 0.560211 0.363350
O O7 0.231214 0.679661 0.530608
O O8 0.193716 0.276117 0.406570
O O9 0.212161 0.273158 0.885850
O O10 0.255247 0.960853 0.714336
O O11 0.945088 0.072011 0.748577
O O12 0.590288 0.295960 0.766625
O O13 0.414916 0.077759 0.594050
O O14 0.753538 0.102835 0.613614
O O15 0.531125 0.404335 0.092681
O O16 0.304649 0.603870 0.053953
O O17 0.934682 0.000835 0.416160
#
# Coordination Sequence:
#
# PCOD8025944 Si02
#       8
#     2   2   2   2   2   2   2   2
#     4  12  25  41  66  98 134 176 218 272 324 381
#     4  12  25  45  68 102 131 170 223 272 335 398
#     4  10  23  47  63 100 135 173 221 268 327 384
#     4  12  24  45  70  97 131 176 221 270 334 385
#     4  11  24  44  70  97 132 181 219 270 325 389
#     4  11  24  45  66  98 138 175 223 265 326 391
#     4  10  24  46  67  96 136 170 218 279 322 394
#     4  10  24  44  68  95 133 173 217 270 328 391
#
# _framework density 21.319023999999999
#
# number of rings (size 3 to 8) (size 9 to 14) (size 15 to 20)
#    0.750    0.250    3.750    2.625    1.750    2.000 
#    4.500    0.000    0.000    0.000    0.000    0.000 
#    0.000    0.000    0.000    0.000    0.000    0.000 
#
# Total GULP energy -198352.695758 kJ/mol
# GULP energy per Si atom -12397.043485 kJ/mol
# Density = 2.127050 g / cm^3
# Si number density = 21.319024 Si / 1000 Ang^3
#
#
#
# Elastic Constant Matrix: (Units=GPa)
#
#
# Indices 1 2 3 4 5 6 
#
# 1 153.3251 51.8061 33.4316 -7.9051 1.9766 7.8690
# 2 51.8061 83.6295 22.9299 -5.8341 5.5458 -2.4293
# 3 33.4316 22.9299 78.4172 0.3272 0.0351 -9.0805
# 4 -7.9051 -5.8341 0.3272 23.3368 1.6363 3.9093
# 5 1.9766 5.5458 0.0351 1.6363 33.6564 5.4499
# 6 7.8690 -2.4293 -9.0805 3.9093 5.4499 25.1675
#
#
#
# Elastic Compliance Matrix: (Units=1/GPa)
#
#
# Indices 1 2 3 4 5 6 
#
# 1 0.009248 -0.004896 -0.003116 0.002743 0.000963 -0.005123
# 2 -0.004896 0.016040 -0.002318 0.002162 -0.002868 0.002528
# 3 -0.003116 -0.002318 0.015573 -0.002984 -0.000428 0.006925
# 4 0.002743 0.002162 -0.002984 0.045891 -0.001359 -0.008560
# 5 0.000963 -0.002868 -0.000428 -0.001359 0.031379 -0.007316
# 6 -0.005123 0.002528 0.006925 -0.008560 -0.007316 0.046992
#
#
# Mechanical properties :
#
#
# Convention : Reuss Voigt Hill
#
# Bulk Modulus (GPa) = 49.50186 59.07857 54.29022
# Shear Modulus (GPa) = 25.97172 30.24575 28.10874
#
# Velocity S-wave (km/s) = 3.49412 3.77068 3.63503
# Velocity P-wave (km/s) = 6.28876 6.83587 6.56801
#
# Compressibility (1/GPa) = 0.02020126
#
# Stress axis : x y z
#
# Youngs Moduli (GPa) = 108.13625 62.34354 64.21265
#
# Poissons Ratio (x) = 0.30521 0.20009
# Poissons Ratio (y) = 0.52939 0.14886
# Poissons Ratio (z) = 0.33697 0.14453
#
# Static dielectric constant tensor:
#      x y z
#    x 4.089040 0.263580 0.035330 
#    y 0.263580 4.099390 0.077130 
#    z 0.035330 0.077130 3.868290 
# 
# 
# High freq. dielectric constant tensor:
#      x y z
#    x 1.851140 0.012240 0.003890 
#    y 0.012240 1.818140 0.001520 
#    z 0.003890 0.001520 1.851110 
# 
# From -- ./inp_files/488673.got.cif
#   From: 2010.06.25/outbox.cif.g09.slc.cpg/sg2_245_cif.got.tgz:488673.got - 2010.06.27 13:26:56.
