data_PCOD8025187
_publ_section_title
;
Structure prediction by ZEFSAII (Michael W. Deem and Ramdas Pophale) SiO2 
 PCOD8025187
Probable space group: P -1
;
_chemical_formula_sum "Si O2"
_cell_formula_units_Z 12
_cell_length_a 10.010032
_cell_length_b 6.877892
_cell_length_c 7.586826
_cell_angle_alpha 117.958134
_cell_angle_beta 104.553590
_cell_angle_gamma 95.996921
_cell_volume 431.213403
_symmetry_space_group_name_H-M "P -1"
_symmetry_group_IT_number 2
_symmetry_cell_setting 'triclinic'
loop_
_space_group_symop_operation_xyz
x,y,z
-x,-y,-z
loop_
_atom_site_type_symbol
_atom_site_label
_atom_site_fract_x
_atom_site_fract_y
_atom_site_fract_z
Si Si1 0.731407 0.297269 0.430719
Si Si2 0.133739 0.401690 0.955231
Si Si3 0.449672 0.188839 0.457618
Si Si4 0.807238 0.880029 0.459146
Si Si5 0.254897 0.837128 0.000434
Si Si6 0.074981 0.246064 0.229753
O O1 0.592945 0.364573 0.501983
O O2 0.679054 0.190519 0.179316
O O3 0.870253 0.511071 0.547861
O O4 0.783927 0.117955 0.491748
O O5 0.169753 0.278651 0.092697
O O6 0.112098 0.229993 0.708007
O O7 0.260847 0.622686 0.037138
O O8 0.000000 0.500000 0.000000
O O9 0.347573 0.289856 0.599693
O O10 0.500000 0.000000 0.500000
O O11 0.346387 0.070372 0.212930
O O12 0.901026 0.937843 0.695975
O O13 0.089712 0.840974 0.914851
#
# Coordination Sequence:
#
# PCOD8025187 Si02
#       6
#     2   2   2   2   2   2
#     4  11  24  47  76 104 150 191 239 297 354 433
#     4  10  23  44  70 106 145 188 235 297 359 425
#     4  10  24  47  69 105 149 191 241 294 351 434
#     4  11  25  46  74 109 143 195 239 291 367 428
#     4  11  23  47  74 105 148 189 236 307 358 416
#     4  11  25  48  73 107 150 183 241 306 356 423
#
# _framework density 27.828446
#
# number of rings (size 3 to 8) (size 9 to 14) (size 15 to 20)
#    0.000    1.333    1.667    3.000    4.667    2.000 
#    3.000    4.167    0.000    0.000    0.000    0.000 
#    0.000    0.000    0.000    0.000    0.000    0.000 
#
# Total GULP energy -148656.879751 kJ/mol
# GULP energy per Si atom -12388.073313 kJ/mol
# Density = 2.776511 g / cm^3
# Si number density = 27.828446 Si / 1000 Ang^3
#
#
#
# Elastic Constant Matrix: (Units=GPa)
#
#
# Indices 1 2 3 4 5 6 
#
# 1 156.8793 32.1099 48.5606 -16.9058 -13.0756 8.6957
# 2 32.1099 89.8974 40.4976 -21.5686 1.4761 16.2253
# 3 48.5606 40.4976 156.3869 -18.4849 -8.2399 -3.3591
# 4 -16.9058 -21.5686 -18.4849 45.9757 18.4116 -2.9079
# 5 -13.0756 1.4761 -8.2399 18.4116 45.3661 5.0238
# 6 8.6957 16.2253 -3.3591 -2.9079 5.0238 30.2975
#
#
#
# Elastic Compliance Matrix: (Units=1/GPa)
#
#
# Indices 1 2 3 4 5 6 
#
# 1 0.007558 -0.001442 -0.001857 0.000476 0.001902 -0.001873
# 2 -0.001442 0.016080 -0.003274 0.006589 -0.003392 -0.007366
# 3 -0.001857 -0.003274 0.008034 0.001132 0.000211 0.003251
# 4 0.000476 0.006589 0.001132 0.030541 -0.012427 0.001452
# 5 0.001902 -0.003392 0.000211 -0.012427 0.028292 -0.004590
# 6 -0.001873 -0.007366 0.003251 0.001452 -0.004590 0.038749
#
#
# Mechanical properties :
#
#
# Convention : Reuss Voigt Hill
#
# Bulk Modulus (GPa) = 53.98244 71.72219 62.85232
# Shear Modulus (GPa) = 33.65311 43.12757 38.39034
#
# Velocity S-wave (km/s) = 3.48128 3.94098 3.71824
# Velocity P-wave (km/s) = 5.96653 6.82183 6.40846
#
# Compressibility (1/GPa) = 0.01852454
#
# Stress axis : x y z
#
# Youngs Moduli (GPa) = 132.31037 62.18921 124.47464
#
# Poissons Ratio (x) = 0.08968 0.23118
# Poissons Ratio (y) = 0.19080 0.40757
# Poissons Ratio (z) = 0.24573 0.20363
#
# Static dielectric constant tensor:
#      x y z
#    x 5.570340 0.334880 -0.216980 
#    y 0.334880 5.983990 -0.581010 
#    z -0.216980 -0.581010 5.135020 
# 
# 
# High freq. dielectric constant tensor:
#      x y z
#    x 2.115180 0.009440 -0.010580 
#    y 0.009440 2.149240 -0.024850 
#    z -0.010580 -0.024850 2.121820 
# 
# From -- ./inp_files/235998.got.cif
#   From: 2010.06.25/outbox.cif.g09.slc.cpg/sg2_118_cif.got.tgz:235998.got - 2010.06.27 13:26:56.
