data_PCOD8025095
_publ_section_title
;
Structure prediction by ZEFSAII (Michael W. Deem and Ramdas Pophale) SiO2 
 PCOD8025095
Probable space group: P -1
;
_chemical_formula_sum "Si O2"
_cell_formula_units_Z 14
_cell_length_a 5.533533
_cell_length_b 11.927319
_cell_length_c 12.864861
_cell_angle_alpha 48.581903
_cell_angle_beta 97.147571
_cell_angle_gamma 111.943025
_cell_volume 581.327797
_symmetry_space_group_name_H-M "P -1"
_symmetry_group_IT_number 2
_symmetry_cell_setting 'triclinic'
loop_
_space_group_symop_operation_xyz
x,y,z
-x,-y,-z
loop_
_atom_site_type_symbol
_atom_site_label
_atom_site_fract_x
_atom_site_fract_y
_atom_site_fract_z
Si Si1 0.344680 0.757319 0.218708
Si Si2 0.919805 0.126374 0.148092
Si Si3 0.315375 0.374684 0.148704
Si Si4 0.350731 0.226206 0.574963
Si Si5 0.646689 0.913806 0.948149
Si Si6 0.573203 0.188484 0.395178
Si Si7 0.132343 0.429495 0.313194
O O1 0.454960 0.704359 0.360122
O O2 0.123244 0.597802 0.251084
O O3 0.217024 0.888644 0.156619
O O4 0.601268 0.837863 0.107755
O O5 0.649259 0.132486 0.086063
O O6 0.028092 0.278366 0.139900
O O7 0.154788 0.148482 0.063629
O O8 0.860839 0.956500 0.306944
O O9 0.411448 0.230661 0.269821
O O10 0.327877 0.472253 0.197205
O O11 0.500000 0.500000 0.000000
O O12 0.524684 0.232228 0.481229
O O13 0.205276 0.346429 0.467847
O O14 0.876133 0.300935 0.322977
O O15 0.500000 0.000000 0.500000
#
# Coordination Sequence:
#
# PCOD8025095 Si02
#       7
#     2   2   2   2   2   2   2
#     4  10  23  44  68  99 140 179 235 285 355 416
#     4  11  24  45  74 100 142 182 243 282 361 411
#     4  11  26  43  70 102 139 183 232 299 357 420
#     4  10  24  43  67  98 131 189 228 287 351 419
#     4  10  25  45  70 107 135 188 230 299 341 429
#     4  11  25  44  68 101 137 180 240 287 351 425
#     4  11  24  44  66 101 138 180 232 294 349 422
#
# _framework density 24.082801
#
# number of rings (size 3 to 8) (size 9 to 14) (size 15 to 20)
#    0.000    1.429    0.000    3.000   12.000    8.571 
#   10.286    0.000    0.000    0.000    0.000    0.000 
#    0.000    0.000    0.000    0.000    0.000    0.000 
#
# Total GULP energy -173530.403187 kJ/mol
# GULP energy per Si atom -12395.028799 kJ/mol
# Density = 2.402799 g / cm^3
# Si number density = 24.082801 Si / 1000 Ang^3
#
#
#
# Elastic Constant Matrix: (Units=GPa)
#
#
# Indices 1 2 3 4 5 6 
#
# 1 81.3123 19.7857 22.2978 4.9887 4.4081 6.4358
# 2 19.7857 141.0207 31.1184 -12.7365 10.7350 22.3712
# 3 22.2978 31.1184 120.3979 16.2791 -5.2893 5.4494
# 4 4.9887 -12.7365 16.2791 33.9355 0.4609 -7.3575
# 5 4.4081 10.7350 -5.2893 0.4609 25.5383 -3.2998
# 6 6.4358 22.3712 5.4494 -7.3575 -3.2998 27.8418
#
#
#
# Elastic Compliance Matrix: (Units=1/GPa)
#
#
# Indices 1 2 3 4 5 6 
#
# 1 0.013571 -0.001005 -0.001975 -0.001992 -0.002653 -0.002784
# 2 -0.001005 0.009632 -0.002742 0.003714 -0.005366 -0.006625
# 3 -0.001975 -0.002742 0.010356 -0.005861 0.003682 -0.000480
# 4 -0.001992 0.003714 -0.005861 0.035687 -0.002066 0.007809
# 5 -0.002653 -0.005366 0.003682 -0.002066 0.043814 0.008851
# 6 -0.002784 -0.006625 -0.000480 0.007809 0.008851 0.045091
#
#
# Mechanical properties :
#
#
# Convention : Reuss Voigt Hill
#
# Bulk Modulus (GPa) = 45.21455 54.34831 49.78143
# Shear Modulus (GPa) = 28.25426 35.43173 31.84299
#
# Velocity S-wave (km/s) = 3.42894 3.83984 3.64019
# Velocity P-wave (km/s) = 5.87300 6.50196 6.19547
#
# Compressibility (1/GPa) = 0.02211678
#
# Stress axis : x y z
#
# Youngs Moduli (GPa) = 73.68840 103.82022 96.56222
#
# Poissons Ratio (x) = 0.10429 0.19069
# Poissons Ratio (y) = 0.07402 0.26474
# Poissons Ratio (z) = 0.14552 0.28463
#
# Static dielectric constant tensor:
#      x y z
#    x 4.049790 0.042050 -0.151850 
#    y 0.042050 4.380990 0.294580 
#    z -0.151850 0.294580 4.109170 
# 
# 
# High freq. dielectric constant tensor:
#      x y z
#    x 1.932020 0.001750 -0.004830 
#    y 0.001750 1.966220 0.007420 
#    z -0.004830 0.007420 1.974740 
# 
# From -- ./inp_files/363727.got.cif
#   From: 2010.06.25/outbox.cif.g09.slc.cpg/sg2_182_cif.got.tgz:363727.got - 2010.06.27 13:26:56.
