data_PCOD8025058
_publ_section_title
;
Structure prediction by ZEFSAII (Michael W. Deem and Ramdas Pophale) SiO2 
 PCOD8025058
Probable space group: P -1
;
_chemical_formula_sum "Si O2"
_cell_formula_units_Z 14
_cell_length_a 21.535905
_cell_length_b 20.713208
_cell_length_c 9.449295
_cell_angle_alpha 30.221976
_cell_angle_beta 151.180141
_cell_angle_gamma 160.758382
_cell_volume 651.327608
_symmetry_space_group_name_H-M "P -1"
_symmetry_group_IT_number 2
_symmetry_cell_setting 'triclinic'
loop_
_space_group_symop_operation_xyz
x,y,z
-x,-y,-z
loop_
_atom_site_type_symbol
_atom_site_label
_atom_site_fract_x
_atom_site_fract_y
_atom_site_fract_z
Si Si1 0.257621 0.509154 0.371064
Si Si2 0.316934 0.510678 0.054538
Si Si3 0.092873 0.945172 0.360068
Si Si4 0.394873 0.844591 0.460882
Si Si5 0.022506 0.409040 0.838425
Si Si6 0.544873 0.907111 0.347648
Si Si7 0.604271 0.684953 0.546548
O O1 0.360593 0.667570 0.403101
O O2 0.426360 0.544973 0.572614
O O3 0.080610 0.285855 0.502753
O O4 0.179699 0.550288 0.016106
O O5 0.520491 0.660722 0.271517
O O6 0.303685 0.386970 0.148259
O O7 0.325799 0.649188 0.727249
O O8 0.112966 0.353209 0.043211
O O9 0.238512 0.986759 0.459287
O O10 0.220878 0.083322 0.493192
O O11 0.000000 0.000000 0.000000
O O12 0.191975 0.774004 0.164378
O O13 0.545377 0.950933 0.428525
O O14 0.500000 0.000000 0.500000
O O15 0.000000 0.500000 0.500000
O O16 0.500000 0.000000 0.000000
#
# Coordination Sequence:
#
# PCOD8025058 Si02
#       7
#     2   2   2   2   2   2   2
#     4  10  23  44  68  94 135 173 219 280 334 390
#     4   9  20  41  64  91 127 172 212 273 325 393
#     4  11  26  42  68  98 134 174 226 273 328 404
#     4  11  25  38  65  95 131 167 219 272 333 389
#     4   9  20  39  64  93 127 170 215 272 327 393
#     4  11  27  45  69  98 134 178 223 275 338 401
#     4   9  21  42  67  92 130 168 219 267 332 388
#
# _framework density 21.494558999999999
#
# number of rings (size 3 to 8) (size 9 to 14) (size 15 to 20)
#    0.000    2.000    0.000    0.857   14.000    4.571 
#    0.000    2.143    0.000    0.000    0.000    0.000 
#    0.000    0.000    0.000    0.000    0.000    0.000 
#
# Total GULP energy -173473.544810 kJ/mol
# GULP energy per Si atom -12390.967486 kJ/mol
# Density = 2.144564 g / cm^3
# Si number density = 21.494559 Si / 1000 Ang^3
#
#
#
# Elastic Constant Matrix: (Units=GPa)
#
#
# Indices 1 2 3 4 5 6 
#
# 1 170.1665 64.2613 44.6702 2.0027 16.3921 3.8858
# 2 64.2613 124.0959 30.7184 -5.8830 11.3709 9.6930
# 3 44.6702 30.7184 91.4897 2.2165 13.7148 11.7851
# 4 2.0027 -5.8830 2.2165 30.4712 5.6382 2.3646
# 5 16.3921 11.3709 13.7148 5.6382 37.0601 6.1806
# 6 3.8858 9.6930 11.7851 2.3646 6.1806 30.2583
#
#
#
# Elastic Compliance Matrix: (Units=1/GPa)
#
#
# Indices 1 2 3 4 5 6 
#
# 1 0.008036 -0.003509 -0.002680 -0.000831 -0.001615 0.001531
# 2 -0.003509 0.010663 -0.001447 0.002803 -0.001215 -0.002372
# 3 -0.002680 -0.001447 0.013646 -0.000287 -0.002721 -0.003929
# 4 -0.000831 0.002803 -0.000287 0.034588 -0.005264 -0.002307
# 5 -0.001615 -0.001215 -0.002721 -0.005264 0.030575 -0.004177
# 6 0.001531 -0.002372 -0.003929 -0.002307 -0.004177 0.036176
#
#
# Mechanical properties :
#
#
# Convention : Reuss Voigt Hill
#
# Bulk Modulus (GPa) = 58.57590 73.89465 66.23528
# Shear Modulus (GPa) = 32.33199 35.96474 34.14837
#
# Velocity S-wave (km/s) = 3.88260 4.09492 3.99017
# Velocity P-wave (km/s) = 6.88550 7.53729 7.21876
#
# Compressibility (1/GPa) = 0.01707187
#
# Stress axis : x y z
#
# Youngs Moduli (GPa) = 124.44691 93.78265 73.28266
#
# Poissons Ratio (x) = 0.32904 0.19642
# Poissons Ratio (y) = 0.43663 0.10606
# Poissons Ratio (z) = 0.33356 0.13573
#
# Static dielectric constant tensor:
#      x y z
#    x 5.327370 0.291860 0.674940 
#    y 0.291860 3.940540 0.416100 
#    z 0.674940 0.416100 4.127020 
# 
# 
# High freq. dielectric constant tensor:
#      x y z
#    x 1.858580 0.006720 0.009650 
#    y 0.006720 1.832600 0.019550 
#    z 0.009650 0.019550 1.843330 
# 
# From -- ./inp_files/349667.got.cif
#   From: 2010.06.25/outbox.cif.g09.slc.cpg/sg2_175_cif.got.tgz:349667.got - 2010.06.27 13:26:56.
