data_PCOD8025512
_publ_section_title
;
Structure prediction by ZEFSAII (Michael W. Deem and Ramdas Pophale) SiO2 
 PCOD8025512
Probable space group: P -1
;
_chemical_formula_sum "Si O2"
_cell_formula_units_Z 12
_cell_length_a 8.860832
_cell_length_b 14.657662
_cell_length_c 9.094732
_cell_angle_alpha 120.417201
_cell_angle_beta 149.362809
_cell_angle_gamma 66.522601
_cell_volume 517.229970
_symmetry_space_group_name_H-M "P -1"
_symmetry_group_IT_number 2
_symmetry_cell_setting 'triclinic'
loop_
_space_group_symop_operation_xyz
x,y,z
-x,-y,-z
loop_
_atom_site_type_symbol
_atom_site_label
_atom_site_fract_x
_atom_site_fract_y
_atom_site_fract_z
Si Si1 0.592831 0.011519 0.919505
Si Si2 0.224504 0.943980 0.317212
Si Si3 0.051175 0.254379 0.259369
Si Si4 0.447769 0.232518 0.846765
Si Si5 0.118433 0.442370 0.253891
Si Si6 0.674251 0.583852 0.907528
O O1 0.466359 0.118090 0.839947
O O2 0.392092 0.917104 0.588026
O O3 0.500000 0.000000 0.000000
O O4 0.945418 0.014420 0.180417
O O5 0.500000 0.000000 0.500000
O O6 0.075166 0.842090 0.028141
O O7 0.300405 0.218938 0.550321
O O8 0.177021 0.352402 0.346455
O O9 0.776331 0.291265 0.152357
O O10 0.278888 0.306541 0.874126
O O11 0.338552 0.546716 0.553533
O O12 0.146296 0.393983 0.075054
O O13 0.796590 0.488511 0.028908
#
# Coordination Sequence:
#
# PCOD8025512 Si02
#       6
#     2   2   2   2   2   2
#     4  12  28  48  72 106 140 189 241 292 356 417
#     4  12  26  49  73 101 147 189 232 295 352 424
#     4  12  26  43  72 104 136 188 233 284 352 425
#     4  12  26  43  70 104 140 177 237 293 348 411
#     4  10  23  45  69 100 134 183 232 275 361 417
#     4  10  23  45  69  98 141 177 223 297 343 419
#
# _framework density 23.200513000000001
#
# number of rings (size 3 to 8) (size 9 to 14) (size 15 to 20)
#    0.000    0.667    1.667    5.000    2.333    4.000 
#    6.000    0.000    0.000    0.000    0.000    0.000 
#    0.000    0.000    0.000    0.000    0.000    0.000 
#
# Total GULP energy -148716.550205 kJ/mol
# GULP energy per Si atom -12393.045850 kJ/mol
# Density = 2.314771 g / cm^3
# Si number density = 23.200513 Si / 1000 Ang^3
#
#
#
# Elastic Constant Matrix: (Units=GPa)
#
#
# Indices 1 2 3 4 5 6 
#
# 1 120.9553 65.0544 47.0478 -15.0050 -13.1996 -3.8474
# 2 65.0544 90.5043 32.9362 -15.9565 -5.1062 -0.2582
# 3 47.0478 32.9362 116.9482 -20.4810 -11.7022 0.6037
# 4 -15.0050 -15.9565 -20.4810 39.2575 -2.4524 -9.9246
# 5 -13.1996 -5.1062 -11.7022 -2.4524 43.6057 -3.6453
# 6 -3.8474 -0.2582 0.6037 -9.9246 -3.6453 36.5448
#
#
#
# Elastic Compliance Matrix: (Units=1/GPa)
#
#
# Indices 1 2 3 4 5 6 
#
# 1 0.014926 -0.009302 -0.002909 0.001131 0.002892 0.002149
# 2 -0.009302 0.018666 -0.000972 0.003494 -0.000690 0.000049
# 3 -0.002909 -0.000972 0.011035 0.004646 0.002312 0.000997
# 4 0.001131 0.003494 0.004646 0.032393 0.004599 0.009323
# 5 0.002892 -0.000690 0.002312 0.004599 0.024941 0.003998
# 6 0.002149 0.000049 0.000997 0.009323 0.003998 0.030504
#
#
# Mechanical properties :
#
#
# Convention : Reuss Voigt Hill
#
# Bulk Modulus (GPa) = 54.76084 68.72050 61.74067
# Shear Modulus (GPa) = 30.31818 36.10623 33.21221
#
# Velocity S-wave (km/s) = 3.61888 3.94924 3.78766
# Velocity P-wave (km/s) = 6.41219 7.10492 6.76742
#
# Compressibility (1/GPa) = 0.01826123
#
# Stress axis : x y z
#
# Youngs Moduli (GPa) = 66.99798 53.57286 90.62309
#
# Poissons Ratio (x) = 0.49831 0.26360
# Poissons Ratio (y) = 0.62318 0.08813
# Poissons Ratio (z) = 0.19488 0.05210
#
# Static dielectric constant tensor:
#      x y z
#    x 4.410410 -0.299360 -0.109170 
#    y -0.299360 3.948700 -0.122410 
#    z -0.109170 -0.122410 4.821130 
# 
# 
# High freq. dielectric constant tensor:
#      x y z
#    x 1.916400 -0.017890 -0.005660 
#    y -0.017890 1.903970 -0.009920 
#    z -0.005660 -0.009920 1.946520 
# 
# From -- ./inp_files/208861.got.cif
#   From: 2010.06.25/outbox.cif.g09.slc.cpg/sg2_105_cif.got.tgz:208861.got - 2010.06.27 13:26:56.
