data_PCOD8025713
_publ_section_title
;
Structure prediction by ZEFSAII (Michael W. Deem and Ramdas Pophale) SiO2 
 PCOD8025713
Probable space group: P -1
;
_chemical_formula_sum "Si O2"
_cell_formula_units_Z 16
_cell_length_a 9.270297
_cell_length_b 13.606037
_cell_length_c 9.722282
_cell_angle_alpha 106.794634
_cell_angle_beta 108.460451
_cell_angle_gamma 128.648098
_cell_volume 684.879700
_symmetry_space_group_name_H-M "P -1"
_symmetry_group_IT_number 2
_symmetry_cell_setting 'triclinic'
loop_
_space_group_symop_operation_xyz
x,y,z
-x,-y,-z
loop_
_atom_site_type_symbol
_atom_site_label
_atom_site_fract_x
_atom_site_fract_y
_atom_site_fract_z
Si Si1 0.773813 0.357491 0.974313
Si Si2 0.447757 0.574921 0.933669
Si Si3 0.875266 0.696556 0.493065
Si Si4 0.643985 0.019830 0.388865
Si Si5 0.144815 0.174654 0.053942
Si Si6 0.284966 0.991814 0.292418
Si Si7 0.591593 0.713239 0.558260
Si Si8 0.046358 0.447391 0.364499
O O1 0.585858 0.179452 0.772963
O O2 0.632116 0.388593 0.959273
O O3 0.000000 0.500000 0.000000
O O4 0.844514 0.356271 0.147889
O O5 0.223959 0.435209 0.703950
O O6 0.682408 0.750305 0.996902
O O7 0.500000 0.500000 0.000000
O O8 0.666119 0.672315 0.445584
O O9 0.957293 0.673144 0.639179
O O10 0.128111 0.888025 0.602124
O O11 0.754068 0.080980 0.600840
O O12 0.538693 0.078334 0.342785
O O13 0.328792 0.305571 0.285666
O O14 0.000000 0.000000 0.000000
O O15 0.944070 0.155141 0.940698
O O16 0.266169 0.104474 0.348640
O O17 0.311008 0.601654 0.433414
O O18 0.000000 0.500000 0.500000
#
# Coordination Sequence:
#
# PCOD8025713 Si02
#       8
#     2   2   2   2   2   2   2   2
#     4  12  30  48  77 107 146 197 252 305 374 448
#     4  12  28  47  75 110 154 193 249 311 381 444
#     4  12  27  44  72 108 145 192 244 309 374 442
#     4  11  27  46  71 104 145 187 248 298 376 442
#     4  10  23  45  74 105 144 192 247 304 375 436
#     4  10  24  45  72  97 145 189 237 303 368 438
#     4  11  24  43  73 103 144 188 246 299 374 436
#     4  12  24  49  75 103 150 192 248 306 372 440
#
# _framework density 23.361765999999999
#
# number of rings (size 3 to 8) (size 9 to 14) (size 15 to 20)
#    0.000    0.750    2.500    2.625   14.000    2.000 
#    0.000    0.000    0.000    0.000    0.000    0.000 
#    0.000    0.000    0.000    0.000    0.000    0.000 
#
# Total GULP energy -198303.591631 kJ/mol
# GULP energy per Si atom -12393.974477 kJ/mol
# Density = 2.330859 g / cm^3
# Si number density = 23.361766 Si / 1000 Ang^3
#
#
#
# Elastic Constant Matrix: (Units=GPa)
#
#
# Indices 1 2 3 4 5 6 
#
# 1 150.3070 42.0980 18.6538 -3.3349 6.9974 8.9101
# 2 42.0980 124.0085 13.9476 4.0223 4.7275 17.3060
# 3 18.6538 13.9476 100.3500 -10.1033 21.5625 -5.6883
# 4 -3.3349 4.0223 -10.1033 31.6891 -3.7534 7.3626
# 5 6.9974 4.7275 21.5625 -3.7534 38.7255 -1.9682
# 6 8.9101 17.3060 -5.6883 7.3626 -1.9682 42.6938
#
#
#
# Elastic Compliance Matrix: (Units=1/GPa)
#
#
# Indices 1 2 3 4 5 6 
#
# 1 0.007520 -0.002330 -0.000920 0.000950 -0.000517 -0.000935
# 2 -0.002330 0.009495 -0.001098 -0.001071 -0.000401 -0.003342
# 3 -0.000920 -0.001098 0.011944 0.002798 -0.006004 0.001469
# 4 0.000950 -0.001071 0.002798 0.034063 0.001439 -0.005199
# 5 -0.000517 -0.000401 -0.006004 0.001439 0.029477 0.000581
# 6 -0.000935 -0.003342 0.001469 -0.005199 0.000581 0.026092
#
#
# Mechanical properties :
#
#
# Convention : Reuss Voigt Hill
#
# Bulk Modulus (GPa) = 49.35122 58.22933 53.79028
# Shear Modulus (GPa) = 37.30174 42.61941 39.96058
#
# Velocity S-wave (km/s) = 4.00021 4.27584 4.14032
# Velocity P-wave (km/s) = 6.51968 7.02540 6.77726
#
# Compressibility (1/GPa) = 0.02026292
#
# Stress axis : x y z
#
# Youngs Moduli (GPa) = 132.97025 105.31943 83.72470
#
# Poissons Ratio (x) = 0.24540 0.07705
# Poissons Ratio (y) = 0.30983 0.09191
# Poissons Ratio (z) = 0.12237 0.11562
#
# Static dielectric constant tensor:
#      x y z
#    x 4.230500 0.096060 0.306040 
#    y 0.096060 4.070790 -0.125660 
#    z 0.306040 -0.125660 4.649100 
# 
# 
# High freq. dielectric constant tensor:
#      x y z
#    x 1.927710 0.003220 0.019150 
#    y 0.003220 1.923170 -0.008610 
#    z 0.019150 -0.008610 1.930600 
# 
# From -- ./inp_files/207939.got.cif
#   From: 2010.06.25/outbox.cif.g09.slc.cpg/sg2_104_cif.got.tgz:207939.got - 2010.06.27 13:26:56.
