data_PCOD8025961
_publ_section_title
;
Structure prediction by ZEFSAII (Michael W. Deem and Ramdas Pophale) SiO2 
 PCOD8025961
Probable space group: P -1
;
_chemical_formula_sum "Si O2"
_cell_formula_units_Z 16
_cell_length_a 29.329760
_cell_length_b 15.759039
_cell_length_c 9.438864
_cell_angle_alpha 139.210364
_cell_angle_beta 144.044432
_cell_angle_gamma 15.790360
_cell_volume 690.534131
_symmetry_space_group_name_H-M "P -1"
_symmetry_group_IT_number 2
_symmetry_cell_setting 'triclinic'
loop_
_space_group_symop_operation_xyz
x,y,z
-x,-y,-z
loop_
_atom_site_type_symbol
_atom_site_label
_atom_site_fract_x
_atom_site_fract_y
_atom_site_fract_z
Si Si1 0.062530 0.778390 0.784474
Si Si2 0.621782 0.672053 0.538870
Si Si3 0.226500 0.958517 0.765825
Si Si4 0.770098 0.838789 0.185788
Si Si5 0.608560 0.718792 0.240742
Si Si6 0.933144 0.326607 0.046735
Si Si7 0.312408 0.840800 0.389494
Si Si8 0.412567 0.742901 0.222189
O O1 0.234706 0.542595 0.814932
O O2 0.118413 0.589757 0.809142
O O3 0.898877 0.970026 0.514224
O O4 0.000000 0.000000 0.000000
O O5 0.682662 0.583028 0.414988
O O6 0.519684 0.695390 0.352934
O O7 0.475830 0.007932 0.636863
O O8 0.815593 0.389564 0.757916
O O9 0.445738 0.593925 0.823547
O O10 0.168295 0.183928 0.833186
O O11 0.227629 0.979222 0.965370
O O12 0.886724 0.531028 0.108858
O O13 0.805586 0.886282 0.459585
O O14 0.548750 0.147387 0.018292
O O15 0.158889 0.958856 0.126221
O O16 0.500000 0.500000 0.500000
O O17 0.347555 0.876120 0.384867
#
# Coordination Sequence:
#
# PCOD8025961 Si02
#       8
#     2   2   2   2   2   2   2   2
#     4  12  27  45  67 104 142 183 234 294 348 413
#     4  10  23  47  67 103 140 181 238 283 350 418
#     4  11  24  45  66  98 139 180 234 289 341 421
#     4  11  23  45  67  98 140 183 231 286 344 415
#     4  10  25  43  71  97 142 188 226 294 349 408
#     4  11  26  42  69 103 141 183 231 285 352 418
#     4  12  25  42  69 103 139 177 228 288 355 413
#     4  11  24  43  70  99 133 186 233 284 351 414
#
# _framework density 23.170468
#
# number of rings (size 3 to 8) (size 9 to 14) (size 15 to 20)
#    0.000    1.000    3.750    1.125    8.750    1.000 
#    0.000    2.500    0.000    0.000    0.000    0.000 
#    0.000    0.000    0.000    0.000    0.000    0.000 
#
# Total GULP energy -198303.469664 kJ/mol
# GULP energy per Si atom -12393.966854 kJ/mol
# Density = 2.311773 g / cm^3
# Si number density = 23.170468 Si / 1000 Ang^3
#
#
#
# Elastic Constant Matrix: (Units=GPa)
#
#
# Indices 1 2 3 4 5 6 
#
# 1 126.1358 41.6405 50.8724 -3.9597 -11.9991 -8.1266
# 2 41.6405 68.2618 38.6298 -6.2323 -2.2181 -11.0045
# 3 50.8724 38.6298 158.0048 -31.5028 -5.7448 1.0478
# 4 -3.9597 -6.2323 -31.5028 37.3696 3.9195 5.6983
# 5 -11.9991 -2.2181 -5.7448 3.9195 39.2014 2.4730
# 6 -8.1266 -11.0045 1.0478 5.6983 2.4730 34.5491
#
#
#
# Elastic Compliance Matrix: (Units=1/GPa)
#
#
# Indices 1 2 3 4 5 6 
#
# 1 0.010965 -0.005109 -0.002670 -0.002426 0.002841 0.001230
# 2 -0.005109 0.020641 -0.003671 -0.000941 -0.001201 0.005725
# 3 -0.002670 -0.003671 0.009651 0.007772 -0.000176 -0.003359
# 4 -0.002426 -0.000941 0.007772 0.034176 -0.002661 -0.006552
# 5 0.002841 -0.001201 -0.000176 -0.002661 0.026625 -0.001176
# 6 0.001230 0.005725 -0.003359 -0.006552 -0.001176 0.032324
#
#
# Mechanical properties :
#
#
# Convention : Reuss Voigt Hill
#
# Bulk Modulus (GPa) = 54.47037 68.29864 61.38451
# Shear Modulus (GPa) = 30.59976 36.97469 33.78722
#
# Velocity S-wave (km/s) = 3.63800 3.99904 3.82278
# Velocity P-wave (km/s) = 6.41921 7.13188 6.78491
#
# Compressibility (1/GPa) = 0.01835860
#
# Stress axis : x y z
#
# Youngs Moduli (GPa) = 91.20323 48.44677 103.61189
#
# Poissons Ratio (x) = 0.24749 0.27663
# Poissons Ratio (y) = 0.46592 0.38034
# Poissons Ratio (z) = 0.24350 0.17784
#
# Static dielectric constant tensor:
#      x y z
#    x 4.330590 0.187510 -0.187120 
#    y 0.187510 3.877620 -0.134560 
#    z -0.187120 -0.134560 4.651480 
# 
# 
# High freq. dielectric constant tensor:
#      x y z
#    x 1.928180 0.015130 -0.006790 
#    y 0.015130 1.887300 -0.011010 
#    z -0.006790 -0.011010 1.939010 
# 
# From -- ./inp_files/357443.got.cif
#   From: 2010.06.25/outbox.cif.g09.slc.cpg/sg2_179_cif.got.tgz:357443.got - 2010.06.27 13:26:56.
