data_PCOD8025232
_publ_section_title
;
Structure prediction by ZEFSAII (Michael W. Deem and Ramdas Pophale) SiO2 
 PCOD8025232
Probable space group: P -1
;
_chemical_formula_sum "Si O2"
_cell_formula_units_Z 12
_cell_length_a 12.635302
_cell_length_b 5.089278
_cell_length_c 14.939288
_cell_angle_alpha 86.976352
_cell_angle_beta 28.605826
_cell_angle_gamma 75.393895
_cell_volume 414.550856
_symmetry_space_group_name_H-M "P -1"
_symmetry_group_IT_number 2
_symmetry_cell_setting 'triclinic'
loop_
_space_group_symop_operation_xyz
x,y,z
-x,-y,-z
loop_
_atom_site_type_symbol
_atom_site_label
_atom_site_fract_x
_atom_site_fract_y
_atom_site_fract_z
Si Si1 0.345664 0.337620 0.080609
Si Si2 0.794398 0.785626 0.452023
Si Si3 0.171751 0.158766 0.378831
Si Si4 0.252038 0.263911 0.960347
Si Si5 0.771912 0.268929 0.322567
Si Si6 0.322063 0.745868 0.795969
O O1 0.342746 0.097151 0.161116
O O2 0.069349 0.572582 0.272030
O O3 0.500000 0.500000 0.000000
O O4 0.422992 0.223251 0.922283
O O5 0.682802 0.929899 0.631750
O O6 0.614171 0.642711 0.555223
O O7 0.780611 0.038758 0.393025
O O8 0.000000 0.500000 0.500000
O O9 0.000000 0.000000 0.500000
O O10 0.296900 0.455144 0.847644
O O11 0.264931 0.961675 0.917969
O O12 0.961537 0.411859 0.204609
O O13 0.500000 0.500000 0.500000
O O14 0.844417 0.114988 0.171511
#
# Coordination Sequence:
#
# PCOD8025232 Si02
#       6
#     2   2   2   2   2   2
#     4  11  25  49  78 113 152 202 258 320 387 460
#     4  11  25  48  75 109 151 199 255 316 380 455
#     4  10  23  44  71 102 141 191 246 306 371 441
#     4  12  27  49  75 112 154 199 254 317 381 457
#     4  12  26  49  79 114 154 204 256 316 385 461
#     4  12  27  47  75 112 154 203 253 313 382 456
#
# _framework density 28.94699
#
# number of rings (size 3 to 8) (size 9 to 14) (size 15 to 20)
#    0.000    0.667    0.000    6.500    0.000   10.667 
#    0.000    7.500    0.000    0.000    0.000    0.000 
#    0.000    0.000    0.000    0.000    0.000    0.000 
#
# Total GULP energy -148862.964444 kJ/mol
# GULP energy per Si atom -12405.247037 kJ/mol
# Density = 2.888111 g / cm^3
# Si number density = 28.946990 Si / 1000 Ang^3
#
#
#
# Elastic Constant Matrix: (Units=GPa)
#
#
# Indices 1 2 3 4 5 6 
#
# 1 256.6110 83.7594 72.0938 -27.5810 -4.2746 -23.7755
# 2 83.7594 160.1498 51.2392 -53.7609 -1.2629 -24.7589
# 3 72.0938 51.2392 131.6372 -47.0065 3.6147 -8.7737
# 4 -27.5810 -53.7609 -47.0065 57.7452 10.4015 3.6722
# 5 -4.2746 -1.2629 3.6147 10.4015 70.4434 -16.7202
# 6 -23.7755 -24.7589 -8.7737 3.6722 -16.7202 65.7011
#
#
#
# Elastic Compliance Matrix: (Units=1/GPa)
#
#
# Indices 1 2 3 4 5 6 
#
# 1 0.005349 -0.002519 -0.002708 -0.002236 0.000986 0.001001
# 2 -0.002519 0.010921 0.000727 0.009535 -0.000793 0.002566
# 3 -0.002708 0.000727 0.012376 0.009882 -0.002290 -0.000188
# 4 -0.002236 0.009535 0.009882 0.034072 -0.005301 0.000850
# 5 0.000986 -0.000793 -0.002290 -0.005301 0.016127 0.004153
# 6 0.001001 0.002566 -0.000188 0.000850 0.004153 0.017534
#
#
# Mechanical properties :
#
#
# Convention : Reuss Voigt Hill
#
# Bulk Modulus (GPa) = 50.90480 106.95366 78.92923
# Shear Modulus (GPa) = 44.67235 61.53165 53.10200
#
# Velocity S-wave (km/s) = 3.93268 4.61550 4.28770
# Velocity P-wave (km/s) = 6.18425 8.08901 7.19990
#
# Compressibility (1/GPa) = 0.01964451
#
# Stress axis : x y z
#
# Youngs Moduli (GPa) = 186.95980 91.57086 80.80295
#
# Poissons Ratio (x) = 0.23070 0.21878
# Poissons Ratio (y) = 0.47101 -0.05871
# Poissons Ratio (z) = 0.50621 -0.06654
#
# Static dielectric constant tensor:
#      x y z
#    x 8.114990 0.987930 0.114700 
#    y 0.987930 4.439670 0.830290 
#    z 0.114700 0.830290 6.912500 
# 
# 
# High freq. dielectric constant tensor:
#      x y z
#    x 2.231770 -0.004610 0.007150 
#    y -0.004610 2.167270 0.029050 
#    z 0.007150 0.029050 2.257410 
# 
# From -- ./inp_files/510921.got.cif
#   From: 2010.06.25/outbox.cif.g09.slc.cpg/sg2_256_cif.got.tgz:510921.got - 2010.06.27 13:26:56.
