data_PCOD8025824
_publ_section_title
;
Structure prediction by ZEFSAII (Michael W. Deem and Ramdas Pophale) SiO2 
 PCOD8025824
Probable space group: P -1
;
_chemical_formula_sum "Si O2"
_cell_formula_units_Z 16
_cell_length_a 15.696764
_cell_length_b 15.696637
_cell_length_c 12.893414
_cell_angle_alpha 146.374309
_cell_angle_beta 153.745806
_cell_angle_gamma 33.773207
_cell_volume 730.451004
_symmetry_space_group_name_H-M "P -1"
_symmetry_group_IT_number 2
_symmetry_cell_setting 'triclinic'
loop_
_space_group_symop_operation_xyz
x,y,z
-x,-y,-z
loop_
_atom_site_type_symbol
_atom_site_label
_atom_site_fract_x
_atom_site_fract_y
_atom_site_fract_z
Si Si1 0.987409 0.653525 0.071090
Si Si2 0.531994 0.886062 0.822961
Si Si3 0.379398 0.681473 0.584421
Si Si4 0.668668 0.941082 0.423474
Si Si5 0.157245 0.837181 0.055265
Si Si6 0.098872 0.585222 0.886224
Si Si7 0.522853 0.311317 0.068921
Si Si8 0.889903 0.331405 0.361688
O O1 0.134618 0.730257 0.370503
O O2 0.768881 0.792705 0.961158
O O3 0.000000 0.500000 0.000000
O O4 0.069376 0.596360 0.988028
O O5 0.424369 0.760419 0.609319
O O6 0.408407 0.991257 0.702602
O O7 0.500000 0.000000 0.000000
O O8 0.500000 0.500000 0.500000
O O9 0.455333 0.730793 0.826829
O O10 0.902206 0.819833 0.543936
O O11 0.656244 0.099981 0.641848
O O12 0.522774 0.837578 0.193572
O O13 0.061804 0.762387 0.970735
O O14 0.218465 0.695332 0.890706
O O15 0.000000 0.000000 0.000000
O O16 0.940656 0.499706 0.581765
O O17 0.333759 0.476774 0.008876
O O18 0.729036 0.338580 0.284297
#
# Coordination Sequence:
#
# PCOD8025824 Si02
#       8
#     2   2   2   2   2   2   2   2
#     4  12  25  41  70 100 137 187 221 271 340 409
#     4  12  26  43  64 102 140 178 226 279 338 405
#     4  12  23  41  66  96 141 179 228 272 332 412
#     4  10  24  44  64  96 141 176 225 285 340 415
#     4  10  23  46  69  95 133 180 229 290 347 400
#     4  11  23  43  69 100 136 173 231 281 342 412
#     4  11  23  41  66 101 133 179 227 280 339 413
#     4  10  24  43  72  96 131 177 227 289 347 397
#
# _framework density 21.904275999999999
#
# number of rings (size 3 to 8) (size 9 to 14) (size 15 to 20)
#    0.000    1.000    3.750    1.875    3.500    4.500 
#    0.000    2.500    0.000    0.000    0.000    0.000 
#    0.000    0.000    0.000    0.000    0.000    0.000 
#
# Total GULP energy -198238.394928 kJ/mol
# GULP energy per Si atom -12389.899683 kJ/mol
# Density = 2.185442 g / cm^3
# Si number density = 21.904276 Si / 1000 Ang^3
#
#
#
# Elastic Constant Matrix: (Units=GPa)
#
#
# Indices 1 2 3 4 5 6 
#
# 1 79.1884 34.5845 29.6795 -4.3873 5.9854 12.7908
# 2 34.5845 77.7055 40.9168 11.8214 5.5212 23.2474
# 3 29.6795 40.9168 151.1867 11.1135 4.2698 1.5166
# 4 -4.3873 11.8214 11.1135 31.0227 0.4258 0.7652
# 5 5.9854 5.5212 4.2698 0.4258 48.0226 -0.8155
# 6 12.7908 23.2474 1.5166 0.7652 -0.8155 34.7613
#
#
#
# Elastic Compliance Matrix: (Units=1/GPa)
#
#
# Indices 1 2 3 4 5 6 
#
# 1 0.017013 -0.006858 -0.001853 0.005743 -0.001248 -0.001748
# 2 -0.006858 0.023259 -0.004188 -0.007997 -0.001592 -0.012710
# 3 -0.001853 -0.004188 0.008202 -0.001683 0.000052 0.003163
# 4 0.005743 -0.007997 -0.001683 0.036634 0.000071 0.002504
# 5 -0.001248 -0.001592 0.000052 0.000071 0.021191 0.002017
# 6 -0.001748 -0.012710 0.003163 0.002504 0.002017 0.037765
#
#
# Mechanical properties :
#
#
# Convention : Reuss Voigt Hill
#
# Bulk Modulus (GPa) = 44.10117 57.60468 50.85292
# Shear Modulus (GPa) = 28.18146 36.28798 32.23472
#
# Velocity S-wave (km/s) = 3.59077 4.07463 3.84033
# Velocity P-wave (km/s) = 6.11301 6.96364 6.55214
#
# Compressibility (1/GPa) = 0.02267514
#
# Stress axis : x y z
#
# Youngs Moduli (GPa) = 58.77940 42.99417 121.91973
#
# Poissons Ratio (x) = 0.29486 0.22593
# Poissons Ratio (y) = 0.40312 0.51061
# Poissons Ratio (z) = 0.10893 0.18006
#
# Static dielectric constant tensor:
#      x y z
#    x 3.748940 0.041500 -0.003540 
#    y 0.041500 4.044970 0.347260 
#    z -0.003540 0.347260 4.640480 
# 
# 
# High freq. dielectric constant tensor:
#      x y z
#    x 1.850060 0.017040 -0.002770 
#    y 0.017040 1.860490 0.007300 
#    z -0.002770 0.007300 1.886100 
# 
# From -- ./inp_files/455123.got.cif
#   From: 2010.06.25/outbox.cif.g09.slc.cpg/sg2_228_cif.got.tgz:455123.got - 2010.06.27 13:26:56.
