data_PCOD8025667
_publ_section_title
;
Structure prediction by ZEFSAII (Michael W. Deem and Ramdas Pophale) SiO2 
 PCOD8025667
Probable space group: P -1
;
_chemical_formula_sum "Si O2"
_cell_formula_units_Z 16
_cell_length_a 14.938544
_cell_length_b 11.467435
_cell_length_c 14.390164
_cell_angle_alpha 42.696515
_cell_angle_beta 30.147049
_cell_angle_gamma 62.890515
_cell_volume 712.915647
_symmetry_space_group_name_H-M "P -1"
_symmetry_group_IT_number 2
_symmetry_cell_setting 'triclinic'
loop_
_space_group_symop_operation_xyz
x,y,z
-x,-y,-z
loop_
_atom_site_type_symbol
_atom_site_label
_atom_site_fract_x
_atom_site_fract_y
_atom_site_fract_z
Si Si1 0.810458 0.469070 0.752760
Si Si2 0.127612 0.873279 0.301252
Si Si3 0.543656 0.529844 0.655395
Si Si4 0.212342 0.289841 0.953831
Si Si5 0.655284 0.237627 0.216110
Si Si6 0.472253 0.766441 0.010164
Si Si7 0.096105 0.418819 0.798362
Si Si8 0.147760 0.833359 0.514736
O O1 0.599145 0.375777 0.934624
O O2 0.000000 0.500000 0.500000
O O3 0.890374 0.693047 0.590930
O O4 0.753139 0.314464 0.980613
O O5 0.286734 0.801821 0.180337
O O6 0.134182 0.919887 0.376891
O O7 0.190151 0.077625 0.069772
O O8 0.444979 0.456924 0.682772
O O9 0.482212 0.672434 0.678357
O O10 0.477890 0.338752 0.890971
O O11 0.793563 0.647165 0.339969
O O12 0.134026 0.368966 0.895933
O O13 0.076721 0.265764 0.179754
O O14 0.500000 0.000000 0.500000
O O15 0.847563 0.299939 0.076000
O O16 0.681230 0.986032 0.678733
O O17 0.203142 0.661123 0.551612
#
# Coordination Sequence:
#
# PCOD8025667 Si02
#       8
#     2   2   2   2   2   2   2   2
#     4  10  23  45  72 102 142 189 241 296 359 425
#     4  11  21  44  69 103 142 187 241 299 355 426
#     4  12  25  47  73 105 142 192 242 298 364 433
#     4  12  26  39  72 110 139 187 244 294 364 434
#     4  12  29  48  73 104 148 196 244 296 368 443
#     4  11  24  40  73 105 138 183 243 300 360 420
#     4  12  26  48  70 104 150 190 236 304 361 434
#     4  12  22  42  72  99 144 183 239 299 355 417
#
# _framework density 22.443048000000001
#
# number of rings (size 3 to 8) (size 9 to 14) (size 15 to 20)
#    0.000    0.500    5.000    3.000    3.500    4.000 
#    0.000    0.000    0.000    0.000    0.000    0.000 
#    0.000    0.000    0.000    0.000    0.000    0.000 
#
# Total GULP energy -198395.448248 kJ/mol
# GULP energy per Si atom -12399.715516 kJ/mol
# Density = 2.239197 g / cm^3
# Si number density = 22.443048 Si / 1000 Ang^3
#
#
#
# Elastic Constant Matrix: (Units=GPa)
#
#
# Indices 1 2 3 4 5 6 
#
# 1 96.6083 18.0744 -1.7851 -15.7144 -12.7106 1.7525
# 2 18.0744 108.5972 34.3360 -0.5274 -7.8917 -2.3478
# 3 -1.7851 34.3360 68.7578 -17.4748 -16.8098 5.4575
# 4 -15.7144 -0.5274 -17.4748 39.3543 6.8922 -6.8859
# 5 -12.7106 -7.8917 -16.8098 6.8922 38.6555 -6.0762
# 6 1.7525 -2.3478 5.4575 -6.8859 -6.0762 28.0805
#
#
#
# Elastic Compliance Matrix: (Units=1/GPa)
#
#
# Indices 1 2 3 4 5 6 
#
# 1 0.012641 -0.003184 0.004577 0.006359 0.004454 0.000578
# 2 -0.003184 0.012041 -0.007446 -0.004003 -0.000880 0.001480
# 3 0.004577 -0.007446 0.023058 0.010372 0.007987 -0.001118
# 4 0.006359 -0.004003 0.010372 0.033353 0.000715 0.005586
# 5 0.004454 -0.000880 0.007987 0.000715 0.031293 0.005043
# 6 0.000578 0.001480 -0.001118 0.005586 0.005043 0.038378
#
#
# Mechanical properties :
#
#
# Convention : Reuss Voigt Hill
#
# Bulk Modulus (GPa) = 28.06170 41.69044 34.87607
# Shear Modulus (GPa) = 28.61252 36.10726 32.35989
#
# Velocity S-wave (km/s) = 3.57444 4.01539 3.80131
# Velocity P-wave (km/s) = 5.43748 6.33358 5.90256
#
# Compressibility (1/GPa) = 0.03563576
#
# Stress axis : x y z
#
# Youngs Moduli (GPa) = 79.10611 83.04896 43.36807
#
# Poissons Ratio (x) = 0.26444 -0.19851
# Poissons Ratio (y) = 0.25189 0.32291
# Poissons Ratio (z) = -0.36210 0.61836
#
# Static dielectric constant tensor:
#      x y z
#    x 4.271480 0.095630 -0.233190 
#    y 0.095630 4.225720 -0.167160 
#    z -0.233190 -0.167160 4.301900 
# 
# 
# High freq. dielectric constant tensor:
#      x y z
#    x 1.887430 -0.001570 -0.006760 
#    y -0.001570 1.886390 0.003710 
#    z -0.006760 0.003710 1.888660 
# 
# From -- ./inp_files/505579.got.cif
#   From: 2010.06.25/outbox.cif.g09.slc.cpg/sg2_253_cif.got.tgz:505579.got - 2010.06.27 13:26:56.
