data_PCOD8025162
_publ_section_title
;
Structure prediction by ZEFSAII (Michael W. Deem and Ramdas Pophale) SiO2 
 PCOD8025162
Probable space group: P -1
;
_chemical_formula_sum "Si O2"
_cell_formula_units_Z 16
_cell_length_a 22.767147
_cell_length_b 7.651897
_cell_length_c 9.069047
_cell_angle_alpha 71.702134
_cell_angle_beta 30.975069
_cell_angle_gamma 58.067951
_cell_volume 653.932938
_symmetry_space_group_name_H-M "P -1"
_symmetry_group_IT_number 2
_symmetry_cell_setting 'triclinic'
loop_
_space_group_symop_operation_xyz
x,y,z
-x,-y,-z
loop_
_atom_site_type_symbol
_atom_site_label
_atom_site_fract_x
_atom_site_fract_y
_atom_site_fract_z
Si Si1 0.270137 0.463771 0.654459
Si Si2 0.070156 0.352725 0.244544
Si Si3 0.416351 0.282056 0.097249
Si Si4 0.284218 0.855528 0.524676
Si Si5 0.258161 0.873891 0.911344
Si Si6 0.201278 0.547870 0.264967
Si Si7 0.514179 0.198564 0.378586
Si Si8 0.320842 0.079176 0.150526
O O1 0.358141 0.292700 0.382768
O O2 0.225245 0.707815 0.644362
O O3 0.367243 0.407024 0.605063
O O4 0.140916 0.452937 0.973082
O O5 0.000000 0.500000 0.500000
O O6 0.956099 0.352889 0.387107
O O7 0.176171 0.098020 0.123488
O O8 0.295805 0.502817 0.215502
O O9 0.433255 0.074637 0.022584
O O10 0.551813 0.287021 0.804027
O O11 0.238883 0.943926 0.763926
O O12 0.223813 0.051546 0.482097
O O13 0.416264 0.752245 0.649171
O O14 0.208051 0.709997 0.092587
O O15 0.249549 0.307428 0.154045
O O16 0.500000 0.000000 0.500000
O O17 0.611253 0.128722 0.045494
#
# Coordination Sequence:
#
# PCOD8025162 Si02
#       8
#     2   2   2   2   2   2   2   2
#     4  12  26  42  69 103 144 177 228 282 344 408
#     4  12  26  48  68  94 137 185 232 282 333 402
#     4  10  23  44  70 100 144 174 220 285 343 409
#     4  12  24  43  72 106 140 178 221 282 358 403
#     4  12  26  44  74 101 138 177 230 286 341 406
#     4  10  26  43  69  96 134 184 233 272 332 395
#     4  12  24  40  68 107 137 179 224 281 353 402
#     4  10  24  42  68  99 140 177 223 279 340 407
#
# _framework density 24.467338999999999
#
# number of rings (size 3 to 8) (size 9 to 14) (size 15 to 20)
#    0.750    0.000    2.500    4.875    3.500    1.500 
#    0.000    0.625    0.000    0.000    0.000    0.000 
#    0.000    0.000    0.000    0.000    0.000    0.000 
#
# Total GULP energy -198296.361446 kJ/mol
# GULP energy per Si atom -12393.522590 kJ/mol
# Density = 2.441165 g / cm^3
# Si number density = 24.467339 Si / 1000 Ang^3
#
#
#
# Elastic Constant Matrix: (Units=GPa)
#
#
# Indices 1 2 3 4 5 6 
#
# 1 45.5765 10.5004 31.1314 -4.6087 2.3654 8.2851
# 2 10.5004 115.4915 44.9033 -32.0152 2.6639 14.9316
# 3 31.1314 44.9033 137.9020 -26.5053 -2.5351 10.0950
# 4 -4.6087 -32.0152 -26.5053 45.6472 3.2141 -4.0678
# 5 2.3654 2.6639 -2.5351 3.2141 47.9474 1.8189
# 6 8.2851 14.9316 10.0950 -4.0678 1.8189 29.5450
#
#
#
# Elastic Compliance Matrix: (Units=1/GPa)
#
#
# Indices 1 2 3 4 5 6 
#
# 1 0.026972 0.000410 -0.005997 -0.000886 -0.001393 -0.005758
# 2 0.000410 0.012023 -0.002408 0.006764 -0.001103 -0.004369
# 3 -0.005997 -0.002408 0.010084 0.003499 0.000732 -0.000110
# 4 -0.000886 0.006764 0.003499 0.028713 -0.002061 -0.000285
# 5 -0.001393 -0.001103 0.000732 -0.002061 0.021197 -0.000891
# 6 -0.005758 -0.004369 -0.000110 -0.000285 -0.000891 0.037723
#
#
# Mechanical properties :
#
#
# Convention : Reuss Voigt Hill
#
# Bulk Modulus (GPa) = 30.22105 52.44891 41.33498
# Shear Modulus (GPa) = 30.53793 38.79025 34.66409
#
# Velocity S-wave (km/s) = 3.53669 3.98601 3.76806
# Velocity P-wave (km/s) = 5.39036 6.53202 5.98846
#
# Compressibility (1/GPa) = 0.03308952
#
# Stress axis : x y z
#
# Youngs Moduli (GPa) = 37.07505 83.17452 99.17186
#
# Poissons Ratio (x) = -0.03412 0.59473
# Poissons Ratio (y) = -0.01521 0.23879
# Poissons Ratio (z) = 0.22234 0.20027
#
# Static dielectric constant tensor:
#      x y z
#    x 4.461400 -0.169340 -0.025290 
#    y -0.169340 4.497180 -0.038740 
#    z -0.025290 -0.038740 4.389730 
# 
# 
# High freq. dielectric constant tensor:
#      x y z
#    x 1.967090 0.001570 0.002720 
#    y 0.001570 1.975780 -0.018070 
#    z 0.002720 -0.018070 1.957900 
# 
# From -- ./inp_files/352099.got.cif
#   From: 2010.06.25/outbox.cif.g09.slc.cpg/sg2_177_cif.got.tgz:352099.got - 2010.06.27 13:26:56.
