data_PCOD8025867
_publ_section_title
;
Structure prediction by ZEFSAII (Michael W. Deem and Ramdas Pophale) SiO2 
 PCOD8025867
Probable space group: P -1
;
_chemical_formula_sum "Si O2"
_cell_formula_units_Z 14
_cell_length_a 14.356144
_cell_length_b 6.560754
_cell_length_c 12.063001
_cell_angle_alpha 134.758243
_cell_angle_beta 129.056376
_cell_angle_gamma 68.308525
_cell_volume 620.813931
_symmetry_space_group_name_H-M "P -1"
_symmetry_group_IT_number 2
_symmetry_cell_setting 'triclinic'
loop_
_space_group_symop_operation_xyz
x,y,z
-x,-y,-z
loop_
_atom_site_type_symbol
_atom_site_label
_atom_site_fract_x
_atom_site_fract_y
_atom_site_fract_z
Si Si1 0.855340 0.775895 0.992657
Si Si2 0.448866 0.864862 0.797081
Si Si3 0.980257 0.429091 0.790997
Si Si4 0.386792 0.260044 0.296707
Si Si5 0.091643 0.556379 0.690846
Si Si6 0.391593 0.184035 0.506453
Si Si7 0.756107 0.938138 0.427939
O O1 0.898605 0.656877 0.095012
O O2 0.847125 0.114872 0.127657
O O3 0.944963 0.711951 0.935566
O O4 0.719769 0.616357 0.804466
O O5 0.552444 0.965694 0.820704
O O6 0.434678 0.524141 0.680729
O O7 0.324743 0.967199 0.698214
O O8 0.500000 0.000000 0.000000
O O9 0.006629 0.481628 0.703494
O O10 0.873281 0.167355 0.622134
O O11 0.500000 0.500000 0.500000
O O12 0.323765 0.134068 0.316264
O O13 0.201549 0.367422 0.689717
O O14 0.000000 0.500000 0.500000
O O15 0.311635 0.075812 0.510232
O O16 0.500000 0.000000 0.500000
#
# Coordination Sequence:
#
# PCOD8025867 Si02
#       7
#     2   2   2   2   2   2   2
#     4  11  26  45  75 105 142 186 246 299 358 432
#     4  11  27  44  72 106 147 185 241 298 367 428
#     4  11  26  48  74 103 144 190 248 293 367 425
#     4  10  23  46  71 101 145 188 234 292 360 427
#     4  12  28  46  72 109 147 188 244 300 366 428
#     4  11  25  47  73 104 142 190 246 290 359 438
#     4  12  27  46  76 102 147 196 235 304 368 423
#
# _framework density 22.551038999999999
#
# number of rings (size 3 to 8) (size 9 to 14) (size 15 to 20)
#    0.000    0.857    2.857    2.571   10.000    4.000 
#    0.000    0.000    0.000    0.000    0.000    0.000 
#    0.000    0.000    0.000    0.000    0.000    0.000 
#
# Total GULP energy -173507.710612 kJ/mol
# GULP energy per Si atom -12393.407901 kJ/mol
# Density = 2.249971 g / cm^3
# Si number density = 22.551039 Si / 1000 Ang^3
#
#
#
# Elastic Constant Matrix: (Units=GPa)
#
#
# Indices 1 2 3 4 5 6 
#
# 1 74.9684 26.9361 44.7227 -15.3809 -13.3326 -2.9917
# 2 26.9361 119.1778 69.0504 -17.2755 -0.1843 -27.9740
# 3 44.7227 69.0504 135.4116 -32.5516 -6.3992 -5.9151
# 4 -15.3809 -17.2755 -32.5516 50.6254 -6.8070 -6.6493
# 5 -13.3326 -0.1843 -6.3992 -6.8070 45.8620 -5.6499
# 6 -2.9917 -27.9740 -5.9151 -6.6493 -5.6499 50.3308
#
#
#
# Elastic Compliance Matrix: (Units=1/GPa)
#
#
# Indices 1 2 3 4 5 6 
#
# 1 0.017887 -0.000706 -0.004497 0.003148 0.005177 0.001140
# 2 -0.000706 0.014117 -0.006273 0.001540 0.000102 0.007282
# 3 -0.004497 -0.006273 0.013254 0.004974 0.001081 -0.001418
# 4 0.003148 0.001540 0.004974 0.026022 0.006187 0.005760
# 5 0.005177 0.000102 0.001081 0.006187 0.024885 0.004102
# 6 0.001140 0.007282 -0.001418 0.005760 0.004102 0.025039
#
#
# Mechanical properties :
#
#
# Convention : Reuss Voigt Hill
#
# Bulk Modulus (GPa) = 44.82652 67.88626 56.35639
# Shear Modulus (GPa) = 32.98396 41.95353 37.46874
#
# Velocity S-wave (km/s) = 3.82859 4.31789 4.08058
# Velocity P-wave (km/s) = 6.28213 7.41806 6.87360
#
# Compressibility (1/GPa) = 0.02230822
#
# Stress axis : x y z
#
# Youngs Moduli (GPa) = 55.90629 70.83490 75.45166
#
# Poissons Ratio (x) = 0.04999 0.33927
# Poissons Ratio (y) = 0.03945 0.47328
# Poissons Ratio (z) = 0.25138 0.44432
#
# Static dielectric constant tensor:
#      x y z
#    x 4.664680 0.069570 -0.458110 
#    y 0.069570 4.210380 -0.249980 
#    z -0.458110 -0.249980 4.255610 
# 
# 
# High freq. dielectric constant tensor:
#      x y z
#    x 1.900950 -0.010750 -0.018140 
#    y -0.010750 1.894830 -0.014910 
#    z -0.018140 -0.014910 1.896500 
# 
# From -- ./inp_files/442347.got.cif
#   From: 2010.06.25/outbox.cif.g09.slc.cpg/sg2_222_cif.got.tgz:442347.got - 2010.06.27 13:26:56.
