data_PCOD8025571
_publ_section_title
;
Structure prediction by ZEFSAII (Michael W. Deem and Ramdas Pophale) SiO2 
 PCOD8025571
Probable space group: P -1
;
_chemical_formula_sum "Si O2"
_cell_formula_units_Z 12
_cell_length_a 12.001260
_cell_length_b 8.883013
_cell_length_c 15.156972
_cell_angle_alpha 72.607195
_cell_angle_beta 160.940863
_cell_angle_gamma 106.066339
_cell_volume 503.432395
_symmetry_space_group_name_H-M "P -1"
_symmetry_group_IT_number 2
_symmetry_cell_setting 'triclinic'
loop_
_space_group_symop_operation_xyz
x,y,z
-x,-y,-z
loop_
_atom_site_type_symbol
_atom_site_label
_atom_site_fract_x
_atom_site_fract_y
_atom_site_fract_z
Si Si1 0.414609 0.873466 0.357114
Si Si2 0.727811 0.186577 0.551430
Si Si3 0.296512 0.627584 0.769843
Si Si4 0.420034 0.508847 0.703474
Si Si5 0.182936 0.785601 0.007723
Si Si6 0.412871 0.060983 0.019620
O O1 0.172494 0.838896 0.266061
O O2 0.257700 0.790630 0.168111
O O3 0.428732 0.063846 0.321997
O O4 0.793875 0.812646 0.681030
O O5 0.619622 0.369888 0.428747
O O6 0.047485 0.151256 0.733146
O O7 0.482578 0.618733 0.815584
O O8 0.901124 0.592364 0.489330
O O9 0.500000 0.500000 0.000000
O O10 0.306413 0.809290 0.773690
O O11 0.724053 0.388350 0.927946
O O12 0.424111 0.916226 0.121832
O O13 0.500000 0.000000 0.000000
#
# Coordination Sequence:
#
# PCOD8025571 Si02
#       6
#     2   2   2   2   2   2
#     4  10  25  47  71  98 138 183 235 279 338 408
#     4  10  23  45  69  99 134 185 227 280 345 405
#     4  11  23  41  64  97 142 178 226 273 353 415
#     4  11  25  40  67 101 136 183 221 286 345 410
#     4  11  26  44  71 104 136 180 230 288 336 408
#     4  11  24  42  73 102 136 181 229 285 343 410
#
# _framework density 23.836369999999999
#
# number of rings (size 3 to 8) (size 9 to 14) (size 15 to 20)
#    0.000    1.333    1.667    2.000    9.333    9.333 
#    0.000    0.000    0.000    0.000    0.000    0.000 
#    0.000    0.000    0.000    0.000    0.000    0.000 
#
# Total GULP energy -148743.773876 kJ/mol
# GULP energy per Si atom -12395.314490 kJ/mol
# Density = 2.378212 g / cm^3
# Si number density = 23.836370 Si / 1000 Ang^3
#
#
#
# Elastic Constant Matrix: (Units=GPa)
#
#
# Indices 1 2 3 4 5 6 
#
# 1 142.3774 50.1206 37.2979 4.4113 -6.8139 -17.6975
# 2 50.1206 149.1687 24.8051 -14.4860 1.9602 -12.4209
# 3 37.2979 24.8051 77.2888 -15.3275 -6.6127 -11.2962
# 4 4.4113 -14.4860 -15.3275 31.8295 -7.1024 -1.3235
# 5 -6.8139 1.9602 -6.6127 -7.1024 34.2779 4.2559
# 6 -17.6975 -12.4209 -11.2962 -1.3235 4.2559 44.1702
#
#
#
# Elastic Compliance Matrix: (Units=1/GPa)
#
#
# Indices 1 2 3 4 5 6 
#
# 1 0.009500 -0.002768 -0.004343 -0.004585 0.000038 0.001776
# 2 -0.002768 0.008183 -0.000376 0.003881 -0.000442 0.001255
# 3 -0.004343 -0.000376 0.017927 0.010154 0.004395 0.002620
# 4 -0.004585 0.003881 0.010154 0.040810 0.009007 0.002206
# 5 0.000038 -0.000442 0.004395 0.009007 0.032146 -0.001812
# 6 0.001776 0.001255 0.002620 0.002206 -0.001812 0.024615
#
#
# Mechanical properties :
#
#
# Convention : Reuss Voigt Hill
#
# Bulk Modulus (GPa) = 48.45219 65.92022 57.18621
# Shear Modulus (GPa) = 32.25110 39.16294 35.70702
#
# Velocity S-wave (km/s) = 3.68233 4.05778 3.87461
# Velocity P-wave (km/s) = 6.20085 7.04766 6.63777
#
# Compressibility (1/GPa) = 0.02063890
#
# Stress axis : x y z
#
# Youngs Moduli (GPa) = 105.26021 122.19827 55.78094
#
# Poissons Ratio (x) = 0.33822 0.24224
# Poissons Ratio (y) = 0.29134 0.02095
# Poissons Ratio (z) = 0.45711 0.04589
#
# Static dielectric constant tensor:
#      x y z
#    x 4.617590 0.135500 0.030870 
#    y 0.135500 4.570250 0.007160 
#    z 0.030870 0.007160 4.036060 
# 
# 
# High freq. dielectric constant tensor:
#      x y z
#    x 1.959140 0.002960 0.005020 
#    y 0.002960 1.957140 -0.006240 
#    z 0.005020 -0.006240 1.926520 
# 
# From -- ./inp_files/20808.got.cif
#   From: 2010.06.25/outbox.cif.g09.slc.cpg/sg2_11_cif.got.tgz:20808.got - 2010.06.27 13:26:56.
