data_PCOD8025862
_publ_section_title
;
Structure prediction by ZEFSAII (Michael W. Deem and Ramdas Pophale) SiO2 
 PCOD8025862
Probable space group: P -1
;
_chemical_formula_sum "Si O2"
_cell_formula_units_Z 12
_cell_length_a 7.161026
_cell_length_b 7.630259
_cell_length_c 12.063447
_cell_angle_alpha 63.663337
_cell_angle_beta 123.684892
_cell_angle_gamma 95.007503
_cell_volume 480.280381
_symmetry_space_group_name_H-M "P -1"
_symmetry_group_IT_number 2
_symmetry_cell_setting 'triclinic'
loop_
_space_group_symop_operation_xyz
x,y,z
-x,-y,-z
loop_
_atom_site_type_symbol
_atom_site_label
_atom_site_fract_x
_atom_site_fract_y
_atom_site_fract_z
Si Si1 0.860537 0.844802 0.112270
Si Si2 0.844728 0.718929 0.895804
Si Si3 0.103335 0.180927 0.347654
Si Si4 0.645371 0.085857 0.309202
Si Si5 0.298162 0.568889 0.330380
Si Si6 0.492214 0.796134 0.157952
O O1 0.693834 0.720049 0.155732
O O2 0.121871 0.768576 0.264555
O O3 0.896760 0.810123 0.003121
O O4 0.732035 0.077719 0.017594
O O5 0.895566 0.863565 0.771532
O O6 0.570122 0.728757 0.796900
O O7 0.000000 0.500000 0.000000
O O8 0.148782 0.403736 0.309697
O O9 0.853355 0.181285 0.311740
O O10 0.294464 0.024181 0.521705
O O11 0.587897 0.927866 0.245616
O O12 0.500000 0.500000 0.500000
O O13 0.415209 0.609062 0.241430
#
# Coordination Sequence:
#
# PCOD8025862 Si02
#       6
#     2   2   2   2   2   2
#     4  10  24  45  70 101 138 179 228 279 343 408
#     4  11  23  45  72 101 138 179 227 283 339 407
#     4  11  24  46  68 105 135 182 228 280 344 401
#     4  10  24  46  71  98 140 179 229 280 341 406
#     4  12  24  44  70 102 140 178 231 279 340 406
#     4  10  23  46  71 100 135 182 225 283 341 403
#
# _framework density 24.985405
#
# number of rings (size 3 to 8) (size 9 to 14) (size 15 to 20)
#    0.000    1.333    3.333    1.000    0.000    9.333 
#    6.000    0.000    0.000    0.000    0.000    0.000 
#    0.000    0.000    0.000    0.000    0.000    0.000 
#
# Total GULP energy -148710.106812 kJ/mol
# GULP energy per Si atom -12392.508901 kJ/mol
# Density = 2.492854 g / cm^3
# Si number density = 24.985405 Si / 1000 Ang^3
#
#
#
# Elastic Constant Matrix: (Units=GPa)
#
#
# Indices 1 2 3 4 5 6 
#
# 1 144.9422 24.7423 96.0689 -7.9770 -10.0202 1.6951
# 2 24.7423 62.0761 29.7127 -0.4216 -2.1343 10.1303
# 3 96.0689 29.7127 180.7296 -8.7613 18.6556 -9.0202
# 4 -7.9770 -0.4216 -8.7613 22.4363 -1.5665 -5.4283
# 5 -10.0202 -2.1343 18.6556 -1.5665 55.6814 -6.2758
# 6 1.6951 10.1303 -9.0202 -5.4283 -6.2758 45.4417
#
#
#
# Elastic Compliance Matrix: (Units=1/GPa)
#
#
# Indices 1 2 3 4 5 6 
#
# 1 0.011781 -0.001369 -0.006413 0.001803 0.004198 -0.000612
# 2 -0.001369 0.018802 -0.002803 -0.002350 0.000799 -0.004867
# 3 -0.006413 -0.002803 0.010063 0.001900 -0.004299 0.002495
# 4 0.001803 -0.002350 0.001900 0.047665 0.001701 0.006763
# 5 0.004198 0.000799 -0.004299 0.001701 0.020441 0.001838
# 6 -0.000612 -0.004867 0.002495 0.006763 0.001838 0.024671
#
#
# Mechanical properties :
#
#
# Convention : Reuss Voigt Hill
#
# Bulk Modulus (GPa) = 51.34618 76.53285 63.93952
# Shear Modulus (GPa) = 31.03953 40.52682 35.78317
#
# Velocity S-wave (km/s) = 3.52846 4.03180 3.78850
# Velocity P-wave (km/s) = 6.09878 7.23681 6.69203
#
# Compressibility (1/GPa) = 0.01947564
#
# Stress axis : x y z
#
# Youngs Moduli (GPa) = 84.88573 53.18504 99.37018
#
# Poissons Ratio (x) = 0.07282 0.63730
# Poissons Ratio (y) = 0.11623 0.27850
# Poissons Ratio (z) = 0.54441 0.14906
#
# Static dielectric constant tensor:
#      x y z
#    x 5.364520 -0.481810 -0.096530 
#    y -0.481810 4.606420 0.245020 
#    z -0.096530 0.245020 5.249190 
# 
# 
# High freq. dielectric constant tensor:
#      x y z
#    x 2.023490 0.003750 0.002150 
#    y 0.003750 1.957670 -0.000480 
#    z 0.002150 -0.000480 2.020500 
# 
# From -- ./inp_files/302006.got.cif
#   From: 2010.06.25/outbox.cif.g09.slc.cpg/sg2_152_cif.got.tgz:302006.got - 2010.06.27 13:26:56.
