data_PCOD8025482
_publ_section_title
;
Structure prediction by ZEFSAII (Michael W. Deem and Ramdas Pophale) SiO2 
 PCOD8025482
Probable space group: P -1
;
_chemical_formula_sum "Si O2"
_cell_formula_units_Z 16
_cell_length_a 12.174606
_cell_length_b 9.244357
_cell_length_c 11.696523
_cell_angle_alpha 127.098616
_cell_angle_beta 47.497342
_cell_angle_gamma 134.792373
_cell_volume 668.078105
_symmetry_space_group_name_H-M "P -1"
_symmetry_group_IT_number 2
_symmetry_cell_setting 'triclinic'
loop_
_space_group_symop_operation_xyz
x,y,z
-x,-y,-z
loop_
_atom_site_type_symbol
_atom_site_label
_atom_site_fract_x
_atom_site_fract_y
_atom_site_fract_z
Si Si1 0.700933 0.594177 0.377532
Si Si2 0.848155 0.861536 0.186740
Si Si3 0.214570 0.518066 0.100245
Si Si4 0.151315 0.282573 0.258653
Si Si5 0.348198 0.923202 0.657608
Si Si6 0.589252 0.828045 0.884068
Si Si7 0.087366 0.434319 0.597660
Si Si8 0.398063 0.836138 0.825042
O O1 0.500000 0.500000 0.500000
O O2 0.758185 0.778167 0.333409
O O3 0.818231 0.667277 0.444101
O O4 0.733569 0.412102 0.215637
O O5 0.735516 0.929542 0.222087
O O6 0.869039 0.688674 0.019857
O O7 0.035773 0.059718 0.172416
O O8 0.234306 0.460710 0.189024
O O9 0.088038 0.614237 0.238397
O O10 0.397740 0.692808 0.007247
O O11 0.308317 0.291306 0.222981
O O12 0.045613 0.332437 0.451397
O O13 0.204761 0.684667 0.618892
O O14 0.438869 0.952693 0.730681
O O15 0.500000 0.000000 0.500000
O O16 0.570310 0.857605 0.775585
O O17 0.683172 0.058650 0.986294
#
# Coordination Sequence:
#
# PCOD8025482 Si02
#       8
#     2   2   2   2   2   2   2   2
#     4  11  24  46  73 106 149 188 244 290 369 438
#     4  12  26  45  75 109 144 193 236 305 363 427
#     4  12  26  46  72 108 146 191 244 296 369 425
#     4  12  27  46  72 109 152 182 249 297 368 426
#     4  11  25  43  74 104 145 190 240 291 368 428
#     4  11  25  44  77 102 144 193 239 301 357 428
#     4  11  27  45  71 104 149 189 237 307 351 436
#     4  10  23  45  68 108 137 182 247 291 348 433
#
# _framework density 23.949294999999999
#
# number of rings (size 3 to 8) (size 9 to 14) (size 15 to 20)
#    0.000    0.750    2.500    4.125    7.000    4.000 
#    0.000    0.000    0.000    0.000    0.000    0.000 
#    0.000    0.000    0.000    0.000    0.000    0.000 
#
# Total GULP energy -198395.341593 kJ/mol
# GULP energy per Si atom -12399.708850 kJ/mol
# Density = 2.389479 g / cm^3
# Si number density = 23.949295 Si / 1000 Ang^3
#
#
#
# Elastic Constant Matrix: (Units=GPa)
#
#
# Indices 1 2 3 4 5 6 
#
# 1 151.4076 24.4468 46.2907 -12.8336 2.6450 -32.3924
# 2 24.4468 70.6839 20.6269 -9.1477 0.4966 -10.3959
# 3 46.2907 20.6269 94.6487 -3.9778 -0.5691 2.7982
# 4 -12.8336 -9.1477 -3.9778 38.9712 3.6099 7.4651
# 5 2.6450 0.4966 -0.5691 3.6099 48.8910 -3.7784
# 6 -32.3924 -10.3959 2.7982 7.4651 -3.7784 41.7049
#
#
#
# Elastic Compliance Matrix: (Units=1/GPa)
#
#
# Indices 1 2 3 4 5 6 
#
# 1 0.009957 -0.000742 -0.004887 0.001145 -0.000080 0.007664
# 2 -0.000742 0.016126 -0.003136 0.002623 -0.000108 0.003175
# 3 -0.004887 -0.003136 0.013807 0.000120 0.000021 -0.005523
# 4 0.001145 0.002623 0.000120 0.027581 -0.002403 -0.003619
# 5 -0.000080 -0.000108 0.000021 -0.002403 0.020809 0.002225
# 6 0.007664 0.003175 -0.005523 -0.003619 0.002225 0.031942
#
#
# Mechanical properties :
#
#
# Convention : Reuss Voigt Hill
#
# Bulk Modulus (GPa) = 44.72002 55.49657 50.10830
# Shear Modulus (GPa) = 34.43402 40.93848 37.68625
#
# Velocity S-wave (km/s) = 3.79593 4.13895 3.97115
# Velocity P-wave (km/s) = 6.15837 6.78705 6.48034
#
# Compressibility (1/GPa) = 0.02236135
#
# Stress axis : x y z
#
# Youngs Moduli (GPa) = 100.43477 62.01057 72.42498
#
# Poissons Ratio (x) = 0.04598 0.35394
# Poissons Ratio (y) = 0.07448 0.22713
# Poissons Ratio (z) = 0.49082 0.19447
#
# Static dielectric constant tensor:
#      x y z
#    x 4.735840 -0.253540 0.233580 
#    y -0.253540 4.470250 0.207550 
#    z 0.233580 0.207550 4.283410 
# 
# 
# High freq. dielectric constant tensor:
#      x y z
#    x 1.964780 -0.018890 0.014910 
#    y -0.018890 1.941550 0.011290 
#    z 0.014910 0.011290 1.951000 
# 
# From -- ./inp_files/419701.got.cif
#   From: 2010.06.25/outbox.cif.g09.slc.cpg/sg2_210_cif.got.tgz:419701.got - 2010.06.27 13:26:56.
