data_PCOD8025752
_publ_section_title
;
Structure prediction by ZEFSAII (Michael W. Deem and Ramdas Pophale) SiO2 
 PCOD8025752
Probable space group: P -1
;
_chemical_formula_sum "Si O2"
_cell_formula_units_Z 16
_cell_length_a 6.713834
_cell_length_b 8.405851
_cell_length_c 18.861221
_cell_angle_alpha 41.298648
_cell_angle_beta 89.624341
_cell_angle_gamma 85.838541
_cell_volume 698.800187
_symmetry_space_group_name_H-M "P -1"
_symmetry_group_IT_number 2
_symmetry_cell_setting 'triclinic'
loop_
_space_group_symop_operation_xyz
x,y,z
-x,-y,-z
loop_
_atom_site_type_symbol
_atom_site_label
_atom_site_fract_x
_atom_site_fract_y
_atom_site_fract_z
Si Si1 0.200553 0.502328 0.285628
Si Si2 0.505841 0.608430 0.854941
Si Si3 0.747253 0.956131 0.660059
Si Si4 0.431551 0.198076 0.492533
Si Si5 0.894082 0.768984 0.401005
Si Si6 0.821924 0.809990 0.230574
Si Si7 0.502443 0.768982 0.127349
Si Si8 0.821115 0.338449 0.042048
O O1 0.182567 0.258361 0.323147
O O2 0.360168 0.447364 0.368569
O O3 0.277151 0.720060 0.166591
O O4 0.982631 0.585133 0.287888
O O5 0.591888 0.857559 0.749087
O O6 0.410626 0.471866 0.835113
O O7 0.327633 0.663545 0.890961
O O8 0.692860 0.431253 0.943394
O O9 0.629862 0.195104 0.542168
O O10 0.937895 0.043340 0.669369
O O11 0.246692 0.141427 0.562527
O O12 0.500000 0.000000 0.500000
O O13 0.769951 0.793283 0.319659
O O14 0.000000 0.500000 0.500000
O O15 0.624384 0.796155 0.189462
O O16 0.911932 0.060774 0.125051
O O17 0.500000 0.000000 0.000000
O O18 0.000000 0.500000 0.000000
#
# Coordination Sequence:
#
# PCOD8025752 Si02
#       8
#     2   2   2   2   2   2   2   2
#     4  10  25  43  70 106 135 188 245 289 364 428
#     4  10  23  46  65 103 134 187 242 293 359 433
#     4  10  24  45  72  96 149 186 241 296 360 434
#     4  10  23  46  73 105 140 193 238 295 364 434
#     4  12  26  45  72 113 145 187 243 299 369 433
#     4  12  26  43  70 106 144 182 236 306 356 424
#     4  11  25  46  70  98 140 188 240 296 355 430
#     4  11  24  41  72 100 140 184 238 295 366 426
#
# _framework density 22.896388000000002
#
# number of rings (size 3 to 8) (size 9 to 14) (size 15 to 20)
#    0.000    1.250    2.500    1.500    3.500   11.000 
#    0.000    0.000    0.000    0.000    0.000    0.000 
#    0.000    0.000    0.000    0.000    0.000    0.000 
#
# Total GULP energy -198313.735538 kJ/mol
# GULP energy per Si atom -12394.608471 kJ/mol
# Density = 2.284427 g / cm^3
# Si number density = 22.896388 Si / 1000 Ang^3
#
#
#
# Elastic Constant Matrix: (Units=GPa)
#
#
# Indices 1 2 3 4 5 6 
#
# 1 88.4513 56.5436 35.6740 1.9509 -2.6163 -2.5644
# 2 56.5436 100.4997 47.3681 11.7797 -6.9234 11.3960
# 3 35.6740 47.3681 111.6165 7.3101 -1.5001 3.5093
# 4 1.9509 11.7797 7.3101 40.9283 2.4805 0.2146
# 5 -2.6163 -6.9234 -1.5001 2.4805 40.2328 -0.5645
# 6 -2.5644 11.3960 3.5093 0.2146 -0.5645 40.5568
#
#
#
# Elastic Compliance Matrix: (Units=1/GPa)
#
#
# Indices 1 2 3 4 5 6 
#
# 1 0.018855 -0.010568 -0.001850 0.002497 -0.000755 0.004298
# 2 -0.010568 0.019260 -0.004294 -0.004404 0.002659 -0.005648
# 3 -0.001850 -0.004294 0.011410 -0.000691 -0.000390 0.000101
# 4 0.002497 -0.004404 -0.000691 0.025831 -0.002196 0.001288
# 5 -0.000755 0.002659 -0.000390 -0.002196 0.025379 -0.000396
# 6 0.004298 -0.005648 0.000101 0.001288 -0.000396 0.026495
#
#
# Mechanical properties :
#
#
# Convention : Reuss Voigt Hill
#
# Bulk Modulus (GPa) = 62.11262 64.41544 63.26403
# Shear Modulus (GPa) = 30.11662 35.07570 32.59616
#
# Velocity S-wave (km/s) = 3.63070 3.91824 3.77721
# Velocity P-wave (km/s) = 6.69048 6.97600 6.83473
#
# Compressibility (1/GPa) = 0.01609979
#
# Stress axis : x y z
#
# Youngs Moduli (GPa) = 53.03642 51.92089 87.64449
#
# Poissons Ratio (x) = 0.54872 0.16215
# Poissons Ratio (y) = 0.56051 0.37635
# Poissons Ratio (z) = 0.09812 0.22295
#
# Static dielectric constant tensor:
#      x y z
#    x 3.994370 0.005800 0.247750 
#    y 0.005800 4.222930 0.147270 
#    z 0.247750 0.147270 4.513020 
# 
# 
# High freq. dielectric constant tensor:
#      x y z
#    x 1.893030 -0.003960 0.006890 
#    y -0.003960 1.906640 0.010190 
#    z 0.006890 0.010190 1.920750 
# 
# From -- ./inp_files/126444.got.cif
#   From: 2010.06.25/outbox.cif.g09.slc.cpg/sg2_64_cif.got.tgz:126444.got - 2010.06.27 13:26:56.
