data_PCOD8025001
_publ_section_title
;
Structure prediction by ZEFSAII (Michael W. Deem and Ramdas Pophale) SiO2 
 PCOD8025001
Probable space group: P -1
;
_chemical_formula_sum "Si O2"
_cell_formula_units_Z 14
_cell_length_a 11.184212
_cell_length_b 18.549755
_cell_length_c 9.491982
_cell_angle_alpha 45.774326
_cell_angle_beta 117.513494
_cell_angle_gamma 150.358981
_cell_volume 637.477409
_symmetry_space_group_name_H-M "P -1"
_symmetry_group_IT_number 2
_symmetry_cell_setting 'triclinic'
loop_
_space_group_symop_operation_xyz
x,y,z
-x,-y,-z
loop_
_atom_site_type_symbol
_atom_site_label
_atom_site_fract_x
_atom_site_fract_y
_atom_site_fract_z
Si Si1 0.721221 0.130905 0.063278
Si Si2 0.771651 0.771718 0.194391
Si Si3 0.892856 0.461160 0.797731
Si Si4 0.345351 0.517882 0.534164
Si Si5 0.302416 0.462017 0.898992
Si Si6 0.504586 0.099269 0.464397
Si Si7 0.563842 0.324507 0.061365
O O1 0.984218 0.237867 0.009608
O O2 0.611218 0.994433 0.318284
O O3 0.783341 0.281798 0.945731
O O4 0.500000 0.000000 0.000000
O O5 0.627832 0.686343 0.382431
O O6 0.845303 0.702196 0.300758
O O7 0.580942 0.676912 0.090770
O O8 0.000000 0.000000 0.000000
O O9 0.797780 0.474901 0.605438
O O10 0.205746 0.667070 0.683564
O O11 0.793731 0.431640 0.937497
O O12 0.409600 0.572601 0.658677
O O13 0.500000 0.500000 0.000000
O O14 0.303035 0.547430 0.900673
O O15 0.364157 0.103354 0.298925
O O16 0.500000 0.000000 0.500000
#
# Coordination Sequence:
#
# PCOD8025001 Si02
#       7
#     2   2   2   2   2   2   2
#     4  12  28  46  72 106 143 188 242 291 354 428
#     4  10  23  44  67  95 134 181 237 281 336 433
#     4  11  24  46  71  99 143 183 239 298 350 420
#     4  10  24  42  68  95 133 188 225 278 361 410
#     4  12  25  47  69 102 149 186 228 296 359 412
#     4  12  24  42  73 104 132 181 238 296 356 411
#     4  11  23  44  69 100 139 182 231 294 353 413
#
# _framework density 21.961561
#
# number of rings (size 3 to 8) (size 9 to 14) (size 15 to 20)
#    0.000    0.857    4.286    2.143    4.000    4.571 
#    0.000    1.429    0.000    0.000    0.000    0.000 
#    0.000    0.000    0.000    0.000    0.000    0.000 
#
# Total GULP energy -173491.332779 kJ/mol
# GULP energy per Si atom -12392.238056 kJ/mol
# Density = 2.191158 g / cm^3
# Si number density = 21.961561 Si / 1000 Ang^3
#
#
#
# Elastic Constant Matrix: (Units=GPa)
#
#
# Indices 1 2 3 4 5 6 
#
# 1 91.7320 51.8139 53.2107 9.0463 7.2966 4.4592
# 2 51.8139 92.0533 51.6870 4.4866 -21.3931 -10.7780
# 3 53.2107 51.6870 174.6074 19.0839 -2.8521 -5.0430
# 4 9.0463 4.4866 19.0839 50.7964 -8.7577 0.9437
# 5 7.2966 -21.3931 -2.8521 -8.7577 34.7221 4.9116
# 6 4.4592 -10.7780 -5.0430 0.9437 4.9116 35.7201
#
#
#
# Elastic Compliance Matrix: (Units=1/GPa)
#
#
# Indices 1 2 3 4 5 6 
#
# 1 0.022855 -0.015451 -0.002330 -0.004273 -0.014786 -0.005698
# 2 -0.015451 0.026395 -0.003123 0.004838 0.019534 0.006638
# 3 -0.002330 -0.003123 0.007625 -0.002450 -0.001525 0.000700
# 4 -0.004273 0.004838 -0.002450 0.022566 0.009404 -0.000242
# 5 -0.014786 0.019534 -0.001525 0.009404 0.046056 0.000943
# 6 -0.005698 0.006638 0.000700 -0.000242 0.000943 0.030685
#
#
# Mechanical properties :
#
#
# Convention : Reuss Voigt Hill
#
# Bulk Modulus (GPa) = 66.37236 74.64620 70.50928
# Shear Modulus (GPa) = 24.62920 37.69310 31.16115
#
# Velocity S-wave (km/s) = 3.35247 4.14735 3.77091
# Velocity P-wave (km/s) = 6.72852 7.54965 7.15088
#
# Compressibility (1/GPa) = 0.01506651
#
# Stress axis : x y z
#
# Youngs Moduli (GPa) = 43.75451 37.88650 131.15395
#
# Poissons Ratio (x) = 0.58538 0.30561
# Poissons Ratio (y) = 0.67605 0.40955
# Poissons Ratio (z) = 0.10195 0.11831
#
# Static dielectric constant tensor:
#      x y z
#    x 4.395540 0.223250 0.243970 
#    y 0.223250 4.067370 0.292860 
#    z 0.243970 0.292860 4.522670 
# 
# 
# High freq. dielectric constant tensor:
#      x y z
#    x 1.872470 -0.001660 0.011260 
#    y -0.001660 1.858640 0.022510 
#    z 0.011260 0.022510 1.885010 
# 
# From -- ./inp_files/118831.got.cif
#   From: 2010.06.25/outbox.cif.g09.slc.cpg/sg2_60_cif.got.tgz:118831.got - 2010.06.27 13:26:56.
