data_PCOD8025265
_publ_section_title
;
Structure prediction by ZEFSAII (Michael W. Deem and Ramdas Pophale) SiO2 
 PCOD8025265
Probable space group: P -1
;
_chemical_formula_sum "Si O2"
_cell_formula_units_Z 16
_cell_length_a 8.656211
_cell_length_b 10.775576
_cell_length_c 12.548238
_cell_angle_alpha 54.188984
_cell_angle_beta 132.373465
_cell_angle_gamma 118.681847
_cell_volume 694.024147
_symmetry_space_group_name_H-M "P -1"
_symmetry_group_IT_number 2
_symmetry_cell_setting 'triclinic'
loop_
_space_group_symop_operation_xyz
x,y,z
-x,-y,-z
loop_
_atom_site_type_symbol
_atom_site_label
_atom_site_fract_x
_atom_site_fract_y
_atom_site_fract_z
Si Si1 0.637348 0.074245 0.698516
Si Si2 0.561121 0.619745 0.132585
Si Si3 0.152387 0.423042 0.529149
Si Si4 0.981345 0.928782 0.411555
Si Si5 0.013936 0.667829 0.209695
Si Si6 0.855697 0.601184 0.943863
Si Si7 0.576601 0.054559 0.121099
Si Si8 0.322140 0.134380 0.360223
O O1 0.517515 0.180994 0.509180
O O2 0.875437 0.164048 0.781713
O O3 0.529422 0.045000 0.778457
O O4 0.626482 0.908239 0.717170
O O5 0.626719 0.599286 0.298115
O O6 0.778336 0.622372 0.168336
O O7 0.377454 0.480641 0.087169
O O8 0.455010 0.767913 0.975743
O O9 0.061137 0.256185 0.522435
O O10 0.000000 0.500000 0.500000
O O11 0.167892 0.540976 0.376795
O O12 0.814109 0.023706 0.233186
O O13 0.000000 0.000000 0.500000
O O14 0.200773 0.973730 0.430147
O O15 0.992735 0.673985 0.070168
O O16 0.819859 0.730864 0.776382
O O17 0.000000 0.500000 0.000000
O O18 0.500000 0.000000 0.000000
#
# Coordination Sequence:
#
# PCOD8025265 Si02
#       8
#     2   2   2   2   2   2   2   2
#     4  11  26  46  73 104 135 188 233 293 349 420
#     4  11  24  47  68 100 137 186 229 282 355 421
#     4  10  23  44  71  99 137 187 234 283 349 428
#     4  12  25  45  74 107 140 189 237 295 356 416
#     4  11  26  45  72 100 138 182 237 285 348 420
#     4  12  28  43  67 102 141 182 225 293 346 413
#     4  12  26  44  72 105 143 182 234 293 356 420
#     4  11  25  48  71 101 143 181 239 285 353 426
#
# _framework density 23.053951999999999
#
# number of rings (size 3 to 8) (size 9 to 14) (size 15 to 20)
#    0.000    0.750    2.500    4.125    7.000    4.000 
#    0.000    1.875    0.000    0.000    0.000    0.000 
#    0.000    0.000    0.000    0.000    0.000    0.000 
#
# Total GULP energy -198213.731485 kJ/mol
# GULP energy per Si atom -12388.358218 kJ/mol
# Density = 2.300148 g / cm^3
# Si number density = 23.053952 Si / 1000 Ang^3
#
#
#
# Elastic Constant Matrix: (Units=GPa)
#
#
# Indices 1 2 3 4 5 6 
#
# 1 75.1924 23.3590 23.0497 14.1818 -0.5372 -3.4993
# 2 23.3590 122.4449 57.5367 12.2447 2.2993 -8.0856
# 3 23.0497 57.5367 147.6899 7.3438 3.0742 -15.6181
# 4 14.1818 12.2447 7.3438 53.9503 -9.0294 5.3071
# 5 -0.5372 2.2993 3.0742 -9.0294 37.5545 2.6182
# 6 -3.4993 -8.0856 -15.6181 5.3071 2.6182 38.1000
#
#
#
# Elastic Compliance Matrix: (Units=1/GPa)
#
#
# Indices 1 2 3 4 5 6 
#
# 1 0.014977 -0.001798 -0.001350 -0.003520 -0.000479 0.000964
# 2 -0.001798 0.010434 -0.003596 -0.001628 -0.000822 0.000859
# 3 -0.001350 -0.003596 0.008717 -0.000427 -0.000811 0.002801
# 4 -0.003520 -0.001628 -0.000427 0.021216 0.005476 -0.004175
# 5 -0.000479 -0.000822 -0.000811 0.005476 0.028282 -0.003257
# 6 0.000964 0.000859 0.002801 -0.004175 -0.003257 0.028471
#
#
# Mechanical properties :
#
#
# Convention : Reuss Voigt Hill
#
# Bulk Modulus (GPa) = 48.44784 61.46865 54.95825
# Shear Modulus (GPa) = 37.74598 42.01306 39.87952
#
# Velocity S-wave (km/s) = 4.05073 4.27357 4.16364
# Velocity P-wave (km/s) = 6.55275 7.14647 6.85604
#
# Compressibility (1/GPa) = 0.02064075
#
# Stress axis : x y z
#
# Youngs Moduli (GPa) = 66.76903 95.83639 114.72215
#
# Poissons Ratio (x) = 0.17233 0.15487
# Poissons Ratio (y) = 0.12006 0.41249
# Poissons Ratio (z) = 0.09014 0.34458
#
# Static dielectric constant tensor:
#      x y z
#    x 4.213990 -0.145710 -0.091630 
#    y -0.145710 4.080480 0.224850 
#    z -0.091630 0.224850 4.769300 
# 
# 
# High freq. dielectric constant tensor:
#      x y z
#    x 1.895860 -0.003290 0.003560 
#    y -0.003290 1.909290 0.005940 
#    z 0.003560 0.005940 1.941860 
# 
# From -- ./inp_files/392392.got.cif
#   From: 2010.06.25/outbox.cif.g09.slc.cpg/sg2_197_cif.got.tgz:392392.got - 2010.06.27 13:26:56.
