data_PCOD8025689
_publ_section_title
;
Structure prediction by ZEFSAII (Michael W. Deem and Ramdas Pophale) SiO2 
 PCOD8025689
Probable space group: P -1
;
_chemical_formula_sum "Si O2"
_cell_formula_units_Z 16
_cell_length_a 11.377981
_cell_length_b 18.251880
_cell_length_c 8.131139
_cell_angle_alpha 134.413465
_cell_angle_beta 74.489712
_cell_angle_gamma 138.146939
_cell_volume 681.117801
_symmetry_space_group_name_H-M "P -1"
_symmetry_group_IT_number 2
_symmetry_cell_setting 'triclinic'
loop_
_space_group_symop_operation_xyz
x,y,z
-x,-y,-z
loop_
_atom_site_type_symbol
_atom_site_label
_atom_site_fract_x
_atom_site_fract_y
_atom_site_fract_z
Si Si1 0.966971 0.859319 0.764377
Si Si2 0.230846 0.622819 0.770864
Si Si3 0.417038 0.455655 0.777672
Si Si4 0.026852 0.678804 0.016689
Si Si5 0.359222 0.008728 0.927580
Si Si6 0.574581 0.958963 0.678850
Si Si7 0.786516 0.608574 0.720109
Si Si8 0.323205 0.616032 0.071658
O O1 0.822800 0.741187 0.472188
O O2 0.868701 0.755447 0.808548
O O3 0.183026 0.946506 0.791150
O O4 0.000000 0.000000 0.000000
O O5 0.051159 0.587309 0.761664
O O6 0.162652 0.461427 0.505198
O O7 0.425808 0.782536 0.834859
O O8 0.290223 0.668417 0.013008
O O9 0.546217 0.471401 0.629967
O O10 0.500000 0.500000 0.000000
O O11 0.440192 0.591447 0.934554
O O12 0.894617 0.673125 0.958259
O O13 0.900591 0.567904 0.055760
O O14 0.258300 0.886586 0.278220
O O15 0.387635 0.914065 0.694430
O O16 0.300811 0.963626 0.072343
O O17 0.474135 0.780545 0.397099
#
# Coordination Sequence:
#
# PCOD8025689 Si02
#       8
#     2   2   2   2   2   2   2   2
#     4  12  27  44  75 105 139 192 251 306 364 435
#     4  11  25  43  74 107 145 187 238 304 374 442
#     4  12  28  49  68 101 145 195 244 305 364 434
#     4  11  24  45  73 108 141 192 241 299 372 444
#     4  10  23  45  73 106 143 188 242 307 365 442
#     4  10  24  46  72 107 149 186 245 303 372 441
#     4  12  24  48  71 100 141 189 251 295 366 444
#     4  12  26  44  72 104 153 195 240 304 371 436
#
# _framework density 23.490798999999999
#
# number of rings (size 3 to 8) (size 9 to 14) (size 15 to 20)
#    0.000    0.750    3.750    2.625    5.250    4.000 
#    0.000    1.250    0.000    0.000    0.000    0.000 
#    0.000    0.000    0.000    0.000    0.000    0.000 
#
# Total GULP energy -198391.307250 kJ/mol
# GULP energy per Si atom -12399.456703 kJ/mol
# Density = 2.343733 g / cm^3
# Si number density = 23.490799 Si / 1000 Ang^3
#
#
#
# Elastic Constant Matrix: (Units=GPa)
#
#
# Indices 1 2 3 4 5 6 
#
# 1 142.4544 25.3262 50.1050 5.6669 -5.3869 10.6462
# 2 25.3262 90.3111 4.8424 8.5464 -9.2187 -0.7805
# 3 50.1050 4.8424 106.0189 7.9342 -20.1229 2.3332
# 4 5.6669 8.5464 7.9342 26.2239 -4.8270 -1.5592
# 5 -5.3869 -9.2187 -20.1229 -4.8270 31.5233 3.8292
# 6 10.6462 -0.7805 2.3332 -1.5592 3.8292 43.8945
#
#
#
# Elastic Compliance Matrix: (Units=1/GPa)
#
#
# Indices 1 2 3 4 5 6 
#
# 1 0.009122 -0.002499 -0.004488 -0.000250 -0.001848 -0.001866
# 2 -0.002499 0.012374 0.001544 -0.003272 0.003639 0.000310
# 3 -0.004488 0.001544 0.013124 -0.002092 0.007783 -0.000335
# 4 -0.000250 -0.003272 -0.002092 0.040648 0.003740 0.001231
# 5 -0.001848 0.003639 0.007783 0.003740 0.038390 -0.003117
# 6 -0.001866 0.000310 -0.000335 0.001231 -0.003117 0.023573
#
#
# Mechanical properties :
#
#
# Convention : Reuss Voigt Hill
#
# Bulk Modulus (GPa) = 42.13028 55.48127 48.80578
# Shear Modulus (GPa) = 32.04540 37.56240 34.80390
#
# Velocity S-wave (km/s) = 3.69747 4.00312 3.85333
# Velocity P-wave (km/s) = 6.01682 6.71090 6.37332
#
# Compressibility (1/GPa) = 0.02373590
#
# Stress axis : x y z
#
# Youngs Moduli (GPa) = 109.62404 80.81140 76.19674
#
# Poissons Ratio (x) = 0.20192 0.34198
# Poissons Ratio (y) = 0.27391 -0.11768
# Poissons Ratio (z) = 0.49200 -0.12480
#
# Static dielectric constant tensor:
#      x y z
#    x 4.613780 0.049610 0.017790 
#    y 0.049610 4.209650 -0.016530 
#    z 0.017790 -0.016530 3.904400 
# 
# 
# High freq. dielectric constant tensor:
#      x y z
#    x 1.950780 -0.000140 -0.002680 
#    y -0.000140 1.928770 0.001800 
#    z -0.002680 0.001800 1.911100 
# 
# From -- ./inp_files/283372.got.cif
#   From: 2010.06.25/outbox.cif.g09.slc.cpg/sg2_142_cif.got.tgz:283372.got - 2010.06.27 13:26:56.
