data_PCOD8025608
_publ_section_title
;
Structure prediction by ZEFSAII (Michael W. Deem and Ramdas Pophale) SiO2 
 PCOD8025608
Probable space group: P -1
;
_chemical_formula_sum "Si O2"
_cell_formula_units_Z 16
_cell_length_a 10.309690
_cell_length_b 11.688965
_cell_length_c 13.507437
_cell_angle_alpha 140.187991
_cell_angle_beta 46.272460
_cell_angle_gamma 115.812197
_cell_volume 736.909454
_symmetry_space_group_name_H-M "P -1"
_symmetry_group_IT_number 2
_symmetry_cell_setting 'triclinic'
loop_
_space_group_symop_operation_xyz
x,y,z
-x,-y,-z
loop_
_atom_site_type_symbol
_atom_site_label
_atom_site_fract_x
_atom_site_fract_y
_atom_site_fract_z
Si Si1 0.526648 0.035384 0.777480
Si Si2 0.010471 0.970831 0.138305
Si Si3 0.412486 0.330066 0.409201
Si Si4 0.356305 0.805760 0.979692
Si Si5 0.012641 0.613991 0.343289
Si Si6 0.854781 0.021673 0.450471
Si Si7 0.094479 0.630476 0.100644
Si Si8 0.114369 0.234856 0.109913
O O1 0.661591 0.071172 0.641845
O O2 0.510635 0.824051 0.651044
O O3 0.601165 0.069966 0.870164
O O4 0.330820 0.157956 0.938910
O O5 0.020793 0.160133 0.204193
O O6 0.198763 0.911537 0.060407
O O7 0.838930 0.992787 0.320659
O O8 0.986095 0.817800 0.970465
O O9 0.500000 0.500000 0.500000
O O10 0.462040 0.263836 0.226412
O O11 0.196680 0.383696 0.568825
O O12 0.288792 0.633135 0.948771
O O13 0.038625 0.811899 0.493225
O O14 0.128157 0.552642 0.141336
O O15 0.083222 0.454779 0.280563
O O16 0.977194 0.838912 0.311852
O O17 0.000000 0.500000 0.000000
#
# Coordination Sequence:
#
# PCOD8025608 Si02
#       8
#     2   2   2   2   2   2   2   2
#     4  12  25  46  71 102 141 177 234 286 341 404
#     4  10  23  45  70  96 139 184 228 269 355 410
#     4  12  24  40  68 106 133 177 236 290 325 406
#     4  11  23  43  72 102 131 180 231 285 336 402
#     4  12  24  43  68 100 142 177 229 281 349 410
#     4  11  24  44  70  99 135 184 231 284 336 413
#     4  11  21  40  70 101 133 179 227 282 340 406
#     4  11  26  45  68 100 144 186 217 286 352 412
#
# _framework density 21.712302000000001
#
# number of rings (size 3 to 8) (size 9 to 14) (size 15 to 20)
#    0.000    0.750    3.750    5.250    3.500    1.500 
#    0.000    0.000    0.000    0.000    0.000    0.000 
#    0.000    0.000    0.000    0.000    0.000    0.000 
#
# Total GULP energy -198367.103336 kJ/mol
# GULP energy per Si atom -12397.943959 kJ/mol
# Density = 2.166288 g / cm^3
# Si number density = 21.712302 Si / 1000 Ang^3
#
#
#
# Elastic Constant Matrix: (Units=GPa)
#
#
# Indices 1 2 3 4 5 6 
#
# 1 73.3533 23.9906 17.6809 6.7783 6.0388 -2.5632
# 2 23.9906 144.1119 44.8012 1.3985 2.7257 3.7017
# 3 17.6809 44.8012 72.0933 -3.7508 0.1214 -8.1785
# 4 6.7783 1.3985 -3.7508 53.4819 -6.4731 10.5720
# 5 6.0388 2.7257 0.1214 -6.4731 35.6518 -3.5499
# 6 -2.5632 3.7017 -8.1785 10.5720 -3.5499 37.2419
#
#
#
# Elastic Compliance Matrix: (Units=1/GPa)
#
#
# Indices 1 2 3 4 5 6 
#
# 1 0.015352 -0.001650 -0.002748 -0.002656 -0.002838 0.001101
# 2 -0.001650 0.008970 -0.005425 -0.000037 -0.000618 -0.002245
# 3 -0.002748 -0.005425 0.018451 0.001124 0.001442 0.004220
# 4 -0.002656 -0.000037 0.001124 0.020632 0.003653 -0.005441
# 5 -0.002838 -0.000618 0.001442 0.003653 0.029430 0.001951
# 6 0.001101 -0.002245 0.004220 -0.005441 0.001951 0.029808
#
#
# Mechanical properties :
#
#
# Convention : Reuss Voigt Hill
#
# Bulk Modulus (GPa) = 43.24072 51.38933 47.31503
# Shear Modulus (GPa) = 33.33361 38.81416 36.07389
#
# Velocity S-wave (km/s) = 3.92247 4.23266 4.08051
# Velocity P-wave (km/s) = 6.36183 6.89977 6.63625
#
# Compressibility (1/GPa) = 0.02312635
#
# Stress axis : x y z
#
# Youngs Moduli (GPa) = 65.13671 111.48240 54.19728
#
# Poissons Ratio (x) = 0.18397 0.14895
# Poissons Ratio (y) = 0.10749 0.29403
# Poissons Ratio (z) = 0.17901 0.60481
#
# Static dielectric constant tensor:
#      x y z
#    x 6.842200 -8.878780 2.579980 
#    y -8.878780 29.579070 -6.862710 
#    z 2.579980 -6.862710 5.792840 
# 
# 
# High freq. dielectric constant tensor:
#      x y z
#    x 1.829280 0.004560 0.017510 
#    y 0.004560 1.885270 -0.012930 
#    z 0.017510 -0.012930 1.846280 
# 
# From -- ./inp_files/519894.got.cif
#   From: 2010.06.25/outbox.cif.g09.slc.cpg/sg2_260_cif.got.tgz:519894.got - 2010.06.27 13:26:56.
