data_PCOD8025936
_publ_section_title
;
Structure prediction by ZEFSAII (Michael W. Deem and Ramdas Pophale) SiO2 
 PCOD8025936
Probable space group: P -1
;
_chemical_formula_sum "Si O2"
_cell_formula_units_Z 16
_cell_length_a 12.112414
_cell_length_b 8.912064
_cell_length_c 9.101802
_cell_angle_alpha 47.908853
_cell_angle_beta 94.757689
_cell_angle_gamma 101.730568
_cell_volume 711.945653
_symmetry_space_group_name_H-M "P -1"
_symmetry_group_IT_number 2
_symmetry_cell_setting 'triclinic'
loop_
_space_group_symop_operation_xyz
x,y,z
-x,-y,-z
loop_
_atom_site_type_symbol
_atom_site_label
_atom_site_fract_x
_atom_site_fract_y
_atom_site_fract_z
Si Si1 0.089655 0.802304 0.248035
Si Si2 0.150483 0.435420 0.129335
Si Si3 0.871345 0.728459 0.093934
Si Si4 0.669274 0.710029 0.563648
Si Si5 0.447480 0.767168 0.611934
Si Si6 0.264519 0.818528 0.754571
Si Si7 0.956269 0.195176 0.427318
Si Si8 0.722397 0.436173 0.494862
O O1 0.026565 0.790310 0.406277
O O2 0.184862 0.665209 0.345134
O O3 0.993908 0.709037 0.181847
O O4 0.145506 0.036594 0.059711
O O5 0.228386 0.304014 0.308565
O O6 0.029061 0.396600 0.222017
O O7 0.138800 0.356623 0.014507
O O8 0.204264 0.682255 0.974284
O O9 0.774823 0.595852 0.269965
O O10 0.551442 0.648678 0.682618
O O11 0.662512 0.556186 0.528432
O O12 0.687730 0.945137 0.348623
O O13 0.362450 0.700809 0.783543
O O14 0.374457 0.740205 0.471134
O O15 0.500000 0.000000 0.500000
O O16 0.175135 0.815094 0.613762
O O17 0.000000 0.000000 0.500000
#
# Coordination Sequence:
#
# PCOD8025936 Si02
#       8
#     2   2   2   2   2   2   2   2
#     4  11  24  43  65 102 145 182 218 280 347 409
#     4  12  24  41  69 102 136 183 226 280 338 410
#     4  11  24  40  68 101 142 183 223 276 342 414
#     4  11  26  44  71  99 137 178 231 286 335 400
#     4  10  23  46  76  97 130 185 233 283 341 398
#     4  11  23  44  67 101 134 178 231 281 335 408
#     4  12  21  40  70  96 139 179 226 280 338 405
#     4  12  24  46  68 102 138 179 227 283 345 402
#
# _framework density 22.473624999999998
#
# number of rings (size 3 to 8) (size 9 to 14) (size 15 to 20)
#    0.000    0.750    5.000    1.875    1.750    3.500 
#    0.000    0.000    0.000    3.750    0.000    0.000 
#    0.000    0.000    0.000    0.000    0.000    0.000 
#
# Total GULP energy -198395.197447 kJ/mol
# GULP energy per Si atom -12399.699840 kJ/mol
# Density = 2.242247 g / cm^3
# Si number density = 22.473625 Si / 1000 Ang^3
#
#
#
# Elastic Constant Matrix: (Units=GPa)
#
#
# Indices 1 2 3 4 5 6 
#
# 1 97.8332 52.6991 17.5850 -6.7971 -16.3669 -3.0205
# 2 52.6991 124.7957 44.3737 -0.9010 -4.2043 -5.5433
# 3 17.5850 44.3737 88.2109 -11.3697 -10.3317 4.3980
# 4 -6.7971 -0.9010 -11.3697 26.2190 5.7581 3.1894
# 5 -16.3669 -4.2043 -10.3317 5.7581 18.3429 -4.7454
# 6 -3.0205 -5.5433 4.3980 3.1894 -4.7454 29.7641
#
#
#
# Elastic Compliance Matrix: (Units=1/GPa)
#
#
# Indices 1 2 3 4 5 6 
#
# 1 0.016108 -0.006938 0.002002 0.001474 0.013996 0.002120
# 2 -0.006938 0.013095 -0.006336 -0.003225 -0.005178 0.002191
# 3 0.002002 -0.006336 0.015824 0.006071 0.006587 -0.002915
# 4 0.001474 -0.003225 0.006071 0.044688 -0.012120 -0.008069
# 5 0.013996 -0.005178 0.006587 -0.012120 0.076699 0.013010
# 6 0.002120 0.002191 -0.002915 -0.008069 0.013010 0.037590
#
#
# Mechanical properties :
#
#
# Convention : Reuss Voigt Hill
#
# Bulk Modulus (GPa) = 44.47458 60.01726 52.24592
# Shear Modulus (GPa) = 21.36370 27.94402 24.65386
#
# Velocity S-wave (km/s) = 3.08654 3.53003 3.31571
# Velocity P-wave (km/s) = 5.70394 6.58623 6.16090
#
# Compressibility (1/GPa) = 0.02248476
#
# Stress axis : x y z
#
# Youngs Moduli (GPa) = 62.08072 76.36346 63.19545
#
# Poissons Ratio (x) = 0.52980 -0.12655
# Poissons Ratio (y) = 0.43071 0.40040
# Poissons Ratio (z) = -0.12431 0.48383
#
# Static dielectric constant tensor:
#      x y z
#    x 4.536860 0.009450 -0.263420 
#    y 0.009450 4.168660 -0.200010 
#    z -0.263420 -0.200010 4.342220 
# 
# 
# High freq. dielectric constant tensor:
#      x y z
#    x 1.889570 -0.002540 -0.007130 
#    y -0.002540 1.899820 -0.006160 
#    z -0.007130 -0.006160 1.874330 
# 
# From -- ./inp_files/242130.got.cif
#   From: 2010.06.25/outbox.cif.g09.slc.cpg/sg2_122_cif.got.tgz:242130.got - 2010.06.27 13:26:56.
