data_PCOD8025940
_publ_section_title
;
Structure prediction by ZEFSAII (Michael W. Deem and Ramdas Pophale) SiO2 
 PCOD8025940
Probable space group: P -1
;
_chemical_formula_sum "Si O2"
_cell_formula_units_Z 14
_cell_length_a 11.041886
_cell_length_b 11.905392
_cell_length_c 5.987663
_cell_angle_alpha 113.077644
_cell_angle_beta 130.380765
_cell_angle_gamma 70.877823
_cell_volume 548.561308
_symmetry_space_group_name_H-M "P -1"
_symmetry_group_IT_number 2
_symmetry_cell_setting 'triclinic'
loop_
_space_group_symop_operation_xyz
x,y,z
-x,-y,-z
loop_
_atom_site_type_symbol
_atom_site_label
_atom_site_fract_x
_atom_site_fract_y
_atom_site_fract_z
Si Si1 0.677524 0.580116 0.084983
Si Si2 0.329188 0.646837 0.801374
Si Si3 0.095080 0.249102 0.309113
Si Si4 0.871259 0.415999 0.870888
Si Si5 0.876493 0.967012 0.513225
Si Si6 0.666008 0.898639 0.839358
Si Si7 0.676408 0.129523 0.720335
O O1 0.677433 0.491305 0.229012
O O2 0.814441 0.669234 0.349472
O O3 0.505030 0.659194 0.918758
O O4 0.718815 0.503300 0.849237
O O5 0.193896 0.669195 0.465952
O O6 0.288258 0.743909 0.025633
O O7 0.039277 0.134980 0.295973
O O8 0.212821 0.203425 0.214205
O O9 0.941686 0.328901 0.087397
O O10 0.000000 0.500000 0.000000
O O11 0.816232 0.088715 0.677227
O O12 0.723371 0.914546 0.174749
O O13 0.000000 0.000000 0.500000
O O14 0.491823 0.851841 0.598355
O O15 0.666036 0.028516 0.819198
#
# Coordination Sequence:
#
# PCOD8025940 Si02
#       7
#     2   2   2   2   2   2   2
#     4  11  25  48  74 110 149 197 256 306 365 451
#     4  11  25  48  78 110 153 195 254 309 365 449
#     4  11  25  47  78 108 153 192 251 312 373 445
#     4  12  27  47  75 114 151 201 246 302 388 442
#     4  11  27  48  76 110 148 196 249 308 381 447
#     4  10  23  46  77 105 145 197 249 308 380 435
#     4  10  23  48  75 109 145 194 255 310 367 449
#
# _framework density 25.521305000000002
#
# number of rings (size 3 to 8) (size 9 to 14) (size 15 to 20)
#    0.000    1.143    2.857    1.286    2.000    6.857 
#    2.571    2.143    0.000    0.000    0.000    0.000 
#    0.000    0.000    0.000    0.000    0.000    0.000 
#
# Total GULP energy -173707.336493 kJ/mol
# GULP energy per Si atom -12407.666892 kJ/mol
# Density = 2.546322 g / cm^3
# Si number density = 25.521305 Si / 1000 Ang^3
#
#
#
# Elastic Constant Matrix: (Units=GPa)
#
#
# Indices 1 2 3 4 5 6 
#
# 1 149.5365 58.2169 51.3849 0.5988 -5.2581 -16.8576
# 2 58.2169 105.7667 51.0900 10.7184 -2.2168 -15.4483
# 3 51.3849 51.0900 179.5488 12.0566 4.8237 -11.4654
# 4 0.5988 10.7184 12.0566 40.6247 -4.3770 -7.4724
# 5 -5.2581 -2.2168 4.8237 -4.3770 33.4416 5.0446
# 6 -16.8576 -15.4483 -11.4654 -7.4724 5.0446 37.7403
#
#
#
# Elastic Compliance Matrix: (Units=1/GPa)
#
#
# Indices 1 2 3 4 5 6 
#
# 1 0.009079 -0.004158 -0.001443 0.001921 0.001291 0.002123
# 2 -0.004158 0.013466 -0.002321 -0.002355 -0.000111 0.002498
# 3 -0.001443 -0.002321 0.006812 -0.001489 -0.001618 0.000396
# 4 0.001921 -0.002355 -0.001489 0.026791 0.003216 0.004316
# 5 0.001291 -0.000111 -0.001618 0.003216 0.031282 -0.003505
# 6 0.002123 0.002498 0.000396 0.004316 -0.003505 0.029911
#
#
# Mechanical properties :
#
#
# Convention : Reuss Voigt Hill
#
# Bulk Modulus (GPa) = 74.00710 84.02620 79.01665
# Shear Modulus (GPa) = 36.31387 40.63866 38.47626
#
# Velocity S-wave (km/s) = 3.77621 3.99475 3.88701
# Velocity P-wave (km/s) = 6.93355 7.36700 7.15356
#
# Compressibility (1/GPa) = 0.01351222
#
# Stress axis : x y z
#
# Youngs Moduli (GPa) = 110.14453 74.26295 146.80359
#
# Poissons Ratio (x) = 0.30876 0.21190
# Poissons Ratio (y) = 0.45794 0.34074
# Poissons Ratio (z) = 0.15898 0.17237
#
# Static dielectric constant tensor:
#      x y z
#    x 4.495560 -0.190400 0.135700 
#    y -0.190400 4.568480 0.006960 
#    z 0.135700 0.006960 4.805940 
# 
# 
# High freq. dielectric constant tensor:
#      x y z
#    x 2.024590 -0.008200 0.006260 
#    y -0.008200 2.018410 0.006110 
#    z 0.006260 0.006110 2.030400 
# 
# From -- ./inp_files/72080.got.cif
#   From: 2010.06.25/outbox.cif.g09.slc.cpg/sg2_37_cif.got.tgz:72080.got - 2010.06.27 13:26:56.
