data_PCOD8025410
_publ_section_title
;
Structure prediction by ZEFSAII (Michael W. Deem and Ramdas Pophale) SiO2 
 PCOD8025410
Probable space group: P -1
;
_chemical_formula_sum "Si O2"
_cell_formula_units_Z 14
_cell_length_a 12.429586
_cell_length_b 5.092542
_cell_length_c 12.114531
_cell_angle_alpha 88.892306
_cell_angle_beta 97.875439
_cell_angle_gamma 52.667058
_cell_volume 598.844331
_symmetry_space_group_name_H-M "P -1"
_symmetry_group_IT_number 2
_symmetry_cell_setting 'triclinic'
loop_
_space_group_symop_operation_xyz
x,y,z
-x,-y,-z
loop_
_atom_site_type_symbol
_atom_site_label
_atom_site_fract_x
_atom_site_fract_y
_atom_site_fract_z
Si Si1 0.951596 0.692815 0.709613
Si Si2 0.781939 0.456329 0.649189
Si Si3 0.356486 0.495898 0.755011
Si Si4 0.530933 0.718957 0.760142
Si Si5 0.364213 0.368606 0.996506
Si Si6 0.933667 0.349697 0.044563
Si Si7 0.128741 0.653869 0.568460
O O1 0.881705 0.515025 0.726465
O O2 0.035986 0.687020 0.822094
O O3 0.062552 0.503430 0.626052
O O4 0.835075 0.080098 0.662010
O O5 0.632006 0.676256 0.680274
O O6 0.773802 0.572374 0.519411
O O7 0.451818 0.575204 0.711093
O O8 0.336333 0.595250 0.882957
O O9 0.213062 0.707238 0.667148
O O10 0.421177 0.110696 0.761710
O O11 0.612874 0.512031 0.885556
O O12 0.230273 0.388842 0.997094
O O13 0.500000 0.000000 0.000000
O O14 0.000000 0.500000 0.000000
O O15 0.000000 0.000000 0.000000
O O16 0.000000 0.000000 0.500000
#
# Coordination Sequence:
#
# PCOD8025410 Si02
#       7
#     2   2   2   2   2   2   2
#     4  11  22  43  65  97 132 175 222 274 332 400
#     4  11  24  42  68  97 135 172 224 278 334 391
#     4  11  24  43  67  95 130 177 224 268 336 407
#     4  11  24  41  66  97 135 171 219 274 335 402
#     4  10  23  45  66 100 138 185 222 277 345 420
#     4  12  25  41  69 102 138 178 228 283 343 404
#     4  10  24  45  69  96 130 178 228 278 330 393
#
# _framework density 23.378361999999999
#
# number of rings (size 3 to 8) (size 9 to 14) (size 15 to 20)
#    0.000    1.143    1.429    4.286    0.000   11.429 
#    0.000    0.000    0.000    0.000    0.000    0.000 
#    0.000    0.000    0.000    0.000    0.000    0.000 
#
# Total GULP energy -173539.621198 kJ/mol
# GULP energy per Si atom -12395.687228 kJ/mol
# Density = 2.332515 g / cm^3
# Si number density = 23.378362 Si / 1000 Ang^3
#
#
#
# Elastic Constant Matrix: (Units=GPa)
#
#
# Indices 1 2 3 4 5 6 
#
# 1 181.9656 49.8218 40.5840 -7.6682 5.3849 -16.6989
# 2 49.8218 71.3148 37.3852 1.0905 -1.5708 -5.3554
# 3 40.5840 37.3852 123.5151 -2.5428 -0.2235 -17.2340
# 4 -7.6682 1.0905 -2.5428 25.5962 -6.9892 0.9546
# 5 5.3849 -1.5708 -0.2235 -6.9892 33.2116 6.4792
# 6 -16.6989 -5.3554 -17.2340 0.9546 6.4792 43.0965
#
#
#
# Elastic Compliance Matrix: (Units=1/GPa)
#
#
# Indices 1 2 3 4 5 6 
#
# 1 0.007214 -0.004601 -0.000644 0.001824 -0.001425 0.002140
# 2 -0.004601 0.019648 -0.004671 -0.002234 0.001442 -0.001376
# 3 -0.000644 -0.004671 0.010198 0.000749 -0.000536 0.003312
# 4 0.001824 -0.002234 0.000749 0.042242 0.008791 -0.001529
# 5 -0.001425 0.001442 -0.000536 0.008791 0.033388 -0.005802
# 6 0.002140 -0.001376 0.003312 -0.001529 -0.005802 0.026092
#
#
# Mechanical properties :
#
#
# Convention : Reuss Voigt Hill
#
# Bulk Modulus (GPa) = 58.04312 70.26417 64.15365
# Shear Modulus (GPa) = 30.42163 36.98116 33.70140
#
# Velocity S-wave (km/s) = 3.61123 3.98157 3.80091
# Velocity P-wave (km/s) = 6.50151 7.15944 6.83839
#
# Compressibility (1/GPa) = 0.01722857
#
# Stress axis : x y z
#
# Youngs Moduli (GPa) = 138.61161 50.89668 98.05693
#
# Poissons Ratio (x) = 0.23417 0.06318
# Poissons Ratio (y) = 0.63774 0.45798
# Poissons Ratio (z) = 0.08931 0.23772
#
# Static dielectric constant tensor:
#      x y z
#    x 4.245150 -0.310520 -0.213430 
#    y -0.310520 3.915100 0.054130 
#    z -0.213430 0.054130 5.246790 
# 
# 
# High freq. dielectric constant tensor:
#      x y z
#    x 1.940700 -0.012900 -0.005170 
#    y -0.012900 1.894390 0.004320 
#    z -0.005170 0.004320 1.940390 
# 
# From -- ./inp_files/27607.got.cif
#   From: 2010.06.25/outbox.cif.g09.slc.cpg/sg2_14_cif.got.tgz:27607.got - 2010.06.27 13:26:56.
