data_PCOD8025301
_publ_section_title
;
Structure prediction by ZEFSAII (Michael W. Deem and Ramdas Pophale) SiO2 
 PCOD8025301
Probable space group: P -1
;
_chemical_formula_sum "Si O2"
_cell_formula_units_Z 8
_cell_length_a 7.561043
_cell_length_b 9.954686
_cell_length_c 9.570083
_cell_angle_alpha 136.680137
_cell_angle_beta 85.742537
_cell_angle_gamma 61.847527
_cell_volume 315.299872
_symmetry_space_group_name_H-M "P -1"
_symmetry_group_IT_number 2
_symmetry_cell_setting 'triclinic'
loop_
_space_group_symop_operation_xyz
x,y,z
-x,-y,-z
loop_
_atom_site_type_symbol
_atom_site_label
_atom_site_fract_x
_atom_site_fract_y
_atom_site_fract_z
Si Si1 0.635029 0.551926 0.215329
Si Si2 0.404760 0.326050 0.112455
Si Si3 0.946409 0.824336 0.336478
Si Si4 0.288366 0.316540 0.407714
O O1 0.544724 0.401025 0.094350
O O2 0.737615 0.507483 0.332385
O O3 0.890998 0.379495 0.967776
O O4 0.383929 0.915329 0.466918
O O5 0.078563 0.591507 0.283466
O O6 0.444619 0.293327 0.252484
O O7 0.549844 0.013577 0.801061
O O8 0.000000 0.000000 0.500000
O O9 0.000000 0.500000 0.500000
#
# Coordination Sequence:
#
# PCOD8025301 Si02
#       4
#     2   2   2   2
#     4  11  25  45  73  97 131 180 221 273 338 386
#     4  10  24  45  66  97 138 172 222 278 326 397
#     4  10  23  44  73 100 128 174 227 275 331 392
#     4  11  27  42  66 100 137 178 222 270 330 401
#
# _framework density 25.372672000000001
#
# number of rings (size 3 to 8) (size 9 to 14) (size 15 to 20)
#    0.000    1.500    0.000    3.750   17.500    3.000 
#    0.000    0.000    0.000    0.000    0.000    0.000 
#    0.000    0.000    0.000    0.000    0.000    0.000 
#
# Total GULP energy -99184.410841 kJ/mol
# GULP energy per Si atom -12398.051355 kJ/mol
# Density = 2.531492 g / cm^3
# Si number density = 25.372672 Si / 1000 Ang^3
#
#
#
# Elastic Constant Matrix: (Units=GPa)
#
#
# Indices 1 2 3 4 5 6 
#
# 1 40.9566 17.8302 4.7861 6.9667 -1.7127 8.2785
# 2 17.8302 128.7577 48.3132 14.3605 12.7019 -3.1805
# 3 4.7861 48.3132 136.2765 2.6096 -7.0351 2.7039
# 4 6.9667 14.3605 2.6096 56.3294 -10.3095 5.4720
# 5 -1.7127 12.7019 -7.0351 -10.3095 27.4711 -3.7866
# 6 8.2785 -3.1805 2.7039 5.4720 -3.7866 27.4820
#
#
#
# Elastic Compliance Matrix: (Units=1/GPa)
#
#
# Indices 1 2 3 4 5 6 
#
# 1 0.028350 -0.004640 0.000973 -0.001061 0.002578 -0.008606
# 2 -0.004640 0.011214 -0.004187 -0.003749 -0.007566 0.002811
# 3 0.000973 -0.004187 0.009028 0.001517 0.004696 -0.001321
# 4 -0.001061 -0.003749 0.001517 0.020797 0.009433 -0.003105
# 5 0.002578 -0.007566 0.004696 0.009433 0.045110 0.002223
# 6 -0.008606 0.002811 -0.001321 -0.003105 0.002223 0.040360
#
#
# Mechanical properties :
#
#
# Convention : Reuss Voigt Hill
#
# Bulk Modulus (GPa) = 30.40917 49.76110 40.08514
# Shear Modulus (GPa) = 27.54389 37.92723 32.73556
#
# Velocity S-wave (km/s) = 3.29838 3.87047 3.59582
# Velocity P-wave (km/s) = 5.14944 6.29513 5.75089
#
# Compressibility (1/GPa) = 0.03288481
#
# Stress axis : x y z
#
# Youngs Moduli (GPa) = 35.27336 89.17268 110.76730
#
# Poissons Ratio (x) = 0.41373 -0.10781
# Poissons Ratio (y) = 0.16366 0.46382
# Poissons Ratio (z) = -0.03433 0.37340
#
# Static dielectric constant tensor:
#      x y z
#    x 5.173340 -1.901010 -0.541770 
#    y -1.901010 8.752230 0.904630 
#    z -0.541770 0.904630 5.135930 
# 
# 
# High freq. dielectric constant tensor:
#      x y z
#    x 1.997460 -0.005390 0.002490 
#    y -0.005390 2.029480 0.001100 
#    z 0.002490 0.001100 2.023100 
# 
# From -- ./inp_files/1967.got.cif
#   From: 2010.06.25/outbox.cif.g09.slc.cpg/sg2_1_cif.got.tgz:1967.got - 2010.06.27 13:26:56.
