data_PCOD8025327
_publ_section_title
;
Structure prediction by ZEFSAII (Michael W. Deem and Ramdas Pophale) SiO2 
 PCOD8025327
Probable space group: P -1
;
_chemical_formula_sum "Si O2"
_cell_formula_units_Z 16
_cell_length_a 12.810599
_cell_length_b 11.365585
_cell_length_c 5.299878
_cell_angle_alpha 118.544862
_cell_angle_beta 93.997743
_cell_angle_gamma 100.717345
_cell_volume 654.699114
_symmetry_space_group_name_H-M "P -1"
_symmetry_group_IT_number 2
_symmetry_cell_setting 'triclinic'
loop_
_space_group_symop_operation_xyz
x,y,z
-x,-y,-z
loop_
_atom_site_type_symbol
_atom_site_label
_atom_site_fract_x
_atom_site_fract_y
_atom_site_fract_z
Si Si1 0.277233 0.253673 0.234534
Si Si2 0.236044 0.532670 0.478435
Si Si3 0.949010 0.845713 0.738978
Si Si4 0.428520 0.097675 0.336730
Si Si5 0.246521 0.037603 0.621409
Si Si6 0.879046 0.447638 0.021501
Si Si7 0.937205 0.183542 0.791754
Si Si8 0.653045 0.156334 0.264816
O O1 0.308339 0.420433 0.392304
O O2 0.181078 0.200454 0.368078
O O3 0.384272 0.203262 0.260028
O O4 0.223479 0.171183 0.889920
O O5 0.192213 0.509782 0.164533
O O6 0.303054 0.690542 0.684635
O O7 0.146405 0.494495 0.649631
O O8 0.995735 0.807621 0.445620
O O9 0.985546 0.763979 0.899888
O O10 0.000000 0.000000 0.000000
O O11 0.365399 0.089436 0.578383
O O12 0.557560 0.157957 0.454960
O O13 0.404857 0.941063 0.071116
O O14 0.142544 0.973269 0.356040
O O15 0.252235 0.910223 0.681312
O O16 0.854714 0.281871 0.865049
O O17 0.000000 0.500000 0.000000
#
# Coordination Sequence:
#
# PCOD8025327 Si02
#       8
#     2   2   2   2   2   2   2   2
#     4  11  26  41  64 100 139 177 225 281 349 411
#     4  12  26  45  69 102 142 180 227 284 348 409
#     4  12  24  40  62 101 140 180 223 278 337 409
#     4  10  23  44  73  96 134 175 235 289 351 399
#     4  11  22  41  69  98 133 174 234 282 345 404
#     4  12  25  45  69  97 139 185 232 277 333 408
#     4  12  24  40  68  96 133 179 230 274 336 396
#     4  10  23  45  69 103 129 179 233 291 341 414
#
# _framework density 24.438707999999998
#
# number of rings (size 3 to 8) (size 9 to 14) (size 15 to 20)
#    0.000    0.750    2.500    4.875    5.250    0.500 
#    0.000    0.625    0.000    0.000    0.000    0.000 
#    0.000    0.000    0.000    0.000    0.000    0.000 
#
# Total GULP energy -198288.708027 kJ/mol
# GULP energy per Si atom -12393.044252 kJ/mol
# Density = 2.438308 g / cm^3
# Si number density = 24.438708 Si / 1000 Ang^3
#
#
#
# Elastic Constant Matrix: (Units=GPa)
#
#
# Indices 1 2 3 4 5 6 
#
# 1 81.7740 3.3833 15.9353 1.3045 -15.9904 10.4645
# 2 3.3833 82.0840 29.3677 18.2834 -15.6613 5.2281
# 3 15.9353 29.3677 92.7856 -6.1554 -20.7929 -3.8172
# 4 1.3045 18.2834 -6.1554 47.1319 -1.2483 -10.3713
# 5 -15.9904 -15.6613 -20.7929 -1.2483 34.5666 0.5607
# 6 10.4645 5.2281 -3.8172 -10.3713 0.5607 33.8945
#
#
#
# Elastic Compliance Matrix: (Units=1/GPa)
#
#
# Indices 1 2 3 4 5 6 
#
# 1 0.014684 0.002488 -0.002286 -0.002851 0.006542 -0.006155
# 2 0.002488 0.017609 -0.005650 -0.009026 0.005518 -0.006974
# 3 -0.002286 -0.005650 0.014710 0.005372 0.005348 0.004789
# 4 -0.002851 -0.009026 0.005372 0.027985 -0.001353 0.011463
# 5 0.006542 0.005518 0.005348 -0.001353 0.037677 -0.003306
# 6 -0.006155 -0.006974 0.004789 0.011463 -0.003306 0.036581
#
#
# Mechanical properties :
#
#
# Convention : Reuss Voigt Hill
#
# Bulk Modulus (GPa) = 27.69537 39.33515 33.51526
# Shear Modulus (GPa) = 29.03983 36.98242 33.01112
#
# Velocity S-wave (km/s) = 3.45087 3.89430 3.67927
# Velocity P-wave (km/s) = 5.21874 6.02919 5.63854
#
# Compressibility (1/GPa) = 0.03610712
#
# Stress axis : x y z
#
# Youngs Moduli (GPa) = 68.10288 56.78977 67.98053
#
# Poissons Ratio (x) = -0.14128 0.15538
# Poissons Ratio (y) = -0.16942 0.38408
# Poissons Ratio (z) = 0.15566 0.32085
#
# Static dielectric constant tensor:
#      x y z
#    x 4.731990 -0.295990 -0.013660 
#    y -0.295990 4.787850 -0.080650 
#    z -0.013660 -0.080650 4.721950 
# 
# 
# High freq. dielectric constant tensor:
#      x y z
#    x 1.960500 -0.011480 -0.015010 
#    y -0.011480 1.980620 -0.002630 
#    z -0.015010 -0.002630 1.968410 
# 
# From -- ./inp_files/72320.got.cif
#   From: 2010.06.25/outbox.cif.g09.slc.cpg/sg2_37_cif.got.tgz:72320.got - 2010.06.27 13:26:56.
