data_PCOD8025600
_publ_section_title
;
Structure prediction by ZEFSAII (Michael W. Deem and Ramdas Pophale) SiO2 
 PCOD8025600
Probable space group: P -1
;
_chemical_formula_sum "Si O2"
_cell_formula_units_Z 12
_cell_length_a 17.018418
_cell_length_b 11.925706
_cell_length_c 8.221123
_cell_angle_alpha 57.742445
_cell_angle_beta 75.523396
_cell_angle_gamma 27.643821
_cell_volume 538.864921
_symmetry_space_group_name_H-M "P -1"
_symmetry_group_IT_number 2
_symmetry_cell_setting 'triclinic'
loop_
_space_group_symop_operation_xyz
x,y,z
-x,-y,-z
loop_
_atom_site_type_symbol
_atom_site_label
_atom_site_fract_x
_atom_site_fract_y
_atom_site_fract_z
Si Si1 0.034404 0.671142 0.403969
Si Si2 0.099384 0.313739 0.800148
Si Si3 0.154606 0.819780 0.694992
Si Si4 0.299236 0.414034 0.199852
Si Si5 0.459614 0.709764 0.305008
Si Si6 0.630434 0.979082 0.596031
O O1 0.169639 0.353626 0.669758
O O2 0.178850 0.551419 0.319054
O O3 0.875074 0.835583 0.238007
O O4 0.911472 0.936297 0.398847
O O5 0.859796 0.689527 0.680947
O O6 0.229775 0.071181 0.074879
O O7 0.382669 0.484662 0.765338
O O8 0.154897 0.720938 0.925121
O O9 0.000000 0.000000 0.500000
O O10 0.362934 0.188401 0.238008
O O11 0.499881 0.193141 0.330242
O O12 0.500000 0.500000 0.500000
O O13 0.487376 0.766008 0.398847
#
# Coordination Sequence:
#
# PCOD8025600 Si02
#       6
#     2   2   2   2   2   2
#     4  10  23  45  70  94 131 172 223 263 329 382
#     4  10  24  43  73  94 129 175 221 268 322 388
#     4  12  28  42  67 100 135 172 216 272 329 383
#     4  10  24  43  73  94 129 175 221 268 322 388
#     4  12  28  42  67 100 135 172 216 272 329 383
#     4  10  23  45  70  94 131 172 223 263 329 382
#
# _framework density 22.269030000000001
#
# number of rings (size 3 to 8) (size 9 to 14) (size 15 to 20)
#    0.000    1.333    0.000    3.000   18.667    1.333 
#    0.000    0.000    0.000    0.000    0.000    0.000 
#    0.000    0.000    0.000    0.000    0.000    0.000 
#
# Total GULP energy -148816.922407 kJ/mol
# GULP energy per Si atom -12401.410201 kJ/mol
# Density = 2.221834 g / cm^3
# Si number density = 22.269030 Si / 1000 Ang^3
#
#
#
# Elastic Constant Matrix: (Units=GPa)
#
#
# Indices 1 2 3 4 5 6 
#
# 1 127.8200 55.3654 58.0747 -0.6037 -0.9232 32.0677
# 2 55.3654 116.0501 27.5082 -0.9221 -0.8506 12.1345
# 3 58.0747 27.5082 170.4411 2.0309 1.2877 -6.7378
# 4 -0.6037 -0.9221 2.0309 25.3121 -4.3040 -0.9224
# 5 -0.9232 -0.8506 1.2877 -4.3040 25.4254 -1.2573
# 6 32.0677 12.1345 -6.7378 -0.9224 -1.2573 54.6505
#
#
#
# Elastic Compliance Matrix: (Units=1/GPa)
#
#
# Indices 1 2 3 4 5 6 
#
# 1 0.013654 -0.004737 -0.004188 0.000255 0.000223 -0.007467
# 2 -0.004737 0.010876 -0.000133 0.000354 0.000276 0.000361
# 3 -0.004188 -0.000133 0.007461 -0.000661 -0.000479 0.003385
# 4 0.000255 0.000354 -0.000661 0.040786 0.006986 0.000539
# 5 0.000223 0.000276 -0.000479 0.006986 0.040595 0.000800
# 6 -0.007467 0.000361 0.003385 0.000539 0.000800 0.023044
#
#
# Mechanical properties :
#
#
# Convention : Reuss Voigt Hill
#
# Bulk Modulus (GPa) = 72.07473 77.35640 74.71557
# Shear Modulus (GPa) = 31.41550 39.30177 35.35863
#
# Velocity S-wave (km/s) = 3.76004 4.20558 3.98904
# Velocity P-wave (km/s) = 7.16144 7.64168 7.40545
#
# Compressibility (1/GPa) = 0.01387449
#
# Stress axis : x y z
#
# Youngs Moduli (GPa) = 73.23707 91.94849 134.03287
#
# Poissons Ratio (x) = 0.43557 0.56131
# Poissons Ratio (y) = 0.34693 0.01786
# Poissons Ratio (z) = 0.30670 0.01225
#
# Static dielectric constant tensor:
#      x y z
#    x 4.068030 0.091830 -0.003620 
#    y 0.091830 4.009580 -0.002560 
#    z -0.003620 -0.002560 3.953170 
# 
# 
# High freq. dielectric constant tensor:
#      x y z
#    x 1.885510 0.006130 -0.000310 
#    y 0.006130 1.877240 -0.000170 
#    z -0.000310 -0.000170 1.873530 
# 
# From -- ./inp_files/242749.got.cif
#   From: 2010.06.25/outbox.cif.g09.slc.cpg/sg2_122_cif.got.tgz:242749.got - 2010.06.27 13:26:56.
