data_PCOD8025524
_publ_section_title
;
Structure prediction by ZEFSAII (Michael W. Deem and Ramdas Pophale) SiO2 
 PCOD8025524
Probable space group: P -1
;
_chemical_formula_sum "Si O2"
_cell_formula_units_Z 16
_cell_length_a 5.194636
_cell_length_b 21.329938
_cell_length_c 12.383707
_cell_angle_alpha 142.023057
_cell_angle_beta 122.072156
_cell_angle_gamma 61.789055
_cell_volume 711.600107
_symmetry_space_group_name_H-M "P -1"
_symmetry_group_IT_number 2
_symmetry_cell_setting 'triclinic'
loop_
_space_group_symop_operation_xyz
x,y,z
-x,-y,-z
loop_
_atom_site_type_symbol
_atom_site_label
_atom_site_fract_x
_atom_site_fract_y
_atom_site_fract_z
Si Si1 0.908676 0.118156 0.668522
Si Si2 0.190697 0.305961 0.026440
Si Si3 0.593374 0.496407 0.717581
Si Si4 0.846611 0.797746 0.750869
Si Si5 0.251026 0.513621 0.872031
Si Si6 0.476703 0.084686 0.354379
Si Si7 0.517487 0.314460 0.323437
Si Si8 0.023497 0.947607 0.177438
O O1 0.635935 0.154003 0.572914
O O2 0.000000 0.000000 0.500000
O O3 0.830317 0.122943 0.786025
O O4 0.177530 0.194627 0.816069
O O5 0.443433 0.379042 0.137561
O O6 0.262737 0.289933 0.147092
O O7 0.854535 0.366814 0.015764
O O8 0.399468 0.462092 0.727638
O O9 0.488633 0.436494 0.507681
O O10 0.954315 0.458227 0.765630
O O11 0.739914 0.843581 0.674113
O O12 0.566029 0.743752 0.665181
O O13 0.144540 0.719701 0.690114
O O14 0.935962 0.884274 0.969182
O O15 0.500000 0.500000 0.000000
O O16 0.720330 0.015385 0.242374
O O17 0.279884 0.015712 0.288810
#
# Coordination Sequence:
#
# PCOD8025524 Si02
#       8
#     2   2   2   2   2   2   2   2
#     4  10  23  45  69 102 137 182 227 287 341 417
#     4  10  25  43  70 100 135 182 231 282 343 412
#     4  10  24  43  71  96 137 176 223 283 336 406
#     4  12  25  41  71 100 140 178 233 289 343 409
#     4  10  23  45  70 102 136 181 227 280 349 406
#     4  11  24  44  65 101 134 184 231 285 349 407
#     4  12  25  43  68 102 137 177 234 280 347 403
#     4  11  22  44  69  95 139 180 234 285 347 407
#
# _framework density 22.484538000000001
#
# number of rings (size 3 to 8) (size 9 to 14) (size 15 to 20)
#    0.750    0.500    1.250    4.125    3.500    2.500 
#    4.500    0.000    0.000    0.000    0.000    0.000 
#    0.000    0.000    0.000    0.000    0.000    0.000 
#
# Total GULP energy -198239.137002 kJ/mol
# GULP energy per Si atom -12389.946063 kJ/mol
# Density = 2.243336 g / cm^3
# Si number density = 22.484538 Si / 1000 Ang^3
#
#
#
# Elastic Constant Matrix: (Units=GPa)
#
#
# Indices 1 2 3 4 5 6 
#
# 1 102.0830 1.9190 7.0339 7.2561 -8.8829 2.3751
# 2 1.9190 95.4500 34.9862 -30.7380 -9.4965 -8.4712
# 3 7.0339 34.9862 143.1593 -2.5549 12.8543 -7.9351
# 4 7.2561 -30.7380 -2.5549 38.3306 3.9364 1.3915
# 5 -8.8829 -9.4965 12.8543 3.9364 21.9218 2.2817
# 6 2.3751 -8.4712 -7.9351 1.3915 2.2817 25.7069
#
#
#
# Elastic Compliance Matrix: (Units=1/GPa)
#
#
# Indices 1 2 3 4 5 6 
#
# 1 0.010596 -0.000351 -0.001074 -0.002857 0.005467 -0.001757
# 2 -0.000351 0.017200 -0.004452 0.012702 0.007327 0.002988
# 3 -0.001074 -0.004452 0.008873 -0.002092 -0.007414 0.002142
# 4 -0.002857 0.012702 -0.002092 0.036732 -0.001225 0.001925
# 5 0.005467 0.007327 -0.007414 -0.001225 0.056124 -0.005294
# 6 -0.001757 0.002988 0.002142 0.001925 -0.005294 0.041074
#
#
# Mechanical properties :
#
#
# Convention : Reuss Voigt Hill
#
# Bulk Modulus (GPa) = 40.13637 47.61897 43.87767
# Shear Modulus (GPa) = 26.22473 36.97542 31.60008
#
# Velocity S-wave (km/s) = 3.41888 4.05962 3.75295
# Velocity P-wave (km/s) = 5.78571 6.57256 6.19165
#
# Compressibility (1/GPa) = 0.02491506
#
# Stress axis : x y z
#
# Youngs Moduli (GPa) = 94.37312 58.13887 112.70039
#
# Poissons Ratio (x) = 0.02043 0.12104
# Poissons Ratio (y) = 0.03316 0.50172
# Poissons Ratio (z) = 0.10136 0.25882
#
# Static dielectric constant tensor:
#      x y z
#    x 4.028520 0.151320 0.090950 
#    y 0.151320 4.128370 -0.246280 
#    z 0.090950 -0.246280 4.449540 
# 
# 
# High freq. dielectric constant tensor:
#      x y z
#    x 1.880400 0.009330 0.008280 
#    y 0.009330 1.878130 -0.010320 
#    z 0.008280 -0.010320 1.896820 
# 
# From -- ./inp_files/370153.got.cif
#   From: 2010.06.25/outbox.cif.g09.slc.cpg/sg2_186_cif.got.tgz:370153.got - 2010.06.27 13:26:56.
