data_PCOD8025324
_publ_section_title
;
Structure prediction by ZEFSAII (Michael W. Deem and Ramdas Pophale) SiO2 
 PCOD8025324
Probable space group: P -1
;
_chemical_formula_sum "Si O2"
_cell_formula_units_Z 14
_cell_length_a 8.884128
_cell_length_b 11.606665
_cell_length_c 12.780156
_cell_angle_alpha 116.210204
_cell_angle_beta 48.994857
_cell_angle_gamma 141.975972
_cell_volume 604.534523
_symmetry_space_group_name_H-M "P -1"
_symmetry_group_IT_number 2
_symmetry_cell_setting 'triclinic'
loop_
_space_group_symop_operation_xyz
x,y,z
-x,-y,-z
loop_
_atom_site_type_symbol
_atom_site_label
_atom_site_fract_x
_atom_site_fract_y
_atom_site_fract_z
Si Si1 0.847635 0.504387 0.979538
Si Si2 0.336221 0.736374 0.210963
Si Si3 0.112423 0.824156 0.843169
Si Si4 0.331674 0.307921 0.848566
Si Si5 0.703214 0.504182 0.475084
Si Si6 0.400877 0.157186 0.582359
Si Si7 0.059447 0.756612 0.597646
O O1 0.097995 0.681801 0.856946
O O2 0.642684 0.303436 0.934085
O O3 0.000000 0.500000 0.000000
O O4 0.642939 0.527057 0.122080
O O5 0.371073 0.623646 0.221222
O O6 0.015478 0.644611 0.334044
O O7 0.567429 0.959231 0.217796
O O8 0.006922 0.750116 0.742650
O O9 0.893956 0.818466 0.001568
O O10 0.230152 0.180578 0.741813
O O11 0.500000 0.500000 0.500000
O O12 0.530103 0.286862 0.471912
O O13 0.759317 0.572314 0.600060
O O14 0.680428 0.222085 0.539271
O O15 0.161445 0.938703 0.571336
#
# Coordination Sequence:
#
# PCOD8025324 Si02
#       7
#     2   2   2   2   2   2   2
#     4  10  26  43  67 108 147 185 221 283 367 421
#     4  12  22  47  71 102 142 182 244 291 339 415
#     4  10  24  42  77 107 135 179 244 291 345 413
#     4  10  23  44  73 108 136 177 239 292 342 414
#     4  12  29  44  70 104 147 189 229 289 355 421
#     4  11  23  44  73 107 134 181 247 285 347 413
#     4  11  22  45  76 100 137 187 235 296 342 409
#
# _framework density 23.158315000000002
#
# number of rings (size 3 to 8) (size 9 to 14) (size 15 to 20)
#    0.857    0.286    2.857    3.000    4.000    1.143 
#    0.000    0.000    0.000    0.000    0.000    0.000 
#    0.000    0.000    0.000    0.000    0.000    0.000 
#
# Total GULP energy -173452.780208 kJ/mol
# GULP energy per Si atom -12389.484301 kJ/mol
# Density = 2.310561 g / cm^3
# Si number density = 23.158315 Si / 1000 Ang^3
#
#
#
# Elastic Constant Matrix: (Units=GPa)
#
#
# Indices 1 2 3 4 5 6 
#
# 1 138.3494 52.9250 9.0109 4.2648 -11.4641 -9.0930
# 2 52.9250 102.0812 18.0108 1.7678 0.8933 -18.4276
# 3 9.0109 18.0108 116.2481 11.9362 -4.8491 -0.7051
# 4 4.2648 1.7678 11.9362 33.8648 5.9063 8.2941
# 5 -11.4641 0.8933 -4.8491 5.9063 30.3088 -0.6894
# 6 -9.0930 -18.4276 -0.7051 8.2941 -0.6894 27.2106
#
#
#
# Elastic Compliance Matrix: (Units=1/GPa)
#
#
# Indices 1 2 3 4 5 6 
#
# 1 0.009527 -0.004910 0.000402 -0.001959 0.004207 0.000573
# 2 -0.004910 0.014167 -0.001737 -0.001145 -0.002143 0.008203
# 3 0.000402 -0.001737 0.009332 -0.003776 0.002442 0.000413
# 4 -0.001959 -0.001145 -0.003776 0.035758 -0.008567 -0.012644
# 5 0.004207 -0.002143 0.002442 -0.008567 0.036790 0.003562
# 6 0.000573 0.008203 0.000413 -0.012644 0.003562 0.046452
#
#
# Mechanical properties :
#
#
# Convention : Reuss Voigt Hill
#
# Bulk Modulus (GPa) = 48.68847 57.39689 53.04268
# Shear Modulus (GPa) = 29.17830 36.72562 32.95196
#
# Velocity S-wave (km/s) = 3.55343 3.98659 3.77623
# Velocity P-wave (km/s) = 6.15675 6.78446 6.47822
#
# Compressibility (1/GPa) = 0.02053874
#
# Stress axis : x y z
#
# Youngs Moduli (GPa) = 104.96766 70.58432 107.15504
#
# Poissons Ratio (x) = 0.34655 -0.04312
# Poissons Ratio (y) = 0.51536 0.18608
# Poissons Ratio (z) = -0.04224 0.12257
#
# Static dielectric constant tensor:
#      x y z
#    x 3.785400 -0.104250 0.162680 
#    y -0.104250 4.283280 0.257870 
#    z 0.162680 0.257870 4.351850 
# 
# 
# High freq. dielectric constant tensor:
#      x y z
#    x 1.877660 -0.013930 0.011870 
#    y -0.013930 1.920810 0.015100 
#    z 0.011870 0.015100 1.930840 
# 
# From -- ./inp_files/498177.got.cif
#   From: 2010.06.25/outbox.cif.g09.slc.cpg/sg2_250_cif.got.tgz:498177.got - 2010.06.27 13:26:56.
