data_PCOD8025307
_publ_section_title
;
Structure prediction by ZEFSAII (Michael W. Deem and Ramdas Pophale) SiO2 
 PCOD8025307
Probable space group: P -1
;
_chemical_formula_sum "Si O2"
_cell_formula_units_Z 16
_cell_length_a 11.134304
_cell_length_b 8.999336
_cell_length_c 9.208819
_cell_angle_alpha 88.844071
_cell_angle_beta 128.227001
_cell_angle_gamma 97.952225
_cell_volume 715.355505
_symmetry_space_group_name_H-M "P -1"
_symmetry_group_IT_number 2
_symmetry_cell_setting 'triclinic'
loop_
_space_group_symop_operation_xyz
x,y,z
-x,-y,-z
loop_
_atom_site_type_symbol
_atom_site_label
_atom_site_fract_x
_atom_site_fract_y
_atom_site_fract_z
Si Si1 0.595213 0.521407 0.720828
Si Si2 0.112409 0.853552 0.878426
Si Si3 0.040162 0.860999 0.301133
Si Si4 0.918660 0.334862 0.409356
Si Si5 0.062336 0.346458 0.019335
Si Si6 0.564871 0.284183 0.191480
Si Si7 0.439688 0.779375 0.135699
Si Si8 0.604640 0.023828 0.435333
O O1 0.500000 0.500000 0.500000
O O2 0.756363 0.629330 0.805879
O O3 0.508599 0.587473 0.786434
O O4 0.628106 0.364969 0.814973
O O5 0.050056 0.713370 0.729324
O O6 0.028671 0.800673 0.966008
O O7 0.299214 0.876841 0.021412
O O8 0.068504 0.012935 0.796790
O O9 0.032043 0.802370 0.460164
O O10 0.217151 0.925943 0.386258
O O11 0.969146 0.706960 0.167970
O O12 0.742844 0.348203 0.305510
O O13 0.000000 0.500000 0.500000
O O14 0.000000 0.500000 0.000000
O O15 0.538322 0.140649 0.278786
O O16 0.497685 0.250697 0.978436
O O17 0.585148 0.869612 0.330894
O O18 0.500000 0.000000 0.500000
#
# Coordination Sequence:
#
# PCOD8025307 Si02
#       8
#     2   2   2   2   2   2   2   2
#     4  12  28  45  71 103 137 186 241 295 355 425
#     4  11  24  44  68 104 139 183 239 283 353 416
#     4  11  26  44  71 106 137 186 236 282 354 422
#     4  10  23  44  73 101 143 185 229 295 342 420
#     4  12  26  46  70 100 142 183 238 296 352 418
#     4  10  25  44  69 103 138 186 237 281 358 418
#     4  11  24  47  69 100 143 185 232 295 351 421
#     4  11  24  43  71 102 144 184 228 289 347 422
#
# _framework density 22.366499000000001
#
# number of rings (size 3 to 8) (size 9 to 14) (size 15 to 20)
#    0.000    1.000    1.250    3.750   12.250    0.000 
#    2.250    0.000    0.000    0.000    0.000    0.000 
#    0.000    0.000    0.000    0.000    0.000    0.000 
#
# Total GULP energy -198395.299473 kJ/mol
# GULP energy per Si atom -12399.706217 kJ/mol
# Density = 2.231559 g / cm^3
# Si number density = 22.366499 Si / 1000 Ang^3
#
#
#
# Elastic Constant Matrix: (Units=GPa)
#
#
# Indices 1 2 3 4 5 6 
#
# 1 86.1578 26.9961 48.6607 1.6446 -7.6216 -6.8433
# 2 26.9961 103.5868 31.9141 7.8763 6.5948 -12.4899
# 3 48.6607 31.9141 128.1649 20.7511 -2.0353 -6.4201
# 4 1.6446 7.8763 20.7511 46.7635 0.0976 -0.0173
# 5 -7.6216 6.5948 -2.0353 0.0976 29.3988 -4.6903
# 6 -6.8433 -12.4899 -6.4201 -0.0173 -4.6903 38.6879
#
#
#
# Elastic Compliance Matrix: (Units=1/GPa)
#
#
# Indices 1 2 3 4 5 6 
#
# 1 0.016177 -0.002750 -0.005694 0.002412 0.004663 0.001595
# 2 -0.002750 0.011431 -0.001535 -0.001140 -0.002967 0.002589
# 3 -0.005694 -0.001535 0.011078 -0.004456 -0.000303 0.000297
# 4 0.002412 -0.001140 -0.004456 0.023468 0.000395 -0.000623
# 5 0.004663 -0.002967 -0.000303 0.000395 0.036545 0.004248
# 6 0.001595 0.002589 0.000297 -0.000623 0.004248 0.027530
#
#
# Mechanical properties :
#
#
# Convention : Reuss Voigt Hill
#
# Bulk Modulus (GPa) = 53.39368 59.22794 56.31081
# Shear Modulus (GPa) = 32.80211 36.99262 34.89737
#
# Velocity S-wave (km/s) = 3.83374 4.07127 3.95429
# Velocity P-wave (km/s) = 6.59703 6.97412 6.78819
#
# Compressibility (1/GPa) = 0.01872881
#
# Stress axis : x y z
#
# Youngs Moduli (GPa) = 61.81560 87.48086 90.26799
#
# Poissons Ratio (x) = 0.24054 0.51397
# Poissons Ratio (y) = 0.16997 0.13859
# Poissons Ratio (z) = 0.35197 0.13431
#
# Static dielectric constant tensor:
#      x y z
#    x 3.654520 0.213360 0.344330 
#    y 0.213360 3.880280 -0.187110 
#    z 0.344330 -0.187110 3.638460 
# 
# 
# High freq. dielectric constant tensor:
#      x y z
#    x 1.880590 0.003920 -0.010490 
#    y 0.003920 1.889660 0.003680 
#    z -0.010490 0.003680 1.894480 
# 
# From -- ./inp_files/184305.got.cif
#   From: 2010.06.25/outbox.cif.g09.slc.cpg/sg2_93_cif.got.tgz:184305.got - 2010.06.27 13:26:56.
