data_PCOD8025693
_publ_section_title
;
Structure prediction by ZEFSAII (Michael W. Deem and Ramdas Pophale) SiO2 
 PCOD8025693
Probable space group: P -1
;
_chemical_formula_sum "Si O2"
_cell_formula_units_Z 16
_cell_length_a 9.537367
_cell_length_b 13.862301
_cell_length_c 14.827447
_cell_angle_alpha 148.613145
_cell_angle_beta 104.606253
_cell_angle_gamma 96.020729
_cell_volume 763.005315
_symmetry_space_group_name_H-M "P -1"
_symmetry_group_IT_number 2
_symmetry_cell_setting 'triclinic'
loop_
_space_group_symop_operation_xyz
x,y,z
-x,-y,-z
loop_
_atom_site_type_symbol
_atom_site_label
_atom_site_fract_x
_atom_site_fract_y
_atom_site_fract_z
Si Si1 0.161134 0.904694 0.836480
Si Si2 0.027186 0.087483 0.826108
Si Si3 0.845141 0.483123 0.551627
Si Si4 0.763514 0.402262 0.672252
Si Si5 0.316324 0.299215 0.754289
Si Si6 0.606272 0.750145 0.471168
Si Si7 0.060764 0.849009 0.469883
Si Si8 0.527898 0.404123 0.338591
O O1 0.156475 0.741230 0.629145
O O2 0.049175 0.739396 0.773960
O O3 0.067174 0.009593 0.862031
O O4 0.367474 0.120142 0.076124
O O5 0.813781 0.986410 0.717264
O O6 0.069382 0.995821 0.672934
O O7 0.152263 0.373759 0.068618
O O8 0.771514 0.489018 0.641167
O O9 0.720219 0.449381 0.420135
O O10 0.543244 0.202216 0.503235
O O11 0.882105 0.311597 0.623472
O O12 0.399336 0.326407 0.691991
O O13 0.153361 0.326114 0.743489
O O14 0.210915 0.035049 0.567780
O O15 0.500000 0.500000 0.000000
O O16 0.539773 0.529827 0.349202
O O17 0.500000 0.500000 0.500000
#
# Coordination Sequence:
#
# PCOD8025693 Si02
#       8
#     2   2   2   2   2   2   2   2
#     4  11  23  39  62  89 133 178 222 275 318 395
#     4  11  22  42  65  94 134 175 216 274 330 388
#     4  11  24  39  61  98 131 177 228 267 329 392
#     4  12  24  41  70  98 135 176 219 272 333 393
#     4  10  23  45  73  96 132 175 214 275 341 388
#     4  11  24  40  65 101 132 170 224 273 326 399
#     4  10  24  46  68  99 131 169 224 270 328 404
#     4  12  23  39  61  93 133 172 219 268 327 390
#
# _framework density 20.969711
#
# number of rings (size 3 to 8) (size 9 to 14) (size 15 to 20)
#    0.000    1.000    5.000    1.125    1.750    2.500 
#    0.000   10.000    0.000    0.000    0.000    0.000 
#    0.000    0.000    0.000    0.000    0.000    0.000 
#
# Total GULP energy -198381.014672 kJ/mol
# GULP energy per Si atom -12398.813417 kJ/mol
# Density = 2.092198 g / cm^3
# Si number density = 20.969711 Si / 1000 Ang^3
#
#
#
# Elastic Constant Matrix: (Units=GPa)
#
#
# Indices 1 2 3 4 5 6 
#
# 1 123.3620 39.2041 46.5607 0.7949 8.2404 -0.1832
# 2 39.2041 102.4141 39.6613 -3.9225 -1.4155 15.3676
# 3 46.5607 39.6613 96.2375 2.3421 7.9016 0.3690
# 4 0.7949 -3.9225 2.3421 23.6122 -0.7756 3.3166
# 5 8.2404 -1.4155 7.9016 -0.7756 33.2401 1.1241
# 6 -0.1832 15.3676 0.3690 3.3166 1.1241 36.5533
#
#
#
# Elastic Compliance Matrix: (Units=1/GPa)
#
#
# Indices 1 2 3 4 5 6 
#
# 1 0.010570 -0.002852 -0.003769 -0.000717 -0.001910 0.001414
# 2 -0.002852 0.013732 -0.004567 0.003784 0.002675 -0.006167
# 3 -0.003769 -0.004567 0.014379 -0.002440 -0.002805 0.002064
# 4 -0.000717 0.003784 -0.002440 0.044108 0.002139 -0.005638
# 5 -0.001910 0.002675 -0.002805 0.002139 0.031465 -0.002267
# 6 0.001414 -0.006167 0.002064 -0.005638 -0.002267 0.030518
#
#
# Mechanical properties :
#
#
# Convention : Reuss Voigt Hill
#
# Bulk Modulus (GPa) = 61.34046 63.65176 62.49611
# Shear Modulus (GPa) = 28.97149 31.78694 30.37921
#
# Velocity S-wave (km/s) = 3.72100 3.89762 3.81033
# Velocity P-wave (km/s) = 6.91206 7.11866 7.01612
#
# Compressibility (1/GPa) = 0.01630245
#
# Stress axis : x y z
#
# Youngs Moduli (GPa) = 94.61004 72.82120 69.54760
#
# Poissons Ratio (x) = 0.20772 0.26215
# Poissons Ratio (y) = 0.26987 0.31765
# Poissons Ratio (z) = 0.35662 0.33260
#
# Static dielectric constant tensor:
#      x y z
#    x 4.069760 -0.062140 0.281950 
#    y -0.062140 3.887880 -0.131510 
#    z 0.281950 -0.131510 3.743650 
# 
# 
# High freq. dielectric constant tensor:
#      x y z
#    x 1.831030 0.004910 0.018270 
#    y 0.004910 1.822940 -0.006490 
#    z 0.018270 -0.006490 1.815030 
# 
# From -- ./inp_files/348541.got.cif
#   From: 2010.06.25/outbox.cif.g09.slc.cpg/sg2_175_cif.got.tgz:348541.got - 2010.06.27 13:26:56.
