data_PCOD8025069
_publ_section_title
;
Structure prediction by ZEFSAII (Michael W. Deem and Ramdas Pophale) SiO2 
 PCOD8025069
Probable space group: P -1
;
_chemical_formula_sum "Si O2"
_cell_formula_units_Z 16
_cell_length_a 29.717957
_cell_length_b 14.689183
_cell_length_c 8.733791
_cell_angle_alpha 129.894822
_cell_angle_beta 37.336846
_cell_angle_gamma 159.299919
_cell_volume 718.137592
_symmetry_space_group_name_H-M "P -1"
_symmetry_group_IT_number 2
_symmetry_cell_setting 'triclinic'
loop_
_space_group_symop_operation_xyz
x,y,z
-x,-y,-z
loop_
_atom_site_type_symbol
_atom_site_label
_atom_site_fract_x
_atom_site_fract_y
_atom_site_fract_z
Si Si1 0.139223 0.384540 0.378332
Si Si2 0.197959 0.720895 0.062402
Si Si3 0.523856 0.681759 0.962892
Si Si4 0.463900 0.695224 0.821807
Si Si5 0.112353 0.357766 0.781240
Si Si6 0.744903 0.789967 0.338225
Si Si7 0.816570 0.785152 0.446059
Si Si8 0.145934 0.640575 0.471683
O O1 0.098508 0.322497 0.600260
O O2 0.103992 0.461356 0.486265
O O3 0.342685 0.635691 0.057819
O O4 0.003249 0.092340 0.354874
O O5 0.166047 0.639828 0.237940
O O6 0.022394 0.516112 0.227446
O O7 0.360704 0.053437 0.966145
O O8 0.238850 0.657254 0.797629
O O9 0.428119 0.603738 0.993436
O O10 0.656887 0.772990 0.643975
O O11 0.358475 0.395722 0.210709
O O12 0.411435 0.509519 0.653194
O O13 0.676035 0.036399 0.588928
O O14 0.215752 0.400339 0.629961
O O15 0.905678 0.071353 0.096394
O O16 0.833561 0.832366 0.270135
#
# Coordination Sequence:
#
# PCOD8025069 Si02
#       8
#     2   2   2   2   2   2   2   2
#     4  12  24  43  66  98 140 172 216 277 328 390
#     4  10  23  44  69  95 132 173 222 268 328 393
#     4  11  24  46  67  99 135 172 217 277 331 385
#     4  11  23  42  66 101 135 172 220 269 331 395
#     4  12  24  42  68  98 134 177 217 270 330 391
#     4  12  25  42  72  98 130 179 224 268 329 394
#     4  12  25  43  68  99 136 171 221 276 328 387
#     4  10  23  44  68  96 134 175 217 273 331 384
#
# _framework density 22.279852000000002
#
# number of rings (size 3 to 8) (size 9 to 14) (size 15 to 20)
#    0.000    0.750    2.500    6.375    1.750    3.000 
#    0.000    0.000    0.000    0.000    0.000    0.000 
#    0.000    0.000    0.000    0.000    0.000    0.000 
#
# Total GULP energy -198473.868407 kJ/mol
# GULP energy per Si atom -12404.616775 kJ/mol
# Density = 2.222914 g / cm^3
# Si number density = 22.279852 Si / 1000 Ang^3
#
#
#
# Elastic Constant Matrix: (Units=GPa)
#
#
# Indices 1 2 3 4 5 6 
#
# 1 102.5603 48.0644 25.3926 -4.0377 -9.2838 -1.2023
# 2 48.0644 143.4568 35.7332 17.9113 -8.1168 18.9026
# 3 25.3926 35.7332 54.8497 -3.1423 -13.4428 6.2713
# 4 -4.0377 17.9113 -3.1423 31.8559 -0.6178 -2.7073
# 5 -9.2838 -8.1168 -13.4428 -0.6178 27.0375 -1.1666
# 6 -1.2023 18.9026 6.2713 -2.7073 -1.1666 34.2554
#
#
#
# Elastic Compliance Matrix: (Units=1/GPa)
#
#
# Indices 1 2 3 4 5 6 
#
# 1 0.012984 -0.004621 -0.002711 0.004348 0.001992 0.003913
# 2 -0.004621 0.011689 -0.005547 -0.008265 -0.001296 -0.006294
# 3 -0.002711 -0.005547 0.026094 0.005465 0.010458 -0.001023
# 4 0.004348 -0.008265 0.005465 0.037762 0.002885 0.006795
# 5 0.001992 -0.001296 0.010458 0.002885 0.042570 0.000548
# 6 0.003913 -0.006294 -0.001023 0.006795 0.000548 0.033546
#
#
# Mechanical properties :
#
#
# Convention : Reuss Voigt Hill
#
# Bulk Modulus (GPa) = 39.98604 57.69415 48.84010
# Shear Modulus (GPa) = 25.15868 31.40819 28.28343
#
# Velocity S-wave (km/s) = 3.36402 3.75869 3.56682
# Velocity P-wave (km/s) = 5.75109 6.69241 6.23953
#
# Compressibility (1/GPa) = 0.02500873
#
# Stress axis : x y z
#
# Youngs Moduli (GPa) = 77.01519 85.55390 38.32341
#
# Poissons Ratio (x) = 0.39533 0.10390
# Poissons Ratio (y) = 0.35588 0.21258
# Poissons Ratio (z) = 0.20879 0.47458
#
# Static dielectric constant tensor:
#      x y z
#    x 4.128410 0.024110 -0.084060 
#    y 0.024110 4.059370 0.020810 
#    z -0.084060 0.020810 3.846050 
# 
# 
# High freq. dielectric constant tensor:
#      x y z
#    x 1.887250 0.003750 -0.010750 
#    y 0.003750 1.883340 0.002150 
#    z -0.010750 0.002150 1.872760 
# 
# From -- ./inp_files/358808.got.cif
#   From: 2010.06.25/outbox.cif.g09.slc.cpg/sg2_180_cif.got.tgz:358808.got - 2010.06.27 13:26:56.
