data_PCOD8025635
_publ_section_title
;
Structure prediction by ZEFSAII (Michael W. Deem and Ramdas Pophale) SiO2 
 PCOD8025635
Probable space group: P -1
;
_chemical_formula_sum "Si O2"
_cell_formula_units_Z 16
_cell_length_a 9.086173
_cell_length_b 20.334995
_cell_length_c 17.493474
_cell_angle_alpha 19.446194
_cell_angle_beta 60.446065
_cell_angle_gamma 48.936051
_cell_volume 701.368994
_symmetry_space_group_name_H-M "P -1"
_symmetry_group_IT_number 2
_symmetry_cell_setting 'triclinic'
loop_
_space_group_symop_operation_xyz
x,y,z
-x,-y,-z
loop_
_atom_site_type_symbol
_atom_site_label
_atom_site_fract_x
_atom_site_fract_y
_atom_site_fract_z
Si Si1 0.404203 0.876551 0.981592
Si Si2 0.949458 0.073452 0.077863
Si Si3 0.752584 0.625864 0.031140
Si Si4 0.539865 0.202776 0.778423
Si Si5 0.776208 0.584801 0.501514
Si Si6 0.987701 0.187345 0.237417
Si Si7 0.556458 0.735097 0.798874
Si Si8 0.924084 0.968697 0.368819
O O1 0.166267 0.966730 0.915783
O O2 0.362771 0.138191 0.724130
O O3 0.593984 0.709971 0.051877
O O4 0.504304 0.701117 0.226903
O O5 0.913438 0.990570 0.257037
O O6 0.211753 0.908958 0.178396
O O7 0.832073 0.378682 0.776710
O O8 0.624598 0.658035 0.953804
O O9 0.977002 0.321750 0.316994
O O10 0.819911 0.800639 0.808930
O O11 0.365730 0.425166 0.517079
O O12 0.500000 0.000000 0.000000
O O13 0.000000 0.500000 0.500000
O O14 0.056592 0.046098 0.291035
O O15 0.744838 0.485382 0.972199
O O16 0.000000 0.000000 0.500000
O O17 0.317766 0.810502 0.770875
O O18 0.500000 0.000000 0.500000
#
# Coordination Sequence:
#
# PCOD8025635 Si02
#       8
#     2   2   2   2   2   2   2   2
#     4  11  26  46  72 106 146 198 238 302 379 427
#     4  12  26  46  72 108 144 189 254 295 362 449
#     4  12  27  49  69 112 155 180 245 313 366 439
#     4  10  23  45  71 104 142 194 238 298 367 432
#     4  11  25  46  72 102 147 190 248 306 357 441
#     4  12  26  47  83 104 146 199 240 300 381 444
#     4  12  24  50  76 106 148 191 242 302 372 443
#     4  12  28  46  73 111 146 193 245 308 366 442
#
# _framework density 22.812529000000001
#
# number of rings (size 3 to 8) (size 9 to 14) (size 15 to 20)
#    0.000    0.500    6.250    1.875    5.250    4.500 
#    0.000    0.000    0.000    0.000    0.000    0.000 
#    0.000    0.000    0.000    0.000    0.000    0.000 
#
# Total GULP energy -198330.048636 kJ/mol
# GULP energy per Si atom -12395.628040 kJ/mol
# Density = 2.276061 g / cm^3
# Si number density = 22.812529 Si / 1000 Ang^3
#
#
#
# Elastic Constant Matrix: (Units=GPa)
#
#
# Indices 1 2 3 4 5 6 
#
# 1 135.6318 39.8020 29.0492 -6.9330 5.7877 1.4470
# 2 39.8020 80.8614 11.7662 3.6832 8.6849 1.3776
# 3 29.0492 11.7662 108.0370 6.1766 11.4985 4.7158
# 4 -6.9330 3.6832 6.1766 25.2560 3.9278 4.1837
# 5 5.7877 8.6849 11.4985 3.9278 36.1104 1.1923
# 6 1.4470 1.3776 4.7158 4.1837 1.1923 48.3498
#
#
#
# Elastic Compliance Matrix: (Units=1/GPa)
#
#
# Indices 1 2 3 4 5 6 
#
# 1 0.009355 -0.004437 -0.002225 0.003824 -0.000131 -0.000264
# 2 -0.004437 0.014961 0.000007 -0.003008 -0.002563 0.000029
# 3 -0.002225 0.000007 0.010311 -0.002618 -0.002622 -0.000648
# 4 0.003824 -0.003008 -0.002618 0.042845 -0.003604 -0.003392
# 5 -0.000131 -0.002563 -0.002622 -0.003604 0.029560 -0.000084
# 6 -0.000264 0.000029 -0.000648 -0.003392 -0.000084 0.021048
#
#
# Mechanical properties :
#
#
# Convention : Reuss Voigt Hill
#
# Bulk Modulus (GPa) = 46.91017 53.97391 50.44204
# Shear Modulus (GPa) = 33.67056 38.20410 35.93733
#
# Velocity S-wave (km/s) = 3.84600 4.09675 3.97335
# Velocity P-wave (km/s) = 6.35061 6.78888 6.57340
#
# Compressibility (1/GPa) = 0.02131734
#
# Stress axis : x y z
#
# Youngs Moduli (GPa) = 106.89049 66.83825 96.98616
#
# Poissons Ratio (x) = 0.29654 0.21584
# Poissons Ratio (y) = 0.47424 -0.00068
# Poissons Ratio (z) = 0.23788 -0.00047
#
# Static dielectric constant tensor:
#      x y z
#    x 5.396230 0.168650 0.311630 
#    y 0.168650 4.030130 0.015400 
#    z 0.311630 0.015400 4.418560 
# 
# 
# High freq. dielectric constant tensor:
#      x y z
#    x 1.921990 0.002600 0.002190 
#    y 0.002600 1.891320 0.003590 
#    z 0.002190 0.003590 1.911420 
# 
# From -- ./inp_files/562529.got.cif
#   From: 2010.06.25/outbox.cif.g09.slc.cpg/sg2_282_cif.got.tgz:562529.got - 2010.06.27 13:26:56.
