data_PCOD8025698
_publ_section_title
;
Structure prediction by ZEFSAII (Michael W. Deem and Ramdas Pophale) SiO2 
 PCOD8025698
Probable space group: P -1
;
_chemical_formula_sum "Si O2"
_cell_formula_units_Z 14
_cell_length_a 6.399491
_cell_length_b 15.462087
_cell_length_c 9.367889
_cell_angle_alpha 66.336250
_cell_angle_beta 49.802307
_cell_angle_gamma 73.083432
_cell_volume 647.814674
_symmetry_space_group_name_H-M "P -1"
_symmetry_group_IT_number 2
_symmetry_cell_setting 'triclinic'
loop_
_space_group_symop_operation_xyz
x,y,z
-x,-y,-z
loop_
_atom_site_type_symbol
_atom_site_label
_atom_site_fract_x
_atom_site_fract_y
_atom_site_fract_z
Si Si1 0.985006 0.900830 0.494144
Si Si2 0.979704 0.305037 0.808206
Si Si3 0.487395 0.182426 0.576794
Si Si4 0.568327 0.182954 0.233542
Si Si5 0.169342 0.478402 0.796114
Si Si6 0.800466 0.428997 0.562744
Si Si7 0.832911 0.987142 0.222515
O O1 0.222114 0.820191 0.470901
O O2 0.708543 0.850271 0.696200
O O3 0.000000 0.000000 0.500000
O O4 0.003434 0.922737 0.303040
O O5 0.254123 0.238155 0.733727
O O6 0.038445 0.392575 0.826447
O O7 0.888799 0.330834 0.668030
O O8 0.722592 0.251940 0.017373
O O9 0.507532 0.233172 0.379622
O O10 0.431415 0.071171 0.660114
O O11 0.752292 0.089076 0.254856
O O12 0.482670 0.456174 0.718674
O O13 0.157785 0.568335 0.630570
O O14 0.000000 0.500000 0.000000
O O15 0.000000 0.500000 0.500000
O O16 0.000000 0.000000 0.000000
#
# Coordination Sequence:
#
# PCOD8025698 Si02
#       7
#     2   2   2   2   2   2   2
#     4  11  21  40  66  87 126 186 226 264 317 374
#     4  11  25  42  65  98 135 168 212 273 322 381
#     4  11  23  41  61  93 132 173 224 271 316 374
#     4  11  23  40  62  94 131 171 223 271 319 373
#     4  10  23  45  74 100 125 166 215 255 330 409
#     4   9  22  45  70  96 129 166 206 257 333 399
#     4  11  21  40  63  87 125 176 224 266 322 379
#
# _framework density 21.611118999999999
#
# number of rings (size 3 to 8) (size 9 to 14) (size 15 to 20)
#    0.000    1.429    4.286    0.857    0.000   10.857 
#    2.571    0.000    0.000    0.000    0.000    0.000 
#    0.000    0.000    0.000    0.000    0.000    0.000 
#
# Total GULP energy -173509.468962 kJ/mol
# GULP energy per Si atom -12393.533497 kJ/mol
# Density = 2.156193 g / cm^3
# Si number density = 21.611119 Si / 1000 Ang^3
#
#
#
# Elastic Constant Matrix: (Units=GPa)
#
#
# Indices 1 2 3 4 5 6 
#
# 1 137.6480 42.9976 68.5395 -2.1574 -13.5385 -20.1377
# 2 42.9976 54.8829 50.4167 -6.8866 2.4577 -0.3483
# 3 68.5395 50.4167 185.4577 -0.9029 -4.8692 -8.4860
# 4 -2.1574 -6.8866 -0.9029 37.0897 1.6929 3.7121
# 5 -13.5385 2.4577 -4.8692 1.6929 29.0202 2.2382
# 6 -20.1377 -0.3483 -8.4860 3.7121 2.2382 26.7442
#
#
#
# Elastic Compliance Matrix: (Units=1/GPa)
#
#
# Indices 1 2 3 4 5 6 
#
# 1 0.012703 -0.008800 -0.001762 -0.002074 0.005826 0.008692
# 2 -0.008800 0.031608 -0.005888 0.006391 -0.007500 -0.008342
# 3 -0.001762 -0.005888 0.007715 -0.001164 0.000952 0.001126
# 4 -0.002074 0.006391 -0.001164 0.028693 -0.002947 -0.005584
# 5 0.005826 -0.007500 0.000952 -0.002947 0.038003 0.001820
# 6 0.008692 -0.008342 0.001126 -0.005584 0.001820 0.044807
#
#
# Mechanical properties :
#
#
# Convention : Reuss Voigt Hill
#
# Bulk Modulus (GPa) = 52.28223 77.98846 65.13535
# Shear Modulus (GPa) = 24.65425 32.97315 28.81370
#
# Velocity S-wave (km/s) = 3.38126 3.91032 3.65537
# Velocity P-wave (km/s) = 6.28400 7.52017 6.92971
#
# Compressibility (1/GPa) = 0.01912696
#
# Stress axis : x y z
#
# Youngs Moduli (GPa) = 78.72070 31.63711 129.62089
#
# Poissons Ratio (x) = 0.27839 0.22838
# Poissons Ratio (y) = 0.69271 0.76323
# Poissons Ratio (z) = 0.13870 0.18629
#
# Static dielectric constant tensor:
#      x y z
#    x 4.219460 -0.052500 0.157840 
#    y -0.052500 3.755870 -0.285300 
#    z 0.157840 -0.285300 3.942320 
# 
# 
# High freq. dielectric constant tensor:
#      x y z
#    x 1.857810 -0.003740 -0.003630 
#    y -0.003740 1.829320 -0.004970 
#    z -0.003630 -0.004970 1.860450 
# 
# From -- ./inp_files/107844.got.cif
#   From: 2010.06.25/outbox.cif.g09.slc.cpg/sg2_54_cif.got.tgz:107844.got - 2010.06.27 13:26:56.
