data_PCOD8025826
_publ_section_title
;
Structure prediction by ZEFSAII (Michael W. Deem and Ramdas Pophale) SiO2 
 PCOD8025826
Probable space group: P -1
;
_chemical_formula_sum "Si O2"
_cell_formula_units_Z 14
_cell_length_a 11.580714
_cell_length_b 16.876427
_cell_length_c 9.121567
_cell_angle_alpha 130.090691
_cell_angle_beta 140.925001
_cell_angle_gamma 32.603453
_cell_volume 605.222707
_symmetry_space_group_name_H-M "P -1"
_symmetry_group_IT_number 2
_symmetry_cell_setting 'triclinic'
loop_
_space_group_symop_operation_xyz
x,y,z
-x,-y,-z
loop_
_atom_site_type_symbol
_atom_site_label
_atom_site_fract_x
_atom_site_fract_y
_atom_site_fract_z
Si Si1 0.308523 0.374962 0.994081
Si Si2 0.505933 0.428500 0.778762
Si Si3 0.251318 0.030277 0.271671
Si Si4 0.094926 0.296187 0.893177
Si Si5 0.824701 0.285698 0.375412
Si Si6 0.096216 0.217013 0.094774
Si Si7 0.632777 0.718841 0.374897
O O1 0.605316 0.290213 0.197824
O O2 0.121946 0.538327 0.064171
O O3 0.292502 0.277627 0.960031
O O4 0.230985 0.383382 0.757734
O O5 0.299142 0.555344 0.609787
O O6 0.429680 0.341403 0.635522
O O7 0.500000 0.500000 0.000000
O O8 0.795545 0.327762 0.882283
O O9 0.173940 0.075585 0.077163
O O10 0.011771 0.162674 0.291337
O O11 0.500000 0.000000 0.500000
O O12 0.348772 0.876876 0.230456
O O13 0.976128 0.248302 0.629003
O O14 0.242010 0.186134 0.048462
O O15 0.166381 0.278058 0.356491
#
# Coordination Sequence:
#
# PCOD8025826 Si02
#       7
#     2   2   2   2   2   2   2
#     4  11  24  40  64  97 133 174 211 264 337 380
#     4  12  23  38  68 106 124 170 219 281 326 378
#     4  10  23  46  69  96 130 178 220 275 325 385
#     4  11  25  40  64 100 137 175 207 272 332 397
#     4  12  24  44  67  98 140 166 221 271 331 391
#     4  11  23  42  67  97 133 169 224 268 330 387
#     4  11  25  44  70  96 133 170 225 275 324 385
#
# _framework density 23.131979999999999
#
# number of rings (size 3 to 8) (size 9 to 14) (size 15 to 20)
#    0.000    0.857    4.286    2.143    4.000    3.429 
#    0.000    6.429    0.000    5.143    0.000    0.000 
#    0.000    0.000    0.000    0.000    0.000    0.000 
#
# Total GULP energy -173544.579609 kJ/mol
# GULP energy per Si atom -12396.041401 kJ/mol
# Density = 2.307933 g / cm^3
# Si number density = 23.131980 Si / 1000 Ang^3
#
#
#
# Elastic Constant Matrix: (Units=GPa)
#
#
# Indices 1 2 3 4 5 6 
#
# 1 144.8689 27.7387 51.5569 -8.0636 -1.4974 -5.7047
# 2 27.7387 75.9988 6.3381 -15.7028 6.9840 4.3296
# 3 51.5569 6.3381 75.2632 0.4784 -4.7606 -1.3972
# 4 -8.0636 -15.7028 0.4784 22.9510 0.9649 1.4171
# 5 -1.4974 6.9840 -4.7606 0.9649 41.1116 -10.2422
# 6 -5.7047 4.3296 -1.3972 1.4171 -10.2422 16.9389
#
#
#
# Elastic Compliance Matrix: (Units=1/GPa)
#
#
# Indices 1 2 3 4 5 6 
#
# 1 0.010080 -0.003268 -0.006479 0.001121 0.001228 0.004344
# 2 -0.003268 0.017974 0.000075 0.012040 -0.006021 -0.010337
# 3 -0.006479 0.000075 0.017881 -0.002731 0.002074 0.000756
# 4 0.001121 0.012040 -0.002731 0.053220 -0.006367 -0.011227
# 5 0.001228 -0.006021 0.002074 -0.006367 0.031133 0.021481
# 6 0.004344 -0.010337 0.000756 -0.011227 0.021481 0.077131
#
#
# Mechanical properties :
#
#
# Convention : Reuss Voigt Hill
#
# Bulk Modulus (GPa) = 37.60299 51.93314 44.76806
# Shear Modulus (GPa) = 21.22005 30.23347 25.72676
#
# Velocity S-wave (km/s) = 3.03206 3.61917 3.33854
# Velocity P-wave (km/s) = 5.34312 6.32171 5.85291
#
# Compressibility (1/GPa) = 0.02659363
#
# Stress axis : x y z
#
# Youngs Moduli (GPa) = 99.20269 55.63522 55.92488
#
# Poissons Ratio (x) = 0.18179 0.36233
# Poissons Ratio (y) = 0.32415 -0.00422
# Poissons Ratio (z) = 0.64272 -0.00420
#
# Static dielectric constant tensor:
#      x y z
#    x 4.992440 0.596050 -0.111250 
#    y 0.596050 4.829980 -0.275890 
#    z -0.111250 -0.275890 4.083940 
# 
# 
# High freq. dielectric constant tensor:
#      x y z
#    x 1.937120 0.009120 0.004630 
#    y 0.009120 1.892230 -0.008720 
#    z 0.004630 -0.008720 1.907090 
# 
# From -- ./inp_files/280006.got.cif
#   From: 2010.06.25/outbox.cif.g09.slc.cpg/sg2_141_cif.got.tgz:280006.got - 2010.06.27 13:26:56.
