data_PCOD8025848
_publ_section_title
;
Structure prediction by ZEFSAII (Michael W. Deem and Ramdas Pophale) SiO2 
 PCOD8025848
Probable space group: P -1
;
_chemical_formula_sum "Si O2"
_cell_formula_units_Z 14
_cell_length_a 14.580857
_cell_length_b 28.884378
_cell_length_c 22.770089
_cell_angle_alpha 169.101888
_cell_angle_beta 159.653505
_cell_angle_gamma 20.889337
_cell_volume 616.817439
_symmetry_space_group_name_H-M "P -1"
_symmetry_group_IT_number 2
_symmetry_cell_setting 'triclinic'
loop_
_space_group_symop_operation_xyz
x,y,z
-x,-y,-z
loop_
_atom_site_type_symbol
_atom_site_label
_atom_site_fract_x
_atom_site_fract_y
_atom_site_fract_z
Si Si1 0.781048 0.443970 0.132134
Si Si2 0.181514 0.236604 0.262058
Si Si3 0.569684 0.352941 0.724790
Si Si4 0.918182 0.599425 0.164454
Si Si5 0.699356 0.826401 0.198710
Si Si6 0.130842 0.839244 0.824831
Si Si7 0.216023 0.014485 0.878877
O O1 0.697892 0.485872 0.203089
O O2 0.979537 0.617463 0.445462
O O3 0.500000 0.500000 0.000000
O O4 0.954318 0.168071 0.878332
O O5 0.479922 0.238518 0.468185
O O6 0.000000 0.500000 0.500000
O O7 0.215863 0.177317 0.140375
O O8 0.079983 0.006652 0.944500
O O9 0.701516 0.120857 0.557186
O O10 0.766333 0.538083 0.055957
O O11 0.714855 0.765525 0.202153
O O12 0.153143 0.737785 0.501186
O O13 0.041061 0.336363 0.879838
O O14 0.442197 0.745182 0.912853
O O15 0.000000 0.000000 0.000000
O O16 0.500000 0.000000 0.000000
#
# Coordination Sequence:
#
# PCOD8025848 Si02
#       7
#     2   2   2   2   2   2   2
#     4  12  26  45  70 103 147 183 236 306 355 423
#     4  11  24  44  72 102 140 194 240 293 357 443
#     4  11  24  44  72 105 138 188 247 291 354 437
#     4  11  26  42  74 102 147 189 231 298 367 426
#     4  10  23  46  70 104 142 190 238 294 361 434
#     4  11  22  43  71  99 136 184 240 291 353 421
#     4  12  28  48  70 108 148 187 241 300 367 428
#
# _framework density 22.697154000000001
#
# number of rings (size 3 to 8) (size 9 to 14) (size 15 to 20)
#    0.000    0.857    4.286    2.143   10.000    0.571 
#    5.143    3.571    0.000    0.000    0.000    0.000 
#    0.000    0.000    0.000    0.000    0.000    0.000 
#
# Total GULP energy -173524.443347 kJ/mol
# GULP energy per Si atom -12394.603096 kJ/mol
# Density = 2.264549 g / cm^3
# Si number density = 22.697154 Si / 1000 Ang^3
#
#
#
# Elastic Constant Matrix: (Units=GPa)
#
#
# Indices 1 2 3 4 5 6 
#
# 1 117.9610 52.9262 51.4700 0.8884 15.8909 -11.3125
# 2 52.9262 121.4356 36.1985 4.7067 14.4270 -4.9960
# 3 51.4700 36.1985 117.3832 -6.8312 31.2161 -13.4158
# 4 0.8884 4.7067 -6.8312 41.6101 -5.6225 -4.8226
# 5 15.8909 14.4270 31.2161 -5.6225 46.2271 -4.8672
# 6 -11.3125 -4.9960 -13.4158 -4.8226 -4.8672 33.6963
#
#
#
# Elastic Compliance Matrix: (Units=1/GPa)
#
#
# Indices 1 2 3 4 5 6 
#
# 1 0.012180 -0.004057 -0.003845 -0.000233 -0.000152 0.001901
# 2 -0.004057 0.010580 -0.001317 -0.001585 -0.001288 -0.000731
# 3 -0.003845 -0.001317 0.012737 0.001805 -0.006340 0.002927
# 4 -0.000233 -0.001585 0.001805 0.025425 0.002919 0.004466
# 5 -0.000152 -0.001288 -0.006340 0.002919 0.026885 0.001535
# 6 0.001901 -0.000731 0.002927 0.004466 0.001535 0.032233
#
#
# Mechanical properties :
#
#
# Convention : Reuss Voigt Hill
#
# Bulk Modulus (GPa) = 58.62229 70.88544 64.75386
# Shear Modulus (GPa) = 34.68252 38.71904 36.70078
#
# Velocity S-wave (km/s) = 3.91328 4.13473 4.02553
# Velocity P-wave (km/s) = 6.80459 7.35483 7.08505
#
# Compressibility (1/GPa) = 0.01705836
#
# Stress axis : x y z
#
# Youngs Moduli (GPa) = 82.10124 94.51850 78.51080
#
# Poissons Ratio (x) = 0.38346 0.30190
# Poissons Ratio (y) = 0.33308 0.10340
# Poissons Ratio (z) = 0.31571 0.12449
#
# Static dielectric constant tensor:
#      x y z
#    x 4.124040 0.122560 -0.176300 
#    y 0.122560 4.060310 0.334780 
#    z -0.176300 0.334780 3.818380 
# 
# 
# High freq. dielectric constant tensor:
#      x y z
#    x 1.888780 0.003460 0.002340 
#    y 0.003460 1.902090 0.001330 
#    z 0.002340 0.001330 1.902270 
# 
# From -- ./inp_files/612479.got.cif
#   From: 2010.06.25/outbox.cif.g09.slc.cpg/sg2_307_cif.got.tgz:612479.got - 2010.06.27 13:26:56.
