data_PCOD8025412
_publ_section_title
;
Structure prediction by ZEFSAII (Michael W. Deem and Ramdas Pophale) SiO2 
 PCOD8025412
Probable space group: P -1
;
_chemical_formula_sum "Si O2"
_cell_formula_units_Z 14
_cell_length_a 7.590080
_cell_length_b 7.936226
_cell_length_c 18.962197
_cell_angle_alpha 43.890723
_cell_angle_beta 55.012727
_cell_angle_gamma 47.907167
_cell_volume 578.499619
_symmetry_space_group_name_H-M "P -1"
_symmetry_group_IT_number 2
_symmetry_cell_setting 'triclinic'
loop_
_space_group_symop_operation_xyz
x,y,z
-x,-y,-z
loop_
_atom_site_type_symbol
_atom_site_label
_atom_site_fract_x
_atom_site_fract_y
_atom_site_fract_z
Si Si1 0.286385 0.874371 0.653815
Si Si2 0.081387 0.339294 0.231511
Si Si3 0.797295 0.947833 0.100639
Si Si4 0.641105 0.628657 0.523575
Si Si5 0.806986 0.253271 0.137546
Si Si6 0.224447 0.896380 0.428207
Si Si7 0.706928 0.788206 0.926749
O O1 0.066726 0.834175 0.686735
O O2 0.524386 0.681427 0.612564
O O3 0.331147 0.772511 0.754828
O O4 0.206143 0.198729 0.567723
O O5 0.907210 0.647828 0.199764
O O6 0.207424 0.356597 0.125055
O O7 0.258347 0.152821 0.308685
O O8 0.708341 0.146390 0.127700
O O9 0.574316 0.990737 0.086103
O O10 0.000000 0.000000 0.000000
O O11 0.451438 0.751447 0.468214
O O12 0.788472 0.308769 0.567655
O O13 0.102770 0.098762 0.126395
O O14 0.719515 0.573713 0.047665
O O15 0.000000 0.000000 0.500000
#
# Coordination Sequence:
#
# PCOD8025412 Si02
#       7
#     2   2   2   2   2   2   2
#     4  10  23  45  66 101 142 179 239 288 357 426
#     4  11  25  44  66 105 140 183 236 294 358 427
#     4  12  26  44  72 106 144 192 238 295 359 427
#     4  10  24  45  69 100 137 186 234 302 353 414
#     4  10  23  46  71 104 142 193 237 292 363 428
#     4  11  24  43  70  99 136 184 239 291 355 430
#     4  10  24  47  69 101 149 181 241 300 349 436
#
# _framework density 24.200534000000001
#
# number of rings (size 3 to 8) (size 9 to 14) (size 15 to 20)
#    0.000    1.429    2.857    0.429    6.000    1.143 
#    2.571    0.000    0.000    0.000    0.000    0.000 
#    0.000    0.000    0.000    0.000    0.000    0.000 
#
# Total GULP energy -173475.595452 kJ/mol
# GULP energy per Si atom -12391.113961 kJ/mol
# Density = 2.414545 g / cm^3
# Si number density = 24.200534 Si / 1000 Ang^3
#
#
#
# Elastic Constant Matrix: (Units=GPa)
#
#
# Indices 1 2 3 4 5 6 
#
# 1 99.4601 23.0220 28.4847 -4.3642 -9.0585 -6.6858
# 2 23.0220 87.4724 46.1572 -12.7296 -2.3342 4.4673
# 3 28.4847 46.1572 162.2074 -0.4656 11.8076 0.1082
# 4 -4.3642 -12.7296 -0.4656 44.9973 5.2840 2.3498
# 5 -9.0585 -2.3342 11.8076 5.2840 31.2270 2.7787
# 6 -6.6858 4.4673 0.1082 2.3498 2.7787 29.1533
#
#
#
# Elastic Compliance Matrix: (Units=1/GPa)
#
#
# Indices 1 2 3 4 5 6 
#
# 1 0.011544 -0.002214 -0.001660 -0.000084 0.003589 0.002658
# 2 -0.002214 0.014878 -0.003947 0.003937 0.001584 -0.003241
# 3 -0.001660 -0.003947 0.007843 -0.000798 -0.003661 0.000608
# 4 -0.000084 0.003937 -0.000798 0.023820 -0.003261 -0.002229
# 5 0.003589 0.001584 -0.003661 -0.003261 0.035343 -0.002512
# 6 0.002658 -0.003241 0.000608 -0.002229 -0.002512 0.035824
#
#
# Mechanical properties :
#
#
# Convention : Reuss Voigt Hill
#
# Bulk Modulus (GPa) = 53.69738 60.49644 57.09691
# Shear Modulus (GPa) = 33.08980 37.84058 35.46519
#
# Velocity S-wave (km/s) = 3.70174 3.95856 3.83230
# Velocity P-wave (km/s) = 6.36452 6.77834 6.57469
#
# Compressibility (1/GPa) = 0.01862288
#
# Stress axis : x y z
#
# Youngs Moduli (GPa) = 86.62357 67.21201 127.49534
#
# Poissons Ratio (x) = 0.14884 0.21169
# Poissons Ratio (y) = 0.19182 0.50319
# Poissons Ratio (z) = 0.14383 0.26527
#
# Static dielectric constant tensor:
#      x y z
#    x 4.280140 0.566990 0.076750 
#    y 0.566990 4.149120 -0.037360 
#    z 0.076750 -0.037360 4.760160 
# 
# 
# High freq. dielectric constant tensor:
#      x y z
#    x 1.969110 0.000820 0.005400 
#    y 0.000820 1.939200 0.002080 
#    z 0.005400 0.002080 1.976250 
# 
# From -- ./inp_files/587121.got.cif
#   From: 2010.06.25/outbox.cif.g09.slc.cpg/sg2_294_cif.got.tgz:587121.got - 2010.06.27 13:26:56.
