data_PCOD8025629
_publ_section_title
;
Structure prediction by ZEFSAII (Michael W. Deem and Ramdas Pophale) SiO2 
 PCOD8025629
Probable space group: P -1
;
_chemical_formula_sum "Si O2"
_cell_formula_units_Z 16
_cell_length_a 16.395815
_cell_length_b 13.574078
_cell_length_c 21.944930
_cell_angle_alpha 159.907180
_cell_angle_beta 23.603190
_cell_angle_gamma 146.244266
_cell_volume 656.553556
_symmetry_space_group_name_H-M "P -1"
_symmetry_group_IT_number 2
_symmetry_cell_setting 'triclinic'
loop_
_space_group_symop_operation_xyz
x,y,z
-x,-y,-z
loop_
_atom_site_type_symbol
_atom_site_label
_atom_site_fract_x
_atom_site_fract_y
_atom_site_fract_z
Si Si1 0.068030 0.552694 0.894149
Si Si2 0.539634 0.732380 0.467596
Si Si3 0.723591 0.125208 0.489312
Si Si4 0.177444 0.824354 0.860808
Si Si5 0.921489 0.508580 0.661603
Si Si6 0.783099 0.183630 0.813897
Si Si7 0.932614 0.423203 0.738508
Si Si8 0.378069 0.467831 0.312347
O O1 0.227164 0.432207 0.769306
O O2 0.202690 0.601147 0.770736
O O3 0.933516 0.308977 0.830220
O O4 0.916294 0.852568 0.192045
O O5 0.397482 0.817386 0.673732
O O6 0.437385 0.526541 0.374779
O O7 0.550246 0.026746 0.593441
O O8 0.790819 0.401779 0.635931
O O9 0.633094 0.239811 0.551853
O O10 0.008567 0.728853 0.874981
O O11 0.089875 0.145732 0.134414
O O12 0.840909 0.425429 0.734546
O O13 0.163900 0.354343 0.395946
O O14 0.760632 0.373811 0.876755
O O15 0.554897 0.209408 0.013329
O O16 0.867635 0.843152 0.544238
#
# Coordination Sequence:
#
# PCOD8025629 Si02
#       8
#     2   2   2   2   2   2   2   2
#     4  11  24  47  73 102 147 180 227 301 350 409
#     4  12  26  44  76 105 135 191 240 279 354 416
#     4  12  27  46  70 104 148 181 231 295 349 412
#     4  11  25  46  71 100 143 186 236 285 349 417
#     4  12  26  46  70 103 146 188 229 289 355 412
#     4  10  24  45  73 105 141 181 237 290 350 414
#     4  10  23  45  71 101 141 185 230 291 349 408
#     4  12  26  45  73 106 137 186 239 284 346 421
#
# _framework density 24.369681
#
# number of rings (size 3 to 8) (size 9 to 14) (size 15 to 20)
#    0.000    0.750    3.750    2.625    3.500    2.000 
#    6.750    0.000    0.000    0.000    0.000    0.000 
#    0.000    0.000    0.000    0.000    0.000    0.000 
#
# Total GULP energy -198483.244867 kJ/mol
# GULP energy per Si atom -12405.202804 kJ/mol
# Density = 2.431421 g / cm^3
# Si number density = 24.369681 Si / 1000 Ang^3
#
#
#
# Elastic Constant Matrix: (Units=GPa)
#
#
# Indices 1 2 3 4 5 6 
#
# 1 91.2973 4.0465 2.3768 -0.6282 6.7789 -6.8349
# 2 4.0465 63.2704 7.3119 -4.2565 20.2675 2.7603
# 3 2.3768 7.3119 67.8535 -1.4624 22.3590 14.5064
# 4 -0.6282 -4.2565 -1.4624 36.5611 1.3677 6.3404
# 5 6.7789 20.2675 22.3590 1.3677 31.4750 2.1082
# 6 -6.8349 2.7603 14.5064 6.3404 2.1082 31.2643
#
#
#
# Elastic Compliance Matrix: (Units=1/GPa)
#
#
# Indices 1 2 3 4 5 6 
#
# 1 0.011349 -0.000052 -0.000179 -0.000208 -0.002460 0.002777
# 2 -0.000052 0.020936 0.003861 0.003772 -0.016154 -0.003327
# 3 -0.000179 0.003861 0.022544 0.003824 -0.017931 -0.010407
# 4 -0.000208 0.003772 0.003824 0.029502 -0.005864 -0.007740
# 5 -0.002460 -0.016154 -0.017931 -0.005864 0.055249 0.006672
# 6 0.002777 -0.003327 -0.010407 -0.007740 0.006672 0.038835
#
#
# Mechanical properties :
#
#
# Convention : Reuss Voigt Hill
#
# Bulk Modulus (GPa) = 16.10599 27.76576 21.93587
# Shear Modulus (GPa) = 26.06193 33.77247 29.91720
#
# Velocity S-wave (km/s) = 3.27378 3.72673 3.50757
# Velocity P-wave (km/s) = 4.57313 5.47141 5.04231
#
# Compressibility (1/GPa) = 0.06208871
#
# Stress axis : x y z
#
# Youngs Moduli (GPa) = 88.11072 47.76504 44.35812
#
# Poissons Ratio (x) = 0.00249 0.00796
# Poissons Ratio (y) = 0.00460 -0.17129
# Poissons Ratio (z) = 0.01581 -0.18444
#
# Static dielectric constant tensor:
#      x y z
#    x 4.405040 -0.302780 0.187750 
#    y -0.302780 4.356730 -0.094570 
#    z 0.187750 -0.094570 4.243660 
# 
# 
# High freq. dielectric constant tensor:
#      x y z
#    x 1.970320 -0.020430 0.015860 
#    y -0.020430 1.968230 -0.005260 
#    z 0.015860 -0.005260 1.964130 
# 
# From -- ./inp_files/613263.got.cif
#   From: 2010.06.25/outbox.cif.g09.slc.cpg/sg2_307_cif.got.tgz:613263.got - 2010.06.27 13:26:56.
