data_PCOD8025453
_publ_section_title
;
Structure prediction by ZEFSAII (Michael W. Deem and Ramdas Pophale) SiO2 
 PCOD8025453
Probable space group: P -1
;
_chemical_formula_sum "Si O2"
_cell_formula_units_Z 16
_cell_length_a 8.677174
_cell_length_b 22.221866
_cell_length_c 8.389522
_cell_angle_alpha 37.301331
_cell_angle_beta 128.340531
_cell_angle_gamma 116.430890
_cell_volume 764.926560
_symmetry_space_group_name_H-M "P -1"
_symmetry_group_IT_number 2
_symmetry_cell_setting 'triclinic'
loop_
_space_group_symop_operation_xyz
x,y,z
-x,-y,-z
loop_
_atom_site_type_symbol
_atom_site_label
_atom_site_fract_x
_atom_site_fract_y
_atom_site_fract_z
Si Si1 0.773636 0.739191 0.629696
Si Si2 0.706083 0.947915 0.299047
Si Si3 0.831413 0.774709 0.232330
Si Si4 0.499548 0.414659 0.310232
Si Si5 0.110043 0.573360 0.306271
Si Si6 0.125652 0.930347 0.103132
Si Si7 0.461732 0.082552 0.433343
Si Si8 0.811954 0.550421 0.686185
O O1 0.735845 0.829205 0.538045
O O2 0.802834 0.787096 0.376300
O O3 0.581382 0.679302 0.629617
O O4 0.963690 0.664719 0.955693
O O5 0.702566 0.956381 0.470566
O O6 0.500000 0.000000 0.000000
O O7 0.868449 0.006019 0.191105
O O8 0.863760 0.660544 0.438798
O O9 0.020932 0.832999 0.191055
O O10 0.631958 0.817843 0.923511
O O11 0.721941 0.381033 0.579201
O O12 0.370486 0.449060 0.310563
O O13 0.500000 0.500000 0.000000
O O14 0.222057 0.511057 0.365499
O O15 0.000000 0.500000 0.500000
O O16 0.340065 0.896365 0.389102
O O17 0.000000 0.000000 0.000000
O O18 0.500000 0.000000 0.500000
O O19 0.000000 0.500000 0.000000
#
# Coordination Sequence:
#
# PCOD8025453 Si02
#       8
#     2   2   2   2   2   2   2   2
#     4  11  23  45  67  98 140 173 228 278 336 407
#     4  10  23  45  67  97 137 177 220 279 334 399
#     4  11  23  41  67  99 132 172 223 273 333 391
#     4  11  23  44  70  98 135 180 224 282 339 398
#     4  12  24  45  70  99 139 180 225 282 341 405
#     4  11  21  44  69  94 134 177 218 273 337 395
#     4  11  23  42  68  94 134 174 219 277 332 396
#     4  11  23  46  68  98 142 177 225 282 335 409
#
# _framework density 20.917041999999999
#
# number of rings (size 3 to 8) (size 9 to 14) (size 15 to 20)
#    0.000    1.000    6.250    1.125    1.750    2.500 
#   11.250    0.000    0.000    0.000    0.000    0.000 
#    0.000    0.000    0.000    0.000    0.000    0.000 
#
# Total GULP energy -198365.397884 kJ/mol
# GULP energy per Si atom -12397.837368 kJ/mol
# Density = 2.086943 g / cm^3
# Si number density = 20.917042 Si / 1000 Ang^3
#
#
#
# Elastic Constant Matrix: (Units=GPa)
#
#
# Indices 1 2 3 4 5 6 
#
# 1 124.6064 49.0999 58.8273 -7.3290 -19.9833 1.9088
# 2 49.0999 115.7675 58.5097 -9.2839 0.5600 14.5180
# 3 58.8273 58.5097 157.5367 -1.9432 -2.1944 6.6007
# 4 -7.3290 -9.2839 -1.9432 42.1006 3.2228 5.1799
# 5 -19.9833 0.5600 -2.1944 3.2228 39.2939 3.6270
# 6 1.9088 14.5180 6.6007 5.1799 3.6270 45.5800
#
#
#
# Elastic Compliance Matrix: (Units=1/GPa)
#
#
# Indices 1 2 3 4 5 6 
#
# 1 0.011799 -0.003515 -0.003035 0.000631 0.005780 0.000533
# 2 -0.003515 0.012359 -0.003129 0.002551 -0.002028 -0.003465
# 3 -0.003035 -0.003129 0.008619 -0.000752 -0.000959 0.000037
# 4 0.000631 0.002551 -0.000752 0.024928 -0.001484 -0.003445
# 5 0.005780 -0.002028 -0.000959 -0.001484 0.028630 -0.001567
# 6 0.000533 -0.003465 0.000037 -0.003445 -0.001567 0.023531
#
#
# Mechanical properties :
#
#
# Convention : Reuss Voigt Hill
#
# Bulk Modulus (GPa) = 74.51816 81.19826 77.85821
# Shear Modulus (GPa) = 37.39808 40.82648 39.11228
#
# Velocity S-wave (km/s) = 4.23297 4.42274 4.32890
# Velocity P-wave (km/s) = 7.71969 8.06129 7.89234
#
# Compressibility (1/GPa) = 0.01341955
#
# Stress axis : x y z
#
# Youngs Moduli (GPa) = 84.75504 80.91178 116.02331
#
# Poissons Ratio (x) = 0.28438 0.35208
# Poissons Ratio (y) = 0.29789 0.36308
# Poissons Ratio (z) = 0.25719 0.25320
#
# Static dielectric constant tensor:
#      x y z
#    x 3.954470 0.080860 -0.231620 
#    y 0.080860 3.798450 0.130310 
#    z -0.231620 0.130310 4.106030 
# 
# 
# High freq. dielectric constant tensor:
#      x y z
#    x 1.827960 -0.001440 -0.008380 
#    y -0.001440 1.811680 0.005970 
#    z -0.008380 0.005970 1.834940 
# 
# From -- ./inp_files/225868.got.cif
#   From: 2010.06.25/outbox.cif.g09.slc.cpg/sg2_113_cif.got.tgz:225868.got - 2010.06.27 13:26:56.
