data_PCOD8025391
_publ_section_title
;
Structure prediction by ZEFSAII (Michael W. Deem and Ramdas Pophale) SiO2 
 PCOD8025391
Probable space group: P -1
;
_chemical_formula_sum "Si O2"
_cell_formula_units_Z 16
_cell_length_a 10.205197
_cell_length_b 14.929703
_cell_length_c 14.297166
_cell_angle_alpha 151.457344
_cell_angle_beta 45.192453
_cell_angle_gamma 133.888425
_cell_volume 720.550544
_symmetry_space_group_name_H-M "P -1"
_symmetry_group_IT_number 2
_symmetry_cell_setting 'triclinic'
loop_
_space_group_symop_operation_xyz
x,y,z
-x,-y,-z
loop_
_atom_site_type_symbol
_atom_site_label
_atom_site_fract_x
_atom_site_fract_y
_atom_site_fract_z
Si Si1 0.278409 0.919500 0.537140
Si Si2 0.718427 0.505944 0.889977
Si Si3 0.123855 0.221898 0.778581
Si Si4 0.601653 0.578612 0.332296
Si Si5 0.606681 0.124807 0.195280
Si Si6 0.862016 0.186632 0.293548
Si Si7 0.238413 0.407364 0.254966
Si Si8 0.286148 0.779106 0.976075
O O1 0.230899 0.700268 0.329030
O O2 0.202134 0.941399 0.700141
O O3 0.500000 0.000000 0.500000
O O4 0.179681 0.032039 0.615934
O O5 0.785577 0.628790 0.876511
O O6 0.500000 0.500000 0.000000
O O7 0.826553 0.604049 0.014729
O O8 0.237107 0.280855 0.680043
O O9 0.898508 0.181806 0.841466
O O10 0.502571 0.709385 0.568430
O O11 0.452548 0.432885 0.207439
O O12 0.698912 0.441267 0.220217
O O13 0.750326 0.082764 0.164308
O O14 0.725922 0.189721 0.100611
O O15 0.462169 0.924403 0.066549
O O16 0.812622 0.392552 0.511167
O O17 0.091105 0.223594 0.204136
#
# Coordination Sequence:
#
# PCOD8025391 Si02
#       8
#     2   2   2   2   2   2   2   2
#     4  11  22  39  64  95 131 166 199 259 327 382
#     4  11  20  38  64  93 127 163 199 254 323 380
#     4  12  25  41  64  98 128 165 217 259 311 386
#     4  11  23  43  67  89 129 172 211 265 317 369
#     4  10  23  45  65  91 126 169 215 264 316 378
#     4   9  19  36  64  93 125 159 202 259 319 377
#     4   9  18  36  61  96 123 157 207 253 315 387
#     4  11  26  43  64  91 126 169 225 262 307 370
#
# _framework density 22.205244
#
# number of rings (size 3 to 8) (size 9 to 14) (size 15 to 20)
#    0.000    1.500    2.500    3.000    0.000    7.500 
#    0.000    1.875    0.000    0.000    0.000    0.000 
#    0.000    0.000    0.000    0.000    0.000    0.000 
#
# Total GULP energy -198405.006106 kJ/mol
# GULP energy per Si atom -12400.312882 kJ/mol
# Density = 2.215470 g / cm^3
# Si number density = 22.205244 Si / 1000 Ang^3
#
#
#
# Elastic Constant Matrix: (Units=GPa)
#
#
# Indices 1 2 3 4 5 6 
#
# 1 44.5015 35.4419 16.2242 -0.5406 -2.3329 -3.7700
# 2 35.4419 155.0945 25.4876 -19.0784 -8.6400 -1.3437
# 3 16.2242 25.4876 73.7873 1.4564 -7.3908 -7.0354
# 4 -0.5406 -19.0784 1.4564 31.9919 -2.1765 -10.8597
# 5 -2.3329 -8.6400 -7.3908 -2.1765 40.5522 -1.2827
# 6 -3.7700 -1.3437 -7.0354 -10.8597 -1.2827 29.8061
#
#
#
# Elastic Compliance Matrix: (Units=1/GPa)
#
#
# Indices 1 2 3 4 5 6 
#
# 1 0.029041 -0.006307 -0.004068 -0.002628 -0.000510 0.001449
# 2 -0.006307 0.008972 -0.001525 0.005926 0.001636 0.001476
# 3 -0.004068 -0.001525 0.015503 -0.000510 0.002334 0.002991
# 4 -0.002628 0.005926 -0.000510 0.039948 0.003622 0.014525
# 5 -0.000510 0.001636 0.002334 0.003622 0.025693 0.002985
# 6 0.001449 0.001476 0.002991 0.014525 0.002985 0.039927
#
#
# Mechanical properties :
#
#
# Convention : Reuss Voigt Hill
#
# Bulk Modulus (GPa) = 33.65111 47.52119 40.58615
# Shear Modulus (GPa) = 25.93510 33.55203 29.74357
#
# Velocity S-wave (km/s) = 3.42127 3.89137 3.66387
# Velocity P-wave (km/s) = 5.54926 6.45273 6.01797
#
# Compressibility (1/GPa) = 0.02971670
#
# Stress axis : x y z
#
# Youngs Moduli (GPa) = 34.43353 111.45261 64.50537
#
# Poissons Ratio (x) = 0.70294 0.26240
# Poissons Ratio (y) = 0.21718 0.09836
# Poissons Ratio (z) = 0.14007 0.16995
#
# Static dielectric constant tensor:
#      x y z
#    x 3.918810 -0.064800 -0.153710 
#    y -0.064800 4.213290 -0.233890 
#    z -0.153710 -0.233890 3.940100 
# 
# 
# High freq. dielectric constant tensor:
#      x y z
#    x 1.863380 0.002380 -0.002020 
#    y 0.002380 1.888560 -0.003350 
#    z -0.002020 -0.003350 1.879370 
# 
# From -- ./inp_files/521868.got.cif
#   From: 2010.06.25/outbox.cif.g09.slc.cpg/sg2_261_cif.got.tgz:521868.got - 2010.06.27 13:26:56.
