data_PCOD8025262
_publ_section_title
;
Structure prediction by ZEFSAII (Michael W. Deem and Ramdas Pophale) SiO2 
 PCOD8025262
Probable space group: P -1
;
_chemical_formula_sum "Si O2"
_cell_formula_units_Z 16
_cell_length_a 11.733421
_cell_length_b 11.233410
_cell_length_c 11.495306
_cell_angle_alpha 111.614865
_cell_angle_beta 38.323287
_cell_angle_gamma 87.204214
_cell_volume 707.849554
_symmetry_space_group_name_H-M "P -1"
_symmetry_group_IT_number 2
_symmetry_cell_setting 'triclinic'
loop_
_space_group_symop_operation_xyz
x,y,z
-x,-y,-z
loop_
_atom_site_type_symbol
_atom_site_label
_atom_site_fract_x
_atom_site_fract_y
_atom_site_fract_z
Si Si1 0.749181 0.264052 0.563503
Si Si2 0.104037 0.191314 0.425113
Si Si3 0.130272 0.316463 0.145344
Si Si4 0.635982 0.376700 0.247148
Si Si5 0.577916 0.155663 0.849677
Si Si6 0.673997 0.626992 0.680060
Si Si7 0.268430 0.538879 0.029172
Si Si8 0.919953 0.172827 0.144825
O O1 0.708200 0.150912 0.629076
O O2 0.534668 0.447417 0.820117
O O3 0.996311 0.216177 0.390632
O O4 0.748902 0.239217 0.416007
O O5 0.253369 0.255502 0.340828
O O6 0.259181 0.008670 0.272268
O O7 0.882869 0.295457 0.721965
O O8 0.100737 0.212819 0.039992
O O9 0.890686 0.441968 0.452878
O O10 0.335678 0.190842 0.020627
O O11 0.189686 0.424934 0.071743
O O12 0.500000 0.500000 0.500000
O O13 0.461996 0.347950 0.318488
O O14 0.750409 0.425389 0.080087
O O15 0.831260 0.226515 0.105193
O O16 0.504449 0.306083 0.045108
O O17 0.000000 0.000000 0.000000
#
# Coordination Sequence:
#
# PCOD8025262 Si02
#       8
#     2   2   2   2   2   2   2   2
#     4  11  23  44  65  98 135 174 221 267 336 392
#     4  11  24  40  69 102 135 170 218 283 330 387
#     4  10  23  46  66 101 131 175 220 270 332 392
#     4  12  24  46  70  95 130 177 228 264 322 400
#     4  11  24  40  69 100 139 168 219 280 332 389
#     4  11  23  42  68  99 131 177 221 269 331 392
#     4  10  23  44  71  98 130 174 222 272 326 393
#     4  12  28  44  69  96 135 177 217 275 328 392
#
# _framework density 22.603673000000001
#
# number of rings (size 3 to 8) (size 9 to 14) (size 15 to 20)
#    0.000    1.000    2.500    3.000    5.250    4.500 
#    0.000    2.500    0.000    0.000    0.000    0.000 
#    0.000    0.000    0.000    0.000    0.000    0.000 
#
# Total GULP energy -198266.320839 kJ/mol
# GULP energy per Si atom -12391.645052 kJ/mol
# Density = 2.255223 g / cm^3
# Si number density = 22.603673 Si / 1000 Ang^3
#
#
#
# Elastic Constant Matrix: (Units=GPa)
#
#
# Indices 1 2 3 4 5 6 
#
# 1 145.5299 49.6554 50.0083 11.8209 -20.8139 -9.4914
# 2 49.6554 92.1638 47.9244 27.5419 -9.5328 -18.3619
# 3 50.0083 47.9244 110.9836 12.5689 -10.6040 -1.4872
# 4 11.8209 27.5419 12.5689 47.3923 -6.2089 -2.0825
# 5 -20.8139 -9.5328 -10.6040 -6.2089 36.9388 2.2683
# 6 -9.4914 -18.3619 -1.4872 -2.0825 2.2683 44.9295
#
#
#
# Elastic Compliance Matrix: (Units=1/GPa)
#
#
# Indices 1 2 3 4 5 6 
#
# 1 0.009436 -0.003660 -0.002408 0.000924 0.003820 0.000268
# 2 -0.003660 0.019788 -0.005859 -0.008806 -0.000531 0.006739
# 3 -0.002408 -0.005859 0.012612 0.000684 0.001021 -0.002505
# 4 0.000924 -0.008806 0.000684 0.026094 0.002973 -0.002322
# 5 0.003820 -0.000531 0.001021 0.002973 0.029926 -0.000749
# 6 0.000268 0.006739 -0.002505 -0.002322 -0.000749 0.024915
#
#
# Mechanical properties :
#
#
# Convention : Reuss Voigt Hill
#
# Bulk Modulus (GPa) = 55.60663 71.53928 63.57295
# Shear Modulus (GPa) = 32.76175 39.25808 36.00992
#
# Velocity S-wave (km/s) = 3.81123 4.17202 3.99570
# Velocity P-wave (km/s) = 6.63486 7.41119 7.03374
#
# Compressibility (1/GPa) = 0.01798347
#
# Stress axis : x y z
#
# Youngs Moduli (GPa) = 105.97407 50.53636 79.29216
#
# Poissons Ratio (x) = 0.18494 0.19091
# Poissons Ratio (y) = 0.38782 0.46456
# Poissons Ratio (z) = 0.25515 0.29608
#
# Static dielectric constant tensor:
#      x y z
#    x 4.529380 -0.209870 0.754570 
#    y -0.209870 4.308150 -0.649300 
#    z 0.754570 -0.649300 5.847380 
# 
# 
# High freq. dielectric constant tensor:
#      x y z
#    x 1.888130 -0.003400 -0.010690 
#    y -0.003400 1.915050 -0.008020 
#    z -0.010690 -0.008020 1.896290 
# 
# From -- ./inp_files/428525.got.cif
#   From: 2010.06.25/outbox.cif.g09.slc.cpg/sg2_215_cif.got.tgz:428525.got - 2010.06.27 13:26:56.
