data_PCOD8025813
_publ_section_title
;
Structure prediction by ZEFSAII (Michael W. Deem and Ramdas Pophale) SiO2 
 PCOD8025813
Probable space group: P -1
;
_chemical_formula_sum "Si O2"
_cell_formula_units_Z 16
_cell_length_a 6.776204
_cell_length_b 15.891427
_cell_length_c 8.598052
_cell_angle_alpha 57.977783
_cell_angle_beta 96.513411
_cell_angle_gamma 116.766202
_cell_volume 691.202900
_symmetry_space_group_name_H-M "P -1"
_symmetry_group_IT_number 2
_symmetry_cell_setting 'triclinic'
loop_
_space_group_symop_operation_xyz
x,y,z
-x,-y,-z
loop_
_atom_site_type_symbol
_atom_site_label
_atom_site_fract_x
_atom_site_fract_y
_atom_site_fract_z
Si Si1 0.631292 0.672059 0.804593
Si Si2 0.538985 0.989515 0.329998
Si Si3 0.950080 0.584323 0.512467
Si Si4 0.449569 0.749665 0.440689
Si Si5 0.780613 0.745149 0.250155
Si Si6 0.093213 0.960595 0.196293
Si Si7 0.780767 0.493915 0.911900
Si Si8 0.968921 0.866630 0.824909
O O1 0.525925 0.675195 0.626913
O O2 0.741408 0.589866 0.895802
O O3 0.828116 0.795466 0.736818
O O4 0.431966 0.627399 0.958787
O O5 0.544601 0.874238 0.398636
O O6 0.357329 0.998204 0.190428
O O7 0.500000 0.000000 0.500000
O O8 0.769231 0.099245 0.199019
O O9 0.789266 0.627354 0.370554
O O10 0.809361 0.512148 0.714562
O O11 0.000000 0.500000 0.500000
O O12 0.181548 0.692506 0.470432
O O13 0.545287 0.742304 0.284269
O O14 0.957822 0.826322 0.317323
O O15 0.853169 0.793735 0.038003
O O16 0.045473 0.016790 0.288382
O O17 0.000000 0.000000 0.000000
O O18 0.000000 0.500000 0.000000
#
# Coordination Sequence:
#
# PCOD8025813 Si02
#       8
#     2   2   2   2   2   2   2   2
#     4  11  26  45  72 103 144 190 238 302 362 436
#     4  12  27  43  76 112 149 190 247 294 363 447
#     4  12  28  46  73 105 141 187 250 302 361 426
#     4  12  25  46  74 104 144 192 235 302 367 426
#     4  11  25  47  70 100 146 189 239 295 361 431
#     4  10  23  46  69 103 145 191 233 295 360 436
#     4  11  25  47  70  99 141 190 243 298 367 420
#     4  11  27  44  72 107 147 189 240 293 365 435
#
# _framework density 23.148052
#
# number of rings (size 3 to 8) (size 9 to 14) (size 15 to 20)
#    0.000    0.750    5.000    0.750    7.000    6.500 
#    0.000    0.000    0.000    0.000    0.000    0.000 
#    0.000    0.000    0.000    0.000    0.000    0.000 
#
# Total GULP energy -198333.913349 kJ/mol
# GULP energy per Si atom -12395.869584 kJ/mol
# Density = 2.309537 g / cm^3
# Si number density = 23.148052 Si / 1000 Ang^3
#
#
#
# Elastic Constant Matrix: (Units=GPa)
#
#
# Indices 1 2 3 4 5 6 
#
# 1 130.8825 21.5329 36.6593 -2.8975 -1.3020 0.7961
# 2 21.5329 84.5602 -3.1801 -5.9506 -1.9074 -4.7040
# 3 36.6593 -3.1801 90.8026 -2.8723 -15.6325 -1.2176
# 4 -2.8975 -5.9506 -2.8723 22.7519 -1.0455 -3.3438
# 5 -1.3020 -1.9074 -15.6325 -1.0455 46.6387 -4.3645
# 6 0.7961 -4.7040 -1.2176 -3.3438 -4.3645 47.7144
#
#
#
# Elastic Compliance Matrix: (Units=1/GPa)
#
#
# Indices 1 2 3 4 5 6 
#
# 1 0.009178 -0.002564 -0.004026 -0.000161 -0.001261 -0.000635
# 2 -0.002564 0.012929 0.001853 0.003605 0.001322 0.001738
# 3 -0.004026 0.001853 0.013589 0.002074 0.004674 0.001169
# 4 -0.000161 0.003605 0.002074 0.045801 0.002223 0.003824
# 5 -0.001261 0.001322 0.004674 0.002223 0.023316 0.002559
# 6 -0.000635 0.001738 0.001169 0.003824 0.002559 0.021672
#
#
# Mechanical properties :
#
#
# Convention : Reuss Voigt Hill
#
# Bulk Modulus (GPa) = 38.13608 46.25216 42.19412
# Shear Modulus (GPa) = 34.55475 40.16987 37.36231
#
# Velocity S-wave (km/s) = 3.86783 4.17027 4.02189
# Velocity P-wave (km/s) = 6.03800 6.57363 6.31150
#
# Compressibility (1/GPa) = 0.02622189
#
# Stress axis : x y z
#
# Youngs Moduli (GPa) = 108.96190 77.34820 73.58868
#
# Poissons Ratio (x) = 0.19829 0.29625
# Poissons Ratio (y) = 0.27933 -0.13633
# Poissons Ratio (z) = 0.43865 -0.14330
#
# Static dielectric constant tensor:
#      x y z
#    x 4.024860 0.050050 -0.318720 
#    y 0.050050 4.469900 -0.181770 
#    z -0.318720 -0.181770 4.080950 
# 
# 
# High freq. dielectric constant tensor:
#      x y z
#    x 1.931960 -0.002230 -0.005720 
#    y -0.002230 1.916740 -0.008150 
#    z -0.005720 -0.008150 1.906940 
# 
# From -- ./inp_files/138730.got.cif
#   From: 2010.06.25/outbox.cif.g09.slc.cpg/sg2_70_cif.got.tgz:138730.got - 2010.06.27 13:26:56.
