data_PCOD8025441
_publ_section_title
;
Structure prediction by ZEFSAII (Michael W. Deem and Ramdas Pophale) SiO2 
 PCOD8025441
Probable space group: P -1
;
_chemical_formula_sum "Si O2"
_cell_formula_units_Z 12
_cell_length_a 8.925369
_cell_length_b 8.667644
_cell_length_c 8.929811
_cell_angle_alpha 98.464973
_cell_angle_beta 99.274333
_cell_angle_gamma 51.853377
_cell_volume 535.175515
_symmetry_space_group_name_H-M "P -1"
_symmetry_group_IT_number 2
_symmetry_cell_setting 'triclinic'
loop_
_space_group_symop_operation_xyz
x,y,z
-x,-y,-z
loop_
_atom_site_type_symbol
_atom_site_label
_atom_site_fract_x
_atom_site_fract_y
_atom_site_fract_z
Si Si1 0.607278 0.591318 0.718727
Si Si2 0.449420 0.355238 0.608785
Si Si3 0.212222 0.978879 0.224830
Si Si4 0.349794 0.961653 0.926210
Si Si5 0.980782 0.214640 0.725112
Si Si6 0.968041 0.345682 0.420486
O O1 0.572789 0.433978 0.647485
O O2 0.577212 0.699377 0.571309
O O3 0.830253 0.444686 0.786893
O O4 0.470542 0.743654 0.845231
O O5 0.571203 0.154966 0.694654
O O6 0.242876 0.524708 0.669193
O O7 0.078472 0.919658 0.245852
O O8 0.115412 0.200326 0.295631
O O9 0.231285 0.969686 0.048130
O O10 0.192291 0.124004 0.807092
O O11 0.500000 0.000000 0.000000
O O12 0.986096 0.214686 0.544637
O O13 0.000000 0.500000 0.500000
#
# Coordination Sequence:
#
# PCOD8025441 Si02
#       6
#     2   2   2   2   2   2
#     4   9  20  42  66  93 123 167 214 258 314 374
#     4   9  20  40  70  91 121 163 218 265 304 377
#     4  11  24  42  67  95 126 174 212 257 320 383
#     4  12  27  39  63  96 138 169 205 264 322 379
#     4  10  23  45  67  90 127 172 216 260 307 388
#     4  11  24  39  69  98 127 161 214 275 319 365
#
# _framework density 22.422549
#
# number of rings (size 3 to 8) (size 9 to 14) (size 15 to 20)
#    0.000    1.667    0.000    4.000    7.000    5.333 
#    0.000    0.000    0.000    0.000    0.000    0.000 
#    0.000    0.000    0.000    0.000    0.000    0.000 
#
# Total GULP energy -148750.459724 kJ/mol
# GULP energy per Si atom -12395.871644 kJ/mol
# Density = 2.237151 g / cm^3
# Si number density = 22.422549 Si / 1000 Ang^3
#
#
#
# Elastic Constant Matrix: (Units=GPa)
#
#
# Indices 1 2 3 4 5 6 
#
# 1 57.2500 26.2398 22.7566 -1.5266 7.2980 -15.4257
# 2 26.2398 135.6698 63.8074 10.3216 -0.2611 -46.0634
# 3 22.7566 63.8074 89.0003 24.3718 -10.9215 -22.0670
# 4 -1.5266 10.3216 24.3718 38.0132 -17.2319 3.9988
# 5 7.2980 -0.2611 -10.9215 -17.2319 38.7398 -3.1085
# 6 -15.4257 -46.0634 -22.0670 3.9988 -3.1085 48.5222
#
#
#
# Elastic Compliance Matrix: (Units=1/GPa)
#
#
# Indices 1 2 3 4 5 6 
#
# 1 0.021370 -0.000728 -0.005240 0.002122 -0.004302 0.003268
# 2 -0.000728 0.014667 -0.007799 -0.000748 -0.001484 0.010112
# 3 -0.005240 -0.007799 0.022092 -0.011463 0.002229 0.002065
# 4 0.002122 -0.000748 -0.011463 0.041120 0.014033 -0.007738
# 5 -0.004302 -0.001484 0.002229 0.014033 0.033422 -0.000778
# 6 0.003268 0.010112 0.002065 -0.007738 -0.000778 0.032774
#
#
# Mechanical properties :
#
#
# Convention : Reuss Voigt Hill
#
# Bulk Modulus (GPa) = 32.68759 56.39198 44.53979
# Shear Modulus (GPa) = 24.60885 36.32947 30.46916
#
# Velocity S-wave (km/s) = 3.31645 4.02956 3.69027
# Velocity P-wave (km/s) = 5.41062 6.84501 6.16964
#
# Compressibility (1/GPa) = 0.03059265
#
# Stress axis : x y z
#
# Youngs Moduli (GPa) = 46.79505 68.17976 45.26533
#
# Poissons Ratio (x) = 0.04967 0.23721
# Poissons Ratio (y) = 0.03409 0.35304
# Poissons Ratio (z) = 0.24522 0.53175
#
# Static dielectric constant tensor:
#      x y z
#    x 4.133470 -0.480430 0.040300 
#    y -0.480430 4.281770 -0.291790 
#    z 0.040300 -0.291790 4.016940 
# 
# 
# High freq. dielectric constant tensor:
#      x y z
#    x 1.880400 -0.023560 -0.000630 
#    y -0.023560 1.893760 -0.008110 
#    z -0.000630 -0.008110 1.865430 
# 
# From -- ./inp_files/149056.got.cif
#   From: 2010.06.25/outbox.cif.g09.slc.cpg/sg2_75_cif.got.tgz:149056.got - 2010.06.27 13:26:56.
