data_PCOD8025669
_publ_section_title
;
Structure prediction by ZEFSAII (Michael W. Deem and Ramdas Pophale) SiO2 
 PCOD8025669
Probable space group: P -1
;
_chemical_formula_sum "Si O2"
_cell_formula_units_Z 16
_cell_length_a 12.383963
_cell_length_b 5.380715
_cell_length_c 15.641514
_cell_angle_alpha 60.106848
_cell_angle_beta 124.564110
_cell_angle_gamma 90.052970
_cell_volume 683.677107
_symmetry_space_group_name_H-M "P -1"
_symmetry_group_IT_number 2
_symmetry_cell_setting 'triclinic'
loop_
_space_group_symop_operation_xyz
x,y,z
-x,-y,-z
loop_
_atom_site_type_symbol
_atom_site_label
_atom_site_fract_x
_atom_site_fract_y
_atom_site_fract_z
Si Si1 0.647527 0.079342 0.957550
Si Si2 0.980934 0.354591 0.426654
Si Si3 0.253616 0.542905 0.815677
Si Si4 0.563591 0.261235 0.243556
Si Si5 0.210830 0.884775 0.320629
Si Si6 0.114300 0.779476 0.880841
Si Si7 0.279144 0.154990 0.138382
Si Si8 0.756645 0.787026 0.546329
O O1 0.494328 0.363588 0.833376
O O2 0.726371 0.066970 0.903370
O O3 0.761732 0.095750 0.073746
O O4 0.628593 0.763217 0.032405
O O5 0.821704 0.542001 0.286174
O O6 0.000000 0.500000 0.500000
O O7 0.095977 0.377685 0.408871
O O8 0.000000 0.000000 0.500000
O O9 0.326241 0.783897 0.778074
O O10 0.124217 0.700501 0.797970
O O11 0.429232 0.179585 0.177941
O O12 0.642394 0.068769 0.394241
O O13 0.291703 0.506522 0.416977
O O14 0.280676 0.014721 0.255403
O O15 0.230975 0.052894 0.386562
O O16 0.043892 0.975028 0.210960
O O17 0.147154 0.485829 0.009967
#
# Coordination Sequence:
#
# PCOD8025669 Si02
#       8
#     2   2   2   2   2   2   2   2
#     4  10  24  43  71 102 140 186 243 292 363 420
#     4  12  25  44  73 107 148 186 229 291 362 424
#     4  11  23  43  72 106 143 186 229 301 361 434
#     4  11  26  45  67 102 147 185 245 286 360 425
#     4  12  27  48  75 104 146 187 246 295 356 419
#     4  10  23  45  72 108 138 179 239 302 367 421
#     4  10  26  46  70 101 139 193 241 300 348 419
#     4  12  28  45  73 109 142 194 236 293 357 429
#
# _framework density 23.40286
#
# number of rings (size 3 to 8) (size 9 to 14) (size 15 to 20)
#    0.000    1.000    2.500    2.250    8.750    7.000 
#    0.000    0.000    0.000    0.000    0.000    0.000 
#    0.000    0.000    0.000    0.000    0.000    0.000 
#
# Total GULP energy -198251.991290 kJ/mol
# GULP energy per Si atom -12390.749456 kJ/mol
# Density = 2.334959 g / cm^3
# Si number density = 23.402860 Si / 1000 Ang^3
#
#
#
# Elastic Constant Matrix: (Units=GPa)
#
#
# Indices 1 2 3 4 5 6 
#
# 1 88.4470 29.5305 59.5311 -2.0467 -17.9319 8.1286
# 2 29.5305 112.5409 55.1362 5.0829 -18.9922 -0.3840
# 3 59.5311 55.1362 148.6765 -6.8493 -17.4590 -1.2938
# 4 -2.0467 5.0829 -6.8493 37.9782 -0.5715 -5.1716
# 5 -17.9319 -18.9922 -17.4590 -0.5715 44.8334 -1.5347
# 6 8.1286 -0.3840 -1.2938 -5.1716 -1.5347 20.5557
#
#
#
# Elastic Compliance Matrix: (Units=1/GPa)
#
#
# Indices 1 2 3 4 5 6 
#
# 1 0.017190 -0.000776 -0.006252 -0.001016 0.003854 -0.007174
# 2 -0.000776 0.011526 -0.003702 -0.002210 0.003101 -0.000035
# 3 -0.006252 -0.003702 0.010790 0.002621 0.000296 0.003764
# 4 -0.001016 -0.002210 0.002621 0.028086 0.000297 0.007614
# 5 0.003854 0.003101 0.000296 0.000297 0.025296 0.000516
# 6 -0.007174 -0.000035 0.003764 0.007614 0.000516 0.053676
#
#
# Mechanical properties :
#
#
# Convention : Reuss Voigt Hill
#
# Bulk Modulus (GPa) = 55.40965 70.89556 63.15260
# Shear Modulus (GPa) = 28.72907 34.37123 31.55015
#
# Velocity S-wave (km/s) = 3.50750 3.83649 3.67568
# Velocity P-wave (km/s) = 6.33492 7.06995 6.71250
#
# Compressibility (1/GPa) = 0.01804740
#
# Stress axis : x y z
#
# Youngs Moduli (GPa) = 58.17167 86.76183 92.67538
#
# Poissons Ratio (x) = 0.06732 0.57942
# Poissons Ratio (y) = 0.04514 0.34304
# Poissons Ratio (z) = 0.36370 0.32115
#
# Static dielectric constant tensor:
#      x y z
#    x 4.031540 0.004900 -0.051110 
#    y 0.004900 4.311110 -0.053230 
#    z -0.051110 -0.053230 4.387310 
# 
# 
# High freq. dielectric constant tensor:
#      x y z
#    x 1.913540 0.002050 -0.009070 
#    y 0.002050 1.922420 -0.004350 
#    z -0.009070 -0.004350 1.946080 
# 
# From -- ./inp_files/410128.got.cif
#   From: 2010.06.25/outbox.cif.g09.slc.cpg/sg2_206_cif.got.tgz:410128.got - 2010.06.27 13:26:56.
