data_PCOD8025666
_publ_section_title
;
Structure prediction by ZEFSAII (Michael W. Deem and Ramdas Pophale) SiO2 
 PCOD8025666
Probable space group: P -1
;
_chemical_formula_sum "Si O2"
_cell_formula_units_Z 14
_cell_length_a 11.764879
_cell_length_b 8.668355
_cell_length_c 8.654540
_cell_angle_alpha 94.239613
_cell_angle_beta 88.585215
_cell_angle_gamma 139.515557
_cell_volume 570.779802
_symmetry_space_group_name_H-M "P -1"
_symmetry_group_IT_number 2
_symmetry_cell_setting 'triclinic'
loop_
_space_group_symop_operation_xyz
x,y,z
-x,-y,-z
loop_
_atom_site_type_symbol
_atom_site_label
_atom_site_fract_x
_atom_site_fract_y
_atom_site_fract_z
Si Si1 0.182747 0.734040 0.707291
Si Si2 0.379055 0.728952 0.491208
Si Si3 0.874029 0.967945 0.711569
Si Si4 0.812547 0.522955 0.112723
Si Si5 0.500947 0.584885 0.841767
Si Si6 0.873872 0.622235 0.763836
Si Si7 0.342626 0.185869 0.579004
O O1 0.216196 0.609655 0.596566
O O2 0.200186 0.677132 0.874160
O O3 0.990758 0.606229 0.686293
O O4 0.312826 0.007860 0.681022
O O5 0.316840 0.611272 0.314464
O O6 0.499774 0.706537 0.537291
O O7 0.500000 0.000000 0.500000
O O8 0.704052 0.829647 0.812914
O O9 0.939336 0.859108 0.725242
O O10 0.823401 0.939102 0.529778
O O11 0.035579 0.245512 0.767511
O O12 0.617164 0.383847 0.140783
O O13 0.873612 0.620158 0.946135
O O14 0.406998 0.388585 0.698384
O O15 0.500000 0.500000 0.000000
#
# Coordination Sequence:
#
# PCOD8025666 Si02
#       7
#     2   2   2   2   2   2   2
#     4  11  27  45  72 101 146 190 241 288 364 431
#     4  10  23  45  72 102 142 187 240 298 353 432
#     4  12  27  45  79 106 147 187 245 302 357 433
#     4  12  28  48  73 110 146 191 241 300 362 431
#     4  12  25  49  77 108 145 188 243 301 366 427
#     4  12  25  48  69 104 147 187 243 297 358 425
#     4  11  25  48  73 107 142 191 242 301 361 424
#
# _framework density 24.527847999999999
#
# number of rings (size 3 to 8) (size 9 to 14) (size 15 to 20)
#    0.000    0.571    2.857    3.429   10.000    1.143 
#    0.000    3.571    0.000    0.000    0.000    0.000 
#    0.000    0.000    0.000    0.000    0.000    0.000 
#
# Total GULP energy -173467.002341 kJ/mol
# GULP energy per Si atom -12390.500167 kJ/mol
# Density = 2.447202 g / cm^3
# Si number density = 24.527848 Si / 1000 Ang^3
#
#
#
# Elastic Constant Matrix: (Units=GPa)
#
#
# Indices 1 2 3 4 5 6 
#
# 1 146.6054 10.0786 37.9956 -18.0046 23.1464 -6.6944
# 2 10.0786 80.9459 28.4198 -15.8249 16.3787 -10.3430
# 3 37.9956 28.4198 68.5580 -3.3058 4.2861 -9.9201
# 4 -18.0046 -15.8249 -3.3058 34.9165 -4.0713 6.8048
# 5 23.1464 16.3787 4.2861 -4.0713 32.1478 -8.9845
# 6 -6.6944 -10.3430 -9.9201 6.8048 -8.9845 38.5067
#
#
#
# Elastic Compliance Matrix: (Units=1/GPa)
#
#
# Indices 1 2 3 4 5 6 
#
# 1 0.010167 0.003547 -0.006598 0.005648 -0.008051 -0.001856
# 2 0.003547 0.018545 -0.008693 0.008339 -0.009906 -0.000427
# 3 -0.006598 -0.008693 0.021836 -0.005387 0.006901 0.004706
# 4 0.005648 0.008339 -0.005387 0.035350 -0.004657 -0.005500
# 5 -0.008051 -0.009906 0.006901 -0.004657 0.042825 0.008532
# 6 -0.001856 -0.000427 0.004706 -0.005500 0.008532 0.029707
#
#
# Mechanical properties :
#
#
# Convention : Reuss Voigt Hill
#
# Bulk Modulus (GPa) = 36.95649 49.89972 43.42810
# Shear Modulus (GPa) = 26.18634 35.75522 30.97078
#
# Velocity S-wave (km/s) = 3.27099 3.82218 3.55727
# Velocity P-wave (km/s) = 5.41901 6.31403 5.88356
#
# Compressibility (1/GPa) = 0.02705885
#
# Stress axis : x y z
#
# Youngs Moduli (GPa) = 98.35506 53.92402 45.79540
#
# Poissons Ratio (x) = -0.19125 0.30216
# Poissons Ratio (y) = -0.34884 0.39812
# Poissons Ratio (z) = 0.64894 0.46879
#
# Static dielectric constant tensor:
#      x y z
#    x 5.387750 0.210570 -0.252020 
#    y 0.210570 4.132690 -0.361770 
#    z -0.252020 -0.361770 4.678830 
# 
# 
# High freq. dielectric constant tensor:
#      x y z
#    x 2.008390 0.005260 0.004230 
#    y 0.005260 1.965450 -0.017700 
#    z 0.004230 -0.017700 1.974650 
# 
# From -- ./inp_files/243804.got.cif
#   From: 2010.06.25/outbox.cif.g09.slc.cpg/sg2_122_cif.got.tgz:243804.got - 2010.06.27 13:26:56.
