data_PCOD8025554
_publ_section_title
;
Structure prediction by ZEFSAII (Michael W. Deem and Ramdas Pophale) SiO2 
 PCOD8025554
Probable space group: P -1
;
_chemical_formula_sum "Si O2"
_cell_formula_units_Z 14
_cell_length_a 8.948897
_cell_length_b 12.279499
_cell_length_c 11.562993
_cell_angle_alpha 96.125926
_cell_angle_beta 37.993876
_cell_angle_gamma 77.936280
_cell_volume 682.737869
_symmetry_space_group_name_H-M "P -1"
_symmetry_group_IT_number 2
_symmetry_cell_setting 'triclinic'
loop_
_space_group_symop_operation_xyz
x,y,z
-x,-y,-z
loop_
_atom_site_type_symbol
_atom_site_label
_atom_site_fract_x
_atom_site_fract_y
_atom_site_fract_z
Si Si1 0.219509 0.760069 0.529306
Si Si2 0.635065 0.903484 0.007099
Si Si3 0.702746 0.087338 0.141793
Si Si4 0.193511 0.723159 0.045857
Si Si5 0.702515 0.528062 0.137144
Si Si6 0.557654 0.861253 0.460469
Si Si7 0.380254 0.728310 0.185640
O O1 0.458828 0.615413 0.386727
O O2 0.353344 0.846494 0.494032
O O3 0.149141 0.777813 0.435750
O O4 0.946829 0.797088 0.774212
O O5 0.456403 0.836622 0.131626
O O6 0.500000 0.000000 0.000000
O O7 0.615098 0.987743 0.137588
O O8 0.498226 0.168092 0.378116
O O9 0.704345 0.182345 0.055028
O O10 0.000000 0.000000 0.000000
O O11 0.263514 0.700890 0.136646
O O12 0.871993 0.770619 0.226230
O O13 0.334795 0.593499 0.875182
O O14 0.646465 0.603092 0.057172
O O15 0.000000 0.500000 0.000000
O O16 0.500000 0.000000 0.500000
#
# Coordination Sequence:
#
# PCOD8025554 Si02
#       7
#     2   2   2   2   2   2   2
#     4  10  24  43  64  97 127 172 222 264 326 385
#     4  12  24  44  64 100 137 165 215 271 340 387
#     4  12  25  39  65  98 132 171 216 272 321 392
#     4  12  23  45  65  97 134 173 218 270 328 384
#     4  10  23  45  69  94 129 177 223 269 322 386
#     4  12  23  40  67  97 131 171 220 268 327 388
#     4  10  25  42  67  94 135 169 218 272 324 392
#
# _framework density 20.505675
#
# number of rings (size 3 to 8) (size 9 to 14) (size 15 to 20)
#    0.857    0.000    5.714    1.286    4.000    0.571 
#    2.571    2.143    0.000    0.000    0.000    0.000 
#    0.000    0.000    0.000    0.000    0.000    0.000 
#
# Total GULP energy -173511.190058 kJ/mol
# GULP energy per Si atom -12393.656433 kJ/mol
# Density = 2.045900 g / cm^3
# Si number density = 20.505675 Si / 1000 Ang^3
#
#
#
# Elastic Constant Matrix: (Units=GPa)
#
#
# Indices 1 2 3 4 5 6 
#
# 1 76.9196 6.5005 -13.6384 9.4901 15.6804 3.8880
# 2 6.5005 78.5011 6.5004 14.9042 8.8918 4.9352
# 3 -13.6384 6.5004 69.3736 9.5750 14.0950 3.3511
# 4 9.4901 14.9042 9.5750 32.2434 0.2831 5.6537
# 5 15.6804 8.8918 14.0950 0.2831 30.9669 5.5300
# 6 3.8880 4.9352 3.3511 5.6537 5.5300 40.6305
#
#
#
# Elastic Compliance Matrix: (Units=1/GPa)
#
#
# Indices 1 2 3 4 5 6 
#
# 1 0.017564 0.000768 0.006891 -0.007529 -0.012249 0.000372
# 2 0.000768 0.014514 0.000752 -0.007070 -0.004787 -0.000263
# 3 0.006891 0.000752 0.019336 -0.008093 -0.012519 0.000484
# 4 -0.007529 -0.007070 -0.008093 0.039625 0.009990 -0.004627
# 5 -0.012249 -0.004787 -0.012519 0.009990 0.046353 -0.004913
# 6 0.000372 -0.000263 0.000484 -0.004627 -0.004913 0.025881
#
#
# Mechanical properties :
#
#
# Convention : Reuss Voigt Hill
#
# Bulk Modulus (GPa) = 14.65470 24.83548 19.74509
# Shear Modulus (GPa) = 29.55140 35.79695 32.67417
#
# Velocity S-wave (km/s) = 3.80034 4.18270 3.99610
# Velocity P-wave (km/s) = 5.13994 5.95520 5.56253
#
# Compressibility (1/GPa) = 0.06823749
#
# Stress axis : x y z
#
# Youngs Moduli (GPa) = 56.93311 68.89934 51.71689
#
# Poissons Ratio (x) = -0.05294 -0.35637
# Poissons Ratio (y) = -0.04374 -0.03891
# Poissons Ratio (z) = -0.39232 -0.05183
#
# Static dielectric constant tensor:
#      x y z
#    x 3.834310 -0.187440 0.838750 
#    y -0.187440 4.198590 -0.682050 
#    z 0.838750 -0.682050 10.257600 
# 
# 
# High freq. dielectric constant tensor:
#      x y z
#    x 1.813690 0.006850 0.008760 
#    y 0.006850 1.797530 0.010430 
#    z 0.008760 0.010430 1.793870 
# 
# From -- ./inp_files/265393.got.cif
#   From: 2010.06.25/outbox.cif.g09.slc.cpg/sg2_133_cif.got.tgz:265393.got - 2010.06.27 13:26:56.
