data_PCOD8025303
_publ_section_title
;
Structure prediction by ZEFSAII (Michael W. Deem and Ramdas Pophale) SiO2 
 PCOD8025303
Probable space group: P -1
;
_chemical_formula_sum "Si O2"
_cell_formula_units_Z 16
_cell_length_a 8.651531
_cell_length_b 15.230364
_cell_length_c 8.470114
_cell_angle_alpha 71.875596
_cell_angle_beta 53.354599
_cell_angle_gamma 105.286016
_cell_volume 687.613530
_symmetry_space_group_name_H-M "P -1"
_symmetry_group_IT_number 2
_symmetry_cell_setting 'triclinic'
loop_
_space_group_symop_operation_xyz
x,y,z
-x,-y,-z
loop_
_atom_site_type_symbol
_atom_site_label
_atom_site_fract_x
_atom_site_fract_y
_atom_site_fract_z
Si Si1 0.120049 0.697638 0.079399
Si Si2 0.828749 0.976354 0.977942
Si Si3 0.388228 0.235711 0.964622
Si Si4 0.898949 0.308244 0.569337
Si Si5 0.333552 0.420023 0.784453
Si Si6 0.141106 0.508676 0.062922
Si Si7 0.507709 0.033474 0.298181
Si Si8 0.039944 0.878493 0.483846
O O1 0.966384 0.656623 0.361828
O O2 0.239591 0.629645 0.017004
O O3 0.936897 0.669331 0.064929
O O4 0.332555 0.830548 0.880783
O O5 0.969579 0.066037 0.701253
O O6 0.615726 0.982986 0.154167
O O7 0.732011 0.849085 0.061827
O O8 0.000000 0.000000 0.000000
O O9 0.635530 0.253349 0.831133
O O10 0.436820 0.354813 0.824238
O O11 0.219415 0.181227 0.249991
O O12 0.978586 0.411579 0.346253
O O13 0.913101 0.216253 0.520385
O O14 0.500000 0.500000 0.500000
O O15 0.343272 0.495668 0.882981
O O16 0.000000 0.500000 0.000000
O O17 0.500000 0.000000 0.500000
O O18 0.243928 0.977452 0.420144
#
# Coordination Sequence:
#
# PCOD8025303 Si02
#       8
#     2   2   2   2   2   2   2   2
#     4  11  24  45  71 101 146 192 238 295 363 431
#     4  12  25  43  68 105 144 191 243 293 359 435
#     4  12  25  44  73 104 143 190 242 296 364 424
#     4  12  24  47  76 104 144 194 236 298 366 428
#     4  11  24  46  70 107 145 186 243 303 358 428
#     4  10  23  44  73 100 139 189 235 292 363 420
#     4  12  25  43  73 107 149 196 242 295 365 436
#     4  12  25  49  71 106 154 192 239 303 361 428
#
# _framework density 23.268884
#
# number of rings (size 3 to 8) (size 9 to 14) (size 15 to 20)
#    0.000    0.500    3.750    5.625    1.750    2.000 
#    2.250    2.500    0.000    0.000    0.000    0.000 
#    0.000    0.000    0.000    0.000    0.000    0.000 
#
# Total GULP energy -198392.468548 kJ/mol
# GULP energy per Si atom -12399.529284 kJ/mol
# Density = 2.321592 g / cm^3
# Si number density = 23.268884 Si / 1000 Ang^3
#
#
#
# Elastic Constant Matrix: (Units=GPa)
#
#
# Indices 1 2 3 4 5 6 
#
# 1 72.0364 4.0398 25.9408 2.8494 20.7897 -5.9626
# 2 4.0398 150.5286 35.2560 17.4232 6.1357 -23.4198
# 3 25.9408 35.2560 145.7151 19.2054 17.9937 -9.0004
# 4 2.8494 17.4232 19.2054 32.2612 -9.2157 8.0943
# 5 20.7897 6.1357 17.9937 -9.2157 47.7225 8.9301
# 6 -5.9626 -23.4198 -9.0004 8.0943 8.9301 33.0860
#
#
#
# Elastic Compliance Matrix: (Units=1/GPa)
#
#
# Indices 1 2 3 4 5 6 
#
# 1 0.018614 0.002790 -0.000733 -0.008718 -0.011832 0.010457
# 2 0.002790 0.009917 0.000082 -0.010601 -0.006810 0.011976
# 3 -0.000733 0.000082 0.009262 -0.008781 -0.006044 0.006225
# 4 -0.008718 -0.010601 -0.008781 0.058311 0.025853 -0.032707
# 5 -0.011832 -0.006810 -0.006044 0.025853 0.039018 -0.025452
# 6 0.010457 0.011976 0.006225 -0.032707 -0.025452 0.057151
#
#
# Mechanical properties :
#
#
# Convention : Reuss Voigt Hill
#
# Bulk Modulus (GPa) = 23.76922 55.41703 39.59313
# Shear Modulus (GPa) = 24.75019 42.81685 33.78352
#
# Velocity S-wave (km/s) = 3.26492 4.29428 3.81448
# Velocity P-wave (km/s) = 4.94471 6.96099 6.03761
#
# Compressibility (1/GPa) = 0.04207121
#
# Stress axis : x y z
#
# Youngs Moduli (GPa) = 53.72206 100.83492 107.97298
#
# Poissons Ratio (x) = -0.28137 0.07914
# Poissons Ratio (y) = -0.14990 -0.00882
# Poissons Ratio (z) = 0.03938 -0.00823
#
# Static dielectric constant tensor:
#      x y z
#    x 4.190220 -0.069020 0.130200 
#    y -0.069020 5.222570 0.345280 
#    z 0.130200 0.345280 4.266910 
# 
# 
# High freq. dielectric constant tensor:
#      x y z
#    x 1.919720 -0.008610 0.019110 
#    y -0.008610 1.946210 0.010700 
#    z 0.019110 0.010700 1.923630 
# 
# From -- ./inp_files/206217.got.cif
#   From: 2010.06.25/outbox.cif.g09.slc.cpg/sg2_104_cif.got.tgz:206217.got - 2010.06.27 13:26:56.
