data_PCOD8025780
_publ_section_title
;
Structure prediction by ZEFSAII (Michael W. Deem and Ramdas Pophale) SiO2 
 PCOD8025780
Probable space group: P -1
;
_chemical_formula_sum "Si O2"
_cell_formula_units_Z 16
_cell_length_a 27.902167
_cell_length_b 6.491064
_cell_length_c 12.014771
_cell_angle_alpha 48.034633
_cell_angle_beta 29.466686
_cell_angle_gamma 47.564273
_cell_volume 770.004845
_symmetry_space_group_name_H-M "P -1"
_symmetry_group_IT_number 2
_symmetry_cell_setting 'triclinic'
loop_
_space_group_symop_operation_xyz
x,y,z
-x,-y,-z
loop_
_atom_site_type_symbol
_atom_site_label
_atom_site_fract_x
_atom_site_fract_y
_atom_site_fract_z
Si Si1 0.402094 0.832261 0.520646
Si Si2 0.910163 0.848353 0.233878
Si Si3 0.774079 0.121567 0.602837
Si Si4 0.198363 0.272558 0.711687
Si Si5 0.058398 0.186639 0.460103
Si Si6 0.526193 0.300549 0.346492
Si Si7 0.448245 0.760094 0.931695
Si Si8 0.051346 0.269783 0.195628
O O1 0.430215 0.560325 0.479040
O O2 0.393562 0.724434 0.704773
O O3 0.296355 0.022730 0.626419
O O4 0.487556 0.006004 0.280428
O O5 0.874195 0.841291 0.183081
O O6 0.952128 0.530524 0.312624
O O7 0.814699 0.012084 0.439106
O O8 0.000000 0.000000 0.000000
O O9 0.772221 0.454893 0.499192
O O10 0.842115 0.928875 0.627676
O O11 0.661655 0.086397 0.854680
O O12 0.137214 0.360933 0.917681
O O13 0.095618 0.177402 0.261094
O O14 0.000000 0.500000 0.500000
O O15 0.980626 0.991079 0.705675
O O16 0.564238 0.359541 0.125012
O O17 0.500000 0.000000 0.500000
O O18 0.500000 0.500000 0.000000
#
# Coordination Sequence:
#
# PCOD8025780 Si02
#       8
#     2   2   2   2   2   2   2   2
#     4  10  23  46  67  98 130 179 224 270 333 393
#     4  12  24  42  68  97 133 172 220 280 331 395
#     4  12  25  43  67 100 134 177 224 268 347 388
#     4  12  25  41  72  95 129 177 228 270 332 402
#     4  11  24  45  64  93 136 174 213 278 332 398
#     4   9  22  46  67  88 136 172 219 277 323 384
#     4  11  24  42  68 100 140 171 217 284 330 396
#     4  11  24  43  65  95 130 170 221 271 330 395
#
# _framework density 20.779091000000001
#
# number of rings (size 3 to 8) (size 9 to 14) (size 15 to 20)
#    0.000    1.000    5.000    1.125    3.500    1.500 
#    6.750    0.000    0.000    0.000    0.000    0.000 
#    0.000    0.000    0.000    0.000    0.000    0.000 
#
# Total GULP energy -198426.581564 kJ/mol
# GULP energy per Si atom -12401.661348 kJ/mol
# Density = 2.073180 g / cm^3
# Si number density = 20.779091 Si / 1000 Ang^3
#
#
#
# Elastic Constant Matrix: (Units=GPa)
#
#
# Indices 1 2 3 4 5 6 
#
# 1 85.7478 43.5695 41.0417 -1.1224 14.5287 -17.3667
# 2 43.5695 139.1607 27.4152 8.9689 -1.4028 -11.8821
# 3 41.0417 27.4152 91.5005 11.2023 8.4451 -2.6937
# 4 -1.1224 8.9689 11.2023 31.9335 2.0853 -1.5744
# 5 14.5287 -1.4028 8.4451 2.0853 31.9968 2.8852
# 6 -17.3667 -11.8821 -2.6937 -1.5744 2.8852 43.6374
#
#
#
# Elastic Compliance Matrix: (Units=1/GPa)
#
#
# Indices 1 2 3 4 5 6 
#
# 1 0.020735 -0.004842 -0.007529 0.005653 -0.008662 0.007246
# 2 -0.004842 0.009014 -0.000455 -0.002719 0.002872 0.000211
# 3 -0.007529 -0.000455 0.015049 -0.005534 0.000003 -0.002391
# 4 0.005653 -0.002719 -0.005534 0.034593 -0.003720 0.002662
# 5 -0.008662 0.002872 0.000003 -0.003720 0.036021 -0.005181
# 6 0.007246 0.000211 -0.002391 0.002662 -0.005181 0.026148
#
#
# Mechanical properties :
#
#
# Convention : Reuss Voigt Hill
#
# Bulk Modulus (GPa) = 52.22876 60.05131 56.14003
# Shear Modulus (GPa) = 28.80294 35.13905 31.97100
#
# Velocity S-wave (km/s) = 3.72714 4.11673 3.92677
# Velocity P-wave (km/s) = 6.61150 7.18048 6.90185
#
# Compressibility (1/GPa) = 0.01914654
#
# Stress axis : x y z
#
# Youngs Moduli (GPa) = 48.22774 110.94280 66.44871
#
# Poissons Ratio (x) = 0.53714 0.50030
# Poissons Ratio (y) = 0.23350 0.03023
# Poissons Ratio (z) = 0.36311 0.05047
#
# Static dielectric constant tensor:
#      x y z
#    x 4.117010 -0.028770 0.291860 
#    y -0.028770 3.987710 -0.052950 
#    z 0.291860 -0.052950 3.753400 
# 
# 
# High freq. dielectric constant tensor:
#      x y z
#    x 1.825790 -0.004560 0.015390 
#    y -0.004560 1.830040 -0.002650 
#    z 0.015390 -0.002650 1.797090 
# 
# From -- ./inp_files/38095.got.cif
#   From: 2010.06.25/outbox.cif.g09.slc.cpg/sg2_20_cif.got.tgz:38095.got - 2010.06.27 13:26:56.
