data_PCOD8025079
_publ_section_title
;
Structure prediction by ZEFSAII (Michael W. Deem and Ramdas Pophale) SiO2 
 PCOD8025079
Probable space group: P -1
;
_chemical_formula_sum "Si O2"
_cell_formula_units_Z 16
_cell_length_a 11.158364
_cell_length_b 16.632302
_cell_length_c 19.824727
_cell_angle_alpha 159.055435
_cell_angle_beta 137.622872
_cell_angle_gamma 32.909386
_cell_volume 694.824827
_symmetry_space_group_name_H-M "P -1"
_symmetry_group_IT_number 2
_symmetry_cell_setting 'triclinic'
loop_
_space_group_symop_operation_xyz
x,y,z
-x,-y,-z
loop_
_atom_site_type_symbol
_atom_site_label
_atom_site_fract_x
_atom_site_fract_y
_atom_site_fract_z
Si Si1 0.352015 0.316590 0.657924
Si Si2 0.735739 0.743049 0.574078
Si Si3 0.908447 0.661136 0.830379
Si Si4 0.006261 0.903809 0.535317
Si Si5 0.011154 0.232997 0.914305
Si Si6 0.355826 0.736564 0.442293
Si Si7 0.555500 0.852161 0.980246
Si Si8 0.512091 0.614189 0.022696
O O1 0.330969 0.297158 0.556601
O O2 0.106766 0.519872 0.748952
O O3 0.500000 0.000000 0.500000
O O4 0.475343 0.456929 0.827433
O O5 0.573994 0.721692 0.538695
O O6 0.000000 0.500000 0.500000
O O7 0.683068 0.047246 0.798175
O O8 0.910963 0.418527 0.679280
O O9 0.669779 0.887715 0.868424
O O10 0.930354 0.837710 0.036684
O O11 0.181613 0.907829 0.565860
O O12 0.762385 0.104211 0.553678
O O13 0.001171 0.008246 0.691473
O O14 0.202662 0.241651 0.965796
O O15 0.756354 0.538366 0.049110
O O16 0.440521 0.416284 0.224082
O O17 0.500000 0.000000 0.000000
O O18 0.500000 0.500000 0.000000
#
# Coordination Sequence:
#
# PCOD8025079 Si02
#       8
#     2   2   2   2   2   2   2   2
#     4  12  24  47  79 105 142 193 243 298 348 423
#     4  12  30  48  69 108 149 192 236 295 367 420
#     4  11  23  45  69 104 139 174 241 292 348 413
#     4  11  24  42  75 101 134 185 226 293 353 415
#     4  11  22  42  69 104 133 175 242 278 354 416
#     4  11  24  48  67  98 150 178 229 292 350 427
#     4  10  23  44  68  97 140 182 221 299 349 407
#     4  12  24  44  76 102 137 189 247 291 339 434
#
# _framework density 23.027386
#
# number of rings (size 3 to 8) (size 9 to 14) (size 15 to 20)
#    0.000    0.750    5.000    3.000    3.500    2.500 
#    4.500    0.000    0.000    0.000    0.000    0.000 
#    0.000    0.000    0.000    0.000    0.000    0.000 
#
# Total GULP energy -198291.778670 kJ/mol
# GULP energy per Si atom -12393.236167 kJ/mol
# Density = 2.297497 g / cm^3
# Si number density = 23.027386 Si / 1000 Ang^3
#
#
#
# Elastic Constant Matrix: (Units=GPa)
#
#
# Indices 1 2 3 4 5 6 
#
# 1 69.9766 36.9030 23.2224 8.8912 1.0321 -33.3046
# 2 36.9030 113.6203 63.3359 26.2907 7.1583 -39.6278
# 3 23.2224 63.3359 137.3213 13.1404 8.4288 -5.3272
# 4 8.8912 26.2907 13.1404 47.6339 1.6574 -11.2297
# 5 1.0321 7.1583 8.4288 1.6574 41.9179 3.9381
# 6 -33.3046 -39.6278 -5.3272 -11.2297 3.9381 52.5779
#
#
#
# Elastic Compliance Matrix: (Units=1/GPa)
#
#
# Indices 1 2 3 4 5 6 
#
# 1 0.021870 -0.001169 -0.002631 0.000356 -0.001032 0.012859
# 2 -0.001169 0.018720 -0.007322 -0.005246 -0.002588 0.011700
# 3 -0.002631 -0.007322 0.010878 0.000120 -0.000310 -0.006034
# 4 0.000356 -0.005246 0.000120 0.024141 -0.000228 0.001457
# 5 -0.001032 -0.002588 -0.000310 -0.000228 0.024822 -0.004543
# 6 0.012859 0.011700 -0.006034 0.001457 -0.004543 0.036023
#
#
# Mechanical properties :
#
#
# Convention : Reuss Voigt Hill
#
# Bulk Modulus (GPa) = 34.21875 63.09341 48.65608
# Shear Modulus (GPa) = 29.68447 41.58974 35.63710
#
# Velocity S-wave (km/s) = 3.59429 4.25443 3.93822
# Velocity P-wave (km/s) = 5.66723 7.18278 6.46954
#
# Compressibility (1/GPa) = 0.02922374
#
# Stress axis : x y z
#
# Youngs Moduli (GPa) = 45.72425 53.41923 91.93241
#
# Poissons Ratio (x) = 0.06246 0.24189
# Poissons Ratio (y) = 0.05346 0.67310
# Poissons Ratio (z) = 0.12031 0.39112
#
# Static dielectric constant tensor:
#      x y z
#    x 4.090370 -0.425760 -0.395220 
#    y -0.425760 4.604600 0.369260 
#    z -0.395220 0.369260 4.247460 
# 
# 
# High freq. dielectric constant tensor:
#      x y z
#    x 1.912030 -0.033290 -0.014410 
#    y -0.033290 1.907720 0.005880 
#    z -0.014410 0.005880 1.912440 
# 
# From -- ./inp_files/596056.got.cif
#   From: 2010.06.25/outbox.cif.g09.slc.cpg/sg2_299_cif.got.tgz:596056.got - 2010.06.27 13:26:56.
