data_PCOD8025654
_publ_section_title
;
Structure prediction by ZEFSAII (Michael W. Deem and Ramdas Pophale) SiO2 
 PCOD8025654
Probable space group: P -1
;
_chemical_formula_sum "Si O2"
_cell_formula_units_Z 16
_cell_length_a 19.991596
_cell_length_b 16.842836
_cell_length_c 11.302618
_cell_angle_alpha 147.181279
_cell_angle_beta 147.929158
_cell_angle_gamma 21.956840
_cell_volume 726.583954
_symmetry_space_group_name_H-M "P -1"
_symmetry_group_IT_number 2
_symmetry_cell_setting 'triclinic'
loop_
_space_group_symop_operation_xyz
x,y,z
-x,-y,-z
loop_
_atom_site_type_symbol
_atom_site_label
_atom_site_fract_x
_atom_site_fract_y
_atom_site_fract_z
Si Si1 0.191155 0.419792 0.218144
Si Si2 0.501149 0.058472 0.823049
Si Si3 0.104242 0.277307 0.445663
Si Si4 0.509460 0.699224 0.075957
Si Si5 0.190231 0.597628 0.663321
Si Si6 0.282035 0.677031 0.270596
Si Si7 0.574123 0.649321 0.726204
Si Si8 0.142303 0.946685 0.950240
O O1 0.159731 0.586780 0.465456
O O2 0.286796 0.388648 0.201598
O O3 0.327836 0.201003 0.227868
O O4 0.000000 0.500000 0.000000
O O5 0.297220 0.160288 0.649322
O O6 0.528749 0.110275 0.801707
O O7 0.517029 0.158999 0.079126
O O8 0.000000 0.500000 0.500000
O O9 0.975722 0.337485 0.435047
O O10 0.150793 0.101390 0.210178
O O11 0.607485 0.632132 0.267648
O O12 0.659175 0.481376 0.946185
O O13 0.307453 0.793681 0.906291
O O14 0.179865 0.783457 0.896177
O O15 0.399300 0.725255 0.490864
O O16 0.313192 0.575426 0.317289
O O17 0.061498 0.906634 0.227386
#
# Coordination Sequence:
#
# PCOD8025654 Si02
#       8
#     2   2   2   2   2   2   2   2
#     4  12  28  43  69 102 145 187 240 295 347 428
#     4  11  25  44  72 101 138 193 233 296 355 424
#     4  12  24  45  73 104 144 185 233 290 361 427
#     4  11  24  46  70 110 142 178 242 290 364 418
#     4  12  26  46  68 109 146 177 239 296 355 426
#     4  10  23  45  72 100 139 186 236 292 345 425
#     4  10  23  47  66  97 142 186 237 287 349 418
#     4  12  26  41  77 104 143 189 225 297 361 418
#
# _framework density 22.020855000000001
#
# number of rings (size 3 to 8) (size 9 to 14) (size 15 to 20)
#    0.000    0.750    2.500    4.125    7.000    1.000 
#    0.000    2.500    0.000    0.000    0.000    0.000 
#    0.000    0.000    0.000    0.000    0.000    0.000 
#
# Total GULP energy -198453.626716 kJ/mol
# GULP energy per Si atom -12403.351670 kJ/mol
# Density = 2.197073 g / cm^3
# Si number density = 22.020855 Si / 1000 Ang^3
#
#
#
# Elastic Constant Matrix: (Units=GPa)
#
#
# Indices 1 2 3 4 5 6 
#
# 1 105.4192 49.5438 25.6407 -4.0115 22.9466 2.4809
# 2 49.5438 134.1942 31.9181 -19.7584 18.6415 -0.5515
# 3 25.6407 31.9181 96.1021 -6.9375 11.5717 8.1196
# 4 -4.0115 -19.7584 -6.9375 40.6837 -2.2230 13.0900
# 5 22.9466 18.6415 11.5717 -2.2230 41.5149 -2.6076
# 6 2.4809 -0.5515 8.1196 13.0900 -2.6076 33.4133
#
#
#
# Elastic Compliance Matrix: (Units=1/GPa)
#
#
# Indices 1 2 3 4 5 6 
#
# 1 0.012697 -0.003762 -0.001546 -0.000897 -0.004988 -0.000667
# 2 -0.003762 0.010167 -0.001741 0.004504 -0.001825 -0.001037
# 3 -0.001546 -0.001741 0.012107 0.002209 -0.001863 -0.003867
# 4 -0.000897 0.004504 0.002209 0.031060 -0.001275 -0.012664
# 5 -0.004988 -0.001825 -0.001863 -0.001275 0.028335 0.003504
# 6 -0.000667 -0.001037 -0.003867 -0.012664 0.003504 0.036135
#
#
# Mechanical properties :
#
#
# Convention : Reuss Voigt Hill
#
# Bulk Modulus (GPa) = 47.90652 61.10228 54.50440
# Shear Modulus (GPa) = 32.99101 38.36326 35.67714
#
# Velocity S-wave (km/s) = 3.87482 4.17841 4.02948
# Velocity P-wave (km/s) = 6.46694 7.14749 6.81571
#
# Compressibility (1/GPa) = 0.02087398
#
# Stress axis : x y z
#
# Youngs Moduli (GPa) = 78.75718 98.35605 82.59898
#
# Poissons Ratio (x) = 0.37000 0.12770
# Poissons Ratio (y) = 0.29628 0.14377
# Poissons Ratio (z) = 0.12176 0.17120
#
# Static dielectric constant tensor:
#      x y z
#    x 4.006330 0.063330 0.186710 
#    y 0.063330 4.047010 -0.090230 
#    z 0.186710 -0.090230 4.246170 
# 
# 
# High freq. dielectric constant tensor:
#      x y z
#    x 1.873580 0.000430 0.013070 
#    y 0.000430 1.872980 -0.004480 
#    z 0.013070 -0.004480 1.874430 
# 
# From -- ./inp_files/280053.got.cif
#   From: 2010.06.25/outbox.cif.g09.slc.cpg/sg2_141_cif.got.tgz:280053.got - 2010.06.27 13:26:56.
