data_PCOD8025855
_publ_section_title
;
Structure prediction by ZEFSAII (Michael W. Deem and Ramdas Pophale) SiO2 
 PCOD8025855
Probable space group: P -1
;
_chemical_formula_sum "Si O2"
_cell_formula_units_Z 12
_cell_length_a 14.508602
_cell_length_b 19.487812
_cell_length_c 5.394131
_cell_angle_alpha 55.590861
_cell_angle_beta 127.118045
_cell_angle_gamma 155.462074
_cell_volume 504.456627
_symmetry_space_group_name_H-M "P -1"
_symmetry_group_IT_number 2
_symmetry_cell_setting 'triclinic'
loop_
_space_group_symop_operation_xyz
x,y,z
-x,-y,-z
loop_
_atom_site_type_symbol
_atom_site_label
_atom_site_fract_x
_atom_site_fract_y
_atom_site_fract_z
Si Si1 0.115441 0.757866 0.350222
Si Si2 0.748780 0.615726 0.780487
Si Si3 0.510782 0.932677 0.353479
Si Si4 0.671518 0.856301 0.665171
Si Si5 0.854732 0.861807 0.345637
Si Si6 0.351536 0.529358 0.602479
O O1 0.280639 0.789562 0.442438
O O2 0.905089 0.590060 0.518347
O O3 0.264510 0.915977 0.424463
O O4 0.009653 0.745365 0.974502
O O5 0.728870 0.702908 0.573417
O O6 0.647652 0.518912 0.556412
O O7 0.597144 0.496572 0.019949
O O8 0.524399 0.849345 0.432059
O O9 0.500000 0.000000 0.000000
O O10 0.552547 0.725035 0.523713
O O11 0.661222 0.799146 0.025740
O O12 0.942695 0.044835 0.698644
O O13 0.000000 0.000000 0.500000
#
# Coordination Sequence:
#
# PCOD8025855 Si02
#       6
#     2   2   2   2   2   2
#     4   9  21  39  69  95 132 174 221 263 342 396
#     4  10  23  46  70  95 143 173 224 264 351 391
#     4  11  21  41  68 100 131 182 221 279 332 402
#     4  11  26  41  66 100 137 170 238 272 338 392
#     4  11  25  43  68  98 134 181 226 282 324 407
#     4  10  24  44  68 104 135 180 213 283 333 405
#
# _framework density 23.787970000000001
#
# number of rings (size 3 to 8) (size 9 to 14) (size 15 to 20)
#    1.000    0.667    0.000    4.000    7.000    3.333 
#    0.000    1.667    0.000    0.000    0.000    0.000 
#    0.000    0.000    0.000    0.000    0.000    0.000 
#
# Total GULP energy -148680.781854 kJ/mol
# GULP energy per Si atom -12390.065155 kJ/mol
# Density = 2.373383 g / cm^3
# Si number density = 23.787970 Si / 1000 Ang^3
#
#
#
# Elastic Constant Matrix: (Units=GPa)
#
#
# Indices 1 2 3 4 5 6 
#
# 1 79.4536 50.3656 44.7808 -1.6061 -0.4751 -27.2638
# 2 50.3656 124.1941 55.4975 9.9093 7.4123 -9.3470
# 3 44.7808 55.4975 138.7959 11.5570 0.3632 -26.7894
# 4 -1.6061 9.9093 11.5570 42.7802 -2.9347 -0.1442
# 5 -0.4751 7.4123 0.3632 -2.9347 45.0482 3.7586
# 6 -27.2638 -9.3470 -26.7894 -0.1442 3.7586 60.0008
#
#
#
# Elastic Compliance Matrix: (Units=1/GPa)
#
#
# Indices 1 2 3 4 5 6 
#
# 1 0.021283 -0.007115 -0.002911 0.003329 0.001034 0.007206
# 2 -0.007115 0.012376 -0.002920 -0.002494 -0.002043 -0.002487
# 3 -0.002911 -0.002920 0.010007 -0.002127 0.000006 0.002685
# 4 0.003329 -0.002494 -0.002127 0.024795 0.002069 0.000105
# 5 0.001034 -0.002043 0.000006 0.002069 0.022786 -0.001268
# 6 0.007206 -0.002487 0.002685 0.000105 -0.001268 0.020832
#
#
# Mechanical properties :
#
#
# Convention : Reuss Voigt Hill
#
# Bulk Modulus (GPa) = 56.26245 71.52572 63.89409
# Shear Modulus (GPa) = 34.74761 42.35249 38.55005
#
# Velocity S-wave (km/s) = 3.82609 4.22408 4.03000
# Velocity P-wave (km/s) = 6.57431 7.34328 6.96941
#
# Compressibility (1/GPa) = 0.01777384
#
# Stress axis : x y z
#
# Youngs Moduli (GPa) = 46.98567 80.80157 99.93320
#
# Poissons Ratio (x) = 0.57494 0.29087
# Poissons Ratio (y) = 0.33433 0.29179
# Poissons Ratio (z) = 0.13676 0.23593
#
# Static dielectric constant tensor:
#      x y z
#    x 4.398650 0.553050 -0.085920 
#    y 0.553050 4.609170 0.132210 
#    z -0.085920 0.132210 4.213500 
# 
# 
# High freq. dielectric constant tensor:
#      x y z
#    x 1.947220 0.018370 -0.006030 
#    y 0.018370 1.945440 0.022310 
#    z -0.006030 0.022310 1.937610 
# 
# From -- ./inp_files/60957.got.cif
#   From: 2010.06.25/outbox.cif.g09.slc.cpg/sg2_31_cif.got.tgz:60957.got - 2010.06.27 13:26:56.
