data_PCOD8025483
_publ_section_title
;
Structure prediction by ZEFSAII (Michael W. Deem and Ramdas Pophale) SiO2 
 PCOD8025483
Probable space group: P -1
;
_chemical_formula_sum "Si O2"
_cell_formula_units_Z 14
_cell_length_a 14.081557
_cell_length_b 19.919608
_cell_length_c 12.671990
_cell_angle_alpha 28.732591
_cell_angle_beta 139.073843
_cell_angle_gamma 159.716770
_cell_volume 542.451542
_symmetry_space_group_name_H-M "P -1"
_symmetry_group_IT_number 2
_symmetry_cell_setting 'triclinic'
loop_
_space_group_symop_operation_xyz
x,y,z
-x,-y,-z
loop_
_atom_site_type_symbol
_atom_site_label
_atom_site_fract_x
_atom_site_fract_y
_atom_site_fract_z
Si Si1 0.559032 0.919604 0.475137
Si Si2 0.730957 0.594422 0.800927
Si Si3 0.581065 0.475317 0.203557
Si Si4 0.582522 0.173601 0.982919
Si Si5 0.974215 0.380814 0.849914
Si Si6 0.829274 0.924772 0.053668
Si Si7 0.828217 0.670490 0.548587
O O1 0.483910 0.741081 0.569339
O O2 0.274037 0.703511 0.609641
O O3 0.658841 0.144721 0.189273
O O4 0.845706 0.108202 0.524130
O O5 0.595603 0.616410 0.715930
O O6 0.469336 0.267058 0.989511
O O7 0.897839 0.779585 0.577655
O O8 0.950031 0.700141 0.917437
O O9 0.500000 0.500000 0.000000
O O10 0.943519 0.780137 0.103835
O O11 0.254571 0.850966 0.115123
O O12 0.826459 0.361894 0.835364
O O13 0.585208 0.338607 0.792358
O O14 0.709422 0.700278 0.340086
O O15 0.000000 0.000000 0.000000
#
# Coordination Sequence:
#
# PCOD8025483 Si02
#       7
#     2   2   2   2   2   2   2
#     4  12  24  47  75 104 145 193 238 301 359 427
#     4  11  24  43  71 107 142 191 233 299 369 417
#     4  11  22  44  73 105 148 182 248 293 360 442
#     4  11  28  50  70 108 143 191 254 296 356 428
#     4  11  25  48  73 104 142 197 246 295 362 424
#     4  10  23  45  68 108 139 187 237 293 367 430
#     4  12  25  47  72 106 151 184 242 302 358 439
#
# _framework density 25.808757
#
# number of rings (size 3 to 8) (size 9 to 14) (size 15 to 20)
#    0.000    0.857    4.286    2.143    2.000    5.714 
#   10.286    0.000    0.000    0.000    0.000    0.000 
#    0.000    0.000    0.000    0.000    0.000    0.000 
#
# Total GULP energy -173553.808344 kJ/mol
# GULP energy per Si atom -12396.700596 kJ/mol
# Density = 2.575002 g / cm^3
# Si number density = 25.808757 Si / 1000 Ang^3
#
#
#
# Elastic Constant Matrix: (Units=GPa)
#
#
# Indices 1 2 3 4 5 6 
#
# 1 111.0723 -13.9128 42.3704 0.7349 -11.0449 2.8641
# 2 -13.9128 62.3241 -14.8563 1.5466 1.4513 5.2665
# 3 42.3704 -14.8563 97.1384 -3.1280 -1.1908 -5.5296
# 4 0.7349 1.5466 -3.1280 37.7428 3.0770 -2.0919
# 5 -11.0449 1.4513 -1.1908 3.0770 53.3610 -7.0308
# 6 2.8641 5.2665 -5.5296 -2.0919 -7.0308 27.8001
#
#
#
# Elastic Compliance Matrix: (Units=1/GPa)
#
#
# Indices 1 2 3 4 5 6 
#
# 1 0.011281 0.001517 -0.004808 -0.000951 0.001981 -0.001976
# 2 0.001517 0.017101 0.001741 -0.000725 -0.000496 -0.003230
# 3 -0.004808 0.001741 0.012847 0.001275 -0.000474 0.002697
# 4 -0.000951 -0.000725 0.001275 0.026884 -0.001415 0.002154
# 5 0.001981 -0.000496 -0.000474 -0.001415 0.019856 0.004711
# 6 -0.001976 -0.003230 0.002697 0.002154 0.004711 0.038676
#
#
# Mechanical properties :
#
#
# Convention : Reuss Voigt Hill
#
# Bulk Modulus (GPa) = 26.22706 33.08193 29.65449
# Shear Modulus (GPa) = 35.09886 40.90967 38.00427
#
# Velocity S-wave (km/s) = 3.69176 3.98566 3.84152
# Velocity P-wave (km/s) = 5.32506 5.83323 5.58493
#
# Compressibility (1/GPa) = 0.03812856
#
# Stress axis : x y z
#
# Youngs Moduli (GPa) = 88.64194 58.47570 77.84172
#
# Poissons Ratio (x) = -0.08870 0.37423
# Poissons Ratio (y) = -0.13446 -0.13549
# Poissons Ratio (z) = 0.42616 -0.10178
#
# Static dielectric constant tensor:
#      x y z
#    x 4.965830 0.313830 -0.487090 
#    y 0.313830 6.171640 -0.896490 
#    z -0.487090 -0.896490 4.674940 
# 
# 
# High freq. dielectric constant tensor:
#      x y z
#    x 2.044900 0.009980 -0.024600 
#    y 0.009980 2.057400 -0.010960 
#    z -0.024600 -0.010960 2.009140 
# 
# From -- ./inp_files/457641.got.cif
#   From: 2010.06.25/outbox.cif.g09.slc.cpg/sg2_229_cif.got.tgz:457641.got - 2010.06.27 13:26:56.
