data_PCOD8025809
_publ_section_title
;
Structure prediction by ZEFSAII (Michael W. Deem and Ramdas Pophale) SiO2 
 PCOD8025809
Probable space group: P -1
;
_chemical_formula_sum "Si O2"
_cell_formula_units_Z 12
_cell_length_a 6.688682
_cell_length_b 19.497717
_cell_length_c 14.953913
_cell_angle_alpha 20.691655
_cell_angle_beta 125.162972
_cell_angle_gamma 114.169288
_cell_volume 503.726669
_symmetry_space_group_name_H-M "P -1"
_symmetry_group_IT_number 2
_symmetry_cell_setting 'triclinic'
loop_
_space_group_symop_operation_xyz
x,y,z
-x,-y,-z
loop_
_atom_site_type_symbol
_atom_site_label
_atom_site_fract_x
_atom_site_fract_y
_atom_site_fract_z
Si Si1 0.225812 0.485927 0.199068
Si Si2 0.265679 0.818975 0.414134
Si Si3 0.642656 0.725846 0.785181
Si Si4 0.770800 0.736772 0.164217
Si Si5 0.583315 0.185757 0.194349
Si Si6 0.275623 0.231892 0.688220
O O1 0.456993 0.296719 0.431842
O O2 0.294877 0.415824 0.406400
O O3 0.199375 0.722976 0.880184
O O4 0.910505 0.524719 0.056220
O O5 0.371112 0.771201 0.602715
O O6 0.034259 0.743522 0.426409
O O7 0.127504 0.075984 0.043093
O O8 0.598408 0.671521 0.942461
O O9 0.708652 0.932700 0.557696
O O10 0.644028 0.738217 0.227046
O O11 0.000000 0.500000 0.500000
O O12 0.566209 0.775289 0.985118
O O13 0.500000 0.000000 0.000000
#
# Coordination Sequence:
#
# PCOD8025809 Si02
#       6
#     2   2   2   2   2   2
#     4  12  23  42  71 101 138 182 223 280 343 404
#     4  11  25  44  70  98 140 177 227 290 328 410
#     4  10  23  46  69 102 136 177 231 275 350 397
#     4  11  23  45  70  96 137 181 225 284 340 393
#     4  10  24  44  67 103 138 176 226 288 329 411
#     4  12  27  46  68 102 137 183 231 275 342 405
#
# _framework density 23.822444000000001
#
# number of rings (size 3 to 8) (size 9 to 14) (size 15 to 20)
#    0.000    1.000    1.667    4.500    2.333    4.667 
#    9.000    0.000    0.000    0.000    0.000    0.000 
#    0.000    0.000    0.000    0.000    0.000    0.000 
#
# Total GULP energy -148680.383362 kJ/mol
# GULP energy per Si atom -12390.031947 kJ/mol
# Density = 2.376822 g / cm^3
# Si number density = 23.822444 Si / 1000 Ang^3
#
#
#
# Elastic Constant Matrix: (Units=GPa)
#
#
# Indices 1 2 3 4 5 6 
#
# 1 130.8687 54.5895 64.0353 4.9452 1.6291 -21.7669
# 2 54.5895 100.9051 19.8815 13.7652 -6.7113 -27.9659
# 3 64.0353 19.8815 80.2863 20.9906 -3.3387 -13.4210
# 4 4.9452 13.7652 20.9906 16.7972 -13.5221 -2.2625
# 5 1.6291 -6.7113 -3.3387 -13.5221 51.1274 -0.0480
# 6 -21.7669 -27.9659 -13.4210 -2.2625 -0.0480 38.1406
#
#
#
# Elastic Compliance Matrix: (Units=1/GPa)
#
#
# Indices 1 2 3 4 5 6 
#
# 1 0.026185 -0.015442 -0.030057 0.048369 0.007965 -0.004076
# 2 -0.015442 0.023253 0.019426 -0.042192 -0.006334 0.012562
# 3 -0.030057 0.019426 0.056048 -0.088653 -0.016268 0.011533
# 4 0.048369 -0.042192 -0.088653 0.225435 0.046734 -0.021096
# 5 0.007965 -0.006334 -0.016268 0.046734 0.029769 -0.003014
# 6 -0.004076 0.012562 0.011533 -0.021096 -0.003014 0.035906
#
#
# Mechanical properties :
#
#
# Convention : Reuss Voigt Hill
#
# Bulk Modulus (GPa) = 18.74813 65.45251 42.10032
# Shear Modulus (GPa) = 10.71761 32.78331 21.75046
#
# Velocity S-wave (km/s) = 2.12338 3.71368 3.02491
# Velocity P-wave (km/s) = 3.72809 6.77667 5.46909
#
# Compressibility (1/GPa) = 0.05333866
#
# Stress axis : x y z
#
# Youngs Moduli (GPa) = 38.18981 43.00524 17.84199
#
# Poissons Ratio (x) = 0.66410 0.53628
# Poissons Ratio (y) = 0.58974 -0.34660
# Poissons Ratio (z) = 1.14787 -0.83541
#
# Static dielectric constant tensor:
#      x y z
#    x 4.351580 -0.133150 -0.295520 
#    y -0.133150 4.142960 -0.051110 
#    z -0.295520 -0.051110 4.406280 
# 
# 
# High freq. dielectric constant tensor:
#      x y z
#    x 1.944990 -0.017920 -0.013970 
#    y -0.017920 1.930540 0.001760 
#    z -0.013970 0.001760 1.969390 
# 
# From -- ./inp_files/25819.got.cif
#   From: 2010.06.25/outbox.cif.g09.slc.cpg/sg2_13_cif.got.tgz:25819.got - 2010.06.27 13:26:56.
