data_PCOD8025691
_publ_section_title
;
Structure prediction by ZEFSAII (Michael W. Deem and Ramdas Pophale) SiO2 
 PCOD8025691
Probable space group: P -1
;
_chemical_formula_sum "Si O2"
_cell_formula_units_Z 16
_cell_length_a 14.884322
_cell_length_b 10.878388
_cell_length_c 15.691233
_cell_angle_alpha 124.203864
_cell_angle_beta 141.329776
_cell_angle_gamma 28.493649
_cell_volume 688.653333
_symmetry_space_group_name_H-M "P -1"
_symmetry_group_IT_number 2
_symmetry_cell_setting 'triclinic'
loop_
_space_group_symop_operation_xyz
x,y,z
-x,-y,-z
loop_
_atom_site_type_symbol
_atom_site_label
_atom_site_fract_x
_atom_site_fract_y
_atom_site_fract_z
Si Si1 0.205890 0.194667 0.329231
Si Si2 0.181689 0.963493 0.660081
Si Si3 0.386574 0.978048 0.673074
Si Si4 0.089085 0.543802 0.248802
Si Si5 0.907134 0.363447 0.343375
Si Si6 0.306461 0.901198 0.142408
Si Si7 0.306081 0.028192 0.027236
Si Si8 0.412840 0.633718 0.864349
O O1 0.045017 0.448700 0.245899
O O2 0.025408 0.315171 0.323385
O O3 0.500000 0.000000 0.500000
O O4 0.223960 0.024558 0.223417
O O5 0.963923 0.261195 0.661925
O O6 0.367495 0.871115 0.689481
O O7 0.394525 0.705860 0.782909
O O8 0.000000 0.000000 0.500000
O O9 0.604873 0.733420 0.668773
O O10 0.457385 0.064849 0.810229
O O11 0.097159 0.250209 0.517653
O O12 0.883276 0.724222 0.085944
O O13 0.614226 0.697705 0.274744
O O14 0.856647 0.227239 0.254640
O O15 0.136973 0.131098 0.029087
O O16 0.315928 0.712038 0.066879
O O17 0.447938 0.747076 0.994220
#
# Coordination Sequence:
#
# PCOD8025691 Si02
#       8
#     2   2   2   2   2   2   2   2
#     4  12  24  40  69 106 133 175 227 284 333 396
#     4  11  24  45  69 100 137 177 226 281 341 403
#     4  12  24  44  76  97 137 184 222 285 346 387
#     4  11  27  43  67 104 143 172 232 282 331 416
#     4  10  24  43  69 103 130 180 227 283 337 396
#     4  10  23  45  73  91 143 177 224 281 338 398
#     4  11  23  47  69 100 139 185 220 283 339 403
#     4   9  23  45  66  98 140 173 227 278 330 408
#
# _framework density 23.233751000000002
#
# number of rings (size 3 to 8) (size 9 to 14) (size 15 to 20)
#    0.750    0.500    3.750    0.750    5.250    3.500 
#    4.500    0.625    0.000    0.000    0.000    0.000 
#    0.000    0.000    0.000    0.000    0.000    0.000 
#
# Total GULP energy -198265.350202 kJ/mol
# GULP energy per Si atom -12391.584388 kJ/mol
# Density = 2.318087 g / cm^3
# Si number density = 23.233751 Si / 1000 Ang^3
#
#
#
# Elastic Constant Matrix: (Units=GPa)
#
#
# Indices 1 2 3 4 5 6 
#
# 1 149.5065 32.6354 45.9576 7.5858 -27.6866 9.7583
# 2 32.6354 71.3710 37.8950 8.2588 -5.4187 11.7918
# 3 45.9576 37.8950 75.1633 24.6494 -8.1692 11.5652
# 4 7.5858 8.2588 24.6494 34.6401 6.8702 -4.6779
# 5 -27.6866 -5.4187 -8.1692 6.8702 41.2922 0.0725
# 6 9.7583 11.7918 11.5652 -4.6779 0.0725 36.3198
#
#
#
# Elastic Compliance Matrix: (Units=1/GPa)
#
#
# Indices 1 2 3 4 5 6 
#
# 1 0.009347 -0.001469 -0.004450 0.000374 0.005133 -0.000579
# 2 -0.001469 0.019865 -0.009410 0.002017 -0.000571 -0.002797
# 3 -0.004450 -0.009410 0.028665 -0.019093 0.004642 -0.007346
# 4 0.000374 0.002017 -0.019093 0.045560 -0.010862 0.011214
# 5 0.005133 -0.000571 0.004642 -0.010862 0.030317 -0.004132
# 6 -0.000579 -0.002797 -0.007346 0.011214 -0.004132 0.032389
#
#
# Mechanical properties :
#
#
# Convention : Reuss Voigt Hill
#
# Bulk Modulus (GPa) = 36.73868 58.77963 47.75916
# Shear Modulus (GPa) = 24.28677 34.42061 29.35369
#
# Velocity S-wave (km/s) = 3.23665 3.85319 3.55830
# Velocity P-wave (km/s) = 5.46030 6.71940 6.12230
#
# Compressibility (1/GPa) = 0.02721927
#
# Stress axis : x y z
#
# Youngs Moduli (GPa) = 106.99166 50.34020 34.88533
#
# Poissons Ratio (x) = 0.07395 0.15523
# Poissons Ratio (y) = 0.15718 0.32827
# Poissons Ratio (z) = 0.47608 0.47370
#
# Static dielectric constant tensor:
#      x y z
#    x 6.285030 -0.414330 0.590490 
#    y -0.414330 4.371120 -0.117050 
#    z 0.590490 -0.117050 4.489940 
# 
# 
# High freq. dielectric constant tensor:
#      x y z
#    x 1.939180 0.013650 -0.024030 
#    y 0.013650 1.910700 0.017690 
#    z -0.024030 0.017690 1.916280 
# 
# From -- ./inp_files/532624.got.cif
#   From: 2010.06.25/outbox.cif.g09.slc.cpg/sg2_267_cif.got.tgz:532624.got - 2010.06.27 13:26:56.
