data_PCOD8025656
_publ_section_title
;
Structure prediction by ZEFSAII (Michael W. Deem and Ramdas Pophale) SiO2 
 PCOD8025656
Probable space group: P -1
;
_chemical_formula_sum "Si O2"
_cell_formula_units_Z 16
_cell_length_a 18.688072
_cell_length_b 8.491615
_cell_length_c 14.401782
_cell_angle_alpha 144.767629
_cell_angle_beta 148.401569
_cell_angle_gamma 41.682992
_cell_volume 680.873894
_symmetry_space_group_name_H-M "P -1"
_symmetry_group_IT_number 2
_symmetry_cell_setting 'triclinic'
loop_
_space_group_symop_operation_xyz
x,y,z
-x,-y,-z
loop_
_atom_site_type_symbol
_atom_site_label
_atom_site_fract_x
_atom_site_fract_y
_atom_site_fract_z
Si Si1 0.301184 0.495142 0.257292
Si Si2 0.081892 0.068625 0.535698
Si Si3 0.464510 0.976823 0.709436
Si Si4 0.524474 0.737758 0.334657
Si Si5 0.976773 0.188223 0.974583
Si Si6 0.074396 0.759573 0.719607
Si Si7 0.693215 0.603196 0.114240
Si Si8 0.226356 0.498309 0.384427
O O1 0.378717 0.756600 0.465954
O O2 0.393301 0.208957 0.182378
O O3 0.277891 0.401043 0.292217
O O4 0.166459 0.594328 0.092370
O O5 0.175725 0.316230 0.761714
O O6 0.947789 0.098674 0.335784
O O7 0.198097 0.826704 0.510448
O O8 0.000000 0.000000 0.500000
O O9 0.481986 0.185887 0.744868
O O10 0.387186 0.150468 0.792746
O O11 0.672523 0.580551 0.454864
O O12 0.500000 0.000000 0.500000
O O13 0.414155 0.529376 0.132481
O O14 0.994462 0.977905 0.808167
O O15 0.088903 0.383342 0.199257
O O16 0.000000 0.000000 0.000000
O O17 0.236235 0.658477 0.870749
O O18 0.000000 0.500000 0.500000
#
# Coordination Sequence:
#
# PCOD8025656 Si02
#       8
#     2   2   2   2   2   2   2   2
#     4  11  23  47  74 103 146 190 241 306 371 430
#     4  11  26  47  72 110 147 190 244 309 370 435
#     4  11  24  47  73 105 145 195 243 297 364 441
#     4  12  26  46  72 105 148 194 248 294 360 448
#     4  12  26  45  76 107 140 196 246 304 373 433
#     4  10  23  45  72 100 144 185 240 300 364 428
#     4  11  25  48  73 104 147 197 241 301 367 434
#     4  12  25  46  67 106 149 186 249 307 359 433
#
# _framework density 23.499212
#
# number of rings (size 3 to 8) (size 9 to 14) (size 15 to 20)
#    0.000    0.750    3.750    3.000    5.250    0.500 
#    2.250    0.000    0.000    0.000    0.000    0.000 
#    0.000    0.000    0.000    0.000    0.000    0.000 
#
# Total GULP energy -198215.254228 kJ/mol
# GULP energy per Si atom -12388.453389 kJ/mol
# Density = 2.344573 g / cm^3
# Si number density = 23.499212 Si / 1000 Ang^3
#
#
#
# Elastic Constant Matrix: (Units=GPa)
#
#
# Indices 1 2 3 4 5 6 
#
# 1 114.9489 36.3388 38.5038 -9.3133 5.1603 12.7580
# 2 36.3388 150.5600 51.6581 -36.9146 -1.1509 0.4509
# 3 38.5038 51.6581 138.7894 -20.0833 12.1605 7.9083
# 4 -9.3133 -36.9146 -20.0833 46.2951 -1.3259 -1.9532
# 5 5.1603 -1.1509 12.1605 -1.3259 34.3856 -0.0096
# 6 12.7580 0.4509 7.9083 -1.9532 -0.0096 40.7352
#
#
#
# Elastic Compliance Matrix: (Units=1/GPa)
#
#
# Indices 1 2 3 4 5 6 
#
# 1 0.010283 -0.001921 -0.001961 -0.000460 -0.000933 -0.002841
# 2 -0.001921 0.009430 -0.002290 0.006239 0.001655 0.001241
# 3 -0.001961 -0.002290 0.009156 0.001622 -0.002958 -0.001061
# 4 -0.000460 0.006239 0.001622 0.027253 0.000755 0.001067
# 5 -0.000933 0.001655 -0.002958 0.000755 0.030353 0.000891
# 6 -0.002841 0.001241 -0.001061 0.001067 0.000891 0.025682
#
#
# Mechanical properties :
#
#
# Convention : Reuss Voigt Hill
#
# Bulk Modulus (GPa) = 60.51016 73.03331 66.77173
# Shear Modulus (GPa) = 38.45894 42.80301 40.63098
#
# Velocity S-wave (km/s) = 4.04989 4.27249 4.16268
# Velocity P-wave (km/s) = 6.90468 7.44886 7.18192
#
# Compressibility (1/GPa) = 0.01652615
#
# Stress axis : x y z
#
# Youngs Moduli (GPa) = 97.24362 106.04782 109.21984
#
# Poissons Ratio (x) = 0.20367 0.21418
# Poissons Ratio (y) = 0.18676 0.25010
# Poissons Ratio (z) = 0.19070 0.24284
#
# Static dielectric constant tensor:
#      x y z
#    x 4.128830 0.328930 0.321950 
#    y 0.328930 5.619290 -0.271010 
#    z 0.321950 -0.271010 4.225180 
# 
# 
# High freq. dielectric constant tensor:
#      x y z
#    x 1.918150 0.007070 0.006340 
#    y 0.007070 1.957370 -0.003590 
#    z 0.006340 -0.003590 1.935870 
# 
# From -- ./inp_files/537694.got.cif
#   From: 2010.06.25/outbox.cif.g09.slc.cpg/sg2_269_cif.got.tgz:537694.got - 2010.06.27 13:26:56.
