data_PCOD8025790
_publ_section_title
;
Structure prediction by ZEFSAII (Michael W. Deem and Ramdas Pophale) SiO2 
 PCOD8025790
Probable space group: P -1
;
_chemical_formula_sum "Si O2"
_cell_formula_units_Z 14
_cell_length_a 11.975920
_cell_length_b 20.824340
_cell_length_c 15.461611
_cell_angle_alpha 151.649124
_cell_angle_beta 31.346104
_cell_angle_gamma 160.591404
_cell_volume 601.399660
_symmetry_space_group_name_H-M "P -1"
_symmetry_group_IT_number 2
_symmetry_cell_setting 'triclinic'
loop_
_space_group_symop_operation_xyz
x,y,z
-x,-y,-z
loop_
_atom_site_type_symbol
_atom_site_label
_atom_site_fract_x
_atom_site_fract_y
_atom_site_fract_z
Si Si1 0.222087 0.974704 0.629329
Si Si2 0.072422 0.217664 0.749962
Si Si3 0.133072 0.439723 0.395305
Si Si4 0.981887 0.925144 0.557979
Si Si5 0.244277 0.475794 0.556665
Si Si6 0.190235 0.629476 0.938471
Si Si7 0.064178 0.952485 0.988641
O O1 0.267260 0.028118 0.561379
O O2 0.854671 0.730088 0.608818
O O3 0.500000 0.000000 0.500000
O O4 0.233793 0.127689 0.848842
O O5 0.470044 0.387367 0.677463
O O6 0.879472 0.066075 0.613081
O O7 0.978446 0.326894 0.947904
O O8 0.935076 0.065267 0.743319
O O9 0.062559 0.435487 0.539259
O O10 0.000000 0.500000 0.500000
O O11 0.956448 0.217024 0.213985
O O12 0.643823 0.685455 0.529079
O O13 0.125734 0.488033 0.738618
O O14 0.000000 0.500000 0.000000
O O15 0.580108 0.845598 0.959662
O O16 0.000000 0.000000 0.000000
#
# Coordination Sequence:
#
# PCOD8025790 Si02
#       7
#     2   2   2   2   2   2   2
#     4  12  27  43  74 105 147 189 245 299 367 430
#     4  10  25  43  74 101 144 188 247 290 368 436
#     4  11  27  49  73 104 152 193 238 306 373 430
#     4  10  23  46  68 103 139 194 240 297 357 440
#     4  11  25  46  72 101 144 190 243 291 370 423
#     4  12  27  45  75 108 145 188 250 303 358 443
#     4  12  27  47  70 108 147 188 240 306 363 428
#
# _framework density 23.279026999999999
#
# number of rings (size 3 to 8) (size 9 to 14) (size 15 to 20)
#    0.000    0.857    2.857    2.143   16.000    1.714 
#    0.000    1.429    0.000    0.000    0.000    0.000 
#    0.000    0.000    0.000    0.000    0.000    0.000 
#
# Total GULP energy -173473.076581 kJ/mol
# GULP energy per Si atom -12390.934042 kJ/mol
# Density = 2.322604 g / cm^3
# Si number density = 23.279027 Si / 1000 Ang^3
#
#
#
# Elastic Constant Matrix: (Units=GPa)
#
#
# Indices 1 2 3 4 5 6 
#
# 1 197.8222 26.5566 72.3111 5.5131 -1.5330 2.0782
# 2 26.5566 57.2316 27.3724 7.6309 -0.2501 1.0774
# 3 72.3111 27.3724 138.4361 10.5232 1.0416 10.8690
# 4 5.5131 7.6309 10.5232 31.5467 -2.8867 -5.6307
# 5 -1.5330 -0.2501 1.0416 -2.8867 48.5760 1.1850
# 6 2.0782 1.0774 10.8690 -5.6307 1.1850 31.7745
#
#
#
# Elastic Compliance Matrix: (Units=1/GPa)
#
#
# Indices 1 2 3 4 5 6 
#
# 1 0.006387 -0.001542 -0.003130 0.000464 0.000269 0.000777
# 2 -0.001542 0.020051 -0.002859 -0.003680 -0.000097 -0.000250
# 3 -0.003130 -0.002859 0.009915 -0.002741 -0.000402 -0.003561
# 4 0.000464 -0.003680 -0.002741 0.034875 0.001953 0.007139
# 5 0.000269 -0.000097 -0.000402 0.001953 0.020726 -0.000304
# 6 0.000777 -0.000250 -0.003561 0.007139 -0.000304 0.033924
#
#
# Mechanical properties :
#
#
# Convention : Reuss Voigt Hill
#
# Bulk Modulus (GPa) = 46.96859 71.77447 59.37153
# Shear Modulus (GPa) = 33.77545 40.19610 36.98577
#
# Velocity S-wave (km/s) = 3.81320 4.15988 3.99030
# Velocity P-wave (km/s) = 6.29344 7.34656 6.84030
#
# Compressibility (1/GPa) = 0.02129083
#
# Stress axis : x y z
#
# Youngs Moduli (GPa) = 156.56645 49.87329 100.86233
#
# Poissons Ratio (x) = 0.07692 0.31566
# Poissons Ratio (y) = 0.24147 0.28835
# Poissons Ratio (z) = 0.49000 0.14258
#
# Static dielectric constant tensor:
#      x y z
#    x 4.469670 0.015040 1.107990 
#    y 0.015040 4.587010 1.025950 
#    z 1.107990 1.025950 3.669150 
# 
# 
# High freq. dielectric constant tensor:
#      x y z
#    x 1.946500 0.001620 0.001570 
#    y 0.001620 1.913560 0.011080 
#    z 0.001570 0.011080 1.918070 
# 
# From -- ./inp_files/495124.got.cif
#   From: 2010.06.25/outbox.cif.g09.slc.cpg/sg2_248_cif.got.tgz:495124.got - 2010.06.27 13:26:56.
