data_PCOD8025325
_publ_section_title
;
Structure prediction by ZEFSAII (Michael W. Deem and Ramdas Pophale) SiO2 
 PCOD8025325
Probable space group: P -1
;
_chemical_formula_sum "Si O2"
_cell_formula_units_Z 14
_cell_length_a 5.334306
_cell_length_b 11.067639
_cell_length_c 11.296348
_cell_angle_alpha 113.825361
_cell_angle_beta 82.328414
_cell_angle_gamma 115.815966
_cell_volume 548.465017
_symmetry_space_group_name_H-M "P -1"
_symmetry_group_IT_number 2
_symmetry_cell_setting 'triclinic'
loop_
_space_group_symop_operation_xyz
x,y,z
-x,-y,-z
loop_
_atom_site_type_symbol
_atom_site_label
_atom_site_fract_x
_atom_site_fract_y
_atom_site_fract_z
Si Si1 0.824552 0.003783 0.674216
Si Si2 0.831598 0.655183 0.838734
Si Si3 0.275797 0.803693 0.700840
Si Si4 0.347211 0.522714 0.632030
Si Si5 0.921871 0.412888 0.852266
Si Si6 0.271248 0.258157 0.858568
Si Si7 0.958005 0.196203 0.531696
O O1 0.783071 0.114877 0.626855
O O2 0.103986 0.086291 0.769005
O O3 0.577487 0.934545 0.760321
O O4 0.819433 0.868369 0.542278
O O5 0.544923 0.578638 0.755785
O O6 0.971269 0.538334 0.798968
O O7 0.041587 0.798220 0.808588
O O8 0.766125 0.707260 0.989322
O O9 0.243496 0.640390 0.642292
O O10 0.237923 0.837199 0.581583
O O11 0.500000 0.500000 0.500000
O O12 0.092828 0.368203 0.621526
O O13 0.594290 0.302725 0.828147
O O14 0.133118 0.333974 0.806290
O O15 0.000000 0.500000 0.000000
#
# Coordination Sequence:
#
# PCOD8025325 Si02
#       7
#     2   2   2   2   2   2   2
#     4  11  26  46  72 100 152 191 242 297 368 448
#     4  11  25  41  74 103 145 183 242 308 365 430
#     4  12  25  43  70 107 143 189 243 301 370 434
#     4  12  24  44  69 104 140 184 245 309 359 423
#     4  10  23  44  73 108 147 190 244 297 358 431
#     4  11  26  47  74 111 149 194 242 298 371 441
#     4  11  25  47  70 103 139 195 248 299 364 435
#
# _framework density 25.525784999999999
#
# number of rings (size 3 to 8) (size 9 to 14) (size 15 to 20)
#    0.000    0.857    2.857    3.429   10.000    0.571 
#    0.000    2.857    0.000    0.000    0.000    0.000 
#    0.000    0.000    0.000    0.000    0.000    0.000 
#
# Total GULP energy -173465.846921 kJ/mol
# GULP energy per Si atom -12390.417637 kJ/mol
# Density = 2.546769 g / cm^3
# Si number density = 25.525785 Si / 1000 Ang^3
#
#
#
# Elastic Constant Matrix: (Units=GPa)
#
#
# Indices 1 2 3 4 5 6 
#
# 1 80.8027 28.3417 0.3806 -7.3793 9.5253 6.5370
# 2 28.3417 169.9010 35.8447 -6.9037 1.8812 34.1299
# 3 0.3806 35.8447 104.5321 -11.0995 9.9826 0.1546
# 4 -7.3793 -6.9037 -11.0995 33.5084 3.3549 -1.0113
# 5 9.5253 1.8812 9.9826 3.3549 28.0701 0.7794
# 6 6.5370 34.1299 0.1546 -1.0113 0.7794 49.7047
#
#
#
# Elastic Compliance Matrix: (Units=1/GPa)
#
#
# Indices 1 2 3 4 5 6 
#
# 1 0.014282 -0.002545 0.001773 0.003786 -0.005760 0.000031
# 2 -0.002545 0.007919 -0.002863 -0.000184 0.001515 -0.005121
# 3 0.001773 -0.002863 0.011461 0.004157 -0.005034 0.001860
# 4 0.003786 -0.000184 0.004157 0.032696 -0.006669 0.000385
# 5 -0.005760 0.001515 -0.005034 -0.006669 0.040094 -0.001032
# 6 0.000031 -0.005121 0.001860 0.000385 -0.001032 0.023650
#
#
# Mechanical properties :
#
#
# Convention : Reuss Voigt Hill
#
# Bulk Modulus (GPa) = 37.89034 53.81887 45.85461
# Shear Modulus (GPa) = 34.20693 41.63455 37.92074
#
# Velocity S-wave (km/s) = 3.66470 4.04304 3.85851
# Velocity P-wave (km/s) = 5.72563 6.55170 6.15255
#
# Compressibility (1/GPa) = 0.02639195
#
# Stress axis : x y z
#
# Youngs Moduli (GPa) = 70.01639 126.28079 87.25188
#
# Poissons Ratio (x) = 0.32140 -0.15467
# Poissons Ratio (y) = 0.17820 0.24978
# Poissons Ratio (z) = -0.12412 0.36151
#
# Static dielectric constant tensor:
#      x y z
#    x 4.738190 3.882780 -0.330430 
#    y 3.882780 -14.012320 -0.962510 
#    z -0.330430 -0.962510 5.137710 
# 
# 
# High freq. dielectric constant tensor:
#      x y z
#    x 2.015130 -0.000010 0.002010 
#    y -0.000010 2.036100 -0.010300 
#    z 0.002010 -0.010300 2.034730 
# 
# From -- ./inp_files/365017.got.cif
#   From: 2010.06.25/outbox.cif.g09.slc.cpg/sg2_183_cif.got.tgz:365017.got - 2010.06.27 13:26:56.
