data_PCOD8025762
_publ_section_title
;
Structure prediction by ZEFSAII (Michael W. Deem and Ramdas Pophale) SiO2 
 PCOD8025762
Probable space group: P -1
;
_chemical_formula_sum "Si O2"
_cell_formula_units_Z 14
_cell_length_a 9.334633
_cell_length_b 9.355249
_cell_length_c 24.860387
_cell_angle_alpha 29.297268
_cell_angle_beta 141.598556
_cell_angle_gamma 128.307360
_cell_volume 645.315723
_symmetry_space_group_name_H-M "P -1"
_symmetry_group_IT_number 2
_symmetry_cell_setting 'triclinic'
loop_
_space_group_symop_operation_xyz
x,y,z
-x,-y,-z
loop_
_atom_site_type_symbol
_atom_site_label
_atom_site_fract_x
_atom_site_fract_y
_atom_site_fract_z
Si Si1 0.852382 0.084166 0.600810
Si Si2 0.098691 0.649874 0.357565
Si Si3 0.318886 0.409554 0.817853
Si Si4 0.257790 0.014491 0.657477
Si Si5 0.736853 0.157941 0.956855
Si Si6 0.247715 0.908584 0.213027
Si Si7 0.632295 0.525418 0.702004
O O1 0.915420 0.166916 0.651837
O O2 0.644539 0.334127 0.432113
O O3 0.084068 0.071114 0.638079
O O4 0.776218 0.768624 0.683753
O O5 0.223547 0.305866 0.514734
O O6 0.250348 0.798585 0.311334
O O7 0.836909 0.670758 0.250858
O O8 0.583099 0.381863 0.881604
O O9 0.211786 0.740032 0.698722
O O10 0.315123 0.174098 0.942178
O O11 0.528250 0.943063 0.781256
O O12 0.664418 0.262056 0.841332
O O13 0.012208 0.153965 0.049565
O O14 0.260538 0.614186 0.276709
#
# Coordination Sequence:
#
# PCOD8025762 Si02
#       7
#     2   2   2   2   2   2   2
#     4  11  25  42  71 101 129 168 224 264 340 378
#     4  11  23  44  68  99 134 169 215 280 320 390
#     4  10  24  43  71  94 133 171 227 260 332 380
#     4  12  24  42  67 104 131 170 216 276 326 387
#     4  10  23  46  66  94 131 182 215 269 317 394
#     4  11  25  42  69  97 136 171 222 261 330 389
#     4  11  24  45  69  93 136 174 214 273 323 393
#
# _framework density 21.694807999999998
#
# number of rings (size 3 to 8) (size 9 to 14) (size 15 to 20)
#    0.000    1.143    1.429    4.286    4.000    1.714 
#    5.143    1.429    0.000    0.000    0.000    0.000 
#    0.000    0.000    0.000    0.000    0.000    0.000 
#
# Total GULP energy -173668.657263 kJ/mol
# GULP energy per Si atom -12404.904090 kJ/mol
# Density = 2.164543 g / cm^3
# Si number density = 21.694808 Si / 1000 Ang^3
#
#
#
# Elastic Constant Matrix: (Units=GPa)
#
#
# Indices 1 2 3 4 5 6 
#
# 1 151.4765 63.7851 63.0085 21.4697 10.5941 3.8528
# 2 63.7851 128.1976 53.7014 12.8034 -3.0770 -9.9121
# 3 63.0085 53.7014 92.3362 19.3322 2.2263 -1.6171
# 4 21.4697 12.8034 19.3322 23.5020 2.2320 9.8029
# 5 10.5941 -3.0770 2.2263 2.2320 33.1328 9.4373
# 6 3.8528 -9.9121 -1.6171 9.8029 9.4373 34.3753
#
#
#
# Elastic Compliance Matrix: (Units=1/GPa)
#
#
# Indices 1 2 3 4 5 6 
#
# 1 0.010538 -0.003059 -0.004558 -0.003768 -0.002984 -0.000384
# 2 -0.003059 0.011588 -0.004288 -0.001606 0.001441 0.003545
# 3 -0.004558 -0.004288 0.018608 -0.010076 -0.000405 0.003134
# 4 -0.003768 -0.001606 -0.010076 0.062911 0.002985 -0.019275
# 5 -0.002984 0.001441 -0.000405 0.002985 0.033771 -0.009392
# 6 -0.000384 0.003545 0.003134 -0.019275 -0.009392 0.038378
#
#
# Mechanical properties :
#
#
# Convention : Reuss Voigt Hill
#
# Bulk Modulus (GPa) = 59.08731 81.44446 70.26589
# Shear Modulus (GPa) = 24.36094 30.96971 27.66532
#
# Velocity S-wave (km/s) = 3.35459 3.78235 3.57487
# Velocity P-wave (km/s) = 6.50379 7.52977 7.03550
#
# Compressibility (1/GPa) = 0.01692411
#
# Stress axis : x y z
#
# Youngs Moduli (GPa) = 94.89251 86.29650 53.73903
#
# Poissons Ratio (x) = 0.26399 0.24494
# Poissons Ratio (y) = 0.29028 0.23045
# Poissons Ratio (z) = 0.43251 0.37006
#
# Static dielectric constant tensor:
#      x y z
#    x 3.971610 0.080120 0.142810 
#    y 0.080120 3.825940 0.059400 
#    z 0.142810 0.059400 4.029610 
# 
# 
# High freq. dielectric constant tensor:
#      x y z
#    x 1.866640 0.004270 0.009410 
#    y 0.004270 1.843950 0.005340 
#    z 0.009410 0.005340 1.856910 
# 
# From -- ./inp_files/158291.got.cif
#   From: 2010.06.25/outbox.cif.g09.slc.cpg/sg2_80_cif.got.tgz:158291.got - 2010.06.27 13:26:56.
