data_PCOD8025868
_publ_section_title
;
Structure prediction by ZEFSAII (Michael W. Deem and Ramdas Pophale) SiO2 
 PCOD8025868
Probable space group: P -1
;
_chemical_formula_sum "Si O2"
_cell_formula_units_Z 16
_cell_length_a 18.490707
_cell_length_b 9.198428
_cell_length_c 5.326728
_cell_angle_alpha 102.558134
_cell_angle_beta 50.949623
_cell_angle_gamma 109.176398
_cell_volume 664.482764
_symmetry_space_group_name_H-M "P -1"
_symmetry_group_IT_number 2
_symmetry_cell_setting 'triclinic'
loop_
_space_group_symop_operation_xyz
x,y,z
-x,-y,-z
loop_
_atom_site_type_symbol
_atom_site_label
_atom_site_fract_x
_atom_site_fract_y
_atom_site_fract_z
Si Si1 0.713596 0.659351 0.608015
Si Si2 0.413760 0.826899 0.892435
Si Si3 0.106306 0.397303 0.616115
Si Si4 0.611773 0.517049 0.269717
Si Si5 0.622310 0.010912 0.463119
Si Si6 0.948337 0.852649 0.710160
Si Si7 0.207748 0.030804 0.653636
Si Si8 0.920951 0.285133 0.301024
O O1 0.809773 0.592629 0.357937
O O2 0.651484 0.587272 0.476342
O O3 0.735565 0.846482 0.627187
O O4 0.657992 0.621044 0.974619
O O5 0.366951 0.648372 0.880608
O O6 0.373217 0.916001 0.794489
O O7 0.530029 0.865207 0.632545
O O8 0.383158 0.871955 0.251776
O O9 0.129096 0.274887 0.323002
O O10 0.114444 0.560253 0.521560
O O11 0.997797 0.321827 0.920077
O O12 0.500000 0.500000 0.500000
O O13 0.721237 0.957984 0.258536
O O14 0.026716 0.763654 0.593063
O O15 0.889643 0.913441 0.074771
O O16 0.000000 0.000000 0.500000
O O17 0.174614 0.851626 0.584206
#
# Coordination Sequence:
#
# PCOD8025868 Si02
#       8
#     2   2   2   2   2   2   2   2
#     4  12  27  46  76 109 150 192 253 304 362 450
#     4  10  23  46  71 101 151 183 242 297 376 429
#     4  11  25  46  69 103 146 191 249 303 372 433
#     4  12  27  48  77 108 149 195 243 305 376 436
#     4  10  24  44  72 108 141 194 234 307 359 450
#     4  12  23  45  70 102 145 197 241 307 369 437
#     4  12  25  46  72 107 145 190 257 293 374 436
#     4  11  25  45  70 101 145 192 243 310 373 434
#
# _framework density 24.078878
#
# number of rings (size 3 to 8) (size 9 to 14) (size 15 to 20)
#    0.000    0.750    2.500    4.125    3.500    6.000 
#    0.000    0.000    0.000    0.000    0.000    0.000 
#    0.000    0.000    0.000    0.000    0.000    0.000 
#
# Total GULP energy -198338.720376 kJ/mol
# GULP energy per Si atom -12396.170024 kJ/mol
# Density = 2.402407 g / cm^3
# Si number density = 24.078878 Si / 1000 Ang^3
#
#
#
# Elastic Constant Matrix: (Units=GPa)
#
#
# Indices 1 2 3 4 5 6 
#
# 1 155.2479 50.2613 23.4540 -14.1167 -6.5693 -10.2996
# 2 50.2613 174.4851 27.4692 -24.6687 -0.4360 0.6578
# 3 23.4540 27.4692 48.6518 -18.2097 3.2999 5.6539
# 4 -14.1167 -24.6687 -18.2097 33.5299 1.0191 1.1789
# 5 -6.5693 -0.4360 3.2999 1.0191 39.8013 2.2819
# 6 -10.2996 0.6578 5.6539 1.1789 2.2819 33.2370
#
#
#
# Elastic Compliance Matrix: (Units=1/GPa)
#
#
# Indices 1 2 3 4 5 6 
#
# 1 0.007731 -0.001721 -0.003123 0.000151 0.001348 0.002863
# 2 -0.001721 0.006998 -0.001747 0.003496 -0.000124 -0.000490
# 3 -0.003123 -0.001747 0.028993 0.013450 -0.002931 -0.006141
# 4 0.000151 0.003496 0.013450 0.039948 -0.001868 -0.003599
# 5 0.001348 -0.000124 -0.002931 -0.001868 0.025681 -0.000778
# 6 0.002863 -0.000490 -0.006141 -0.003599 -0.000778 0.032210
#
#
# Mechanical properties :
#
#
# Convention : Reuss Voigt Hill
#
# Bulk Modulus (GPa) = 32.74533 64.52821 48.63677
# Shear Modulus (GPa) = 30.31710 39.79365 35.05537
#
# Velocity S-wave (km/s) = 3.55219 4.06967 3.81971
# Velocity P-wave (km/s) = 5.51841 6.99570 6.30050
#
# Compressibility (1/GPa) = 0.03053871
#
# Stress axis : x y z
#
# Youngs Moduli (GPa) = 129.34753 142.90028 34.49117
#
# Poissons Ratio (x) = 0.24600 0.10771
# Poissons Ratio (y) = 0.22267 0.06027
# Poissons Ratio (z) = 0.40392 0.24970
#
# Static dielectric constant tensor:
#      x y z
#    x 4.145920 -0.070450 0.377920 
#    y -0.070450 4.620920 -0.044540 
#    z 0.377920 -0.044540 3.400050 
# 
# 
# High freq. dielectric constant tensor:
#      x y z
#    x 1.970970 -0.002530 -0.008460 
#    y -0.002530 1.970810 -0.013190 
#    z -0.008460 -0.013190 1.942700 
# 
# From -- ./inp_files/106855.got.cif
#   From: 2010.06.25/outbox.cif.g09.slc.cpg/sg2_54_cif.got.tgz:106855.got - 2010.06.27 13:26:56.
