data_PCOD8025408
_publ_section_title
;
Structure prediction by ZEFSAII (Michael W. Deem and Ramdas Pophale) SiO2 
 PCOD8025408
Probable space group: P -1
;
_chemical_formula_sum "Si O2"
_cell_formula_units_Z 16
_cell_length_a 15.032183
_cell_length_b 10.505246
_cell_length_c 8.249737
_cell_angle_alpha 45.543516
_cell_angle_beta 49.931555
_cell_angle_gamma 49.030006
_cell_volume 659.698351
_symmetry_space_group_name_H-M "P -1"
_symmetry_group_IT_number 2
_symmetry_cell_setting 'triclinic'
loop_
_space_group_symop_operation_xyz
x,y,z
-x,-y,-z
loop_
_atom_site_type_symbol
_atom_site_label
_atom_site_fract_x
_atom_site_fract_y
_atom_site_fract_z
Si Si1 0.380725 0.392844 0.588476
Si Si2 0.784882 0.576632 0.770372
Si Si3 0.885425 0.186794 0.141589
Si Si4 0.534243 0.623730 0.139016
Si Si5 0.139677 0.615699 0.486801
Si Si6 0.139730 0.152161 0.350944
Si Si7 0.661784 0.964828 0.055102
Si Si8 0.832274 0.041895 0.015289
O O1 0.470235 0.470505 0.307504
O O2 0.392978 0.437365 0.721979
O O3 0.235168 0.489015 0.621698
O O4 0.422336 0.164512 0.714254
O O5 0.852790 0.500479 0.587299
O O6 0.806637 0.769680 0.625489
O O7 0.833993 0.418398 0.001049
O O8 0.635315 0.623683 0.884663
O O9 0.862614 0.062748 0.427224
O O10 0.805380 0.142507 0.130295
O O11 0.031941 0.128001 0.984833
O O12 0.424906 0.831432 0.095538
O O13 0.171551 0.803319 0.254094
O O14 0.999436 0.689831 0.657918
O O15 0.224278 0.140424 0.107518
O O16 0.722706 0.968814 0.156504
#
# Coordination Sequence:
#
# PCOD8025408 Si02
#       8
#     2   2   2   2   2   2   2   2
#     4  11  25  43  69  92 130 182 213 273 320 382
#     4  11  24  43  70  95 132 173 215 271 319 395
#     4   9  22  40  65  93 134 173 208 260 335 374
#     4  11  26  47  64  91 136 174 225 264 322 384
#     4  10  23  45  66 100 131 165 223 265 331 385
#     4  11  25  40  68 102 133 168 210 274 328 390
#     4  12  25  42  67  99 134 167 224 266 321 393
#     4   9  20  43  64  96 134 169 211 270 317 394
#
# _framework density 24.253509999999999
#
# number of rings (size 3 to 8) (size 9 to 14) (size 15 to 20)
#    0.000    1.500    2.500    1.500    7.000    4.000 
#    0.000    0.625    0.000    0.000    0.000    0.000 
#    0.000    0.000    0.000    0.000    0.000    0.000 
#
# Total GULP energy -198345.404994 kJ/mol
# GULP energy per Si atom -12396.587812 kJ/mol
# Density = 2.419831 g / cm^3
# Si number density = 24.253510 Si / 1000 Ang^3
#
#
#
# Elastic Constant Matrix: (Units=GPa)
#
#
# Indices 1 2 3 4 5 6 
#
# 1 87.2452 7.4087 13.8498 -11.3391 7.7110 -14.9860
# 2 7.4087 57.4975 14.3242 -3.0312 3.7754 -15.2176
# 3 13.8498 14.3242 59.4788 -21.2129 -14.3155 -8.8995
# 4 -11.3391 -3.0312 -21.2129 28.1282 3.7383 -6.7506
# 5 7.7110 3.7754 -14.3155 3.7383 35.2304 -4.1072
# 6 -14.9860 -15.2176 -8.8995 -6.7506 -4.1072 27.7530
#
#
#
# Elastic Compliance Matrix: (Units=1/GPa)
#
#
# Indices 1 2 3 4 5 6 
#
# 1 0.014566 0.001518 0.000479 0.009349 -0.002901 0.010696
# 2 0.001518 0.021579 -0.002969 0.004018 -0.002849 0.012255
# 3 0.000479 -0.002969 0.032798 0.027150 0.012715 0.017633
# 4 0.009349 0.004018 0.027150 0.067486 0.005259 0.033151
# 5 -0.002901 -0.002849 0.012715 0.005259 0.034793 0.007377
# 6 0.010696 0.012255 0.017633 0.033151 0.007377 0.063337
#
#
# Mechanical properties :
#
#
# Convention : Reuss Voigt Hill
#
# Bulk Modulus (GPa) = 14.92576 30.59855 22.76216
# Shear Modulus (GPa) = 19.31733 29.46493 24.39113
#
# Velocity S-wave (km/s) = 2.82525 3.48928 3.17468
# Velocity P-wave (km/s) = 4.10002 5.37373 4.77949
#
# Compressibility (1/GPa) = 0.06699826
#
# Stress axis : x y z
#
# Youngs Moduli (GPa) = 68.65436 46.34218 30.48994
#
# Poissons Ratio (x) = -0.07035 -0.01461
# Poissons Ratio (y) = -0.10422 0.09053
# Poissons Ratio (z) = -0.03291 0.13760
#
# Static dielectric constant tensor:
#      x y z
#    x 4.418610 -0.063940 -0.282360 
#    y -0.063940 4.250430 -0.283650 
#    z -0.282360 -0.283650 4.271590 
# 
# 
# High freq. dielectric constant tensor:
#      x y z
#    x 1.964390 -0.007610 -0.012070 
#    y -0.007610 1.952140 -0.019880 
#    z -0.012070 -0.019880 1.952770 
# 
# From -- ./inp_files/306141.got.cif
#   From: 2010.06.25/outbox.cif.g09.slc.cpg/sg2_154_cif.got.tgz:306141.got - 2010.06.27 13:26:56.
