data_PCOD8025374
_publ_section_title
;
Structure prediction by ZEFSAII (Michael W. Deem and Ramdas Pophale) SiO2 
 PCOD8025374
Probable space group: P -1
;
_chemical_formula_sum "Si O2"
_cell_formula_units_Z 16
_cell_length_a 14.702663
_cell_length_b 12.041613
_cell_length_c 13.879859
_cell_angle_alpha 43.168882
_cell_angle_beta 149.621285
_cell_angle_gamma 118.485994
_cell_volume 763.448178
_symmetry_space_group_name_H-M "P -1"
_symmetry_group_IT_number 2
_symmetry_cell_setting 'triclinic'
loop_
_space_group_symop_operation_xyz
x,y,z
-x,-y,-z
loop_
_atom_site_type_symbol
_atom_site_label
_atom_site_fract_x
_atom_site_fract_y
_atom_site_fract_z
Si Si1 0.888558 0.083839 0.243834
Si Si2 0.899234 0.733484 0.413686
Si Si3 0.747106 0.896309 0.518968
Si Si4 0.274608 0.331111 0.203234
Si Si5 0.668073 0.541630 0.021724
Si Si6 0.516604 0.458317 0.653109
Si Si7 0.543815 0.697715 0.012320
Si Si8 0.158453 0.393121 0.360640
O O1 0.022844 0.144476 0.259653
O O2 0.840397 0.946134 0.220020
O O3 0.683348 0.260952 0.962989
O O4 0.000000 0.000000 0.500000
O O5 0.755195 0.668399 0.266870
O O6 0.898044 0.705974 0.543653
O O7 0.121861 0.616778 0.649440
O O8 0.688276 0.864091 0.595134
O O9 0.713086 0.752383 0.511031
O O10 0.612838 0.099576 0.233905
O O11 0.442822 0.387789 0.356612
O O12 0.288161 0.337303 0.095643
O O13 0.054905 0.457752 0.966356
O O14 0.558272 0.673377 0.925842
O O15 0.531621 0.443757 0.921380
O O16 0.500000 0.500000 0.500000
O O17 0.300020 0.479528 0.476359
#
# Coordination Sequence:
#
# PCOD8025374 Si02
#       8
#     2   2   2   2   2   2   2   2
#     4  12  23  38  62  93 134 165 201 255 310 373
#     4  11  22  38  65  89 122 154 202 261 304 362
#     4  12  22  38  59  90 125 160 199 245 311 366
#     4  11  23  41  61  86 131 163 198 255 307 371
#     4  10  23  45  63  86 117 161 208 262 309 355
#     4  12  23  36  60  91 128 167 202 242 311 386
#     4  11  24  40  66  89 115 158 214 257 304 366
#     4  11  22  37  61  92 123 164 199 240 312 382
#
# _framework density 20.957546000000001
#
# number of rings (size 3 to 8) (size 9 to 14) (size 15 to 20)
#    0.000    0.750    5.000    3.750    1.750    1.500 
#    0.000    0.000    0.000    0.750    0.000    0.000 
#    0.000    0.000    0.000    0.000    0.000    0.000 
#
# Total GULP energy -198360.044988 kJ/mol
# GULP energy per Si atom -12397.502812 kJ/mol
# Density = 2.090985 g / cm^3
# Si number density = 20.957546 Si / 1000 Ang^3
#
#
#
# Elastic Constant Matrix: (Units=GPa)
#
#
# Indices 1 2 3 4 5 6 
#
# 1 81.1744 11.3194 7.1691 -3.5936 -3.8651 17.6599
# 2 11.3194 98.4376 21.0328 20.6290 4.0266 20.1142
# 3 7.1691 21.0328 46.8215 10.6851 -1.7729 3.3574
# 4 -3.5936 20.6290 10.6851 30.5671 7.8046 4.9036
# 5 -3.8651 4.0266 -1.7729 7.8046 32.3877 1.3849
# 6 17.6599 20.1142 3.3574 4.9036 1.3849 33.2345
#
#
#
# Elastic Compliance Matrix: (Units=1/GPa)
#
#
# Indices 1 2 3 4 5 6 
#
# 1 0.014499 -0.000412 -0.002292 0.003762 0.001084 -0.007824
# 2 -0.000412 0.013920 -0.004132 -0.006898 -0.000054 -0.006768
# 3 -0.002292 -0.004132 0.025250 -0.007502 0.003339 0.002136
# 4 0.003762 -0.006898 -0.007502 0.043331 -0.009415 -0.003067
# 5 0.001084 -0.000054 0.003339 -0.009415 0.033501 -0.000888
# 6 -0.007824 -0.006768 0.002136 -0.003067 -0.000888 0.038617
#
#
# Mechanical properties :
#
#
# Convention : Reuss Voigt Hill
#
# Bulk Modulus (GPa) = 25.00099 33.94179 29.47139
# Shear Modulus (GPa) = 25.49423 31.69866 28.59645
#
# Velocity S-wave (km/s) = 3.49158 3.89333 3.69791
# Velocity P-wave (km/s) = 5.31131 6.03667 5.68557
#
# Compressibility (1/GPa) = 0.03999841
#
# Stress axis : x y z
#
# Youngs Moduli (GPa) = 68.96899 71.83966 39.60349
#
# Poissons Ratio (x) = 0.02957 0.09075
# Poissons Ratio (y) = 0.02839 0.16366
# Poissons Ratio (z) = 0.15805 0.29687
#
# Static dielectric constant tensor:
#      x y z
#    x 3.831680 0.329440 0.010650 
#    y 0.329440 3.970710 0.181650 
#    z 0.010650 0.181650 3.724850 
# 
# 
# High freq. dielectric constant tensor:
#      x y z
#    x 1.822350 0.024440 -0.002100 
#    y 0.024440 1.820100 0.012360 
#    z -0.002100 0.012360 1.805150 
# 
# From -- ./inp_files/281658.got.cif
#   From: 2010.06.25/outbox.cif.g09.slc.cpg/sg2_141_cif.got.tgz:281658.got - 2010.06.27 13:26:56.
