data_PCOD8025751
_publ_section_title
;
Structure prediction by ZEFSAII (Michael W. Deem and Ramdas Pophale) SiO2 
 PCOD8025751
Probable space group: P -1
;
_chemical_formula_sum "Si O2"
_cell_formula_units_Z 16
_cell_length_a 9.056256
_cell_length_b 15.509753
_cell_length_c 8.547313
_cell_angle_alpha 75.390848
_cell_angle_beta 103.593494
_cell_angle_gamma 49.261379
_cell_volume 737.996750
_symmetry_space_group_name_H-M "P -1"
_symmetry_group_IT_number 2
_symmetry_cell_setting 'triclinic'
loop_
_space_group_symop_operation_xyz
x,y,z
-x,-y,-z
loop_
_atom_site_type_symbol
_atom_site_label
_atom_site_fract_x
_atom_site_fract_y
_atom_site_fract_z
Si Si1 0.049586 0.827236 0.546343
Si Si2 0.541087 0.783062 0.107906
Si Si3 0.630499 0.072421 0.699521
Si Si4 0.896880 0.065386 0.244923
Si Si5 0.105299 0.516250 0.647961
Si Si6 0.193897 0.233291 0.338581
Si Si7 0.238126 0.624862 0.432236
Si Si8 0.176503 0.194430 0.001723
O O1 0.191220 0.808080 0.736502
O O2 0.208076 0.727039 0.484675
O O3 0.893158 0.816195 0.572713
O O4 0.882453 0.982878 0.384037
O O5 0.543611 0.795297 0.290676
O O6 0.690800 0.632499 0.155498
O O7 0.275505 0.876065 0.966052
O O8 0.630015 0.833983 0.026363
O O9 0.472213 0.113644 0.493093
O O10 0.725996 0.947433 0.882057
O O11 0.843246 0.036621 0.708439
O O12 0.199813 0.560583 0.566741
O O13 0.000000 0.500000 0.500000
O O14 0.928677 0.623512 0.690927
O O15 0.128519 0.259987 0.127946
O O16 0.500000 0.500000 0.500000
O O17 0.060709 0.704196 0.205278
#
# Coordination Sequence:
#
# PCOD8025751 Si02
#       8
#     2   2   2   2   2   2   2   2
#     4  10  23  46  64  97 137 171 216 268 339 383
#     4  12  25  43  68  97 135 172 224 272 326 396
#     4  12  24  42  71  97 136 173 217 279 329 391
#     4  11  25  40  70 100 133 171 225 271 328 391
#     4  11  23  48  65  93 130 177 219 268 329 386
#     4  11  24  44  71  95 137 173 221 270 328 398
#     4  11  26  44  71  93 136 175 220 275 329 393
#     4  12  25  43  67 103 128 173 225 269 335 391
#
# _framework density 21.680312000000001
#
# number of rings (size 3 to 8) (size 9 to 14) (size 15 to 20)
#    0.000    0.750    3.750    3.375    7.000    1.500 
#    0.000    2.500    0.000    0.000    0.000    0.000 
#    0.000    0.000    0.000    0.000    0.000    0.000 
#
# Total GULP energy -198352.311079 kJ/mol
# GULP energy per Si atom -12397.019442 kJ/mol
# Density = 2.163097 g / cm^3
# Si number density = 21.680312 Si / 1000 Ang^3
#
#
#
# Elastic Constant Matrix: (Units=GPa)
#
#
# Indices 1 2 3 4 5 6 
#
# 1 91.2799 51.3425 35.9587 4.9327 11.4933 -6.4430
# 2 51.3425 127.2277 28.6270 20.5250 11.2295 -1.3820
# 3 35.9587 28.6270 73.8077 9.3312 7.9894 -10.4190
# 4 4.9327 20.5250 9.3312 37.3999 0.5428 -3.6109
# 5 11.4933 11.2295 7.9894 0.5428 32.0600 -3.1983
# 6 -6.4430 -1.3820 -10.4190 -3.6109 -3.1983 34.8591
#
#
#
# Elastic Compliance Matrix: (Units=1/GPa)
#
#
# Indices 1 2 3 4 5 6 
#
# 1 0.016647 -0.005571 -0.005830 0.002463 -0.002492 0.001140
# 2 -0.005571 0.011348 -0.001043 -0.005362 -0.001788 -0.001611
# 3 -0.005830 -0.001043 0.017842 -0.002722 -0.001567 0.003788
# 4 0.002463 -0.005362 -0.002722 0.030275 0.001430 0.002696
# 5 -0.002492 -0.001788 -0.001567 0.001430 0.033297 0.002203
# 6 0.001140 -0.001611 0.003788 0.002696 0.002203 0.030447
#
#
# Mechanical properties :
#
#
# Convention : Reuss Voigt Hill
#
# Bulk Modulus (GPa) = 47.73666 58.24128 52.98897
# Shear Modulus (GPa) = 29.11589 32.62295 30.86942
#
# Velocity S-wave (km/s) = 3.66862 3.88329 3.77748
# Velocity P-wave (km/s) = 6.32545 6.85774 6.59696
#
# Compressibility (1/GPa) = 0.02094826
#
# Stress axis : x y z
#
# Youngs Moduli (GPa) = 60.07238 88.11989 56.04675
#
# Poissons Ratio (x) = 0.49090 0.32676
# Poissons Ratio (y) = 0.33465 0.05848
# Poissons Ratio (z) = 0.35023 0.09194
#
# Static dielectric constant tensor:
#      x y z
#    x 3.855640 0.171360 0.077820 
#    y 0.171360 4.465210 0.144990 
#    z 0.077820 0.144990 3.981810 
# 
# 
# High freq. dielectric constant tensor:
#      x y z
#    x 1.855600 0.010070 -0.000840 
#    y 0.010070 1.866560 0.010760 
#    z -0.000840 0.010760 1.847680 
# 
# From -- ./inp_files/206409.got.cif
#   From: 2010.06.25/outbox.cif.g09.slc.cpg/sg2_104_cif.got.tgz:206409.got - 2010.06.27 13:26:56.
