data_PCOD8025116
_publ_section_title
;
Structure prediction by ZEFSAII (Michael W. Deem and Ramdas Pophale) SiO2 
 PCOD8025116
Probable space group: P -1
;
_chemical_formula_sum "Si O2"
_cell_formula_units_Z 14
_cell_length_a 9.049339
_cell_length_b 15.209552
_cell_length_c 15.545673
_cell_angle_alpha 28.533040
_cell_angle_beta 47.588266
_cell_angle_gamma 66.250352
_cell_volume 635.995247
_symmetry_space_group_name_H-M "P -1"
_symmetry_group_IT_number 2
_symmetry_cell_setting 'triclinic'
loop_
_space_group_symop_operation_xyz
x,y,z
-x,-y,-z
loop_
_atom_site_type_symbol
_atom_site_label
_atom_site_fract_x
_atom_site_fract_y
_atom_site_fract_z
Si Si1 0.064054 0.209418 0.452224
Si Si2 0.863116 0.319190 0.280082
Si Si3 0.432365 0.088134 0.369963
Si Si4 0.528186 0.277229 0.584048
Si Si5 0.465594 0.144849 0.024805
Si Si6 0.772506 0.398752 0.835961
Si Si7 0.250472 0.483691 0.539193
O O1 0.040187 0.326191 0.276770
O O2 0.293726 0.197774 0.362600
O O3 0.110971 0.349246 0.400456
O O4 0.819966 0.975433 0.763667
O O5 0.665871 0.350199 0.376298
O O6 0.733705 0.088519 0.482829
O O7 0.000000 0.500000 0.000000
O O8 0.500000 0.000000 0.500000
O O9 0.679652 0.261978 0.078106
O O10 0.299075 0.296856 0.651519
O O11 0.703638 0.458475 0.428002
O O12 0.461383 0.034336 0.842606
O O13 0.556700 0.307199 0.931712
O O14 0.582505 0.288098 0.771438
O O15 0.971027 0.376727 0.726840
#
# Coordination Sequence:
#
# PCOD8025116 Si02
#       7
#     2   2   2   2   2   2   2
#     4  11  25  47  72  98 146 184 233 300 347 427
#     4  11  23  45  73 100 141 185 235 289 355 418
#     4  12  27  44  69 107 139 187 237 293 359 417
#     4  10  23  44  69 103 136 185 236 284 348 429
#     4  11  24  46  70 102 137 186 236 285 364 410
#     4  12  24  46  67 105 140 176 244 286 350 431
#     4  11  24  42  73 101 143 186 229 293 349 423
#
# _framework density 22.012741999999999
#
# number of rings (size 3 to 8) (size 9 to 14) (size 15 to 20)
#    0.000    0.857    5.714    2.571    2.000    2.857 
#    0.000    0.000    0.000    0.000    0.000    0.000 
#    0.000    0.000    0.000    0.000    0.000    0.000 
#
# Total GULP energy -173607.397470 kJ/mol
# GULP energy per Si atom -12400.528391 kJ/mol
# Density = 2.196264 g / cm^3
# Si number density = 22.012742 Si / 1000 Ang^3
#
#
#
# Elastic Constant Matrix: (Units=GPa)
#
#
# Indices 1 2 3 4 5 6 
#
# 1 69.5289 41.0166 25.2072 -6.2953 -4.0702 -5.6887
# 2 41.0166 113.2137 16.1684 -2.1189 4.2942 -10.6040
# 3 25.2072 16.1684 101.1114 18.2375 -0.6717 -14.9524
# 4 -6.2953 -2.1189 18.2375 36.9554 10.2446 -10.7116
# 5 -4.0702 4.2942 -0.6717 10.2446 25.3955 -6.6642
# 6 -5.6887 -10.6040 -14.9524 -10.7116 -6.6642 39.2530
#
#
#
# Elastic Compliance Matrix: (Units=1/GPa)
#
#
# Indices 1 2 3 4 5 6 
#
# 1 0.020843 -0.006745 -0.004860 0.005198 0.002571 0.001202
# 2 -0.006745 0.011591 -0.000077 0.000906 -0.002916 0.001876
# 3 -0.004860 -0.000077 0.012852 -0.007278 0.003227 0.002732
# 4 0.005198 0.000906 -0.007278 0.036911 -0.012795 0.006126
# 5 0.002571 -0.002916 0.003227 -0.012795 0.046917 0.005288
# 6 0.001202 0.001876 0.002732 0.006126 0.005288 0.029767
#
#
# Mechanical properties :
#
#
# Convention : Reuss Voigt Hill
#
# Bulk Modulus (GPa) = 45.61792 49.84870 47.73331
# Shear Modulus (GPa) = 26.37782 33.75157 30.06470
#
# Velocity S-wave (km/s) = 3.46540 3.91995 3.69966
# Velocity P-wave (km/s) = 6.06468 6.57135 6.32309
#
# Compressibility (1/GPa) = 0.02192121
#
# Stress axis : x y z
#
# Youngs Moduli (GPa) = 47.97768 86.27534 77.80716
#
# Poissons Ratio (x) = 0.58191 0.37817
# Poissons Ratio (y) = 0.32360 0.00601
# Poissons Ratio (z) = 0.23319 0.00667
#
# Static dielectric constant tensor:
#      x y z
#    x 4.006910 -0.019120 -0.138860 
#    y -0.019120 4.234050 0.057150 
#    z -0.138860 0.057150 3.718290 
# 
# 
# High freq. dielectric constant tensor:
#      x y z
#    x 1.854750 0.008870 -0.007280 
#    y 0.008870 1.881820 0.006010 
#    z -0.007280 0.006010 1.866590 
# 
# From -- ./inp_files/504899.got.cif
#   From: 2010.06.25/outbox.cif.g09.slc.cpg/sg2_253_cif.got.tgz:504899.got - 2010.06.27 13:26:56.
