data_PCOD8025106
_publ_section_title
;
Structure prediction by ZEFSAII (Michael W. Deem and Ramdas Pophale) SiO2 
 PCOD8025106
Probable space group: P -1
;
_chemical_formula_sum "Si O2"
_cell_formula_units_Z 14
_cell_length_a 8.112115
_cell_length_b 20.415340
_cell_length_c 6.183381
_cell_angle_alpha 69.922497
_cell_angle_beta 92.100567
_cell_angle_gamma 140.387283
_cell_volume 567.138724
_symmetry_space_group_name_H-M "P -1"
_symmetry_group_IT_number 2
_symmetry_cell_setting 'triclinic'
loop_
_space_group_symop_operation_xyz
x,y,z
-x,-y,-z
loop_
_atom_site_type_symbol
_atom_site_label
_atom_site_fract_x
_atom_site_fract_y
_atom_site_fract_z
Si Si1 0.710070 0.062643 0.743236
Si Si2 0.520567 0.223239 0.616270
Si Si3 0.087232 0.389094 0.660213
Si Si4 0.845600 0.823204 0.059856
Si Si5 0.449931 0.405734 0.866559
Si Si6 0.240640 0.553941 0.798308
Si Si7 0.651501 0.957304 0.467645
O O1 0.638432 0.100795 0.533758
O O2 0.017595 0.171564 0.735938
O O3 0.690167 0.981907 0.699767
O O4 0.500000 0.000000 0.000000
O O5 0.295003 0.154225 0.877528
O O6 0.587076 0.322782 0.423639
O O7 0.392880 0.137518 0.502156
O O8 0.784176 0.271757 0.674406
O O9 0.166132 0.353530 0.872116
O O10 0.305419 0.469578 0.384516
O O11 0.084778 0.461524 0.702249
O O12 0.601899 0.690694 0.107603
O O13 0.075348 0.919649 0.781083
O O14 0.549004 0.429687 0.092769
O O15 0.000000 0.500000 0.000000
#
# Coordination Sequence:
#
# PCOD8025106 Si02
#       7
#     2   2   2   2   2   2   2
#     4   9  21  46  67  94 137 177 232 286 338 409
#     4  12  24  44  69 104 145 183 228 292 350 408
#     4  11  24  47  69  97 139 186 240 281 342 411
#     4  11  23  42  68 100 142 182 228 288 345 411
#     4  11  24  44  71  98 134 188 234 286 340 412
#     4  12  24  45  65 103 141 181 232 290 349 404
#     4  10  23  44  69 101 136 183 233 280 346 423
#
# _framework density 24.685319
#
# number of rings (size 3 to 8) (size 9 to 14) (size 15 to 20)
#    0.000    1.143    2.857    3.000    2.000    0.571 
#   18.000    0.000    0.000    0.000    0.000    0.000 
#    0.000    0.000    0.000    0.000    0.000    0.000 
#
# Total GULP energy -173538.197819 kJ/mol
# GULP energy per Si atom -12395.585559 kJ/mol
# Density = 2.462913 g / cm^3
# Si number density = 24.685319 Si / 1000 Ang^3
#
#
#
# Elastic Constant Matrix: (Units=GPa)
#
#
# Indices 1 2 3 4 5 6 
#
# 1 87.5246 -0.3719 31.3124 -6.4042 -3.9718 11.1903
# 2 -0.3719 88.2416 29.6097 8.9803 -13.6151 -13.0207
# 3 31.3124 29.6097 80.2086 13.9268 -12.4319 -0.5395
# 4 -6.4042 8.9803 13.9268 30.3996 -3.6624 -6.3786
# 5 -3.9718 -13.6151 -12.4319 -3.6624 42.4453 9.7830
# 6 11.1903 -13.0207 -0.5395 -6.3786 9.7830 52.8000
#
#
#
# Elastic Compliance Matrix: (Units=1/GPa)
#
#
# Indices 1 2 3 4 5 6 
#
# 1 0.014757 0.001722 -0.007249 0.005545 0.000809 -0.002257
# 2 0.001722 0.013926 -0.005332 -0.000488 0.002447 0.002502
# 3 -0.007249 -0.005332 0.019186 -0.008649 0.002746 -0.001136
# 4 0.005545 -0.000488 -0.008649 0.038902 0.000440 0.003234
# 5 0.000809 0.002447 0.002746 0.000440 0.026266 -0.004353
# 6 -0.002257 0.002502 -0.001136 0.003234 -0.004353 0.021220
#
#
# Mechanical properties :
#
#
# Convention : Reuss Voigt Hill
#
# Bulk Modulus (GPa) = 38.24131 41.89726 40.06928
# Shear Modulus (GPa) = 30.35971 38.15728 34.25850
#
# Velocity S-wave (km/s) = 3.51075 3.93587 3.72937
# Velocity P-wave (km/s) = 5.65323 6.13711 5.90013
#
# Compressibility (1/GPa) = 0.02614974
#
# Stress axis : x y z
#
# Youngs Moduli (GPa) = 67.76355 71.81062 52.12203
#
# Poissons Ratio (x) = -0.12367 0.37786
# Poissons Ratio (y) = -0.11670 0.27792
# Poissons Ratio (z) = 0.49125 0.38290
#
# Static dielectric constant tensor:
#      x y z
#    x 4.862980 0.330910 -0.037920 
#    y 0.330910 4.594330 0.437260 
#    z -0.037920 0.437260 4.590410 
# 
# 
# High freq. dielectric constant tensor:
#      x y z
#    x 1.990670 0.006710 -0.009470 
#    y 0.006710 1.987220 0.019570 
#    z -0.009470 0.019570 1.964930 
# 
# From -- ./inp_files/52907.got.cif
#   From: 2010.06.25/outbox.cif.g09.slc.cpg/sg2_27_cif.got.tgz:52907.got - 2010.06.27 13:26:56.
