data_PCOD8025627
_publ_section_title
;
Structure prediction by ZEFSAII (Michael W. Deem and Ramdas Pophale) SiO2 
 PCOD8025627
Probable space group: P -1
;
_chemical_formula_sum "Si O2"
_cell_formula_units_Z 16
_cell_length_a 5.139993
_cell_length_b 19.059998
_cell_length_c 25.009582
_cell_angle_alpha 18.052790
_cell_angle_beta 78.933586
_cell_angle_gamma 84.559821
_cell_volume 713.517493
_symmetry_space_group_name_H-M "P -1"
_symmetry_group_IT_number 2
_symmetry_cell_setting 'triclinic'
loop_
_space_group_symop_operation_xyz
x,y,z
-x,-y,-z
loop_
_atom_site_type_symbol
_atom_site_label
_atom_site_fract_x
_atom_site_fract_y
_atom_site_fract_z
Si Si1 0.654482 0.700654 0.238464
Si Si2 0.509884 0.849090 0.363195
Si Si3 0.740909 0.433450 0.095739
Si Si4 0.066965 0.140970 0.450555
Si Si5 0.876035 0.970805 0.830163
Si Si6 0.299401 0.573132 0.778438
Si Si7 0.339743 0.115624 0.269245
Si Si8 0.176784 0.911142 0.133939
O O1 0.514705 0.426005 0.433219
O O2 0.437302 0.807376 0.200095
O O3 0.925757 0.735544 0.238756
O O4 0.736997 0.830250 0.084299
O O5 0.310350 0.899066 0.289432
O O6 0.422584 0.918584 0.374378
O O7 0.828116 0.992636 0.236012
O O8 0.819466 0.400102 0.177349
O O9 0.530959 0.189431 0.260722
O O10 0.613437 0.655834 0.936603
O O11 0.000000 0.500000 0.000000
O O12 0.386857 0.269648 0.351412
O O13 0.893299 0.332528 0.322202
O O14 0.000000 0.000000 0.500000
O O15 0.969768 0.976849 0.626133
O O16 0.924057 0.075681 0.811563
O O17 0.716122 0.694507 0.040398
#
# Coordination Sequence:
#
# PCOD8025627 Si02
#       8
#     2   2   2   2   2   2   2   2
#     4  10  23  45  71 101 137 174 223 272 332 408
#     4  12  26  44  67 106 137 174 230 279 330 403
#     4  11  23  43  70  89 138 182 222 271 344 396
#     4  12  26  45  67  97 131 177 237 279 334 401
#     4  12  26  45  69 101 140 174 227 274 340 401
#     4  12  26  45  66  98 135 176 223 285 334 395
#     4  11  26  42  66 100 131 182 223 282 334 396
#     4  10  23  46  71 100 136 181 217 267 345 404
#
# _framework density 22.424119000000001
#
# number of rings (size 3 to 8) (size 9 to 14) (size 15 to 20)
#    0.000    0.750    2.500    4.125    5.250    3.000 
#    4.500    0.000    0.000    0.000    0.000    0.000 
#    0.000    0.000    0.000    0.000    0.000    0.000 
#
# Total GULP energy -198480.398294 kJ/mol
# GULP energy per Si atom -12405.024893 kJ/mol
# Density = 2.237308 g / cm^3
# Si number density = 22.424119 Si / 1000 Ang^3
#
#
#
# Elastic Constant Matrix: (Units=GPa)
#
#
# Indices 1 2 3 4 5 6 
#
# 1 104.3318 4.8107 24.7415 10.5721 -11.1598 -4.8059
# 2 4.8107 91.2082 35.4297 6.0709 -2.5706 -12.8401
# 3 24.7415 35.4297 112.6869 -3.6249 -7.8383 -3.3528
# 4 10.5721 6.0709 -3.6249 27.5863 -5.9988 -3.6502
# 5 -11.1598 -2.5706 -7.8383 -5.9988 40.5735 11.0913
# 6 -4.8059 -12.8401 -3.3528 -3.6502 11.0913 29.8231
#
#
#
# Elastic Compliance Matrix: (Units=1/GPa)
#
#
# Indices 1 2 3 4 5 6 
#
# 1 0.010814 0.000883 -0.002649 -0.004226 0.001710 0.000672
# 2 0.000883 0.013695 -0.004574 -0.003598 -0.001887 0.005786
# 3 -0.002649 -0.004574 0.011116 0.003742 0.002082 -0.001463
# 4 -0.004226 -0.003598 0.003742 0.040401 0.004952 0.001294
# 5 0.001710 -0.001887 0.002082 0.004952 0.028997 -0.010481
# 6 0.000672 0.005786 -0.001463 0.001294 -0.010481 0.040022
#
#
# Mechanical properties :
#
#
# Convention : Reuss Voigt Hill
#
# Bulk Modulus (GPa) = 43.58514 48.68786 46.13650
# Shear Modulus (GPa) = 30.23443 35.81290 33.02366
#
# Velocity S-wave (km/s) = 3.67590 4.00067 3.84172
# Velocity P-wave (km/s) = 6.12334 6.56505 6.34804
#
# Compressibility (1/GPa) = 0.02294360
#
# Stress axis : x y z
#
# Youngs Moduli (GPa) = 92.46949 73.01868 89.96330
#
# Poissons Ratio (x) = -0.06445 0.23830
# Poissons Ratio (y) = -0.08161 0.41154
# Poissons Ratio (z) = 0.24494 0.33402
#
# Static dielectric constant tensor:
#      x y z
#    x 4.451710 0.005670 0.075120 
#    y 0.005670 3.959130 0.210410 
#    z 0.075120 0.210410 4.479210 
# 
# 
# High freq. dielectric constant tensor:
#      x y z
#    x 1.895570 -0.004440 0.000600 
#    y -0.004440 1.877130 0.006120 
#    z 0.000600 0.006120 1.898210 
# 
# From -- ./inp_files/322505.got.cif
#   From: 2010.06.25/outbox.cif.g09.slc.cpg/sg2_162_cif.got.tgz:322505.got - 2010.06.27 13:26:56.
