data_PCOD8025014
_publ_section_title
;
Structure prediction by ZEFSAII (Michael W. Deem and Ramdas Pophale) SiO2 
 PCOD8025014
Probable space group: P -1
;
_chemical_formula_sum "Si O2"
_cell_formula_units_Z 16
_cell_length_a 15.502727
_cell_length_b 9.293688
_cell_length_c 9.634314
_cell_angle_alpha 71.966721
_cell_angle_beta 76.283470
_cell_angle_gamma 132.169796
_cell_volume 758.638419
_symmetry_space_group_name_H-M "P -1"
_symmetry_group_IT_number 2
_symmetry_cell_setting 'triclinic'
loop_
_space_group_symop_operation_xyz
x,y,z
-x,-y,-z
loop_
_atom_site_type_symbol
_atom_site_label
_atom_site_fract_x
_atom_site_fract_y
_atom_site_fract_z
Si Si1 0.904301 0.658685 0.214678
Si Si2 0.418420 0.120392 0.994570
Si Si3 0.897680 0.220527 0.665215
Si Si4 0.322481 0.679030 0.032210
Si Si5 0.879289 0.951004 0.210060
Si Si6 0.352824 0.852187 0.676403
Si Si7 0.392352 0.230316 0.689369
Si Si8 0.010427 0.849052 0.596281
O O1 0.831844 0.707559 0.302344
O O2 0.783082 0.360483 0.317970
O O3 0.032920 0.765627 0.230721
O O4 0.965697 0.808943 0.001295
O O5 0.274944 0.974315 0.182326
O O6 0.390537 0.920182 0.000861
O O7 0.569006 0.314992 0.973746
O O8 0.453500 0.279362 0.805114
O O9 0.000000 0.500000 0.500000
O O10 0.896394 0.112823 0.564663
O O11 0.157215 0.439531 0.228961
O O12 0.319614 0.693985 0.863640
O O13 0.764075 0.900711 0.190760
O O14 0.893326 0.027967 0.337981
O O15 0.500000 0.000000 0.500000
O O16 0.368868 0.048471 0.658167
O O17 0.500000 0.500000 0.500000
O O18 0.000000 0.000000 0.500000
#
# Coordination Sequence:
#
# PCOD8025014 Si02
#       8
#     2   2   2   2   2   2   2   2
#     4  11  24  44  69  96 133 179 225 278 334 396
#     4  10  23  44  68  98 135 178 220 280 336 404
#     4  12  25  42  70 103 135 172 231 280 330 407
#     4  10  23  44  67  96 138 177 222 273 342 403
#     4  11  24  44  69  94 138 177 224 279 334 398
#     4  11  25  42  70  99 133 178 229 278 334 403
#     4  11  25  43  68 100 136 177 225 277 340 402
#     4  12  25  43  67 103 137 180 223 274 343 400
#
# _framework density 21.090416999999999
#
# number of rings (size 3 to 8) (size 9 to 14) (size 15 to 20)
#    0.000    1.000    5.000    0.750    5.250    1.500 
#    2.250    0.625    0.000    0.000    0.000    0.000 
#    0.000    0.000    0.000    0.000    0.000    0.000 
#
# Total GULP energy -198368.978768 kJ/mol
# GULP energy per Si atom -12398.061173 kJ/mol
# Density = 2.104241 g / cm^3
# Si number density = 21.090417 Si / 1000 Ang^3
#
#
#
# Elastic Constant Matrix: (Units=GPa)
#
#
# Indices 1 2 3 4 5 6 
#
# 1 119.4954 22.2560 28.3284 9.9474 -0.1643 7.1625
# 2 22.2560 77.8302 20.1147 9.9379 5.1763 7.2669
# 3 28.3284 20.1147 106.9157 7.0037 1.5801 5.7804
# 4 9.9474 9.9379 7.0037 36.2587 -3.5416 3.1907
# 5 -0.1643 5.1763 1.5801 -3.5416 42.2489 -1.6246
# 6 7.1625 7.2669 5.7804 3.1907 -1.6246 29.4784
#
#
#
# Elastic Compliance Matrix: (Units=1/GPa)
#
#
# Indices 1 2 3 4 5 6 
#
# 1 0.009389 -0.001871 -0.001968 -0.001557 0.000161 -0.001257
# 2 -0.001871 0.014647 -0.001886 -0.003116 -0.002091 -0.002564
# 3 -0.001968 -0.001886 0.010346 -0.000880 -0.000276 -0.001005
# 4 -0.001557 -0.003116 -0.000880 0.029456 0.002812 -0.001715
# 5 0.000161 -0.002091 -0.000276 0.002812 0.024232 0.001562
# 6 -0.001257 -0.002564 -0.001005 -0.001715 0.001562 0.035329
#
#
# Mechanical properties :
#
#
# Convention : Reuss Voigt Hill
#
# Bulk Modulus (GPa) = 43.60881 49.51547 46.56214
# Shear Modulus (GPa) = 35.08940 37.16669 36.12805
#
# Velocity S-wave (km/s) = 4.08335 4.20248 4.14334
# Velocity P-wave (km/s) = 6.55390 6.86123 6.70932
#
# Compressibility (1/GPa) = 0.02293114
#
# Stress axis : x y z
#
# Youngs Moduli (GPa) = 106.51169 68.27222 96.65943
#
# Poissons Ratio (x) = 0.12771 0.19024
# Poissons Ratio (y) = 0.19925 0.18234
# Poissons Ratio (z) = 0.20963 0.12879
#
# Static dielectric constant tensor:
#      x y z
#    x 4.148370 -0.044140 0.184200 
#    y -0.044140 3.327890 0.331510 
#    z 0.184200 0.331510 3.741620 
# 
# 
# High freq. dielectric constant tensor:
#      x y z
#    x 1.836380 0.000210 0.003480 
#    y 0.000210 1.821740 0.005530 
#    z 0.003480 0.005530 1.837800 
# 
# From -- ./inp_files/273913.got.cif
#   From: 2010.06.25/outbox.cif.g09.slc.cpg/sg2_137_cif.got.tgz:273913.got - 2010.06.27 13:26:56.
