data_PCOD8025131
_publ_section_title
;
Structure prediction by ZEFSAII (Michael W. Deem and Ramdas Pophale) SiO2 
 PCOD8025131
Probable space group: P -1
;
_chemical_formula_sum "Si O2"
_cell_formula_units_Z 14
_cell_length_a 20.480618
_cell_length_b 11.285002
_cell_length_c 19.988656
_cell_angle_alpha 156.415674
_cell_angle_beta 20.995019
_cell_angle_gamma 148.986728
_cell_volume 662.223446
_symmetry_space_group_name_H-M "P -1"
_symmetry_group_IT_number 2
_symmetry_cell_setting 'triclinic'
loop_
_space_group_symop_operation_xyz
x,y,z
-x,-y,-z
loop_
_atom_site_type_symbol
_atom_site_label
_atom_site_fract_x
_atom_site_fract_y
_atom_site_fract_z
Si Si1 0.803435 0.836692 0.100670
Si Si2 0.014846 0.771896 0.575618
Si Si3 0.459983 0.178663 0.196814
Si Si4 0.307412 0.802342 0.892320
Si Si5 0.499077 0.151900 0.495326
Si Si6 0.888901 0.181399 0.643394
Si Si7 0.654784 0.853047 0.504250
O O1 0.667892 0.936163 0.341521
O O2 0.678640 0.942481 0.212766
O O3 0.828225 0.484438 0.893810
O O4 0.000000 0.000000 0.000000
O O5 0.006034 0.725894 0.478684
O O6 0.000000 0.500000 0.500000
O O7 0.205947 0.904264 0.480370
O O8 0.859277 0.994838 0.861227
O O9 0.643025 0.180006 0.067329
O O10 0.419158 0.521311 0.398206
O O11 0.283007 0.024740 0.320590
O O12 0.500000 0.000000 0.000000
O O13 0.485432 0.919496 0.746771
O O14 0.261602 0.474981 0.738752
O O15 0.405468 0.102312 0.489654
O O16 0.000000 0.000000 0.500000
#
# Coordination Sequence:
#
# PCOD8025131 Si02
#       7
#     2   2   2   2   2   2   2
#     4  11  25  44  65 100 137 178 224 279 345 404
#     4  12  28  44  67 104 140 177 221 283 345 400
#     4  11  20  43  69  97 133 175 229 283 329 396
#     4  10  23  44  69  94 130 179 229 272 331 407
#     4  10  24  42  70  97 133 179 226 280 340 399
#     4  12  26  45  71 100 136 181 231 280 336 404
#     4  10  23  45  69  95 130 182 225 275 335 407
#
# _framework density 21.140899999999998
#
# number of rings (size 3 to 8) (size 9 to 14) (size 15 to 20)
#    0.000    1.143    2.857    2.143    6.000    1.714 
#    0.000    0.000    0.000    0.000    0.000    0.000 
#    0.000    0.000    0.000    0.000    0.000    0.000 
#
# Total GULP energy -173470.015621 kJ/mol
# GULP energy per Si atom -12390.715401 kJ/mol
# Density = 2.109278 g / cm^3
# Si number density = 21.140900 Si / 1000 Ang^3
#
#
#
# Elastic Constant Matrix: (Units=GPa)
#
#
# Indices 1 2 3 4 5 6 
#
# 1 80.5496 67.6680 70.4274 -3.8407 -0.2366 -6.1902
# 2 67.6680 85.0522 5.2353 33.3086 -17.0430 -15.9878
# 3 70.4274 5.2353 101.5472 32.3213 -24.5431 -22.8815
# 4 -3.8407 33.3086 32.3213 20.7196 -4.0570 8.5115
# 5 -0.2366 -17.0430 -24.5431 -4.0570 36.4034 2.7868
# 6 -6.1902 -15.9878 -22.8815 8.5115 2.7868 29.1718
#
#
#
# Elastic Compliance Matrix: (Units=1/GPa)
#
#
# Indices 1 2 3 4 5 6 
#
# 1 0.005534 0.004106 0.004031 -0.016005 0.002045 0.011060
# 2 0.004106 0.003523 -0.008097 0.009847 -0.002210 -0.006211
# 3 0.004031 -0.008097 0.003379 0.010066 -0.000069 -0.003862
# 4 -0.016005 0.009847 0.010066 0.014372 0.012549 0.004504
# 5 0.002045 -0.002210 -0.000069 0.012549 0.028352 -0.007201
# 6 0.011060 -0.006211 -0.003862 0.004504 -0.007201 0.029567
#
#
# Mechanical properties :
#
#
# Convention : Reuss Voigt Hill
#
# Bulk Modulus (GPa) = 79.90446 61.53449 70.71948
# Shear Modulus (GPa) = 56.29377 25.51349 40.90363
#
# Velocity S-wave (km/s) = 5.16582 3.47772 4.40342
# Velocity P-wave (km/s) = 8.57083 6.73023 7.70569
#
# Compressibility (1/GPa) = 0.01251495
#
# Stress axis : x y z
#
# Youngs Moduli (GPa) = 180.68756 283.86227 295.96786
#
# Poissons Ratio (x) = -1.16541 -1.19296
# Poissons Ratio (y) = -0.74182 2.39639
# Poissons Ratio (z) = -0.72830 2.29837
#
# Static dielectric constant tensor:
#      x y z
#    x 3.642820 -1.160980 -1.271390 
#    y -1.160980 2.121870 -2.369370 
#    z -1.271390 -2.369370 0.783480 
# 
# 
# High freq. dielectric constant tensor:
#      x y z
#    x 1.838320 -0.004330 -0.002230 
#    y -0.004330 1.835260 -0.003540 
#    z -0.002230 -0.003540 1.833090 
# 
# From -- ./inp_files/346299.got.cif
#   From: 2010.06.25/outbox.cif.g09.slc.cpg/sg2_174_cif.got.tgz:346299.got - 2010.06.27 13:26:56.
