data_PCOD8025784
_publ_section_title
;
Structure prediction by ZEFSAII (Michael W. Deem and Ramdas Pophale) SiO2 
 PCOD8025784
Probable space group: P -1
;
_chemical_formula_sum "Si O2"
_cell_formula_units_Z 14
_cell_length_a 12.279325
_cell_length_b 22.904604
_cell_length_c 8.561821
_cell_angle_alpha 42.984321
_cell_angle_beta 34.700051
_cell_angle_gamma 26.177570
_cell_volume 604.567271
_symmetry_space_group_name_H-M "P -1"
_symmetry_group_IT_number 2
_symmetry_cell_setting 'triclinic'
loop_
_space_group_symop_operation_xyz
x,y,z
-x,-y,-z
loop_
_atom_site_type_symbol
_atom_site_label
_atom_site_fract_x
_atom_site_fract_y
_atom_site_fract_z
Si Si1 0.292155 0.125549 0.386276
Si Si2 0.782749 0.408541 0.555309
Si Si3 0.650385 0.575628 0.105980
Si Si4 0.831577 0.534504 0.473674
Si Si5 0.739702 0.177954 0.332917
Si Si6 0.849299 0.142821 0.915662
Si Si7 0.364875 0.964264 0.148052
O O1 0.112983 0.262815 0.412841
O O2 0.049873 0.139962 0.584790
O O3 0.500000 0.000000 0.500000
O O4 0.475306 0.105094 0.070329
O O5 0.668337 0.523437 0.352478
O O6 0.538117 0.416569 0.814037
O O7 0.811930 0.440405 0.631799
O O8 0.480883 0.726887 0.019362
O O9 0.986227 0.475974 0.852354
O O10 0.495465 0.676712 0.605453
O O11 0.000000 0.500000 0.500000
O O12 0.594273 0.132694 0.600650
O O13 0.840076 0.167743 0.061084
O O14 0.016680 0.095095 0.281763
O O15 0.000000 0.000000 0.000000
O O16 0.500000 0.000000 0.000000
#
# Coordination Sequence:
#
# PCOD8025784 Si02
#       7
#     2   2   2   2   2   2   2
#     4  11  23  43  70  99 133 180 233 280 352 414
#     4  10  25  44  69  99 137 184 236 290 339 427
#     4  10  23  46  68 100 136 183 237 280 356 410
#     4  12  25  42  68  99 140 186 227 282 352 415
#     4  11  25  44  64 106 139 174 240 280 348 428
#     4  11  23  42  71 101 137 177 233 291 344 419
#     4  11  25  45  72 100 140 182 227 294 355 410
#
# _framework density 23.157056999999998
#
# number of rings (size 3 to 8) (size 9 to 14) (size 15 to 20)
#    0.000    1.143    2.857    2.143    2.000    8.571 
#    0.000    0.000    0.000    0.000    0.000    0.000 
#    0.000    0.000    0.000    0.000    0.000    0.000 
#
# Total GULP energy -173505.319584 kJ/mol
# GULP energy per Si atom -12393.237113 kJ/mol
# Density = 2.310435 g / cm^3
# Si number density = 23.157057 Si / 1000 Ang^3
#
#
#
# Elastic Constant Matrix: (Units=GPa)
#
#
# Indices 1 2 3 4 5 6 
#
# 1 88.9952 46.2395 5.7728 1.6630 -16.9328 13.4499
# 2 46.2395 186.8503 23.0187 9.6176 -0.9845 11.2746
# 3 5.7728 23.0187 87.4560 9.4121 -14.0469 3.6860
# 4 1.6630 9.6176 9.4121 42.2959 -4.2131 3.4500
# 5 -16.9328 -0.9845 -14.0469 -4.2131 31.2490 -8.9702
# 6 13.4499 11.2746 3.6860 3.4500 -8.9702 31.5347
#
#
#
# Elastic Compliance Matrix: (Units=1/GPa)
#
#
# Indices 1 2 3 4 5 6 
#
# 1 0.015015 -0.003694 0.001262 0.001003 0.007828 -0.003114
# 2 -0.003694 0.006615 -0.001823 -0.001158 -0.003155 -0.001347
# 3 0.001262 -0.001823 0.013043 -0.001951 0.006406 0.000624
# 4 0.001003 -0.001158 -0.001951 0.024690 0.002445 -0.001792
# 5 0.007828 -0.003155 0.006406 0.002445 0.041843 0.008675
# 6 -0.003114 -0.001347 0.000624 -0.001792 0.008675 0.036112
#
#
# Mechanical properties :
#
#
# Convention : Reuss Voigt Hill
#
# Bulk Modulus (GPa) = 38.22030 57.04040 47.63035
# Shear Modulus (GPa) = 32.35228 40.23396 36.29312
#
# Velocity S-wave (km/s) = 3.74181 4.17278 3.96316
# Velocity P-wave (km/s) = 5.93370 6.92110 6.44633
#
# Compressibility (1/GPa) = 0.02616411
#
# Stress axis : x y z
#
# Youngs Moduli (GPa) = 66.59917 151.17742 76.66828
#
# Poissons Ratio (x) = 0.55840 -0.09674
# Poissons Ratio (y) = 0.24600 0.13974
# Poissons Ratio (z) = -0.08403 0.27554
#
# Static dielectric constant tensor:
#      x y z
#    x 3.975560 0.084420 -0.092150 
#    y 0.084420 4.196810 0.157950 
#    z -0.092150 0.157950 4.611140 
# 
# 
# High freq. dielectric constant tensor:
#      x y z
#    x 1.898940 -0.007010 -0.010670 
#    y -0.007010 1.930870 0.005660 
#    z -0.010670 0.005660 1.924140 
# 
# From -- ./inp_files/282830.got.cif
#   From: 2010.06.25/outbox.cif.g09.slc.cpg/sg2_142_cif.got.tgz:282830.got - 2010.06.27 13:26:56.
