data_PCOD8025285
_publ_section_title
;
Structure prediction by ZEFSAII (Michael W. Deem and Ramdas Pophale) SiO2 
 PCOD8025285
Probable space group: P -1
;
_chemical_formula_sum "Si O2"
_cell_formula_units_Z 12
_cell_length_a 7.254170
_cell_length_b 11.155968
_cell_length_c 7.686315
_cell_angle_alpha 96.529177
_cell_angle_beta 53.667611
_cell_angle_gamma 111.729766
_cell_volume 460.835654
_symmetry_space_group_name_H-M "P -1"
_symmetry_group_IT_number 2
_symmetry_cell_setting 'triclinic'
loop_
_space_group_symop_operation_xyz
x,y,z
-x,-y,-z
loop_
_atom_site_type_symbol
_atom_site_label
_atom_site_fract_x
_atom_site_fract_y
_atom_site_fract_z
Si Si1 0.091739 0.053426 0.768550
Si Si2 0.582537 0.301923 0.509006
Si Si3 0.031759 0.733259 0.259260
Si Si4 0.735905 0.504053 0.170039
Si Si5 0.454127 0.632716 0.079543
Si Si6 0.980565 0.777641 0.679567
O O1 0.368274 0.160726 0.623238
O O2 0.902513 0.118228 0.814438
O O3 0.089613 0.934411 0.629709
O O4 0.000000 0.000000 0.000000
O O5 0.562231 0.385327 0.366982
O O6 0.832897 0.275456 0.336641
O O7 0.606164 0.392797 0.684217
O O8 0.796737 0.643711 0.254592
O O9 0.927562 0.714740 0.508920
O O10 0.274521 0.698786 0.106394
O O11 0.613811 0.495631 0.039627
O O12 0.000000 0.500000 0.000000
O O13 0.730326 0.735818 0.922462
#
# Coordination Sequence:
#
# PCOD8025285 Si02
#       6
#     2   2   2   2   2   2
#     4  12  25  45  70  99 139 184 228 282 343 403
#     4  11  25  47  71 104 139 178 232 281 344 409
#     4  10  25  46  67 101 136 181 232 281 340 409
#     4  10  24  46  73 101 139 181 226 286 343 405
#     4  10  23  44  72 105 136 180 226 285 344 403
#     4  11  24  45  70 102 137 184 226 282 343 406
#
# _framework density 26.039650999999999
#
# number of rings (size 3 to 8) (size 9 to 14) (size 15 to 20)
#    0.000    1.333    1.667    2.000    4.667    9.333 
#    3.000    6.667    0.000    0.000    0.000    0.000 
#    0.000    0.000    0.000    0.000    0.000    0.000 
#
# Total GULP energy -148834.583424 kJ/mol
# GULP energy per Si atom -12402.881952 kJ/mol
# Density = 2.598038 g / cm^3
# Si number density = 26.039651 Si / 1000 Ang^3
#
#
#
# Elastic Constant Matrix: (Units=GPa)
#
#
# Indices 1 2 3 4 5 6 
#
# 1 168.4717 60.6168 65.5148 -0.3182 14.5472 7.8499
# 2 60.6168 153.3345 46.2862 14.2241 5.2685 1.6945
# 3 65.5148 46.2862 128.4363 -7.3750 -3.9531 3.4883
# 4 -0.3182 14.2241 -7.3750 46.5410 -4.6776 3.3610
# 5 14.5472 5.2685 -3.9531 -4.6776 45.1312 -1.6692
# 6 7.8499 1.6945 3.4883 3.3610 -1.6692 38.1574
#
#
#
# Elastic Compliance Matrix: (Units=1/GPa)
#
#
# Indices 1 2 3 4 5 6 
#
# 1 0.008399 -0.002127 -0.003569 -0.000039 -0.002829 -0.001428
# 2 -0.002127 0.008300 -0.002115 -0.002998 -0.000761 0.000493
# 3 -0.003569 -0.002115 0.010603 0.002580 0.002584 -0.000256
# 4 -0.000039 -0.002998 0.002580 0.023251 0.002924 -0.002015
# 5 -0.002829 -0.000761 0.002584 0.002924 0.023731 0.001160
# 6 -0.001428 0.000493 -0.000256 -0.002015 0.001160 0.026731
#
#
# Mechanical properties :
#
#
# Convention : Reuss Voigt Hill
#
# Bulk Modulus (GPa) = 85.60700 88.34202 86.97451
# Shear Modulus (GPa) = 41.48374 44.48757 42.98565
#
# Velocity S-wave (km/s) = 3.99569 4.13783 4.06738
# Velocity P-wave (km/s) = 7.36440 7.53847 7.45194
#
# Compressibility (1/GPa) = 0.01168129
#
# Stress axis : x y z
#
# Youngs Moduli (GPa) = 119.05747 120.48495 94.31063
#
# Poissons Ratio (x) = 0.25622 0.33656
# Poissons Ratio (y) = 0.25319 0.19950
# Poissons Ratio (z) = 0.42487 0.25487
#
# Static dielectric constant tensor:
#      x y z
#    x 5.384450 0.007740 0.122230 
#    y 0.007740 5.486810 0.720920 
#    z 0.122230 0.720920 4.839540 
# 
# 
# High freq. dielectric constant tensor:
#      x y z
#    x 2.082310 -0.017470 -0.005050 
#    y -0.017470 2.054370 0.025520 
#    z -0.005050 0.025520 2.056450 
# 
# From -- ./inp_files/188244.got.cif
#   From: 2010.06.25/outbox.cif.g09.slc.cpg/sg2_95_cif.got.tgz:188244.got - 2010.06.27 13:26:56.
