data_PCOD8025677
_publ_section_title
;
Structure prediction by ZEFSAII (Michael W. Deem and Ramdas Pophale) SiO2 
 PCOD8025677
Probable space group: P -1
;
_chemical_formula_sum "Si O2"
_cell_formula_units_Z 12
_cell_length_a 20.005370
_cell_length_b 16.854854
_cell_length_c 6.130065
_cell_angle_alpha 50.042966
_cell_angle_beta 47.734357
_cell_angle_gamma 20.035496
_cell_volume 523.620740
_symmetry_space_group_name_H-M "P -1"
_symmetry_group_IT_number 2
_symmetry_cell_setting 'triclinic'
loop_
_space_group_symop_operation_xyz
x,y,z
-x,-y,-z
loop_
_atom_site_type_symbol
_atom_site_label
_atom_site_fract_x
_atom_site_fract_y
_atom_site_fract_z
Si Si1 0.153041 0.694303 0.199153
Si Si2 0.432797 0.670978 0.973694
Si Si3 0.925242 0.648151 0.204835
Si Si4 0.711456 0.812214 0.981920
Si Si5 0.861475 0.860079 0.328448
Si Si6 0.864358 0.093637 0.443065
O O1 0.085491 0.664123 0.259895
O O2 0.380169 0.440198 0.231576
O O3 0.186600 0.765497 0.865512
O O4 0.992671 0.872124 0.433558
O O5 0.342006 0.738429 0.293440
O O6 0.500000 0.500000 0.000000
O O7 0.266276 0.903106 0.787701
O O8 0.870566 0.815172 0.133975
O O9 0.000000 0.500000 0.500000
O O10 0.123868 0.447302 0.969382
O O11 0.727648 0.808844 0.217761
O O12 0.774305 0.859520 0.670437
O O13 0.500000 0.000000 0.000000
O O14 0.000000 0.000000 0.500000
#
# Coordination Sequence:
#
# PCOD8025677 Si02
#       6
#     2   2   2   2   2   2
#     4  11  24  41  65  94 135 184 232 289 341 406
#     4  12  24  43  66  98 138 192 232 279 350 404
#     4   9  22  45  68  94 136 171 217 290 352 409
#     4  10  23  45  73 100 132 176 227 286 357 424
#     4  11  25  41  64 103 134 173 234 282 347 420
#     4  11  21  44  65  87 138 183 236 292 336 396
#
# _framework density 22.917349999999999
#
# number of rings (size 3 to 8) (size 9 to 14) (size 15 to 20)
#    0.000    1.333    3.333    1.500    2.333    8.000 
#    3.000    0.000    0.000    0.000    0.000    0.000 
#    0.000    0.000    0.000    0.000    0.000    0.000 
#
# Total GULP energy -148688.895702 kJ/mol
# GULP energy per Si atom -12390.741309 kJ/mol
# Density = 2.286519 g / cm^3
# Si number density = 22.917350 Si / 1000 Ang^3
#
#
#
# Elastic Constant Matrix: (Units=GPa)
#
#
# Indices 1 2 3 4 5 6 
#
# 1 181.6311 67.1657 31.2615 10.9134 16.0083 -28.9433
# 2 67.1657 107.0854 29.8070 13.3425 -0.5041 -11.2995
# 3 31.2615 29.8070 85.0529 12.9690 2.7788 -0.7710
# 4 10.9134 13.3425 12.9690 38.8471 -1.9414 -0.4024
# 5 16.0083 -0.5041 2.7788 -1.9414 41.8206 2.3550
# 6 -28.9433 -11.2995 -0.7710 -0.4024 2.3550 53.2047
#
#
#
# Elastic Compliance Matrix: (Units=1/GPa)
#
#
# Indices 1 2 3 4 5 6 
#
# 1 0.008264 -0.004390 -0.001277 -0.000517 -0.003363 0.003690
# 2 -0.004390 0.013169 -0.002712 -0.002287 0.001898 0.000268
# 3 -0.001277 -0.002712 0.013692 -0.003319 -0.000547 -0.001073
# 4 -0.000517 -0.002287 -0.003319 0.027860 0.001723 -0.000681
# 5 -0.003363 0.001898 -0.000547 0.001723 0.025482 -0.002549
# 6 0.003690 0.000268 -0.001073 -0.000681 -0.002549 0.020952
#
#
# Mechanical properties :
#
#
# Convention : Reuss Voigt Hill
#
# Bulk Modulus (GPa) = 54.44814 70.02642 62.23728
# Shear Modulus (GPa) = 37.79314 43.14349 40.46832
#
# Velocity S-wave (km/s) = 4.06532 4.34357 4.20675
# Velocity P-wave (km/s) = 6.77096 7.46845 7.12824
#
# Compressibility (1/GPa) = 0.01836610
#
# Stress axis : x y z
#
# Youngs Moduli (GPa) = 121.00101 75.93570 73.03792
#
# Poissons Ratio (x) = 0.33337 0.09326
# Poissons Ratio (y) = 0.53121 0.19811
# Poissons Ratio (z) = 0.15450 0.20597
#
# Static dielectric constant tensor:
#      x y z
#    x 4.830390 -0.317280 0.707060 
#    y -0.317280 5.122430 -0.390320 
#    z 0.707060 -0.390320 4.667270 
# 
# 
# High freq. dielectric constant tensor:
#      x y z
#    x 1.917240 -0.006590 0.016340 
#    y -0.006590 1.902340 -0.005270 
#    z 0.016340 -0.005270 1.891760 
# 
# From -- ./inp_files/96788.got.cif
#   From: 2010.06.25/outbox.cif.g09.slc.cpg/sg2_49_cif.got.tgz:96788.got - 2010.06.27 13:26:56.
