data_PCOD8025368
_publ_section_title
;
Structure prediction by ZEFSAII (Michael W. Deem and Ramdas Pophale) SiO2 
 PCOD8025368
Probable space group: P -1
;
_chemical_formula_sum "Si O2"
_cell_formula_units_Z 12
_cell_length_a 14.760478
_cell_length_b 16.754040
_cell_length_c 8.927158
_cell_angle_alpha 28.811985
_cell_angle_beta 34.236998
_cell_angle_gamma 28.235685
_cell_volume 488.617225
_symmetry_space_group_name_H-M "P -1"
_symmetry_group_IT_number 2
_symmetry_cell_setting 'triclinic'
loop_
_space_group_symop_operation_xyz
x,y,z
-x,-y,-z
loop_
_atom_site_type_symbol
_atom_site_label
_atom_site_fract_x
_atom_site_fract_y
_atom_site_fract_z
Si Si1 0.308730 0.200106 0.861876
Si Si2 0.615869 0.566709 0.134843
Si Si3 0.439299 0.758723 0.748391
Si Si4 0.012742 0.170341 0.133834
Si Si5 0.205136 0.241277 0.251609
Si Si6 0.070819 0.799893 0.138124
O O1 0.369194 0.333124 0.471457
O O2 0.162558 0.316395 0.012251
O O3 0.208400 0.141639 0.973572
O O4 0.500000 0.000000 0.000000
O O5 0.500000 0.500000 0.500000
O O6 0.820792 0.383386 0.091644
O O7 0.483784 0.697792 0.960145
O O8 0.660486 0.697793 0.960143
O O9 0.324256 0.000001 0.500000
O O10 0.307598 0.683605 0.987749
O O11 0.034750 0.141639 0.973572
O O12 0.000000 0.000000 0.500000
O O13 0.993101 0.333124 0.471457
O O14 0.000000 0.000000 0.000000
#
# Coordination Sequence:
#
# PCOD8025368 Si02
#       6
#     2   2   2   2   2   2
#     4  10  23  44  78 106 141 193 239 295 370 422
#     4  12  30  44  72 114 146 196 243 299 364 427
#     4  10  23  46  74 104 148 190 242 295 363 432
#     4  12  27  46  71 105 155 189 245 300 361 430
#     4  10  23  46  74 104 148 190 242 295 363 432
#     4  10  23  44  78 106 141 193 239 295 370 422
#
# _framework density 24.559100000000001
#
# number of rings (size 3 to 8) (size 9 to 14) (size 15 to 20)
#    0.000    1.333    0.000    4.500   14.000    4.000 
#    0.000    0.000    0.000    0.000    0.000    0.000 
#    0.000    0.000    0.000    0.000    0.000    0.000 
#
# Total GULP energy -148795.924036 kJ/mol
# GULP energy per Si atom -12399.660336 kJ/mol
# Density = 2.450320 g / cm^3
# Si number density = 24.559100 Si / 1000 Ang^3
#
#
#
# Elastic Constant Matrix: (Units=GPa)
#
#
# Indices 1 2 3 4 5 6 
#
# 1 241.5933 20.7639 117.4227 23.5329 1.5043 -4.8038
# 2 20.7639 35.3278 28.1395 19.5683 -0.0910 -0.9497
# 3 117.4227 28.1395 255.1653 39.7372 1.7286 -2.7702
# 4 23.5329 19.5683 39.7372 48.0202 -0.2621 -0.2001
# 5 1.5043 -0.0910 1.7286 -0.2621 57.4286 13.0133
# 6 -4.8038 -0.9497 -2.7702 -0.2001 13.0133 26.5049
#
#
#
# Elastic Compliance Matrix: (Units=1/GPa)
#
#
# Indices 1 2 3 4 5 6 
#
# 1 0.005404 -0.001174 -0.002306 -0.000259 -0.000262 0.000823
# 2 -0.001174 0.037722 -0.001498 -0.013554 -0.000141 0.000949
# 3 -0.002306 -0.001498 0.005599 -0.002893 -0.000163 0.000171
# 4 -0.000259 -0.013554 -0.002893 0.028868 0.000387 -0.000807
# 5 -0.000262 -0.000141 -0.000163 0.000387 0.019625 -0.009702
# 6 0.000823 0.000949 0.000171 -0.000807 -0.009702 0.042687
#
#
# Mechanical properties :
#
#
# Convention : Reuss Voigt Hill
#
# Bulk Modulus (GPa) = 25.79376 96.08208 60.93792
# Shear Modulus (GPa) = 30.71551 50.77477 40.74514
#
# Velocity S-wave (km/s) = 3.54033 4.55186 4.07758
# Velocity P-wave (km/s) = 5.21895 8.17518 6.85824
#
# Compressibility (1/GPa) = 0.03876907
#
# Stress axis : x y z
#
# Youngs Moduli (GPa) = 185.03608 26.50972 178.60270
#
# Poissons Ratio (x) = 0.03113 0.41193
# Poissons Ratio (y) = 0.21726 0.26748
# Poissons Ratio (z) = 0.42677 0.03970
#
# Static dielectric constant tensor:
#      x y z
#    x 4.731110 0.025750 0.064180 
#    y 0.025750 4.883560 1.196920 
#    z 0.064180 1.196920 6.122470 
# 
# 
# High freq. dielectric constant tensor:
#      x y z
#    x 1.986600 0.000020 0.000810 
#    y 0.000020 1.980770 0.012590 
#    z 0.000810 0.012590 2.008830 
# 
# From -- ./inp_files/182988.got.cif
#   From: 2010.06.25/outbox.cif.g09.slc.cpg/sg2_92_cif.got.tgz:182988.got - 2010.06.27 13:26:56.
