data_PCOD8025260
_publ_section_title
;
Structure prediction by ZEFSAII (Michael W. Deem and Ramdas Pophale) SiO2 
 PCOD8025260
Probable space group: P -1
;
_chemical_formula_sum "Si O2"
_cell_formula_units_Z 14
_cell_length_a 9.154158
_cell_length_b 8.452529
_cell_length_c 18.091154
_cell_angle_alpha 62.721830
_cell_angle_beta 148.996138
_cell_angle_gamma 103.717298
_cell_volume 602.652982
_symmetry_space_group_name_H-M "P -1"
_symmetry_group_IT_number 2
_symmetry_cell_setting 'triclinic'
loop_
_space_group_symop_operation_xyz
x,y,z
-x,-y,-z
loop_
_atom_site_type_symbol
_atom_site_label
_atom_site_fract_x
_atom_site_fract_y
_atom_site_fract_z
Si Si1 0.353585 0.935156 0.183768
Si Si2 0.684288 0.507661 0.389593
Si Si3 0.634309 0.207973 0.187013
Si Si4 0.718092 0.120883 0.079820
Si Si5 0.299194 0.515352 0.090148
Si Si6 0.679013 0.928254 0.474586
Si Si7 0.676170 0.188317 0.547570
O O1 0.471004 0.712179 0.276543
O O2 0.449172 0.992690 0.292698
O O3 0.518484 0.028680 0.177155
O O4 0.000000 0.000000 0.000000
O O5 0.545285 0.429293 0.278101
O O6 0.729155 0.382939 0.510284
O O7 0.000000 0.500000 0.500000
O O8 0.643681 0.247057 0.095392
O O9 0.396524 0.385203 0.087370
O O10 0.969625 0.155120 0.379572
O O11 0.716126 0.269009 0.981735
O O12 0.046438 0.964922 0.258978
O O13 0.500000 0.000000 0.000000
O O14 0.000000 0.500000 0.000000
O O15 0.605177 0.769851 0.527034
O O16 0.607736 0.113016 0.455086
#
# Coordination Sequence:
#
# PCOD8025260 Si02
#       7
#     2   2   2   2   2   2   2
#     4  12  26  44  68 109 145 183 234 310 366 422
#     4  12  25  45  70 103 140 192 241 292 368 433
#     4  11  24  45  72 103 143 194 241 291 364 439
#     4  11  25  46  72 110 149 186 238 310 370 422
#     4  12  27  45  75 105 146 189 247 300 359 439
#     4  10  23  44  71  97 144 184 247 281 362 433
#     4  10  24  43  74  99 140 193 239 290 358 441
#
# _framework density 23.230615
#
# number of rings (size 3 to 8) (size 9 to 14) (size 15 to 20)
#    0.000    0.857    0.000    6.857   12.000    0.571 
#    2.571    0.000    0.000    0.000    0.000    0.000 
#    0.000    0.000    0.000    0.000    0.000    0.000 
#
# Total GULP energy -173568.202508 kJ/mol
# GULP energy per Si atom -12397.728751 kJ/mol
# Density = 2.317774 g / cm^3
# Si number density = 23.230615 Si / 1000 Ang^3
#
#
#
# Elastic Constant Matrix: (Units=GPa)
#
#
# Indices 1 2 3 4 5 6 
#
# 1 99.5719 34.7855 54.1140 -1.9474 28.1630 30.2877
# 2 34.7855 88.7330 34.6007 -6.9117 17.1880 32.0579
# 3 54.1140 34.6007 137.1889 17.0711 17.7451 14.7118
# 4 -1.9474 -6.9117 17.0711 48.3253 4.7320 -4.7649
# 5 28.1630 17.1880 17.7451 4.7320 40.7172 1.7087
# 6 30.2877 32.0579 14.7118 -4.7649 1.7087 56.2388
#
#
#
# Elastic Compliance Matrix: (Units=1/GPa)
#
#
# Indices 1 2 3 4 5 6 
#
# 1 0.018386 0.000001 -0.005423 0.002890 -0.010358 -0.007925
# 2 0.000001 0.016839 -0.002997 0.003212 -0.005825 -0.008366
# 3 -0.005423 -0.002997 0.010438 -0.004274 0.000900 0.001509
# 4 0.002890 0.003212 -0.004274 0.023170 -0.004177 -0.000179
# 5 -0.010358 -0.005825 0.000900 -0.004177 0.033971 0.007277
# 6 -0.007925 -0.008366 0.001509 -0.000179 0.007277 0.026187
#
#
# Mechanical properties :
#
#
# Convention : Reuss Voigt Hill
#
# Bulk Modulus (GPa) = 34.69007 63.61047 49.15027
# Shear Modulus (GPa) = 32.16757 42.52249 37.34503
#
# Velocity S-wave (km/s) = 3.72520 4.28302 4.01381
# Velocity P-wave (km/s) = 5.78517 7.20421 6.53333
#
# Compressibility (1/GPa) = 0.02882669
#
# Stress axis : x y z
#
# Youngs Moduli (GPa) = 54.38839 59.38567 95.80821
#
# Poissons Ratio (x) = -0.00007 0.51954
# Poissons Ratio (y) = -0.00006 0.28709
# Poissons Ratio (z) = 0.29493 0.17795
#
# Static dielectric constant tensor:
#      x y z
#    x 4.342660 0.263960 -0.074180 
#    y 0.263960 4.133060 0.249420 
#    z -0.074180 0.249420 4.225280 
# 
# 
# High freq. dielectric constant tensor:
#      x y z
#    x 1.933770 0.016270 -0.001580 
#    y 0.016270 1.918740 0.009240 
#    z -0.001580 0.009240 1.921600 
# 
# From -- ./inp_files/328652.got.cif
#   From: 2010.06.25/outbox.cif.g09.slc.cpg/sg2_165_cif.got.tgz:328652.got - 2010.06.27 13:26:56.
