data_PCOD8025081
_publ_section_title
;
Structure prediction by ZEFSAII (Michael W. Deem and Ramdas Pophale) SiO2 
 PCOD8025081
Probable space group: P -1
;
_chemical_formula_sum "Si O2"
_cell_formula_units_Z 16
_cell_length_a 12.299691
_cell_length_b 8.772709
_cell_length_c 12.547455
_cell_angle_alpha 136.109563
_cell_angle_beta 50.242874
_cell_angle_gamma 121.357525
_cell_volume 717.072854
_symmetry_space_group_name_H-M "P -1"
_symmetry_group_IT_number 2
_symmetry_cell_setting 'triclinic'
loop_
_space_group_symop_operation_xyz
x,y,z
-x,-y,-z
loop_
_atom_site_type_symbol
_atom_site_label
_atom_site_fract_x
_atom_site_fract_y
_atom_site_fract_z
Si Si1 0.549254 0.570411 0.837780
Si Si2 0.997113 0.502519 0.692581
Si Si3 0.456279 0.327666 0.575383
Si Si4 0.004016 0.184213 0.335576
Si Si5 0.717845 0.386068 0.301161
Si Si6 0.713405 0.265085 0.836940
Si Si7 0.737217 0.038124 0.930504
Si Si8 0.310500 0.877319 0.442965
O O1 0.468630 0.521825 0.752082
O O2 0.637196 0.363338 0.698624
O O3 0.655012 0.795068 0.878511
O O4 0.422097 0.591414 0.013388
O O5 0.952452 0.700398 0.746752
O O6 0.862237 0.420421 0.810080
O O7 0.044086 0.327143 0.489020
O O8 0.124375 0.568038 0.727851
O O9 0.611167 0.300938 0.418516
O O10 0.337266 0.389543 0.597192
O O11 0.410538 0.085167 0.531756
O O12 0.836924 0.112193 0.398526
O O13 0.093133 0.975780 0.183293
O O14 0.704941 0.197956 0.125702
O O15 0.694616 0.131410 0.891077
O O16 0.705559 0.087990 0.656609
#
# Coordination Sequence:
#
# PCOD8025081 Si02
#       8
#     2   2   2   2   2   2   2   2
#     4  12  24  46  68  97 139 172 221 277 325 396
#     4  10  23  45  67  96 135 175 223 267 331 389
#     4  11  25  42  69  99 132 174 225 270 332 389
#     4  10  23  44  68  98 130 179 216 272 330 393
#     4  11  25  42  67 101 136 173 216 280 326 390
#     4  11  25  40  68 103 130 178 218 271 330 397
#     4  12  25  42  69  99 137 174 219 272 333 388
#     4  11  25  43  71  98 131 175 225 271 328 392
#
# _framework density 22.312933000000001
#
# number of rings (size 3 to 8) (size 9 to 14) (size 15 to 20)
#    0.000    1.000    1.250    5.625    7.000    4.000 
#    0.000    0.000    0.000    0.000    0.000    0.000 
#    0.000    0.000    0.000    0.000    0.000    0.000 
#
# Total GULP energy -198354.539625 kJ/mol
# GULP energy per Si atom -12397.158727 kJ/mol
# Density = 2.226215 g / cm^3
# Si number density = 22.312933 Si / 1000 Ang^3
#
#
#
# Elastic Constant Matrix: (Units=GPa)
#
#
# Indices 1 2 3 4 5 6 
#
# 1 89.9353 37.2856 20.7936 6.4756 -8.1811 16.4549
# 2 37.2856 120.0050 42.9658 2.0776 -4.4138 23.7714
# 3 20.7936 42.9658 90.1206 -4.4583 -16.3755 12.2959
# 4 6.4756 2.0776 -4.4583 22.4184 -1.1606 -2.8928
# 5 -8.1811 -4.4138 -16.3755 -1.1606 41.5047 -5.5250
# 6 16.4549 23.7714 12.2959 -2.8928 -5.5250 21.2494
#
#
#
# Elastic Compliance Matrix: (Units=1/GPa)
#
#
# Indices 1 2 3 4 5 6 
#
# 1 0.014306 -0.002238 -0.001194 -0.005198 0.000851 -0.008370
# 2 -0.002238 0.012850 -0.004713 -0.003026 -0.002479 -0.010972
# 3 -0.001194 -0.004713 0.014818 0.003931 0.005153 -0.000502
# 4 -0.005198 -0.003026 0.003931 0.048971 0.003258 0.012650
# 5 0.000851 -0.002479 0.005153 0.003258 0.027000 0.006597
# 6 -0.008370 -0.010972 -0.000502 0.012650 0.006597 0.069543
#
#
# Mechanical properties :
#
#
# Convention : Reuss Voigt Hill
#
# Bulk Modulus (GPa) = 38.93608 55.79456 47.36532
# Shear Modulus (GPa) = 23.54695 30.30223 26.92459
#
# Velocity S-wave (km/s) = 3.25207 3.68918 3.47750
# Velocity P-wave (km/s) = 5.62042 6.57316 6.11538
#
# Compressibility (1/GPa) = 0.02568312
#
# Stress axis : x y z
#
# Youngs Moduli (GPa) = 69.89960 77.81807 67.48436
#
# Poissons Ratio (x) = 0.17416 0.08061
# Poissons Ratio (y) = 0.15644 0.31808
# Poissons Ratio (z) = 0.08349 0.36679
#
# Static dielectric constant tensor:
#      x y z
#    x 4.102920 -0.041630 -0.002720 
#    y -0.041630 3.884090 -0.094530 
#    z -0.002720 -0.094530 4.105440 
# 
# 
# High freq. dielectric constant tensor:
#      x y z
#    x 1.892120 -0.002800 -0.007110 
#    y -0.002800 1.872350 -0.008600 
#    z -0.007110 -0.008600 1.886350 
# 
# From -- ./inp_files/419922.got.cif
#   From: 2010.06.25/outbox.cif.g09.slc.cpg/sg2_210_cif.got.tgz:419922.got - 2010.06.27 13:26:56.
