data_PCOD8025797
_publ_section_title
;
Structure prediction by ZEFSAII (Michael W. Deem and Ramdas Pophale) SiO2 
 PCOD8025797
Probable space group: P -1
;
_chemical_formula_sum "Si O2"
_cell_formula_units_Z 14
_cell_length_a 29.761221
_cell_length_b 24.237625
_cell_length_c 5.040249
_cell_angle_alpha 62.908002
_cell_angle_beta 63.079356
_cell_angle_gamma 10.526837
_cell_volume 591.073524
_symmetry_space_group_name_H-M "P -1"
_symmetry_group_IT_number 2
_symmetry_cell_setting 'triclinic'
loop_
_space_group_symop_operation_xyz
x,y,z
-x,-y,-z
loop_
_atom_site_type_symbol
_atom_site_label
_atom_site_fract_x
_atom_site_fract_y
_atom_site_fract_z
Si Si1 0.868387 0.817985 0.309464
Si Si2 0.142666 0.768251 0.226176
Si Si3 0.585092 0.859546 0.830473
Si Si4 0.265536 0.823642 0.368984
Si Si5 0.390089 0.372606 0.112046
Si Si6 0.513146 0.158677 0.744055
Si Si7 0.672132 0.170669 0.308091
O O1 0.788036 0.856335 0.628677
O O2 0.123878 0.499387 0.177982
O O3 0.666000 0.068752 0.067252
O O4 0.865760 0.882914 0.354016
O O5 0.201972 0.654709 0.057823
O O6 0.390297 0.486227 0.345501
O O7 0.972936 0.932648 0.513862
O O8 0.000000 0.000000 0.000000
O O9 0.500000 0.000000 0.500000
O O10 0.500000 0.000000 0.000000
O O11 0.455293 0.949166 0.005767
O O12 0.500000 0.500000 0.500000
O O13 0.269110 0.876478 0.450612
O O14 0.276236 0.835409 0.016313
O O15 0.360603 0.351856 0.454309
O O16 0.354589 0.388506 0.879467
#
# Coordination Sequence:
#
# PCOD8025797 Si02
#       7
#     2   2   2   2   2   2   2
#     4   9  26  43  74  92 138 175 223 277 338 407
#     4  11  25  44  71 101 147 185 235 296 342 399
#     4  12  28  44  69 106 134 171 219 278 349 410
#     4  12  27  43  67 102 142 184 236 293 347 402
#     4   9  23  44  67  99 130 182 228 271 333 396
#     4  10  23  46  68  97 134 174 228 266 338 411
#     4  11  27  46  67 103 134 187 239 283 347 410
#
# _framework density 23.685714999999998
#
# number of rings (size 3 to 8) (size 9 to 14) (size 15 to 20)
#    0.857    0.571    1.429    1.286   10.000    2.857 
#    0.000    0.000    0.000    0.000    0.000    0.000 
#    0.000    0.000    0.000    0.000    0.000    0.000 
#
# Total GULP energy -173553.681342 kJ/mol
# GULP energy per Si atom -12396.691524 kJ/mol
# Density = 2.363181 g / cm^3
# Si number density = 23.685715 Si / 1000 Ang^3
#
#
#
# Elastic Constant Matrix: (Units=GPa)
#
#
# Indices 1 2 3 4 5 6 
#
# 1 91.0107 30.7220 31.7409 12.9561 -14.5043 19.4635
# 2 30.7220 130.5300 24.7360 16.4977 -15.8884 16.4658
# 3 31.7409 24.7360 97.6127 19.7019 -16.6249 4.0761
# 4 12.9561 16.4977 19.7019 33.0350 0.9829 -7.9672
# 5 -14.5043 -15.8884 -16.6249 0.9829 52.1697 4.0469
# 6 19.4635 16.4658 4.0761 -7.9672 4.0469 45.6859
#
#
#
# Elastic Compliance Matrix: (Units=1/GPa)
#
#
# Indices 1 2 3 4 5 6 
#
# 1 0.015190 -0.000985 -0.002578 -0.005784 0.003771 -0.007229
# 2 -0.000985 0.009501 -0.000361 -0.005230 0.002925 -0.004144
# 3 -0.002578 -0.000361 0.013326 -0.007239 0.003677 -0.001549
# 4 -0.005784 -0.005230 -0.007239 0.042850 -0.007333 0.013117
# 5 0.003771 0.002925 0.003677 -0.007333 0.022906 -0.006297
# 6 -0.007229 -0.004144 -0.001549 0.013117 -0.006297 0.029445
#
#
# Mechanical properties :
#
#
# Convention : Reuss Voigt Hill
#
# Bulk Modulus (GPa) = 33.14554 54.83902 43.99228
# Shear Modulus (GPa) = 33.08593 41.64177 37.36385
#
# Velocity S-wave (km/s) = 3.74153 4.19751 3.97606
# Velocity P-wave (km/s) = 5.71749 6.83339 6.30019
#
# Compressibility (1/GPa) = 0.03016997
#
# Stress axis : x y z
#
# Youngs Moduli (GPa) = 65.83435 105.25333 75.03933
#
# Poissons Ratio (x) = 0.10363 0.19347
# Poissons Ratio (y) = 0.06482 0.02707
# Poissons Ratio (z) = 0.16973 0.03797
#
# Static dielectric constant tensor:
#      x y z
#    x 4.284560 0.038220 -0.338220 
#    y 0.038220 4.155530 0.045580 
#    z -0.338220 0.045580 4.055030 
# 
# 
# High freq. dielectric constant tensor:
#      x y z
#    x 1.938420 0.006790 -0.008480 
#    y 0.006790 1.932540 0.016200 
#    z -0.008480 0.016200 1.946880 
# 
# From -- ./inp_files/128813.got.cif
#   From: 2010.06.25/outbox.cif.g09.slc.cpg/sg2_65_cif.got.tgz:128813.got - 2010.06.27 13:26:56.
