data_PCOD8025750
_publ_section_title
;
Structure prediction by ZEFSAII (Michael W. Deem and Ramdas Pophale) SiO2 
 PCOD8025750
Probable space group: P -1
;
_chemical_formula_sum "Si O2"
_cell_formula_units_Z 14
_cell_length_a 12.457996
_cell_length_b 20.392075
_cell_length_c 11.163530
_cell_angle_alpha 139.146806
_cell_angle_beta 128.060714
_cell_angle_gamma 22.437363
_cell_volume 668.141781
_symmetry_space_group_name_H-M "P -1"
_symmetry_group_IT_number 2
_symmetry_cell_setting 'triclinic'
loop_
_space_group_symop_operation_xyz
x,y,z
-x,-y,-z
loop_
_atom_site_type_symbol
_atom_site_label
_atom_site_fract_x
_atom_site_fract_y
_atom_site_fract_z
Si Si1 0.571653 0.125419 0.964118
Si Si2 0.339362 0.999252 0.888910
Si Si3 0.270848 0.526389 0.301040
Si Si4 0.326350 0.304556 0.513145
Si Si5 0.608207 0.957681 0.385354
Si Si6 0.779189 0.335927 0.297492
Si Si7 0.302296 0.545744 0.864557
O O1 0.414998 0.123221 0.826205
O O2 0.615883 0.098764 0.099650
O O3 0.344450 0.362175 0.101050
O O4 0.887486 0.929583 0.840256
O O5 0.429477 0.873113 0.665191
O O6 0.500000 0.000000 0.000000
O O7 0.997628 0.248007 0.983525
O O8 0.533946 0.412174 0.257107
O O9 0.255099 0.558623 0.476735
O O10 0.954035 0.764879 0.355496
O O11 0.395023 0.369513 0.703418
O O12 0.000000 0.500000 0.500000
O O13 0.386650 0.188388 0.502951
O O14 0.500000 0.000000 0.500000
O O15 0.724953 0.422769 0.252907
O O16 0.500000 0.500000 0.000000
#
# Coordination Sequence:
#
# PCOD8025750 Si02
#       7
#     2   2   2   2   2   2   2
#     4  11  22  43  68  97 132 179 223 279 335 404
#     4  11  22  42  71 100 127 180 236 268 343 410
#     4  11  24  42  69  94 136 179 219 278 339 397
#     4  12  25  47  74  97 140 184 223 285 342 407
#     4  12  26  42  67 105 136 168 232 282 332 400
#     4  10  23  46  64  97 135 178 227 268 341 410
#     4  11  26  44  69 101 137 173 231 287 332 401
#
# _framework density 20.953637000000001
#
# number of rings (size 3 to 8) (size 9 to 14) (size 15 to 20)
#    0.000    0.857    4.286    2.571    4.000    1.714 
#   10.286    0.000    0.000    0.000    0.000    0.000 
#    0.000    0.000    0.000    0.000    0.000    0.000 
#
# Total GULP energy -173582.548856 kJ/mol
# GULP energy per Si atom -12398.753490 kJ/mol
# Density = 2.090595 g / cm^3
# Si number density = 20.953637 Si / 1000 Ang^3
#
#
#
# Elastic Constant Matrix: (Units=GPa)
#
#
# Indices 1 2 3 4 5 6 
#
# 1 100.9244 54.6221 61.7836 11.2779 4.7261 -2.5258
# 2 54.6221 129.2915 52.7990 7.2861 13.6261 -15.2127
# 3 61.7836 52.7990 135.2436 6.0362 13.8753 -1.0693
# 4 11.2779 7.2861 6.0362 33.0873 -6.0929 4.5230
# 5 4.7261 13.6261 13.8753 -6.0929 51.0629 3.8530
# 6 -2.5258 -15.2127 -1.0693 4.5230 3.8530 40.5318
#
#
#
# Elastic Compliance Matrix: (Units=1/GPa)
#
#
# Indices 1 2 3 4 5 6 
#
# 1 0.016022 -0.004492 -0.005515 -0.003230 0.000871 -0.000555
# 2 -0.004492 0.011326 -0.001995 -0.001671 -0.002592 0.004351
# 3 -0.005515 -0.001995 0.010874 0.000081 -0.001854 -0.000638
# 4 -0.003230 -0.001671 0.000081 0.033299 0.005075 -0.005025
# 5 0.000871 -0.002592 -0.001854 0.005075 0.021575 -0.003585
# 6 -0.000555 0.004351 -0.000638 -0.005025 -0.003585 0.027155
#
#
# Mechanical properties :
#
#
# Convention : Reuss Voigt Hill
#
# Bulk Modulus (GPa) = 70.33169 78.20766 74.26967
# Shear Modulus (GPa) = 33.55846 38.02006 35.78926
#
# Velocity S-wave (km/s) = 4.00629 4.26430 4.13730
# Velocity P-wave (km/s) = 7.41881 7.85180 7.63837
#
# Compressibility (1/GPa) = 0.01421834
#
# Stress axis : x y z
#
# Youngs Moduli (GPa) = 62.41431 88.29198 91.96239
#
# Poissons Ratio (x) = 0.39657 0.50721
# Poissons Ratio (y) = 0.28034 0.18345
# Poissons Ratio (z) = 0.34424 0.17613
#
# Static dielectric constant tensor:
#      x y z
#    x 3.836520 0.004120 -0.183500 
#    y 0.004120 3.989360 0.129170 
#    z -0.183500 0.129170 4.344670 
# 
# 
# High freq. dielectric constant tensor:
#      x y z
#    x 1.825800 -0.006890 -0.008140 
#    y -0.006890 1.820020 0.005430 
#    z -0.008140 0.005430 1.834990 
# 
# From -- ./inp_files/261286.got.cif
#   From: 2010.06.25/outbox.cif.g09.slc.cpg/sg2_131_cif.got.tgz:261286.got - 2010.06.27 13:26:56.
