data_PCOD8025513
_publ_section_title
;
Structure prediction by ZEFSAII (Michael W. Deem and Ramdas Pophale) SiO2 
 PCOD8025513
Probable space group: P -1
;
_chemical_formula_sum "Si O2"
_cell_formula_units_Z 16
_cell_length_a 12.566826
_cell_length_b 13.792691
_cell_length_c 8.266510
_cell_angle_alpha 102.042825
_cell_angle_beta 64.174651
_cell_angle_gamma 50.097348
_cell_volume 699.866816
_symmetry_space_group_name_H-M "P -1"
_symmetry_group_IT_number 2
_symmetry_cell_setting 'triclinic'
loop_
_space_group_symop_operation_xyz
x,y,z
-x,-y,-z
loop_
_atom_site_type_symbol
_atom_site_label
_atom_site_fract_x
_atom_site_fract_y
_atom_site_fract_z
Si Si1 0.675282 0.807927 0.230003
Si Si2 0.965238 0.298920 0.069917
Si Si3 0.226241 0.289209 0.246438
Si Si4 0.172880 0.955381 0.803658
Si Si5 0.616022 0.519243 0.885888
Si Si6 0.422023 0.813870 0.904980
Si Si7 0.935635 0.801850 0.656763
Si Si8 0.583621 0.650046 0.274661
O O1 0.901489 0.700599 0.087447
O O2 0.644544 0.721216 0.296598
O O3 0.500000 0.000000 0.500000
O O4 0.679111 0.791194 0.025922
O O5 0.052688 0.135739 0.877642
O O6 0.987439 0.272616 0.237537
O O7 0.719992 0.484975 0.247217
O O8 0.391585 0.235671 0.224595
O O9 0.199619 0.199097 0.312281
O O10 0.000000 0.500000 0.500000
O O11 0.355526 0.854343 0.777476
O O12 0.328959 0.803098 0.509567
O O13 0.000000 0.000000 0.000000
O O14 0.495328 0.655231 0.863550
O O15 0.857215 0.320964 0.625537
O O16 0.500000 0.500000 0.000000
O O17 0.633714 0.589515 0.036297
O O18 0.210842 0.999417 0.202337
#
# Coordination Sequence:
#
# PCOD8025513 Si02
#       8
#     2   2   2   2   2   2   2   2
#     4  11  22  43  70 109 149 174 231 298 360 424
#     4  10  24  44  71 102 136 186 229 283 352 427
#     4  11  21  43  74 105 143 183 238 288 356 435
#     4  11  27  46  71 100 137 188 245 284 342 425
#     4  12  28  45  68 104 142 184 237 290 354 421
#     4  11  24  47  72  99 139 187 232 294 349 420
#     4  10  23  45  69 100 136 183 233 281 346 426
#     4  12  25  45  71 101 142 184 228 299 356 412
#
# _framework density 22.861492999999999
#
# number of rings (size 3 to 8) (size 9 to 14) (size 15 to 20)
#    0.000    1.000    3.750    1.500    7.000    3.000 
#    2.250    0.000    0.000    0.000    0.000    0.000 
#    0.000    0.000    0.000    0.000    0.000    0.000 
#
# Total GULP energy -198304.834095 kJ/mol
# GULP energy per Si atom -12394.052131 kJ/mol
# Density = 2.280946 g / cm^3
# Si number density = 22.861493 Si / 1000 Ang^3
#
#
#
# Elastic Constant Matrix: (Units=GPa)
#
#
# Indices 1 2 3 4 5 6 
#
# 1 73.1093 24.6543 32.4665 5.4969 -12.1948 5.9927
# 2 24.6543 67.8816 19.4469 22.4999 -9.8244 12.4395
# 3 32.4665 19.4469 163.0441 16.3524 -13.2149 3.3104
# 4 5.4969 22.4999 16.3524 32.5702 5.6059 1.9235
# 5 -12.1948 -9.8244 -13.2149 5.6059 40.7078 -3.8901
# 6 5.9927 12.4395 3.3104 1.9235 -3.8901 31.9207
#
#
#
# Elastic Compliance Matrix: (Units=1/GPa)
#
#
# Indices 1 2 3 4 5 6 
#
# 1 0.017100 -0.005603 -0.002711 0.001936 0.002571 -0.000549
# 2 -0.005603 0.024255 0.000521 -0.016708 0.006004 -0.006716
# 3 -0.002711 0.000521 0.007176 -0.003885 0.002184 0.000062
# 4 0.001936 -0.016708 -0.003885 0.045572 -0.010751 0.002494
# 5 0.002571 0.006004 0.002184 -0.010751 0.029083 0.001143
# 6 -0.000549 -0.006716 0.000062 0.002494 0.001143 0.034030
#
#
# Mechanical properties :
#
#
# Convention : Reuss Voigt Hill
#
# Bulk Modulus (GPa) = 30.35284 50.79669 40.57477
# Shear Modulus (GPa) = 27.20575 36.20424 31.70499
#
# Velocity S-wave (km/s) = 3.45342 3.98381 3.72806
# Velocity P-wave (km/s) = 5.40436 6.59003 6.02643
#
# Compressibility (1/GPa) = 0.03294584
#
# Stress axis : x y z
#
# Youngs Moduli (GPa) = 58.47970 41.22906 139.34402
#
# Poissons Ratio (x) = 0.23099 0.37782
# Poissons Ratio (y) = 0.32764 -0.07266
# Poissons Ratio (z) = 0.15856 -0.02150
#
# Static dielectric constant tensor:
#      x y z
#    x 4.237360 0.110830 0.134500 
#    y 0.110830 3.929050 0.225720 
#    z 0.134500 0.225720 4.484200 
# 
# 
# High freq. dielectric constant tensor:
#      x y z
#    x 1.900670 0.010760 0.001490 
#    y 0.010760 1.884830 0.014720 
#    z 0.001490 0.014720 1.926670 
# 
# From -- ./inp_files/273646.got.cif
#   From: 2010.06.25/outbox.cif.g09.slc.cpg/sg2_137_cif.got.tgz:273646.got - 2010.06.27 13:26:56.
