data_PCOD8025682
_publ_section_title
;
Structure prediction by ZEFSAII (Michael W. Deem and Ramdas Pophale) SiO2 
 PCOD8025682
Probable space group: P -1
;
_chemical_formula_sum "Si O2"
_cell_formula_units_Z 16
_cell_length_a 19.653256
_cell_length_b 17.477100
_cell_length_c 10.948451
_cell_angle_alpha 33.506642
_cell_angle_beta 43.082703
_cell_angle_gamma 19.834792
_cell_volume 674.505467
_symmetry_space_group_name_H-M "P -1"
_symmetry_group_IT_number 2
_symmetry_cell_setting 'triclinic'
loop_
_space_group_symop_operation_xyz
x,y,z
-x,-y,-z
loop_
_atom_site_type_symbol
_atom_site_label
_atom_site_fract_x
_atom_site_fract_y
_atom_site_fract_z
Si Si1 0.586658 0.710844 0.108991
Si Si2 0.168116 0.121965 0.043817
Si Si3 0.759969 0.653449 0.746161
Si Si4 0.346259 0.625799 0.360299
Si Si5 0.382917 0.599572 0.900483
Si Si6 0.919198 0.444118 0.168639
Si Si7 0.614415 0.696256 0.648561
Si Si8 0.918075 0.235112 0.649624
O O1 0.610427 0.526328 0.378220
O O2 0.676072 0.717210 0.079345
O O3 0.338118 0.032396 0.978845
O O4 0.704744 0.585330 0.991552
O O5 0.056553 0.201456 0.206474
O O6 0.277042 0.860412 0.183547
O O7 0.998491 0.403230 0.801256
O O8 0.741050 0.647571 0.634296
O O9 0.596916 0.975910 0.564758
O O10 0.551922 0.391744 0.316223
O O11 0.163716 0.784288 0.306885
O O12 0.500000 0.500000 0.000000
O O13 0.444019 0.364254 0.110424
O O14 0.139556 0.912761 0.837921
O O15 0.957140 0.329321 0.401131
O O16 0.000000 0.500000 0.000000
O O17 0.756595 0.466443 0.659490
#
# Coordination Sequence:
#
# PCOD8025682 Si02
#       8
#     2   2   2   2   2   2   2   2
#     4  10  23  45  73 103 140 179 234 298 346 414
#     4  11  23  43  73 103 142 185 228 294 356 413
#     4  10  25  45  68 103 139 190 243 284 343 426
#     4  11  24  45  74 109 136 184 237 290 359 413
#     4  12  25  42  68 103 142 178 236 289 344 424
#     4  10  25  45  69 107 139 183 234 286 350 429
#     4  11  24  48  68  99 146 190 237 292 344 422
#     4  11  25  46  73 102 142 188 231 295 357 412
#
# _framework density 23.721081999999999
#
# number of rings (size 3 to 8) (size 9 to 14) (size 15 to 20)
#    0.000    1.250    1.250    3.000    3.500    9.000 
#    6.750    1.875    0.000    0.000    0.000    0.000 
#    0.000    0.000    0.000    0.000    0.000    0.000 
#
# Total GULP energy -198340.916744 kJ/mol
# GULP energy per Si atom -12396.307296 kJ/mol
# Density = 2.366709 g / cm^3
# Si number density = 23.721082 Si / 1000 Ang^3
#
#
#
# Elastic Constant Matrix: (Units=GPa)
#
#
# Indices 1 2 3 4 5 6 
#
# 1 121.7297 54.9745 55.6522 -19.5074 10.9476 -27.3008
# 2 54.9745 101.0287 41.4147 -17.3972 0.7630 -16.7740
# 3 55.6522 41.4147 98.5180 -10.1898 -2.1856 -9.3049
# 4 -19.5074 -17.3972 -10.1898 39.1994 -8.3541 10.4662
# 5 10.9476 0.7630 -2.1856 -8.3541 35.4272 -0.3176
# 6 -27.3008 -16.7740 -9.3049 10.4662 -0.3176 48.7784
#
#
#
# Elastic Compliance Matrix: (Units=1/GPa)
#
#
# Indices 1 2 3 4 5 6 
#
# 1 0.014729 -0.004434 -0.005906 0.001484 -0.004424 0.005245
# 2 -0.004434 0.014311 -0.003012 0.003417 0.001692 0.001143
# 3 -0.005906 -0.003012 0.014726 0.000616 0.002929 -0.001645
# 4 0.001484 0.003417 0.000616 0.030515 0.006662 -0.004381
# 5 -0.004424 0.001692 0.002929 0.006662 0.031286 -0.002561
# 6 0.005245 0.001143 -0.001645 -0.004381 -0.002561 0.024439
#
#
# Mechanical properties :
#
#
# Convention : Reuss Voigt Hill
#
# Bulk Modulus (GPa) = 58.60911 69.48435 64.04673
# Shear Modulus (GPa) = 30.78822 35.96333 33.37578
#
# Velocity S-wave (km/s) = 3.60658 3.89793 3.75508
# Velocity P-wave (km/s) = 6.48880 7.04374 6.77196
#
# Compressibility (1/GPa) = 0.01706219
#
# Stress axis : x y z
#
# Youngs Moduli (GPa) = 67.89114 69.87471 67.90645
#
# Poissons Ratio (x) = 0.30984 0.40104
# Poissons Ratio (y) = 0.30105 0.20456
# Poissons Ratio (z) = 0.40095 0.21049
#
# Static dielectric constant tensor:
#      x y z
#    x 3.934730 -0.126570 0.398200 
#    y -0.126570 4.411580 0.150640 
#    z 0.398200 0.150640 4.213100 
# 
# 
# High freq. dielectric constant tensor:
#      x y z
#    x 1.951880 -0.008240 0.013670 
#    y -0.008240 1.940530 0.010200 
#    z 0.013670 0.010200 1.932370 
# 
# From -- ./inp_files/472333.got.cif
#   From: 2010.06.25/outbox.cif.g09.slc.cpg/sg2_237_cif.got.tgz:472333.got - 2010.06.27 13:26:56.
