data_PCOD8025369
_publ_section_title
;
Structure prediction by ZEFSAII (Michael W. Deem and Ramdas Pophale) SiO2 
 PCOD8025369
Probable space group: P -1
;
_chemical_formula_sum "Si O2"
_cell_formula_units_Z 16
_cell_length_a 10.667579
_cell_length_b 5.364484
_cell_length_c 17.382520
_cell_angle_alpha 92.727072
_cell_angle_beta 131.603486
_cell_angle_gamma 59.845718
_cell_volume 576.842464
_symmetry_space_group_name_H-M "P -1"
_symmetry_group_IT_number 2
_symmetry_cell_setting 'triclinic'
loop_
_space_group_symop_operation_xyz
x,y,z
-x,-y,-z
loop_
_atom_site_type_symbol
_atom_site_label
_atom_site_fract_x
_atom_site_fract_y
_atom_site_fract_z
Si Si1 0.946557 0.360758 0.184794
Si Si2 0.764634 0.911490 0.021760
Si Si3 0.204716 0.765748 0.196524
Si Si4 0.807965 0.779550 0.567327
Si Si5 0.455169 0.207106 0.183685
Si Si6 0.625870 0.451802 0.442841
Si Si7 0.367791 0.599400 0.848899
Si Si8 0.216103 0.446059 0.637343
O O1 0.751886 0.721331 0.082633
O O2 0.827638 0.219811 0.166169
O O3 0.084658 0.359012 0.308166
O O4 0.093222 0.142985 0.166696
O O5 0.017546 0.739523 0.125260
O O6 0.715481 0.835732 0.916996
O O7 0.594933 0.292717 0.974138
O O8 0.333828 0.576599 0.167969
O O9 0.379362 0.595152 0.333926
O O10 0.632550 0.719602 0.490447
O O11 0.967930 0.585194 0.554279
O O12 0.727147 0.140586 0.532418
O O13 0.603655 0.151895 0.170987
O O14 0.610710 0.946091 0.310575
O O15 0.753284 0.368901 0.412136
O O16 0.287882 0.483601 0.749562
#
# Coordination Sequence:
#
# PCOD8025369 Si02
#       8
#     2   2   2   2   2   2   2   2
#     4  11  28  47  74 108 156 198 255 310 387 455
#     4  11  26  45  74 108 150 201 254 310 385 451
#     4  12  28  45  75 107 157 198 249 315 384 464
#     4  11  28  47  80 111 151 204 262 315 375 446
#     4  11  24  47  78 113 149 192 254 316 387 454
#     4  12  26  48  76 113 154 203 256 316 382 444
#     4  10  23  47  76 110 144 195 252 320 373 466
#     4  10  23  44  78 112 150 188 255 321 380 447
#
# _framework density 27.737207000000001
#
# number of rings (size 3 to 8) (size 9 to 14) (size 15 to 20)
#    0.000    1.000    1.250    3.000    8.750    7.000 
#    0.000    0.000    0.000    0.000    0.000    0.000 
#    0.000    0.000    0.000    0.000    0.000    0.000 
#
# Total GULP energy -198268.029699 kJ/mol
# GULP energy per Si atom -12391.751856 kJ/mol
# Density = 2.767408 g / cm^3
# Si number density = 27.737207 Si / 1000 Ang^3
#
#
#
# Elastic Constant Matrix: (Units=GPa)
#
#
# Indices 1 2 3 4 5 6 
#
# 1 56.1175 10.0796 21.6616 -2.2978 21.2432 16.8145
# 2 10.0796 90.7720 20.5352 -5.7737 1.2521 13.7070
# 3 21.6616 20.5352 78.4930 -5.1491 2.0088 15.3483
# 4 -2.2978 -5.7737 -5.1491 38.1598 14.7101 -1.4962
# 5 21.2432 1.2521 2.0088 14.7101 40.4694 -3.0570
# 6 16.8145 13.7070 15.3483 -1.4962 -3.0570 34.9276
#
#
#
# Elastic Compliance Matrix: (Units=1/GPa)
#
#
# Indices 1 2 3 4 5 6 
#
# 1 0.032680 0.000692 -0.005078 0.009021 -0.021355 -0.015255
# 2 0.000692 0.012266 -0.002411 0.002059 -0.001685 -0.004146
# 3 -0.005078 -0.002411 0.015411 0.000715 0.001472 -0.003222
# 4 0.009021 0.002059 0.000715 0.033684 -0.017498 -0.005554
# 5 -0.021355 -0.001685 0.001472 -0.017498 0.043266 0.013332
# 6 -0.015255 -0.004146 -0.003222 -0.005554 0.013332 0.039947
#
#
# Mechanical properties :
#
#
# Convention : Reuss Voigt Hill
#
# Bulk Modulus (GPa) = 21.38481 36.65950 29.02216
# Shear Modulus (GPa) = 24.22060 34.25178 29.23619
#
# Velocity S-wave (km/s) = 2.95823 3.51788 3.25012
# Velocity P-wave (km/s) = 4.40394 5.45400 4.95685
#
# Compressibility (1/GPa) = 0.04676217
#
# Stress axis : x y z
#
# Youngs Moduli (GPa) = 30.59986 81.52940 64.88679
#
# Poissons Ratio (x) = -0.05642 0.32952
# Poissons Ratio (y) = -0.02117 0.15643
# Poissons Ratio (z) = 0.15540 0.19656
#
# Static dielectric constant tensor:
#      x y z
#    x 4.888160 -0.152610 0.272850 
#    y -0.152610 4.898100 0.142460 
#    z 0.272850 0.142460 5.246300 
# 
# 
# High freq. dielectric constant tensor:
#      x y z
#    x 2.106360 0.001140 0.012210 
#    y 0.001140 2.116780 0.020570 
#    z 0.012210 0.020570 2.142910 
# 
# From -- ./inp_files/564473.got.cif
#   From: 2010.06.25/outbox.cif.g09.slc.cpg/sg2_283_cif.got.tgz:564473.got - 2010.06.27 13:26:56.
