data_PCOD8025373
_publ_section_title
;
Structure prediction by ZEFSAII (Michael W. Deem and Ramdas Pophale) SiO2 
 PCOD8025373
Probable space group: P -1
;
_chemical_formula_sum "Si O2"
_cell_formula_units_Z 14
_cell_length_a 20.823677
_cell_length_b 11.224130
_cell_length_c 9.494802
_cell_angle_alpha 139.322506
_cell_angle_beta 151.714041
_cell_angle_gamma 39.662908
_cell_volume 647.005991
_symmetry_space_group_name_H-M "P -1"
_symmetry_group_IT_number 2
_symmetry_cell_setting 'triclinic'
loop_
_space_group_symop_operation_xyz
x,y,z
-x,-y,-z
loop_
_atom_site_type_symbol
_atom_site_label
_atom_site_fract_x
_atom_site_fract_y
_atom_site_fract_z
Si Si1 0.355161 0.097002 0.384966
Si Si2 0.123862 0.895909 0.289815
Si Si3 0.067168 0.281951 0.375752
Si Si4 0.161123 0.903967 0.684000
Si Si5 0.395398 0.140991 0.811344
Si Si6 0.646094 0.503401 0.352348
Si Si7 0.417217 0.615243 0.578540
O O1 0.379441 0.038364 0.543475
O O2 0.305138 0.322450 0.453511
O O3 0.500000 0.000000 0.500000
O O4 0.238474 0.011961 0.028522
O O5 0.180670 0.933767 0.584434
O O6 0.271750 0.779979 0.387304
O O7 0.042266 0.114902 0.276461
O O8 0.018623 0.760655 0.965872
O O9 0.235452 0.245731 0.654108
O O10 0.000000 0.500000 0.500000
O O11 0.225414 0.674324 0.623732
O O12 0.000000 0.000000 0.500000
O O13 0.469577 0.298109 0.053478
O O14 0.500000 0.000000 0.000000
O O15 0.630088 0.504426 0.494778
O O16 0.500000 0.500000 0.000000
O O17 0.500000 0.500000 0.500000
#
# Coordination Sequence:
#
# PCOD8025373 Si02
#       7
#     2   2   2   2   2   2   2
#     4  12  25  43  73  98 135 183 219 278 346 389
#     4  10  23  45  62  96 137 171 223 275 323 408
#     4  11  24  42  67  94 136 178 215 272 342 391
#     4  11  25  44  69  97 134 180 222 278 338 392
#     4  12  25  42  67 102 131 167 231 275 325 409
#     4  11  23  45  66  99 136 169 232 275 323 414
#     4  11  23  41  69  97 132 175 219 280 335 385
#
# _framework density 21.638128999999999
#
# number of rings (size 3 to 8) (size 9 to 14) (size 15 to 20)
#    0.000    0.857    4.286    2.571    2.000    4.000 
#    5.143    0.000    0.000    0.000    0.000    0.000 
#    0.000    0.000    0.000    0.000    0.000    0.000 
#
# Total GULP energy -173453.355726 kJ/mol
# GULP energy per Si atom -12389.525409 kJ/mol
# Density = 2.158888 g / cm^3
# Si number density = 21.638129 Si / 1000 Ang^3
#
#
#
# Elastic Constant Matrix: (Units=GPa)
#
#
# Indices 1 2 3 4 5 6 
#
# 1 96.9044 67.0118 52.1186 -4.5700 -10.4386 -16.3121
# 2 67.0118 168.4982 59.8889 0.1142 -3.4996 -21.2760
# 3 52.1186 59.8889 156.0458 -1.6074 -8.0186 -8.8302
# 4 -4.5700 0.1142 -1.6074 37.1611 -5.3635 9.7271
# 5 -10.4386 -3.4996 -8.0186 -5.3635 44.0970 -8.1032
# 6 -16.3121 -21.2760 -8.8302 9.7271 -8.1032 42.5990
#
#
#
# Elastic Compliance Matrix: (Units=1/GPa)
#
#
# Indices 1 2 3 4 5 6 
#
# 1 0.016521 -0.004893 -0.003227 0.001514 0.003779 0.003587
# 2 -0.004893 0.008752 -0.001629 -0.001394 -0.000491 0.002385
# 3 -0.003227 -0.001629 0.008124 0.000113 0.000545 -0.000288
# 4 0.001514 -0.001394 0.000113 0.029122 0.002665 -0.006236
# 5 0.003779 -0.000491 0.000545 0.002665 0.024958 0.005454
# 6 0.003587 0.002385 -0.000288 -0.006236 0.005454 0.028441
#
#
# Mechanical properties :
#
#
# Convention : Reuss Voigt Hill
#
# Bulk Modulus (GPa) = 71.95272 86.60968 79.28120
# Shear Modulus (GPa) = 35.70150 40.93335 38.31743
#
# Velocity S-wave (km/s) = 4.06635 4.35411 4.21269
# Velocity P-wave (km/s) = 7.44122 8.08647 7.77055
#
# Compressibility (1/GPa) = 0.01389801
#
# Stress axis : x y z
#
# Youngs Moduli (GPa) = 60.52880 114.26439 123.08497
#
# Poissons Ratio (x) = 0.55910 0.39724
# Poissons Ratio (y) = 0.29617 0.20053
# Poissons Ratio (z) = 0.19535 0.18616
#
# Static dielectric constant tensor:
#      x y z
#    x 3.883780 -0.061840 0.097780 
#    y -0.061840 4.136100 -0.241100 
#    z 0.097780 -0.241100 4.297550 
# 
# 
# High freq. dielectric constant tensor:
#      x y z
#    x 1.837330 -0.008690 -0.001200 
#    y -0.008690 1.857950 -0.009900 
#    z -0.001200 -0.009900 1.870670 
# 
# From -- ./inp_files/345774.got.cif
#   From: 2010.06.25/outbox.cif.g09.slc.cpg/sg2_173_cif.got.tgz:345774.got - 2010.06.27 13:26:56.
