data_PCOD8025372
_publ_section_title
;
Structure prediction by ZEFSAII (Michael W. Deem and Ramdas Pophale) SiO2 
 PCOD8025372
Probable space group: P -1
;
_chemical_formula_sum "Si O2"
_cell_formula_units_Z 14
_cell_length_a 9.499902
_cell_length_b 8.580666
_cell_length_c 18.002390
_cell_angle_alpha 57.435532
_cell_angle_beta 34.888982
_cell_angle_gamma 49.314579
_cell_volume 636.479250
_symmetry_space_group_name_H-M "P -1"
_symmetry_group_IT_number 2
_symmetry_cell_setting 'triclinic'
loop_
_space_group_symop_operation_xyz
x,y,z
-x,-y,-z
loop_
_atom_site_type_symbol
_atom_site_label
_atom_site_fract_x
_atom_site_fract_y
_atom_site_fract_z
Si Si1 0.539665 0.547619 0.387617
Si Si2 0.932115 0.209300 0.766352
Si Si3 0.934640 0.832830 0.775064
Si Si4 0.850548 0.819628 0.163236
Si Si5 0.019791 0.539802 0.566755
Si Si6 0.610671 0.795609 0.797135
Si Si7 0.354273 0.423187 0.016029
O O1 0.500000 0.500000 0.500000
O O2 0.756508 0.338535 0.311092
O O3 0.636830 0.726297 0.295919
O O4 0.253591 0.617781 0.451250
O O5 0.103501 0.322348 0.628314
O O6 0.058693 0.115919 0.815193
O O7 0.618186 0.380865 0.863736
O O8 0.933207 0.035167 0.756932
O O9 0.812785 0.872619 0.732953
O O10 0.752414 0.743852 0.922937
O O11 0.116432 0.653931 0.047267
O O12 0.694721 0.022436 0.128335
O O13 0.742071 0.707599 0.682499
O O14 0.000000 0.500000 0.500000
O O15 0.583624 0.621374 0.908552
#
# Coordination Sequence:
#
# PCOD8025372 Si02
#       7
#     2   2   2   2   2   2   2
#     4  11  20  46  62  85 136 175 210 257 321 374
#     4  12  22  42  67  96 127 173 210 264 319 375
#     4   9  22  40  66  95 126 166 212 260 322 374
#     4  11  23  39  72  94 122 175 211 258 329 367
#     4  12  27  41  62  96 134 166 216 270 304 381
#     4  10  23  45  62 100 124 169 211 260 327 373
#     4   9  21  46  67  90 136 162 210 265 324 378
#
# _framework density 21.996002000000001
#
# number of rings (size 3 to 8) (size 9 to 14) (size 15 to 20)
#    0.857    0.571    4.286    0.857    4.000    2.857 
#    0.000    0.714    0.000    0.000    0.000    0.000 
#    0.000    0.000    0.000    0.000    0.000    0.000 
#
# Total GULP energy -173530.340556 kJ/mol
# GULP energy per Si atom -12395.024325 kJ/mol
# Density = 2.194594 g / cm^3
# Si number density = 21.996002 Si / 1000 Ang^3
#
#
#
# Elastic Constant Matrix: (Units=GPa)
#
#
# Indices 1 2 3 4 5 6 
#
# 1 88.7802 36.8692 21.5143 8.9628 0.5058 6.1698
# 2 36.8692 116.4969 21.7947 9.4299 -0.0213 -3.4824
# 3 21.5143 21.7947 83.8387 6.9927 -5.5202 -1.4650
# 4 8.9628 9.4299 6.9927 28.1272 -0.3199 -4.2477
# 5 0.5058 -0.0213 -5.5202 -0.3199 27.9738 5.0943
# 6 6.1698 -3.4824 -1.4650 -4.2477 5.0943 47.1310
#
#
#
# Elastic Compliance Matrix: (Units=1/GPa)
#
#
# Indices 1 2 3 4 5 6 
#
# 1 0.013878 -0.003778 -0.002398 -0.002925 -0.000324 -0.002399
# 2 -0.003778 0.010241 -0.001563 -0.001680 -0.000452 0.001100
# 3 -0.002398 -0.001563 0.013288 -0.001963 0.002614 0.000152
# 4 -0.002925 -0.001680 -0.001963 0.038087 -0.000573 0.003692
# 5 -0.000324 -0.000452 0.002614 -0.000573 0.036983 -0.003959
# 6 -0.002399 0.001100 0.000152 0.003692 -0.003959 0.022378
#
#
# Mechanical properties :
#
#
# Convention : Reuss Voigt Hill
#
# Bulk Modulus (GPa) = 45.60538 49.94133 47.77336
# Shear Modulus (GPa) = 31.71699 34.57558 33.14629
#
# Velocity S-wave (km/s) = 3.80141 3.96902 3.88612
# Velocity P-wave (km/s) = 6.32820 6.61500 6.47319
#
# Compressibility (1/GPa) = 0.02192724
#
# Stress axis : x y z
#
# Youngs Moduli (GPa) = 72.05659 97.64746 75.25636
#
# Poissons Ratio (x) = 0.36895 0.18049
# Poissons Ratio (y) = 0.27226 0.11763
# Poissons Ratio (z) = 0.17281 0.15263
#
# Static dielectric constant tensor:
#      x y z
#    x 3.874530 0.255840 -0.221090 
#    y 0.255840 3.981110 -0.087870 
#    z -0.221090 -0.087870 3.863520 
# 
# 
# High freq. dielectric constant tensor:
#      x y z
#    x 1.857770 0.017840 -0.026160 
#    y 0.017840 1.861460 -0.000510 
#    z -0.026160 -0.000510 1.869690 
# 
# From -- ./inp_files/556023.got.cif
#   From: 2010.06.25/outbox.cif.g09.slc.cpg/sg2_279_cif.got.tgz:556023.got - 2010.06.27 13:26:56.
