data_PCOD8025560
_publ_section_title
;
Structure prediction by ZEFSAII (Michael W. Deem and Ramdas Pophale) SiO2 
 PCOD8025560
Probable space group: P -1
;
_chemical_formula_sum "Si O2"
_cell_formula_units_Z 14
_cell_length_a 19.031477
_cell_length_b 9.555156
_cell_length_c 9.802475
_cell_angle_alpha 127.320537
_cell_angle_beta 152.216471
_cell_angle_gamma 63.121307
_cell_volume 643.484773
_symmetry_space_group_name_H-M "P -1"
_symmetry_group_IT_number 2
_symmetry_cell_setting 'triclinic'
loop_
_space_group_symop_operation_xyz
x,y,z
-x,-y,-z
loop_
_atom_site_type_symbol
_atom_site_label
_atom_site_fract_x
_atom_site_fract_y
_atom_site_fract_z
Si Si1 0.374131 0.045352 0.213736
Si Si2 0.925914 0.895920 0.180133
Si Si3 0.743331 0.253507 0.582746
Si Si4 0.978828 0.583436 0.663216
Si Si5 0.158280 0.689830 0.507466
Si Si6 0.150303 0.110346 0.489669
Si Si7 0.453902 0.294103 0.258789
O O1 0.500000 0.000000 0.500000
O O2 0.474459 0.179289 0.358057
O O3 0.269258 0.873115 0.858894
O O4 0.260264 0.145144 0.162498
O O5 0.987883 0.712207 0.178739
O O6 0.000000 0.000000 0.500000
O O7 0.990556 0.023302 0.239607
O O8 0.767885 0.351101 0.533808
O O9 0.565298 0.246402 0.305678
O O10 0.772378 0.050527 0.523179
O O11 0.852489 0.373322 0.953652
O O12 0.860082 0.452056 0.484227
O O13 0.905557 0.761014 0.641417
O O14 0.000000 0.500000 0.500000
O O15 0.274879 0.243275 0.876271
O O16 0.500000 0.500000 0.500000
#
# Coordination Sequence:
#
# PCOD8025560 Si02
#       7
#     2   2   2   2   2   2   2
#     4  11  24  40  67 102 139 178 228 281 345 404
#     4   9  17  39  65  89 132 181 220 270 339 404
#     4  11  25  47  69  94 144 185 222 280 355 409
#     4  12  25  41  73 108 135 167 243 286 326 407
#     4  10  23  45  69  96 137 186 223 279 342 407
#     4  11  23  44  67 100 134 186 225 280 343 403
#     4  12  26  43  69 100 139 183 229 282 347 405
#
# _framework density 21.756536000000001
#
# number of rings (size 3 to 8) (size 9 to 14) (size 15 to 20)
#    0.000    1.143    4.286    3.857    8.000    0.000 
#    0.000    0.714    0.000    0.000    0.000    0.000 
#    0.000    0.000    0.000    0.000    0.000    0.000 
#
# Total GULP energy -173489.474075 kJ/mol
# GULP energy per Si atom -12392.105291 kJ/mol
# Density = 2.170702 g / cm^3
# Si number density = 21.756536 Si / 1000 Ang^3
#
#
#
# Elastic Constant Matrix: (Units=GPa)
#
#
# Indices 1 2 3 4 5 6 
#
# 1 158.7520 66.3581 30.4925 -9.1856 18.2601 16.4506
# 2 66.3581 117.0079 12.6597 -0.8135 6.7708 32.5002
# 3 30.4925 12.6597 72.9002 -10.6593 -5.7880 5.6088
# 4 -9.1856 -0.8135 -10.6593 38.9002 -5.6845 0.6625
# 5 18.2601 6.7708 -5.7880 -5.6845 29.1388 -4.9149
# 6 16.4506 32.5002 5.6088 0.6625 -4.9149 40.2228
#
#
#
# Elastic Compliance Matrix: (Units=1/GPa)
#
#
# Indices 1 2 3 4 5 6 
#
# 1 0.009644 -0.004641 -0.003593 0.000373 -0.005672 -0.000393
# 2 -0.004641 0.013981 -0.000060 -0.000972 -0.002168 -0.009639
# 3 -0.003593 -0.000060 0.016415 0.004586 0.006410 -0.000063
# 4 0.000373 -0.000972 0.004586 0.027963 0.006411 0.000316
# 5 -0.005672 -0.002168 0.006410 0.006411 0.042291 0.008240
# 6 -0.000393 -0.009639 -0.000063 0.000316 0.008240 0.033821
#
#
# Mechanical properties :
#
#
# Convention : Reuss Voigt Hill
#
# Bulk Modulus (GPa) = 42.63910 63.07563 52.85736
# Shear Modulus (GPa) = 29.67025 37.59568 33.63297
#
# Velocity S-wave (km/s) = 3.69689 4.16145 3.93603
# Velocity P-wave (km/s) = 6.15333 7.22113 6.70851
#
# Compressibility (1/GPa) = 0.02345265
#
# Stress axis : x y z
#
# Youngs Moduli (GPa) = 103.69308 71.52720 60.91924
#
# Poissons Ratio (x) = 0.33192 0.21891
# Poissons Ratio (y) = 0.48119 0.00363
# Poissons Ratio (z) = 0.37262 0.00426
#
# Static dielectric constant tensor:
#      x y z
#    x 1.787160 2.122680 -3.268900 
#    y 2.122680 2.456730 2.591580 
#    z -3.268900 2.591580 -0.337410 
# 
# 
# High freq. dielectric constant tensor:
#      x y z
#    x 1.860510 0.007470 0.005830 
#    y 0.007470 1.857470 0.002970 
#    z 0.005830 0.002970 1.848390 
# 
# From -- ./inp_files/329506.got.cif
#   From: 2010.06.25/outbox.cif.g09.slc.cpg/sg2_165_cif.got.tgz:329506.got - 2010.06.27 13:26:56.
