data_PCOD8025261
_publ_section_title
;
Structure prediction by ZEFSAII (Michael W. Deem and Ramdas Pophale) SiO2 
 PCOD8025261
Probable space group: P -1
;
_chemical_formula_sum "Si O2"
_cell_formula_units_Z 14
_cell_length_a 16.660877
_cell_length_b 9.703361
_cell_length_c 11.024992
_cell_angle_alpha 78.977852
_cell_angle_beta 146.513423
_cell_angle_gamma 124.323927
_cell_volume 641.996206
_symmetry_space_group_name_H-M "P -1"
_symmetry_group_IT_number 2
_symmetry_cell_setting 'triclinic'
loop_
_space_group_symop_operation_xyz
x,y,z
-x,-y,-z
loop_
_atom_site_type_symbol
_atom_site_label
_atom_site_fract_x
_atom_site_fract_y
_atom_site_fract_z
Si Si1 0.133690 0.444004 0.890445
Si Si2 0.148733 0.036011 0.378054
Si Si3 0.559797 0.702010 0.521026
Si Si4 0.570352 0.389288 0.975307
Si Si5 0.543142 0.373706 0.223123
Si Si6 0.794548 0.998542 0.990681
Si Si7 0.969472 0.554884 0.823790
O O1 0.970566 0.448476 0.728523
O O2 0.344594 0.619855 0.211283
O O3 0.216362 0.515798 0.843087
O O4 0.016542 0.211622 0.801345
O O5 0.234610 0.136080 0.336519
O O6 0.350933 0.144742 0.704419
O O7 0.022184 0.078680 0.265484
O O8 0.500000 0.500000 0.500000
O O9 0.625425 0.823050 0.706870
O O10 0.526934 0.517351 0.854112
O O11 0.621533 0.414943 0.176637
O O12 0.332391 0.121835 0.022387
O O13 0.738437 0.468580 0.542618
O O14 0.836426 0.192989 0.991927
O O15 0.000000 0.500000 0.000000
#
# Coordination Sequence:
#
# PCOD8025261 Si02
#       7
#     2   2   2   2   2   2   2
#     4  11  24  42  64  97 134 172 215 274 326 384
#     4  11  21  39  68  97 122 173 224 266 322 387
#     4  11  22  35  65  97 128 164 222 272 313 384
#     4  10  23  44  71  98 128 168 231 275 313 386
#     4  11  24  44  68 100 131 170 222 278 320 384
#     4  12  23  40  67  97 130 177 217 264 331 390
#     4  12  28  43  64  98 142 172 210 271 341 389
#
# _framework density 21.806984
#
# number of rings (size 3 to 8) (size 9 to 14) (size 15 to 20)
#    0.000    0.857    4.286    3.000    2.000    6.857 
#    0.000    1.429    0.000    0.000    0.000    0.000 
#    0.000    0.000    0.000    0.000    0.000    0.000 
#
# Total GULP energy -173626.523926 kJ/mol
# GULP energy per Si atom -12401.894566 kJ/mol
# Density = 2.175735 g / cm^3
# Si number density = 21.806984 Si / 1000 Ang^3
#
#
#
# Elastic Constant Matrix: (Units=GPa)
#
#
# Indices 1 2 3 4 5 6 
#
# 1 108.9510 45.0767 13.7596 5.3237 8.5819 7.0434
# 2 45.0767 121.9638 31.5811 14.2064 8.1695 7.8540
# 3 13.7596 31.5811 68.1014 5.3288 4.5762 13.5189
# 4 5.3237 14.2064 5.3288 33.2793 4.5341 4.2970
# 5 8.5819 8.1695 4.5762 4.5341 27.7395 4.4816
# 6 7.0434 7.8540 13.5189 4.2970 4.4816 34.8450
#
#
#
# Elastic Compliance Matrix: (Units=1/GPa)
#
#
# Indices 1 2 3 4 5 6 
#
# 1 0.011014 -0.003872 -0.000098 0.000337 -0.002131 -0.001083
# 2 -0.003872 0.011131 -0.004135 -0.003400 -0.000909 0.000414
# 3 -0.000098 -0.004135 0.017849 -0.000224 -0.000714 -0.005854
# 4 0.000337 -0.003400 -0.000224 0.032365 -0.003920 -0.002702
# 5 -0.002131 -0.000909 -0.000714 -0.003920 0.038306 -0.003531
# 6 -0.001083 0.000414 -0.005854 -0.002702 -0.003531 0.031882
#
#
# Mechanical properties :
#
#
# Convention : Reuss Voigt Hill
#
# Bulk Modulus (GPa) = 42.04376 53.31677 47.68027
# Shear Modulus (GPa) = 29.99674 33.07934 31.53804
#
# Velocity S-wave (km/s) = 3.71287 3.89898 3.80707
# Velocity P-wave (km/s) = 6.14023 6.69118 6.42162
#
# Compressibility (1/GPa) = 0.02378474
#
# Stress axis : x y z
#
# Youngs Moduli (GPa) = 90.79134 89.83798 56.02652
#
# Poissons Ratio (x) = 0.34787 0.00548
# Poissons Ratio (y) = 0.35156 0.23165
# Poissons Ratio (z) = 0.00889 0.37145
#
# Static dielectric constant tensor:
#      x y z
#    x 3.974510 0.159950 0.160670 
#    y 0.159950 3.652990 0.094620 
#    z 0.160670 0.094620 3.885230 
# 
# 
# High freq. dielectric constant tensor:
#      x y z
#    x 1.864290 0.010490 0.008400 
#    y 0.010490 1.851430 0.018390 
#    z 0.008400 0.018390 1.854380 
# 
# From -- ./inp_files/26864.got.cif
#   From: 2010.06.25/outbox.cif.g09.slc.cpg/sg2_14_cif.got.tgz:26864.got - 2010.06.27 13:26:56.
