data_PCOD8025075
_publ_section_title
;
Structure prediction by ZEFSAII (Michael W. Deem and Ramdas Pophale) SiO2 
 PCOD8025075
Probable space group: P -1
;
_chemical_formula_sum "Si O2"
_cell_formula_units_Z 14
_cell_length_a 11.062796
_cell_length_b 9.271072
_cell_length_c 11.359014
_cell_angle_alpha 41.053380
_cell_angle_beta 52.093429
_cell_angle_gamma 63.437418
_cell_volume 603.417052
_symmetry_space_group_name_H-M "P -1"
_symmetry_group_IT_number 2
_symmetry_cell_setting 'triclinic'
loop_
_space_group_symop_operation_xyz
x,y,z
-x,-y,-z
loop_
_atom_site_type_symbol
_atom_site_label
_atom_site_fract_x
_atom_site_fract_y
_atom_site_fract_z
Si Si1 0.637913 0.764665 0.658665
Si Si2 0.676505 0.973692 0.939270
Si Si3 0.801757 0.794481 0.192351
Si Si4 0.178002 0.544971 0.403678
Si Si5 0.317447 0.877286 0.772592
Si Si6 0.148591 0.153652 0.315206
Si Si7 0.938089 0.404418 0.974487
O O1 0.714587 0.536673 0.717529
O O2 0.460773 0.741568 0.823305
O O3 0.738831 0.897485 0.613199
O O4 0.624306 0.904567 0.462243
O O5 0.775857 0.200307 0.761778
O O6 0.758803 0.853718 0.856782
O O7 0.500000 0.000000 0.000000
O O8 0.675017 0.810817 0.153842
O O9 0.781262 0.586366 0.419713
O O10 0.957911 0.775542 0.037466
O O11 0.794904 0.032458 0.113884
O O12 0.000000 0.500000 0.500000
O O13 0.225920 0.718718 0.834215
O O14 0.085066 0.395917 0.224138
O O15 0.000000 0.000000 0.500000
O O16 0.000000 0.500000 0.000000
#
# Coordination Sequence:
#
# PCOD8025075 Si02
#       7
#     2   2   2   2   2   2   2
#     4  10  23  44  68  97 135 181 226 287 344 417
#     4  12  28  46  71 107 143 187 238 297 358 420
#     4  11  25  46  70 102 141 182 234 294 346 423
#     4  11  26  45  74 105 139 187 239 288 356 428
#     4  10  24  42  68  99 134 176 229 283 351 411
#     4  12  25  45  67  99 143 181 232 288 352 423
#     4  12  24  40  67  98 131 178 223 281 345 415
#
# _framework density 23.2012
#
# number of rings (size 3 to 8) (size 9 to 14) (size 15 to 20)
#    0.000    0.857    1.429    4.714   10.000    1.143 
#    0.000    0.000    0.000    0.000    0.000    0.000 
#    0.000    0.000    0.000    0.000    0.000    0.000 
#
# Total GULP energy -173481.752852 kJ/mol
# GULP energy per Si atom -12391.553775 kJ/mol
# Density = 2.314839 g / cm^3
# Si number density = 23.201200 Si / 1000 Ang^3
#
#
#
# Elastic Constant Matrix: (Units=GPa)
#
#
# Indices 1 2 3 4 5 6 
#
# 1 178.5543 68.5233 42.1871 10.6302 -6.3638 -10.5912
# 2 68.5233 153.1840 20.1308 10.1701 -11.4618 -14.7085
# 3 42.1871 20.1308 51.1132 4.7312 2.4605 -9.1854
# 4 10.6302 10.1701 4.7312 27.4950 2.6644 7.3003
# 5 -6.3638 -11.4618 2.4605 2.6644 47.9842 2.6635
# 6 -10.5912 -14.7085 -9.1854 7.3003 2.6635 36.8221
#
#
#
# Elastic Compliance Matrix: (Units=1/GPa)
#
#
# Indices 1 2 3 4 5 6 
#
# 1 0.008049 -0.002737 -0.005479 -0.001243 0.000761 0.000047
# 2 -0.002737 0.008397 -0.000327 -0.002935 0.001659 0.002947
# 3 -0.005479 -0.000327 0.025633 -0.003423 -0.002236 0.005528
# 4 -0.001243 -0.002935 -0.003423 0.041533 -0.002417 -0.010443
# 5 0.000761 0.001659 -0.002236 -0.002417 0.021629 -0.000761
# 6 0.000047 0.002947 0.005528 -0.010443 -0.000761 0.031853
#
#
# Mechanical properties :
#
#
# Convention : Reuss Voigt Hill
#
# Bulk Modulus (GPa) = 40.00874 71.61487 55.81180
# Shear Modulus (GPa) = 30.76733 39.26095 35.01414
#
# Velocity S-wave (km/s) = 3.64553 4.11809 3.88900
# Velocity P-wave (km/s) = 5.91621 7.31748 6.65383
#
# Compressibility (1/GPa) = 0.02499454
#
# Stress axis : x y z
#
# Youngs Moduli (GPa) = 124.23637 119.08669 39.01197
#
# Poissons Ratio (x) = 0.32590 0.21374
# Poissons Ratio (y) = 0.33999 0.01276
# Poissons Ratio (z) = 0.68068 0.03894
#
# Static dielectric constant tensor:
#      x y z
#    x 4.747520 -0.599850 -0.029300 
#    y -0.599850 5.524390 0.398520 
#    z -0.029300 0.398520 4.088840 
# 
# 
# High freq. dielectric constant tensor:
#      x y z
#    x 1.932380 -0.010270 0.013140 
#    y -0.010270 1.936660 0.004520 
#    z 0.013140 0.004520 1.897760 
# 
# From -- ./inp_files/262858.got.cif
#   From: 2010.06.25/outbox.cif.g09.slc.cpg/sg2_132_cif.got.tgz:262858.got - 2010.06.27 13:26:56.
