data_PCOD8025046
_publ_section_title
;
Structure prediction by ZEFSAII (Michael W. Deem and Ramdas Pophale) SiO2 
 PCOD8025046
Probable space group: P -1
;
_chemical_formula_sum "Si O2"
_cell_formula_units_Z 12
_cell_length_a 17.768416
_cell_length_b 9.738265
_cell_length_c 20.443897
_cell_angle_alpha 142.415120
_cell_angle_beta 13.101158
_cell_angle_gamma 144.236183
_cell_volume 468.573023
_symmetry_space_group_name_H-M "P -1"
_symmetry_group_IT_number 2
_symmetry_cell_setting 'triclinic'
loop_
_space_group_symop_operation_xyz
x,y,z
-x,-y,-z
loop_
_atom_site_type_symbol
_atom_site_label
_atom_site_fract_x
_atom_site_fract_y
_atom_site_fract_z
Si Si1 0.184116 0.836519 0.746957
Si Si2 0.295329 0.975450 0.096628
Si Si3 0.145354 0.301774 0.151262
Si Si4 0.897235 0.535522 0.198661
Si Si5 0.821120 0.775372 0.234899
Si Si6 0.759840 0.239156 0.686122
O O1 0.377543 0.685605 0.575864
O O2 0.902179 0.659955 0.872211
O O3 0.500000 0.000000 0.500000
O O4 0.000000 0.000000 0.000000
O O5 0.070812 0.702370 0.175398
O O6 0.040326 0.138495 0.375942
O O7 0.500000 0.000000 0.000000
O O8 0.556162 0.065627 0.849572
O O9 0.044961 0.508846 0.352257
O O10 0.525371 0.288177 0.843736
O O11 0.876461 0.051031 0.300019
O O12 0.500000 0.500000 0.500000
O O13 0.051200 0.702346 0.067935
O O14 0.051845 0.309242 0.973934
#
# Coordination Sequence:
#
# PCOD8025046 Si02
#       6
#     2   2   2   2   2   2
#     4  10  24  39  67 100 138 179 224 293 349 416
#     4  12  28  49  74 104 147 187 246 293 357 427
#     4  10  23  46  71 103 145 181 240 290 361 423
#     4  11  25  43  75 101 141 195 238 298 354 428
#     4  10  23  44  68 102 141 181 240 295 359 418
#     4  11  26  46  75 102 140 196 231 295 357 433
#
# _framework density 25.609670999999999
#
# number of rings (size 3 to 8) (size 9 to 14) (size 15 to 20)
#    0.000    1.333    1.667    1.500   11.667    6.667 
#    0.000    0.000    0.000    0.000    0.000    0.000 
#    0.000    0.000    0.000    0.000    0.000    0.000 
#
# Total GULP energy -148656.811802 kJ/mol
# GULP energy per Si atom -12388.067650 kJ/mol
# Density = 2.555138 g / cm^3
# Si number density = 25.609671 Si / 1000 Ang^3
#
#
#
# Elastic Constant Matrix: (Units=GPa)
#
#
# Indices 1 2 3 4 5 6 
#
# 1 153.9432 37.7913 31.6122 1.5728 -42.0828 22.9884
# 2 37.7913 148.2811 28.9076 -4.6314 -0.8628 39.5027
# 3 31.6122 28.9076 129.5060 15.6244 -0.9272 20.5577
# 4 1.5728 -4.6314 15.6244 26.0542 6.0802 -1.9282
# 5 -42.0828 -0.8628 -0.9272 6.0802 37.1457 -2.7395
# 6 22.9884 39.5027 20.5577 -1.9282 -2.7395 57.2807
#
#
#
# Elastic Compliance Matrix: (Units=1/GPa)
#
#
# Indices 1 2 3 4 5 6 
#
# 1 0.011188 -0.002053 -0.001451 -0.003353 0.012990 -0.002045
# 2 -0.002053 0.008855 -0.001026 0.002632 -0.002943 -0.004967
# 3 -0.001451 -0.001026 0.009354 -0.005718 -0.000667 -0.002292
# 4 -0.003353 0.002632 -0.005718 0.045262 -0.011099 0.002575
# 5 0.012990 -0.002943 -0.000667 -0.011099 0.043277 -0.001248
# 6 -0.002045 -0.004967 -0.002292 0.002575 -0.001248 0.022554
#
#
# Mechanical properties :
#
#
# Convention : Reuss Voigt Hill
#
# Bulk Modulus (GPa) = 49.16673 69.81695 59.49184
# Shear Modulus (GPa) = 31.98408 46.32407 39.15407
#
# Velocity S-wave (km/s) = 3.53782 4.25767 3.91433
# Velocity P-wave (km/s) = 5.99403 7.17576 6.61135
#
# Compressibility (1/GPa) = 0.02033896
#
# Stress axis : x y z
#
# Youngs Moduli (GPa) = 89.37871 112.92430 106.91105
#
# Poissons Ratio (x) = 0.23182 0.15508
# Poissons Ratio (y) = 0.18349 0.10966
# Poissons Ratio (z) = 0.12965 0.11583
#
# Static dielectric constant tensor:
#      x y z
#    x 4.465980 -0.038720 0.909950 
#    y -0.038720 5.300470 -0.524140 
#    z 0.909950 -0.524140 4.059060 
# 
# 
# High freq. dielectric constant tensor:
#      x y z
#    x 2.058750 -0.003410 -0.010570 
#    y -0.003410 2.034390 0.003960 
#    z -0.010570 0.003960 2.023180 
# 
# From -- ./inp_files/229939.got.cif
#   From: 2010.06.25/outbox.cif.g09.slc.cpg/sg2_115_cif.got.tgz:229939.got - 2010.06.27 13:26:56.
