data_PCOD8025531
_publ_section_title
;
Structure prediction by ZEFSAII (Michael W. Deem and Ramdas Pophale) SiO2 
 PCOD8025531
Probable space group: P -1
;
_chemical_formula_sum "Si O2"
_cell_formula_units_Z 14
_cell_length_a 8.908735
_cell_length_b 17.813387
_cell_length_c 5.461263
_cell_angle_alpha 72.058432
_cell_angle_beta 124.769350
_cell_angle_gamma 125.647802
_cell_volume 578.143500
_symmetry_space_group_name_H-M "P -1"
_symmetry_group_IT_number 2
_symmetry_cell_setting 'triclinic'
loop_
_space_group_symop_operation_xyz
x,y,z
-x,-y,-z
loop_
_atom_site_type_symbol
_atom_site_label
_atom_site_fract_x
_atom_site_fract_y
_atom_site_fract_z
Si Si1 0.329740 0.303891 0.691388
Si Si2 0.120152 0.421562 0.377119
Si Si3 0.744151 0.383321 0.756083
Si Si4 0.798313 0.269257 0.579305
Si Si5 0.413045 0.920334 0.698579
Si Si6 0.159370 0.967822 0.762330
Si Si7 0.891648 0.785940 0.918463
O O1 0.282490 0.385904 0.534667
O O2 0.586661 0.351040 0.878141
O O3 0.243430 0.240896 0.430432
O O4 0.242550 0.247282 0.919776
O O5 0.254845 0.530589 0.462643
O O6 0.944625 0.361653 0.472862
O O7 0.987786 0.413125 0.016347
O O8 0.650362 0.293901 0.579091
O O9 0.655923 0.179473 0.371616
O O10 0.950187 0.252597 0.914551
O O11 0.208647 0.913375 0.651885
O O12 0.500000 0.000000 0.500000
O O13 0.609915 0.944356 0.038952
O O14 0.042145 0.897762 0.951250
O O15 0.000000 0.000000 0.500000
#
# Coordination Sequence:
#
# PCOD8025531 Si02
#       7
#     2   2   2   2   2   2   2
#     4  11  25  46  72 106 146 194 243 304 365 438
#     4  10  23  45  69 103 144 191 241 306 362 433
#     4  11  24  43  72 105 139 193 247 296 369 442
#     4  11  23  45  72 101 149 190 240 304 373 434
#     4  11  25  47  76 105 145 195 243 308 374 440
#     4  11  26  49  73 108 146 192 251 309 371 448
#     4  11  24  48  72 104 151 193 238 310 370 438
#
# _framework density 24.215440999999998
#
# number of rings (size 3 to 8) (size 9 to 14) (size 15 to 20)
#    0.000    1.143    2.857    2.571    2.000    2.857 
#    2.571    2.143    0.000    0.000    0.000    0.000 
#    0.000    0.000    0.000    0.000    0.000    0.000 
#
# Total GULP energy -173537.826346 kJ/mol
# GULP energy per Si atom -12395.559025 kJ/mol
# Density = 2.416033 g / cm^3
# Si number density = 24.215441 Si / 1000 Ang^3
#
#
#
# Elastic Constant Matrix: (Units=GPa)
#
#
# Indices 1 2 3 4 5 6 
#
# 1 169.0010 94.7020 46.4196 -3.0405 -1.4152 -7.3234
# 2 94.7020 151.5934 37.9207 -16.9266 -13.1407 1.9891
# 3 46.4196 37.9207 81.4942 -2.2446 -10.1450 -0.6124
# 4 -3.0405 -16.9266 -2.2446 35.7818 7.9416 -12.3039
# 5 -1.4152 -13.1407 -10.1450 7.9416 34.0047 1.1837
# 6 -7.3234 1.9891 -0.6124 -12.3039 1.1837 27.1307
#
#
#
# Elastic Compliance Matrix: (Units=1/GPa)
#
#
# Indices 1 2 3 4 5 6 
#
# 1 0.010266 -0.005888 -0.003456 -0.000441 -0.002882 0.003050
# 2 -0.005888 0.011327 -0.001466 0.003855 0.002824 -0.000828
# 3 -0.003456 -0.001466 0.015403 -0.001415 0.004261 -0.001305
# 4 -0.000441 0.003855 -0.001415 0.037257 -0.008238 0.016822
# 5 -0.002882 0.002824 0.004261 -0.008238 0.033786 -0.006099
# 6 0.003050 -0.000828 -0.001305 0.016822 -0.006099 0.045608
#
#
# Mechanical properties :
#
#
# Convention : Reuss Voigt Hill
#
# Bulk Modulus (GPa) = 65.02956 84.46368 74.74662
# Shear Modulus (GPa) = 27.71739 34.25319 30.98529
#
# Velocity S-wave (km/s) = 3.38689 3.76509 3.58098
# Velocity P-wave (km/s) = 6.49673 7.33873 6.93053
#
# Compressibility (1/GPa) = 0.01537762
#
# Stress axis : x y z
#
# Youngs Moduli (GPa) = 97.41138 88.28116 64.92283
#
# Poissons Ratio (x) = 0.51978 0.22436
# Poissons Ratio (y) = 0.57354 0.09516
# Poissons Ratio (z) = 0.33663 0.12939
#
# Static dielectric constant tensor:
#      x y z
#    x 4.463490 0.010650 0.294320 
#    y 0.010650 4.558600 -0.219120 
#    z 0.294320 -0.219120 5.382990 
# 
# 
# High freq. dielectric constant tensor:
#      x y z
#    x 1.964890 0.002130 0.005820 
#    y 0.002130 1.969190 -0.008030 
#    z 0.005820 -0.008030 1.953910 
# 
# From -- ./inp_files/47215.got.cif
#   From: 2010.06.25/outbox.cif.g09.slc.cpg/sg2_24_cif.got.tgz:47215.got - 2010.06.27 13:26:56.
