data_PCOD8025981
_publ_section_title
;
Structure prediction by ZEFSAII (Michael W. Deem and Ramdas Pophale) SiO2 
 PCOD8025981
Probable space group: P -1
;
_chemical_formula_sum "Si O2"
_cell_formula_units_Z 16
_cell_length_a 15.536797
_cell_length_b 8.578491
_cell_length_c 14.797967
_cell_angle_alpha 88.192251
_cell_angle_beta 151.019230
_cell_angle_gamma 110.106657
_cell_volume 723.481329
_symmetry_space_group_name_H-M "P -1"
_symmetry_group_IT_number 2
_symmetry_cell_setting 'triclinic'
loop_
_space_group_symop_operation_xyz
x,y,z
-x,-y,-z
loop_
_atom_site_type_symbol
_atom_site_label
_atom_site_fract_x
_atom_site_fract_y
_atom_site_fract_z
Si Si1 0.113681 0.464901 0.875992
Si Si2 0.355445 0.401228 0.981848
Si Si3 0.775047 0.253469 0.868034
Si Si4 0.811978 0.279715 0.227947
Si Si5 0.145097 0.239767 0.617066
Si Si6 0.318407 0.535832 0.358857
Si Si7 0.537146 0.171659 0.150219
Si Si8 0.607809 0.208431 0.424446
O O1 0.110462 0.543122 0.772964
O O2 0.855675 0.270055 0.678045
O O3 0.256303 0.386151 0.990906
O O4 0.241521 0.647437 0.061312
O O5 0.591482 0.638666 0.180426
O O6 0.373026 0.226955 0.986570
O O7 0.167841 0.340337 0.732740
O O8 0.659871 0.291266 0.681974
O O9 0.613438 0.011920 0.738712
O O10 0.039500 0.335395 0.094295
O O11 0.748846 0.308651 0.269817
O O12 0.025713 0.282581 0.433348
O O13 0.593024 0.064090 0.985570
O O14 0.000000 0.000000 0.500000
O O15 0.500000 0.500000 0.500000
O O16 0.386042 0.618797 0.522930
O O17 0.621146 0.230292 0.329049
#
# Coordination Sequence:
#
# PCOD8025981 Si02
#       8
#     2   2   2   2   2   2   2   2
#     4  11  24  41  64  93 133 175 216 270 322 383
#     4  11  24  38  56  90 122 164 224 273 318 376
#     4  10  23  47  69 102 138 166 216 271 330 405
#     4  11  22  41  63  85 133 182 220 265 323 376
#     4  11  22  37  57  83 119 167 226 277 318 372
#     4  10  24  46  76 104 130 170 212 271 340 400
#     4  11  23  39  64  93 127 177 225 266 317 387
#     4  11  23  44  68  97 133 172 216 264 333 390
#
# _framework density 22.115292
#
# number of rings (size 3 to 8) (size 9 to 14) (size 15 to 20)
#    0.000    1.250    2.500    3.375    3.500    3.000 
#    2.250    0.000    0.000    0.000    0.000    0.000 
#    0.000    0.000    0.000    0.000    0.000    0.000 
#
# Total GULP energy -198238.157414 kJ/mol
# GULP energy per Si atom -12389.884838 kJ/mol
# Density = 2.206496 g / cm^3
# Si number density = 22.115292 Si / 1000 Ang^3
#
#
#
# Elastic Constant Matrix: (Units=GPa)
#
#
# Indices 1 2 3 4 5 6 
#
# 1 129.3777 22.0293 41.0198 -2.1845 5.2506 -19.8084
# 2 22.0293 56.8774 22.6287 5.3353 7.6716 1.0817
# 3 41.0198 22.6287 92.1837 9.1666 1.4485 -7.8721
# 4 -2.1845 5.3353 9.1666 32.3866 6.3355 4.5698
# 5 5.2506 7.6716 1.4485 6.3355 36.6409 -8.0886
# 6 -19.8084 1.0817 -7.8721 4.5698 -8.0886 32.5564
#
#
#
# Elastic Compliance Matrix: (Units=1/GPa)
#
#
# Indices 1 2 3 4 5 6 
#
# 1 0.010140 -0.002782 -0.003517 0.001355 0.000198 0.005270
# 2 -0.002782 0.021116 -0.004155 -0.000952 -0.004671 -0.004426
# 3 -0.003517 -0.004155 0.014042 -0.004298 0.002119 0.002523
# 4 0.001355 -0.000952 -0.004298 0.034752 -0.007355 -0.006888
# 5 0.000198 -0.004671 0.002119 -0.007355 0.031562 0.009662
# 6 0.005270 -0.004426 0.002523 -0.006888 0.009662 0.038047
#
#
# Mechanical properties :
#
#
# Convention : Reuss Voigt Hill
#
# Bulk Modulus (GPa) = 41.00126 49.97716 45.48921
# Shear Modulus (GPa) = 27.98013 33.16751 30.57382
#
# Velocity S-wave (km/s) = 3.56082 3.87687 3.72220
# Velocity P-wave (km/s) = 5.95700 6.53358 6.25194
#
# Compressibility (1/GPa) = 0.02438950
#
# Stress axis : x y z
#
# Youngs Moduli (GPa) = 98.62076 47.35779 71.21276
#
# Poissons Ratio (x) = 0.13176 0.25045
# Poissons Ratio (y) = 0.27437 0.29591
# Poissons Ratio (z) = 0.34684 0.19679
#
# Static dielectric constant tensor:
#      x y z
#    x 4.437360 -0.150680 -0.002840 
#    y -0.150680 3.899620 -0.060010 
#    z -0.002840 -0.060010 4.145830 
# 
# 
# High freq. dielectric constant tensor:
#      x y z
#    x 1.878350 -0.004940 -0.006600 
#    y -0.004940 1.852250 0.008150 
#    z -0.006600 0.008150 1.881200 
# 
# From -- ./inp_files/529854.got.cif
#   From: 2010.06.25/outbox.cif.g09.slc.cpg/sg2_265_cif.got.tgz:529854.got - 2010.06.27 13:26:56.
