data_PCOD8025415
_publ_section_title
;
Structure prediction by ZEFSAII (Michael W. Deem and Ramdas Pophale) SiO2 
 PCOD8025415
Probable space group: P -1
;
_chemical_formula_sum "Si O2"
_cell_formula_units_Z 12
_cell_length_a 15.057429
_cell_length_b 17.605769
_cell_length_c 12.663249
_cell_angle_alpha 150.935604
_cell_angle_beta 151.477493
_cell_angle_gamma 22.466744
_cell_volume 575.971735
_symmetry_space_group_name_H-M "P -1"
_symmetry_group_IT_number 2
_symmetry_cell_setting 'triclinic'
loop_
_space_group_symop_operation_xyz
x,y,z
-x,-y,-z
loop_
_atom_site_type_symbol
_atom_site_label
_atom_site_fract_x
_atom_site_fract_y
_atom_site_fract_z
Si Si1 0.781720 0.664068 0.390648
Si Si2 0.020239 0.182673 0.500764
Si Si3 0.413697 0.708546 0.715616
Si Si4 0.237796 0.065471 0.814129
Si Si5 0.898639 0.523691 0.108442
Si Si6 0.772824 0.019956 0.746716
O O1 0.842738 0.546082 0.200940
O O2 0.508397 0.753638 0.252227
O O3 0.000000 0.500000 0.500000
O O4 0.787065 0.847758 0.612179
O O5 0.149053 0.077648 0.619222
O O6 0.951699 0.403940 0.678926
O O7 0.759303 0.234929 0.294928
O O8 0.200116 0.017350 0.396021
O O9 0.500000 0.500000 0.500000
O O10 0.258775 0.893041 0.691107
O O11 0.642476 0.680879 0.964769
O O12 0.046780 0.285674 0.943276
O O13 0.500000 0.000000 0.000000
O O14 0.000000 0.000000 0.000000
#
# Coordination Sequence:
#
# PCOD8025415 Si02
#       6
#     2   2   2   2   2   2
#     4  10  24  43  67  95 125 172 218 263 320 377
#     4  11  23  42  65  95 128 169 210 262 316 378
#     4  12  24  42  63  94 133 165 210 258 317 383
#     4  12  24  40  66  95 129 168 208 257 323 380
#     4  11  24  43  64  92 133 166 209 265 313 380
#     4  10  23  45  66  93 132 166 216 271 315 374
#
# _framework density 20.834357000000001
#
# number of rings (size 3 to 8) (size 9 to 14) (size 15 to 20)
#    0.000    1.000    3.333    3.000    2.333    3.333 
#    0.000    0.000    0.000    0.000    0.000    0.000 
#    0.000    0.000    0.000    0.000    0.000    0.000 
#
# Total GULP energy -148825.001150 kJ/mol
# GULP energy per Si atom -12402.083429 kJ/mol
# Density = 2.078694 g / cm^3
# Si number density = 20.834357 Si / 1000 Ang^3
#
#
#
# Elastic Constant Matrix: (Units=GPa)
#
#
# Indices 1 2 3 4 5 6 
#
# 1 144.2122 75.1713 51.1262 8.8999 -5.4641 -6.1325
# 2 75.1713 138.6720 50.5758 -7.3771 -8.6156 0.4286
# 3 51.1262 50.5758 100.2101 -3.3188 -8.0833 -2.0704
# 4 8.8999 -7.3771 -3.3188 22.2121 -1.4465 10.6249
# 5 -5.4641 -8.6156 -8.0833 -1.4465 42.2155 -9.5359
# 6 -6.1325 0.4286 -2.0704 10.6249 -9.5359 34.3027
#
#
#
# Elastic Compliance Matrix: (Units=1/GPa)
#
#
# Indices 1 2 3 4 5 6 
#
# 1 0.011958 -0.005747 -0.003367 -0.009628 0.000562 0.005145
# 2 -0.005747 0.011794 -0.002796 0.007518 0.000593 -0.003507
# 3 -0.003367 -0.002796 0.013321 0.002569 0.001607 -0.000112
# 4 -0.009628 0.007518 0.002569 0.061847 -0.001924 -0.021351
# 5 0.000562 0.000593 0.001607 -0.001924 0.025929 0.007994
# 6 0.005145 -0.003507 -0.000112 -0.021351 0.007994 0.038945
#
#
# Mechanical properties :
#
#
# Convention : Reuss Voigt Hill
#
# Bulk Modulus (GPa) = 75.46300 81.87118 78.66709
# Shear Modulus (GPa) = 26.03736 33.49415 29.76575
#
# Velocity S-wave (km/s) = 3.53899 4.01389 3.78390
# Velocity P-wave (km/s) = 7.28000 7.80149 7.54525
#
# Compressibility (1/GPa) = 0.01325153
#
# Stress axis : x y z
#
# Youngs Moduli (GPa) = 83.62565 84.78843 75.07192
#
# Poissons Ratio (x) = 0.48729 0.25280
# Poissons Ratio (y) = 0.48061 0.20989
# Poissons Ratio (z) = 0.28161 0.23706
#
# Static dielectric constant tensor:
#      x y z
#    x 4.062850 -0.280120 0.019320 
#    y -0.280120 4.105260 -0.101610 
#    z 0.019320 -0.101610 3.901690 
# 
# 
# High freq. dielectric constant tensor:
#      x y z
#    x 1.833190 -0.010040 0.004440 
#    y -0.010040 1.815830 -0.007930 
#    z 0.004440 -0.007930 1.820930 
# 
# From -- ./inp_files/21889.got.cif
#   From: 2010.06.25/outbox.cif.g09.slc.cpg/sg2_11_cif.got.tgz:21889.got - 2010.06.27 13:26:56.
