data_PCOD8025730
_publ_section_title
;
Structure prediction by ZEFSAII (Michael W. Deem and Ramdas Pophale) SiO2 
 PCOD8025730
Probable space group: P -1
;
_chemical_formula_sum "Si O2"
_cell_formula_units_Z 16
_cell_length_a 14.362422
_cell_length_b 9.506368
_cell_length_c 8.667274
_cell_angle_alpha 122.847732
_cell_angle_beta 111.494135
_cell_angle_gamma 106.039135
_cell_volume 734.630727
_symmetry_space_group_name_H-M "P -1"
_symmetry_group_IT_number 2
_symmetry_cell_setting 'triclinic'
loop_
_space_group_symop_operation_xyz
x,y,z
-x,-y,-z
loop_
_atom_site_type_symbol
_atom_site_label
_atom_site_fract_x
_atom_site_fract_y
_atom_site_fract_z
Si Si1 0.781233 0.043486 0.294751
Si Si2 0.387269 0.439901 0.164603
Si Si3 0.877515 0.268908 0.811332
Si Si4 0.733909 0.377132 0.979224
Si Si5 0.389037 0.942443 0.014249
Si Si6 0.041992 0.182460 0.513366
Si Si7 0.104012 0.033911 0.194021
Si Si8 0.373225 0.268974 0.368723
O O1 0.811272 0.136987 0.538345
O O2 0.729165 0.141671 0.218827
O O3 0.910162 0.121248 0.333067
O O4 0.680110 0.787290 0.091981
O O5 0.369250 0.413727 0.324549
O O6 0.541362 0.595954 0.348040
O O7 0.339661 0.562918 0.133682
O O8 0.944564 0.185159 0.890528
O O9 0.763023 0.240810 0.816908
O O10 0.000000 0.500000 0.000000
O O11 0.650068 0.243900 0.999260
O O12 0.872776 0.587281 0.225123
O O13 0.500000 0.000000 0.000000
O O14 0.423380 0.146228 0.250090
O O15 0.127006 0.194278 0.435830
O O16 0.000000 0.000000 0.500000
O O17 0.230964 0.107683 0.234772
O O18 0.000000 0.000000 0.000000
#
# Coordination Sequence:
#
# PCOD8025730 Si02
#       8
#     2   2   2   2   2   2   2   2
#     4  11  24  47  69  99 148 180 230 291 349 421
#     4  10  23  45  75  93 141 186 231 291 339 423
#     4  12  25  43  69 108 142 179 230 292 358 421
#     4  12  25  44  73 106 138 186 236 286 366 413
#     4  11  27  47  68 102 145 183 231 297 354 417
#     4  12  23  44  70 104 138 181 234 289 350 426
#     4  12  25  43  73 100 140 185 228 288 351 413
#     4  10  24  46  68 105 138 181 245 281 345 428
#
# _framework density 21.77965
#
# number of rings (size 3 to 8) (size 9 to 14) (size 15 to 20)
#    0.000    0.750    5.000    1.500    3.500    6.000 
#    0.000    3.750    0.000    0.000    0.000    0.000 
#    0.000    0.000    0.000    0.000    0.000    0.000 
#
# Total GULP energy -198274.483172 kJ/mol
# GULP energy per Si atom -12392.155198 kJ/mol
# Density = 2.173008 g / cm^3
# Si number density = 21.779650 Si / 1000 Ang^3
#
#
#
# Elastic Constant Matrix: (Units=GPa)
#
#
# Indices 1 2 3 4 5 6 
#
# 1 134.3405 51.5051 57.5352 -4.4867 1.0432 -3.5556
# 2 51.5051 150.7145 61.8849 -11.6265 7.7744 -21.4708
# 3 57.5352 61.8849 149.2630 -3.2611 18.1057 -9.0169
# 4 -4.4867 -11.6265 -3.2611 28.1489 -2.3571 9.4568
# 5 1.0432 7.7744 18.1057 -2.3571 38.6910 -3.3770
# 6 -3.5556 -21.4708 -9.0169 9.4568 -3.3770 35.5803
#
#
#
# Elastic Compliance Matrix: (Units=1/GPa)
#
#
# Indices 1 2 3 4 5 6 
#
# 1 0.009568 -0.002226 -0.003008 0.000794 0.001539 -0.001214
# 2 -0.002226 0.009227 -0.002667 0.001729 -0.000074 0.004203
# 3 -0.003008 -0.002667 0.009430 -0.000931 -0.003821 0.000365
# 4 0.000794 0.001729 -0.000931 0.039580 0.001651 -0.009476
# 5 0.001539 -0.000074 -0.003821 0.001651 0.027825 0.001343
# 6 -0.001214 0.004203 0.000365 -0.009476 0.001343 0.033259
#
#
# Mechanical properties :
#
#
# Convention : Reuss Voigt Hill
#
# Bulk Modulus (GPa) = 80.49401 86.24094 83.36747
# Shear Modulus (GPa) = 33.59531 38.04356 35.81944
#
# Velocity S-wave (km/s) = 3.93174 4.18395 4.05980
# Velocity P-wave (km/s) = 7.59276 7.93874 7.76767
#
# Compressibility (1/GPa) = 0.01242329
#
# Stress axis : x y z
#
# Youngs Moduli (GPa) = 104.51771 108.38169 106.04621
#
# Poissons Ratio (x) = 0.24123 0.31898
# Poissons Ratio (y) = 0.23263 0.28281
# Poissons Ratio (z) = 0.31438 0.28904
#
# Static dielectric constant tensor:
#      x y z
#    x 4.558040 -0.084200 0.051390 
#    y -0.084200 4.122030 -0.083810 
#    z 0.051390 -0.083810 3.877560 
# 
# 
# High freq. dielectric constant tensor:
#      x y z
#    x 1.856980 -0.005980 0.005470 
#    y -0.005980 1.864650 -0.002070 
#    z 0.005470 -0.002070 1.863470 
# 
# From -- ./inp_files/299780.got.cif
#   From: 2010.06.25/outbox.cif.g09.slc.cpg/sg2_150_cif.got.tgz:299780.got - 2010.06.27 13:26:56.
