data_PCOD8025108
_publ_section_title
;
Structure prediction by ZEFSAII (Michael W. Deem and Ramdas Pophale) SiO2 
 PCOD8025108
Probable space group: P -1
;
_chemical_formula_sum "Si O2"
_cell_formula_units_Z 12
_cell_length_a 9.777254
_cell_length_b 8.832092
_cell_length_c 8.754673
_cell_angle_alpha 48.347236
_cell_angle_beta 89.224364
_cell_angle_gamma 82.523865
_cell_volume 557.348159
_symmetry_space_group_name_H-M "P -1"
_symmetry_group_IT_number 2
_symmetry_cell_setting 'triclinic'
loop_
_space_group_symop_operation_xyz
x,y,z
-x,-y,-z
loop_
_atom_site_type_symbol
_atom_site_label
_atom_site_fract_x
_atom_site_fract_y
_atom_site_fract_z
Si Si1 0.606356 0.960827 0.389515
Si Si2 0.491892 0.789209 0.058649
Si Si3 0.707506 0.510715 0.625649
Si Si4 0.867889 0.122906 0.342554
Si Si5 0.045260 0.612943 0.073313
Si Si6 0.783914 0.523593 0.274801
O O1 0.609091 0.733780 0.470825
O O2 0.500000 0.000000 0.500000
O O3 0.759575 0.967347 0.443072
O O4 0.565932 0.150295 0.148375
O O5 0.389259 0.659978 0.231706
O O6 0.643667 0.659380 0.127971
O O7 0.500000 0.000000 0.000000
O O8 0.823727 0.510550 0.754727
O O9 0.780351 0.465582 0.491520
O O10 0.805729 0.318703 0.312328
O O11 0.908796 0.179074 0.130908
O O12 0.000000 0.000000 0.500000
O O13 0.911637 0.650388 0.161733
O O14 0.000000 0.500000 0.000000
#
# Coordination Sequence:
#
# PCOD8025108 Si02
#       6
#     2   2   2   2   2   2
#     4  12  27  43  74 105 140 189 235 287 354 418
#     4  12  27  47  70 107 145 181 237 291 354 417
#     4  12  25  49  71 105 143 184 239 288 351 422
#     4  11  25  46  69 106 142 184 238 291 349 415
#     4  10  23  44  69 101 139 181 232 291 340 409
#     4  11  25  44  74 100 146 188 230 293 348 418
#
# _framework density 21.530526999999999
#
# number of rings (size 3 to 8) (size 9 to 14) (size 15 to 20)
#    0.000    0.667    3.333    4.000    9.333    1.333 
#    0.000    2.500    0.000    0.000    0.000    0.000 
#    0.000    0.000    0.000    0.000    0.000    0.000 
#
# Total GULP energy -148809.068213 kJ/mol
# GULP energy per Si atom -12400.755684 kJ/mol
# Density = 2.148152 g / cm^3
# Si number density = 21.530527 Si / 1000 Ang^3
#
#
#
# Elastic Constant Matrix: (Units=GPa)
#
#
# Indices 1 2 3 4 5 6 
#
# 1 161.5165 47.3591 71.1484 -5.7391 -13.9521 -12.4159
# 2 47.3591 103.4969 51.8011 -9.1760 -15.2975 -9.6979
# 3 71.1484 51.8011 158.7995 2.9339 -13.3906 -15.4102
# 4 -5.7391 -9.1760 2.9339 34.3271 -9.5132 -1.6210
# 5 -13.9521 -15.2975 -13.3906 -9.5132 59.5184 0.1227
# 6 -12.4159 -9.6979 -15.4102 -1.6210 0.1227 35.0627
#
#
#
# Elastic Compliance Matrix: (Units=1/GPa)
#
#
# Indices 1 2 3 4 5 6 
#
# 1 0.008267 -0.001944 -0.002896 0.001447 0.001015 0.001180
# 2 -0.001944 0.013056 -0.003051 0.004313 0.002899 0.001771
# 3 -0.002896 -0.003051 0.008830 -0.001904 0.000215 0.001923
# 4 0.001447 0.004313 -0.001904 0.032522 0.006213 0.002350
# 5 0.001015 0.002899 0.000215 0.006213 0.018823 0.001477
# 6 0.001180 0.001771 0.001923 0.002350 0.001477 0.030376
#
#
# Mechanical properties :
#
#
# Convention : Reuss Voigt Hill
#
# Bulk Modulus (GPa) = 69.59220 84.93668 77.26444
# Shear Modulus (GPa) = 37.75083 42.68193 40.21638
#
# Velocity S-wave (km/s) = 4.19186 4.45724 4.32658
# Velocity P-wave (km/s) = 7.47139 8.12554 7.80532
#
# Compressibility (1/GPa) = 0.01436943
#
# Stress axis : x y z
#
# Youngs Moduli (GPa) = 120.96113 76.59487 113.24922
#
# Poissons Ratio (x) = 0.14893 0.32801
# Poissons Ratio (y) = 0.23519 0.34553
# Poissons Ratio (z) = 0.35034 0.23370
#
# Static dielectric constant tensor:
#      x y z
#    x 4.293720 0.011300 -0.136120 
#    y 0.011300 3.645980 0.098850 
#    z -0.136120 0.098850 4.966190 
# 
# 
# High freq. dielectric constant tensor:
#      x y z
#    x 1.867690 -0.001400 -0.003310 
#    y -0.001400 1.829610 0.004900 
#    z -0.003310 0.004900 1.868620 
# 
# From -- ./inp_files/26930.got.cif
#   From: 2010.06.25/outbox.cif.g09.slc.cpg/sg2_14_cif.got.tgz:26930.got - 2010.06.27 13:26:56.
