data_PCOD8025350
_publ_section_title
;
Structure prediction by ZEFSAII (Michael W. Deem and Ramdas Pophale) SiO2 
 PCOD8025350
Probable space group: P -1
;
_chemical_formula_sum "Si O2"
_cell_formula_units_Z 14
_cell_length_a 14.242695
_cell_length_b 19.124411
_cell_length_c 8.834816
_cell_angle_alpha 129.813403
_cell_angle_beta 148.689591
_cell_angle_gamma 29.699782
_cell_volume 569.075475
_symmetry_space_group_name_H-M "P -1"
_symmetry_group_IT_number 2
_symmetry_cell_setting 'triclinic'
loop_
_space_group_symop_operation_xyz
x,y,z
-x,-y,-z
loop_
_atom_site_type_symbol
_atom_site_label
_atom_site_fract_x
_atom_site_fract_y
_atom_site_fract_z
Si Si1 0.694091 0.543269 0.433603
Si Si2 0.801008 0.711867 0.774145
Si Si3 0.839560 0.970077 0.204499
Si Si4 0.174745 0.789954 0.863611
Si Si5 0.806639 0.782734 0.211753
Si Si6 0.708477 0.365682 0.718751
Si Si7 0.256454 0.953797 0.147699
O O1 0.795533 0.607255 0.654481
O O2 0.492083 0.599078 0.378341
O O3 0.011850 0.359144 0.620551
O O4 0.487182 0.608455 0.087696
O O5 0.497592 0.871894 0.499115
O O6 0.863306 0.735596 0.051585
O O7 0.066276 0.642339 0.929916
O O8 0.098780 0.788770 0.319895
O O9 0.000000 0.000000 0.500000
O O10 0.557663 0.068748 0.065403
O O11 0.678859 0.026028 0.895183
O O12 0.943657 0.826018 0.495358
O O13 0.233927 0.856011 0.938498
O O14 0.052458 0.875900 0.977285
O O15 0.500000 0.500000 0.500000
#
# Coordination Sequence:
#
# PCOD8025350 Si02
#       7
#     2   2   2   2   2   2   2
#     4  11  24  50  72 108 151 196 238 306 368 438
#     4  11  26  46  76 106 149 201 242 296 374 438
#     4  12  29  46  74 112 147 186 251 312 357 436
#     4  10  23  44  75 102 147 193 242 300 366 435
#     4  12  26  44  75 110 148 184 251 309 359 425
#     4  12  26  46  77 104 146 199 244 290 373 445
#     4  10  24  47  72 101 149 194 238 298 376 434
#
# _framework density 24.601306999999998
#
# number of rings (size 3 to 8) (size 9 to 14) (size 15 to 20)
#    0.000    0.857    2.857    2.571   10.000    2.286 
#    0.000    1.429    0.000    0.000    0.000    0.000 
#    0.000    0.000    0.000    0.000    0.000    0.000 
#
# Total GULP energy -173499.848186 kJ/mol
# GULP energy per Si atom -12392.846299 kJ/mol
# Density = 2.454531 g / cm^3
# Si number density = 24.601307 Si / 1000 Ang^3
#
#
#
# Elastic Constant Matrix: (Units=GPa)
#
#
# Indices 1 2 3 4 5 6 
#
# 1 62.2451 19.0073 21.3165 5.1577 17.7778 14.6009
# 2 19.0073 96.5558 40.3266 -31.7951 3.9075 21.1364
# 3 21.3165 40.3266 140.9431 2.9071 11.6619 16.6721
# 4 5.1577 -31.7951 2.9071 30.7049 6.3324 3.6472
# 5 17.7778 3.9075 11.6619 6.3324 53.4658 -3.9178
# 6 14.6009 21.1364 16.6721 3.6472 -3.9178 32.2639
#
#
#
# Elastic Compliance Matrix: (Units=1/GPa)
#
#
# Indices 1 2 3 4 5 6 
#
# 1 0.021458 -0.003980 -0.000627 -0.005485 -0.006567 -0.006957
# 2 -0.003980 0.029594 -0.005904 0.035202 -0.005123 -0.019137
# 3 -0.000627 -0.005904 0.009040 -0.006780 -0.000515 0.000184
# 4 -0.005485 0.035202 -0.006780 0.075888 -0.010229 -0.026896
# 5 -0.006567 -0.005123 -0.000515 -0.010229 0.023361 0.010588
# 6 -0.006957 -0.019137 0.000184 -0.026896 0.010588 0.050911
#
#
# Mechanical properties :
#
#
# Convention : Reuss Voigt Hill
#
# Bulk Modulus (GPa) = 25.59508 51.22719 38.41113
# Shear Modulus (GPa) = 20.46691 37.89316 29.18003
#
# Velocity S-wave (km/s) = 2.88747 3.92891 3.44774
# Velocity P-wave (km/s) = 4.64147 6.43816 5.61218
#
# Compressibility (1/GPa) = 0.03907001
#
# Stress axis : x y z
#
# Youngs Moduli (GPa) = 46.60356 33.79030 110.62097
#
# Poissons Ratio (x) = 0.13447 0.06938
# Poissons Ratio (y) = 0.18546 0.65311
# Poissons Ratio (z) = 0.02923 0.19950
#
# Static dielectric constant tensor:
#      x y z
#    x 6.980540 0.732250 3.545080 
#    y 0.732250 4.616100 0.428720 
#    z 3.545080 0.428720 9.778650 
# 
# 
# High freq. dielectric constant tensor:
#      x y z
#    x 1.981220 0.027580 0.002830 
#    y 0.027580 1.979670 -0.011900 
#    z 0.002830 -0.011900 1.994360 
# 
# From -- ./inp_files/319503.got.cif
#   From: 2010.06.25/outbox.cif.g09.slc.cpg/sg2_160_cif.got.tgz:319503.got - 2010.06.27 13:26:56.
