data_PCOD8025400
_publ_section_title
;
Structure prediction by ZEFSAII (Michael W. Deem and Ramdas Pophale) SiO2 
 PCOD8025400
Probable space group: P -1
;
_chemical_formula_sum "Si O2"
_cell_formula_units_Z 12
_cell_length_a 13.134559
_cell_length_b 20.889603
_cell_length_c 11.100349
_cell_angle_alpha 25.026212
_cell_angle_beta 32.410871
_cell_angle_gamma 25.216610
_cell_volume 543.839891
_symmetry_space_group_name_H-M "P -1"
_symmetry_group_IT_number 2
_symmetry_cell_setting 'triclinic'
loop_
_space_group_symop_operation_xyz
x,y,z
-x,-y,-z
loop_
_atom_site_type_symbol
_atom_site_label
_atom_site_fract_x
_atom_site_fract_y
_atom_site_fract_z
Si Si1 0.207665 0.210262 0.863041
Si Si2 0.374953 0.975745 0.869170
Si Si3 0.011612 0.664961 0.486757
Si Si4 0.717108 0.498160 0.747238
Si Si5 0.125876 0.268896 0.109646
Si Si6 0.756503 0.294546 0.593036
O O1 0.360987 0.287334 0.548457
O O2 0.924053 0.385019 0.834288
O O3 0.289756 0.035550 0.991395
O O4 0.241184 0.148359 0.075223
O O5 0.666301 0.836503 0.814934
O O6 0.276033 0.867793 0.102115
O O7 0.261685 0.162987 0.578303
O O8 0.189882 0.603903 0.300937
O O9 0.092794 0.740189 0.379886
O O10 0.024356 0.488086 0.823203
O O11 0.500000 0.500000 0.000000
O O12 0.905090 0.273137 0.363468
O O13 0.500000 0.500000 0.500000
#
# Coordination Sequence:
#
# PCOD8025400 Si02
#       6
#     2   2   2   2   2   2
#     4   9  21  39  62 102 126 161 220 262 323 385
#     4  11  24  44  66  97 133 165 221 269 317 389
#     4  10  23  45  65  96 130 168 222 264 319 389
#     4   9  19  37  67  95 129 169 207 267 325 377
#     4  11  24  44  69  92 134 173 207 276 324 376
#     4  12  26  44  65  96 132 175 222 260 321 388
#
# _framework density 22.065318999999999
#
# number of rings (size 3 to 8) (size 9 to 14) (size 15 to 20)
#    0.000    1.667    1.667    2.500    2.333    4.000 
#    3.000    0.000    0.000    0.000    0.000    0.000 
#    0.000    0.000    0.000    0.000    0.000    0.000 
#
# Total GULP energy -148821.589346 kJ/mol
# GULP energy per Si atom -12401.799112 kJ/mol
# Density = 2.201510 g / cm^3
# Si number density = 22.065319 Si / 1000 Ang^3
#
#
#
# Elastic Constant Matrix: (Units=GPa)
#
#
# Indices 1 2 3 4 5 6 
#
# 1 98.4329 22.8814 10.2229 -8.7616 10.1644 -1.5588
# 2 22.8814 73.8488 23.0350 -21.3106 0.4238 -15.1611
# 3 10.2229 23.0350 49.0604 3.9067 -2.4958 -21.3317
# 4 -8.7616 -21.3106 3.9067 33.3677 -7.4370 -1.9883
# 5 10.1644 0.4238 -2.4958 -7.4370 34.5718 -6.0644
# 6 -1.5588 -15.1611 -21.3317 -1.9883 -6.0644 49.4077
#
#
#
# Elastic Compliance Matrix: (Units=1/GPa)
#
#
# Indices 1 2 3 4 5 6 
#
# 1 0.011496 -0.003292 -0.001891 0.000182 -0.003774 -0.001920
# 2 -0.003292 0.022924 -0.009389 0.016045 0.004168 0.004034
# 3 -0.001891 -0.009389 0.030462 -0.008837 0.002757 0.010194
# 4 0.000182 0.016045 -0.008837 0.043585 0.009189 0.003996
# 5 -0.003774 0.004168 0.002757 0.009189 0.033355 0.006814
# 6 -0.001920 0.004034 0.010194 0.003996 0.006814 0.026816
#
#
# Mechanical properties :
#
#
# Convention : Reuss Voigt Hill
#
# Bulk Modulus (GPa) = 27.98136 37.06896 32.52516
# Shear Modulus (GPa) = 23.84420 34.48299 29.16359
#
# Velocity S-wave (km/s) = 3.29084 3.95748 3.63945
# Velocity P-wave (km/s) = 5.21039 6.14152 5.69502
#
# Compressibility (1/GPa) = 0.03573808
#
# Stress axis : x y z
#
# Youngs Moduli (GPa) = 86.98401 43.62192 32.82799
#
# Poissons Ratio (x) = 0.14361 0.06208
# Poissons Ratio (y) = 0.28636 0.30822
# Poissons Ratio (z) = 0.16449 0.40957
#
# Static dielectric constant tensor:
#      x y z
#    x 4.354320 0.095960 0.132590 
#    y 0.095960 4.035000 -0.123470 
#    z 0.132590 -0.123470 3.771810 
# 
# 
# High freq. dielectric constant tensor:
#      x y z
#    x 1.885800 0.001180 0.009630 
#    y 0.001180 1.872010 -0.008400 
#    z 0.009630 -0.008400 1.847960 
# 
# From -- ./inp_files/228703.got.cif
#   From: 2010.06.25/outbox.cif.g09.slc.cpg/sg2_115_cif.got.tgz:228703.got - 2010.06.27 13:26:56.
