data_PCOD8025565
_publ_section_title
;
Structure prediction by ZEFSAII (Michael W. Deem and Ramdas Pophale) SiO2 
 PCOD8025565
Probable space group: P -1
;
_chemical_formula_sum "Si O2"
_cell_formula_units_Z 14
_cell_length_a 12.649312
_cell_length_b 10.122936
_cell_length_c 6.876270
_cell_angle_alpha 69.664738
_cell_angle_beta 132.519118
_cell_angle_gamma 110.647500
_cell_volume 599.624643
_symmetry_space_group_name_H-M "P -1"
_symmetry_group_IT_number 2
_symmetry_cell_setting 'triclinic'
loop_
_space_group_symop_operation_xyz
x,y,z
-x,-y,-z
loop_
_atom_site_type_symbol
_atom_site_label
_atom_site_fract_x
_atom_site_fract_y
_atom_site_fract_z
Si Si1 0.124761 0.606892 0.494091
Si Si2 0.506633 0.712255 0.335539
Si Si3 0.265858 0.072681 0.296842
Si Si4 0.949996 0.744675 0.924260
Si Si5 0.131199 0.948020 0.798336
Si Si6 0.285815 0.496411 0.393389
Si Si7 0.675507 0.146056 0.219510
O O1 0.221800 0.531588 0.503512
O O2 0.235814 0.692558 0.741173
O O3 0.000000 0.500000 0.500000
O O4 0.045923 0.728559 0.239681
O O5 0.603120 0.791979 0.591651
O O6 0.355841 0.636729 0.287008
O O7 0.588485 0.600726 0.378986
O O8 0.478812 0.829615 0.077557
O O9 0.132055 0.119533 0.225643
O O10 0.325872 0.935402 0.533230
O O11 0.208878 0.046308 0.020417
O O12 0.849221 0.592349 0.845410
O O13 0.065383 0.787653 0.871910
O O14 0.258085 0.949698 0.802701
O O15 0.000000 0.000000 0.500000
#
# Coordination Sequence:
#
# PCOD8025565 Si02
#       7
#     2   2   2   2   2   2   2
#     4  12  24  41  70 105 138 177 231 290 352 405
#     4  10  24  46  69  96 142 187 237 274 338 414
#     4  11  24  44  67 102 140 179 229 288 340 419
#     4  11  21  43  69  98 140 172 231 293 345 410
#     4  12  23  41  70 102 139 177 223 288 358 401
#     4  10  23  45  69  98 136 187 231 291 331 410
#     4  12  24  42  67 103 138 183 232 280 344 417
#
# _framework density 23.347940999999999
#
# number of rings (size 3 to 8) (size 9 to 14) (size 15 to 20)
#    0.000    0.857    2.857    4.714    0.000    1.143 
#    2.571    0.000    0.000    0.000    0.000    0.000 
#    0.000    0.000    0.000    0.000    0.000    0.000 
#
# Total GULP energy -173512.357299 kJ/mol
# GULP energy per Si atom -12393.739807 kJ/mol
# Density = 2.329480 g / cm^3
# Si number density = 23.347941 Si / 1000 Ang^3
#
#
#
# Elastic Constant Matrix: (Units=GPa)
#
#
# Indices 1 2 3 4 5 6 
#
# 1 101.8122 32.7717 29.4998 2.7341 -2.4242 -9.2832
# 2 32.7717 94.2432 39.6219 17.1553 -3.7386 2.5580
# 3 29.4998 39.6219 147.6603 1.1619 1.3383 -10.2259
# 4 2.7341 17.1553 1.1619 51.7224 -3.6245 -1.3296
# 5 -2.4242 -3.7386 1.3383 -3.6245 31.7009 -0.6085
# 6 -9.2832 2.5580 -10.2259 -1.3296 -0.6085 37.2393
#
#
#
# Elastic Compliance Matrix: (Units=1/GPa)
#
#
# Indices 1 2 3 4 5 6 
#
# 1 0.011615 -0.003761 -0.001123 0.000778 0.000636 0.002884
# 2 -0.003761 0.014208 -0.003239 -0.004450 0.000959 -0.002946
# 3 -0.001123 -0.003239 0.008014 0.000963 -0.000654 0.002167
# 4 0.000778 -0.004450 0.000963 0.020921 0.001916 0.001542
# 5 0.000636 0.000959 -0.000654 0.001916 0.031963 0.000504
# 6 0.002884 -0.002946 0.002167 0.001542 0.000504 0.028433
#
#
# Mechanical properties :
#
#
# Convention : Reuss Voigt Hill
#
# Bulk Modulus (GPa) = 56.84765 60.83361 58.84063
# Shear Modulus (GPa) = 36.42568 40.25402 38.33985
#
# Velocity S-wave (km/s) = 3.95413 4.15672 4.05669
# Velocity P-wave (km/s) = 6.72664 7.01068 6.87013
#
# Compressibility (1/GPa) = 0.01759088
#
# Stress axis : x y z
#
# Youngs Moduli (GPa) = 86.09240 70.38055 124.77788
#
# Poissons Ratio (x) = 0.26472 0.14018
# Poissons Ratio (y) = 0.32382 0.40414
# Poissons Ratio (z) = 0.09672 0.22795
#
# Static dielectric constant tensor:
#      x y z
#    x 4.296730 0.471210 -0.076000 
#    y 0.471210 5.285210 -0.637360 
#    z -0.076000 -0.637360 4.804850 
# 
# 
# High freq. dielectric constant tensor:
#      x y z
#    x 1.913810 0.005030 0.015560 
#    y 0.005030 1.932760 0.005670 
#    z 0.015560 0.005670 1.933350 
# 
# From -- ./inp_files/69491.got.cif
#   From: 2010.06.25/outbox.cif.g09.slc.cpg/sg2_35_cif.got.tgz:69491.got - 2010.06.27 13:26:56.
