data_PCOD8025057
_publ_section_title
;
Structure prediction by ZEFSAII (Michael W. Deem and Ramdas Pophale) SiO2 
 PCOD8025057
Probable space group: P -1
;
_chemical_formula_sum "Si O2"
_cell_formula_units_Z 16
_cell_length_a 9.479850
_cell_length_b 5.263773
_cell_length_c 19.141209
_cell_angle_alpha 121.057980
_cell_angle_beta 57.119656
_cell_angle_gamma 90.909485
_cell_volume 639.128894
_symmetry_space_group_name_H-M "P -1"
_symmetry_group_IT_number 2
_symmetry_cell_setting 'triclinic'
loop_
_space_group_symop_operation_xyz
x,y,z
-x,-y,-z
loop_
_atom_site_type_symbol
_atom_site_label
_atom_site_fract_x
_atom_site_fract_y
_atom_site_fract_z
Si Si1 0.072396 0.269212 0.328290
Si Si2 0.328621 0.339436 0.370952
Si Si3 0.427004 0.686077 0.820916
Si Si4 0.644855 0.868895 0.292023
Si Si5 0.177987 0.172430 0.059393
Si Si6 0.256161 0.544914 0.202531
Si Si7 0.026302 0.264134 0.895523
Si Si8 0.312116 0.723773 0.550185
O O1 0.132262 0.345716 0.401085
O O2 0.124792 0.477600 0.285526
O O3 0.856020 0.376907 0.396985
O O4 0.161867 0.887258 0.239830
O O5 0.441540 0.229475 0.254271
O O6 0.319490 0.679988 0.456702
O O7 0.432022 0.074698 0.364132
O O8 0.321766 0.501811 0.779830
O O9 0.553322 0.471333 0.818286
O O10 0.280493 0.002680 0.937751
O O11 0.765751 0.954191 0.210759
O O12 0.707839 0.932058 0.362464
O O13 0.307302 0.259194 0.091361
O O14 0.034471 0.515344 0.125309
O O15 0.085262 0.960335 0.093837
O O16 0.000000 0.500000 0.000000
O O17 0.500000 0.500000 0.500000
#
# Coordination Sequence:
#
# PCOD8025057 Si02
#       8
#     2   2   2   2   2   2   2   2
#     4  11  23  49  70 102 134 180 220 283 336 406
#     4  10  23  44  68  94 134 177 230 277 343 396
#     4  11  24  41  66  96 136 181 223 281 336 402
#     4  11  22  42  65  96 138 175 227 280 341 397
#     4  12  25  42  67 100 138 181 230 275 335 400
#     4  11  24  44  71 101 136 176 230 274 338 398
#     4  12  25  42  67  99 137 184 224 276 338 404
#     4  10  23  45  70 101 133 173 228 281 340 403
#
# _framework density 25.034071000000001
#
# number of rings (size 3 to 8) (size 9 to 14) (size 15 to 20)
#    0.000    1.000    2.500    4.125    1.750    0.500 
#    9.000    5.000    0.000    0.000    0.000    0.000 
#    0.000    0.000    0.000    0.000    0.000    0.000 
#
# Total GULP energy -198221.479290 kJ/mol
# GULP energy per Si atom -12388.842456 kJ/mol
# Density = 2.497709 g / cm^3
# Si number density = 25.034071 Si / 1000 Ang^3
#
#
#
# Elastic Constant Matrix: (Units=GPa)
#
#
# Indices 1 2 3 4 5 6 
#
# 1 132.6578 19.1954 51.2189 20.3926 25.5392 31.7773
# 2 19.1954 95.5106 16.5260 8.4365 3.8224 10.0517
# 3 51.2189 16.5260 110.9248 22.6783 28.4130 16.6343
# 4 20.3926 8.4365 22.6783 18.6674 14.7663 7.3909
# 5 25.5392 3.8224 28.4130 14.7663 46.5683 9.1564
# 6 31.7773 10.0517 16.6343 7.3909 9.1564 30.6235
#
#
#
# Elastic Compliance Matrix: (Units=1/GPa)
#
#
# Indices 1 2 3 4 5 6 
#
# 1 0.011829 -0.000488 -0.002686 -0.004610 -0.001562 -0.009076
# 2 -0.000488 0.011217 -0.000663 -0.003982 0.001465 -0.002292
# 3 -0.002686 -0.000663 0.013384 -0.010105 -0.003268 -0.000850
# 4 -0.004610 -0.003982 -0.010105 0.088904 -0.018304 -0.004404
# 5 -0.001562 0.001465 -0.003268 -0.018304 0.030351 -0.001742
# 6 -0.009076 -0.002292 -0.000850 -0.004404 -0.001742 0.044871
#
#
# Mechanical properties :
#
#
# Convention : Reuss Voigt Hill
#
# Bulk Modulus (GPa) = 34.77355 56.99710 45.88533
# Shear Modulus (GPa) = 22.95524 35.98204 29.46864
#
# Velocity S-wave (km/s) = 3.03142 3.79532 3.43467
# Velocity P-wave (km/s) = 5.11599 6.48253 5.83937
#
# Compressibility (1/GPa) = 0.02875749
#
# Stress axis : x y z
#
# Youngs Moduli (GPa) = 84.53564 89.14885 74.71343
#
# Poissons Ratio (x) = 0.04349 0.20065
# Poissons Ratio (y) = 0.04124 0.04956
# Poissons Ratio (z) = 0.22703 0.05913
#
# Static dielectric constant tensor:
#      x y z
#    x 5.177230 0.112680 0.325590 
#    y 0.112680 4.077480 0.109140 
#    z 0.325590 0.109140 4.898650 
# 
# 
# High freq. dielectric constant tensor:
#      x y z
#    x 2.020880 0.012430 0.013970 
#    y 0.012430 1.960550 0.007940 
#    z 0.013970 0.007940 2.009180 
# 
# From -- ./inp_files/138735.got.cif
#   From: 2010.06.25/outbox.cif.g09.slc.cpg/sg2_70_cif.got.tgz:138735.got - 2010.06.27 13:26:56.
