data_PCOD8025914
_publ_section_title
;
Structure prediction by ZEFSAII (Michael W. Deem and Ramdas Pophale) SiO2 
 PCOD8025914
Probable space group: P -1
;
_chemical_formula_sum "Si O2"
_cell_formula_units_Z 14
_cell_length_a 9.298071
_cell_length_b 8.792267
_cell_length_c 8.666506
_cell_angle_alpha 111.152268
_cell_angle_beta 93.076605
_cell_angle_gamma 63.260083
_cell_volume 585.052306
_symmetry_space_group_name_H-M "P -1"
_symmetry_group_IT_number 2
_symmetry_cell_setting 'triclinic'
loop_
_space_group_symop_operation_xyz
x,y,z
-x,-y,-z
loop_
_atom_site_type_symbol
_atom_site_label
_atom_site_fract_x
_atom_site_fract_y
_atom_site_fract_z
Si Si1 0.040106 0.893576 0.624241
Si Si2 0.241657 0.472788 0.399391
Si Si3 0.484703 0.850434 0.546327
Si Si4 0.268696 0.656122 0.934873
Si Si5 0.602250 0.379327 0.752436
Si Si6 0.078019 0.254936 0.188022
Si Si7 0.269397 0.969985 0.860514
O O1 0.163289 0.676770 0.537799
O O2 0.110838 0.003391 0.767898
O O3 0.897438 0.886424 0.719092
O O4 0.000000 0.000000 0.500000
O O5 0.340106 0.325721 0.483909
O O6 0.371406 0.462044 0.274435
O O7 0.101163 0.428702 0.308151
O O8 0.365852 0.785336 0.427231
O O9 0.412826 0.942827 0.741559
O O10 0.500000 0.000000 0.500000
O O11 0.419696 0.454855 0.836677
O O12 0.320890 0.793599 0.904855
O O13 0.100126 0.669093 0.870722
O O14 0.262038 0.697886 0.133065
O O15 0.218702 0.148053 0.030893
#
# Coordination Sequence:
#
# PCOD8025914 Si02
#       7
#     2   2   2   2   2   2   2
#     4  11  25  46  76 105 142 199 246 300 368 437
#     4  12  26  46  76 107 149 192 247 309 365 431
#     4  12  27  46  76 107 146 196 255 302 360 440
#     4  10  23  46  73 104 145 194 240 305 374 430
#     4  11  24  46  76 102 142 197 249 303 368 437
#     4  11  27  45  71 110 153 189 242 307 365 440
#     4  11  24  44  71 103 149 192 244 302 363 435
#
# _framework density 23.929483999999999
#
# number of rings (size 3 to 8) (size 9 to 14) (size 15 to 20)
#    0.000    0.857    2.857    4.286    8.000    3.429 
#    0.000    0.000    0.000    0.000    0.000    0.000 
#    0.000    0.000    0.000    0.000    0.000    0.000 
#
# Total GULP energy -173551.352296 kJ/mol
# GULP energy per Si atom -12396.525164 kJ/mol
# Density = 2.387502 g / cm^3
# Si number density = 23.929484 Si / 1000 Ang^3
#
#
#
# Elastic Constant Matrix: (Units=GPa)
#
#
# Indices 1 2 3 4 5 6 
#
# 1 91.3613 42.4405 35.7242 -4.4587 11.2732 10.2266
# 2 42.4405 128.1640 46.9052 -29.3245 0.0134 11.1428
# 3 35.7242 46.9052 130.5184 -16.7582 -3.1804 1.9138
# 4 -4.4587 -29.3245 -16.7582 38.8472 -4.5262 -0.8982
# 5 11.2732 0.0134 -3.1804 -4.5262 38.7998 3.3539
# 6 10.2266 11.1428 1.9138 -0.8982 3.3539 28.7717
#
#
#
# Elastic Compliance Matrix: (Units=1/GPa)
#
#
# Indices 1 2 3 4 5 6 
#
# 1 0.014907 -0.004374 -0.003032 -0.003518 -0.004733 -0.002961
# 2 -0.004374 0.012066 -0.002021 0.007931 0.002286 -0.003003
# 3 -0.003032 -0.002021 0.009568 0.002496 0.001863 0.001085
# 4 -0.003518 0.007931 0.002496 0.032972 0.005206 -0.001565
# 5 -0.004733 0.002286 0.001863 0.005206 0.028119 -0.002442
# 6 -0.002961 -0.003003 0.001085 -0.001565 -0.002442 0.037136
#
#
# Mechanical properties :
#
#
# Convention : Reuss Voigt Hill
#
# Bulk Modulus (GPa) = 56.53812 66.68708 61.61260
# Shear Modulus (GPa) = 31.34481 36.28198 33.81339
#
# Velocity S-wave (km/s) = 3.62316 3.89807 3.76312
# Velocity P-wave (km/s) = 6.41726 6.94180 6.68468
#
# Compressibility (1/GPa) = 0.01768718
#
# Stress axis : x y z
#
# Youngs Moduli (GPa) = 67.08474 82.87736 104.51588
#
# Poissons Ratio (x) = 0.36248 0.31689
# Poissons Ratio (y) = 0.29341 0.21123
# Poissons Ratio (z) = 0.20340 0.16750
#
# Static dielectric constant tensor:
#      x y z
#    x 4.145370 0.059600 -0.151370 
#    y 0.059600 4.121300 -0.208980 
#    z -0.151370 -0.208980 4.734140 
# 
# 
# High freq. dielectric constant tensor:
#      x y z
#    x 1.938390 -0.003680 -0.008060 
#    y -0.003680 1.938010 -0.006820 
#    z -0.008060 -0.006820 1.970520 
# 
# From -- ./inp_files/159727.got.cif
#   From: 2010.06.25/outbox.cif.g09.slc.cpg/sg2_80_cif.got.tgz:159727.got - 2010.06.27 13:26:56.
