data_PCOD8025533
_publ_section_title
;
Structure prediction by ZEFSAII (Michael W. Deem and Ramdas Pophale) SiO2 
 PCOD8025533
Probable space group: P -1
;
_chemical_formula_sum "Si O2"
_cell_formula_units_Z 16
_cell_length_a 11.078557
_cell_length_b 6.745859
_cell_length_c 10.337877
_cell_angle_alpha 89.272688
_cell_angle_beta 74.537323
_cell_angle_gamma 110.958616
_cell_volume 690.334990
_symmetry_space_group_name_H-M "P -1"
_symmetry_group_IT_number 2
_symmetry_cell_setting 'triclinic'
loop_
_space_group_symop_operation_xyz
x,y,z
-x,-y,-z
loop_
_atom_site_type_symbol
_atom_site_label
_atom_site_fract_x
_atom_site_fract_y
_atom_site_fract_z
Si Si1 0.280002 0.944381 0.217342
Si Si2 0.333618 0.289914 0.999854
Si Si3 0.191585 0.688857 0.673036
Si Si4 0.614231 0.412694 0.802481
Si Si5 0.348803 0.454382 0.496887
Si Si6 0.006022 0.754247 0.156661
Si Si7 0.136386 0.965921 0.873695
Si Si8 0.146419 0.011675 0.504963
O O1 0.377705 0.817151 0.212220
O O2 0.138620 0.791632 0.200330
O O3 0.362509 0.130771 0.093907
O O4 0.249835 0.037937 0.357843
O O5 0.298389 0.460138 0.098776
O O6 0.462605 0.398990 0.871553
O O7 0.211439 0.169065 0.941270
O O8 0.315152 0.642423 0.576425
O O9 0.092056 0.478578 0.772607
O O10 0.236240 0.874912 0.769554
O O11 0.120239 0.784473 0.584240
O O12 0.662994 0.533985 0.653628
O O13 0.500000 0.500000 0.500000
O O14 0.232530 0.221667 0.567085
O O15 0.947911 0.943430 0.203281
O O16 0.037563 0.774113 0.993349
O O17 0.000000 0.000000 0.500000
#
# Coordination Sequence:
#
# PCOD8025533 Si02
#       8
#     2   2   2   2   2   2   2   2
#     4  11  22  44  68 101 135 180 234 285 348 416
#     4  10  24  44  70  96 135 178 232 293 336 420
#     4  12  25  44  71 104 141 188 232 286 360 423
#     4  11  24  45  70  98 132 183 233 285 355 407
#     4  12  29  48  71 105 146 185 235 297 355 421
#     4  10  24  42  71 104 141 181 230 296 346 418
#     4  10  23  45  69 104 140 181 231 287 355 415
#     4  12  27  46  72 104 144 187 236 292 351 428
#
# _framework density 23.177152
#
# number of rings (size 3 to 8) (size 9 to 14) (size 15 to 20)
#    0.000    1.000    2.500    3.000    5.250    7.500 
#    4.500    0.000    0.000    0.000    0.000    0.000 
#    0.000    0.000    0.000    0.000    0.000    0.000 
#
# Total GULP energy -198279.942487 kJ/mol
# GULP energy per Si atom -12392.496405 kJ/mol
# Density = 2.312440 g / cm^3
# Si number density = 23.177152 Si / 1000 Ang^3
#
#
#
# Elastic Constant Matrix: (Units=GPa)
#
#
# Indices 1 2 3 4 5 6 
#
# 1 94.5753 45.5196 28.1646 10.6424 -6.6864 -8.2365
# 2 45.5196 98.7853 42.2528 6.8324 -10.1844 -11.5741
# 3 28.1646 42.2528 104.3911 11.1102 -14.8248 -7.6495
# 4 10.6424 6.8324 11.1102 49.2583 -14.0404 -5.3401
# 5 -6.6864 -10.1844 -14.8248 -14.0404 29.4772 2.0371
# 6 -8.2365 -11.5741 -7.6495 -5.3401 2.0371 38.8512
#
#
#
# Elastic Compliance Matrix: (Units=1/GPa)
#
#
# Indices 1 2 3 4 5 6 
#
# 1 0.013954 -0.005715 -0.001246 -0.001982 -0.000433 0.000761
# 2 -0.005715 0.014963 -0.004141 0.000950 0.002074 0.002453
# 3 -0.001246 -0.004141 0.012292 -0.000695 0.004095 0.000612
# 4 -0.001982 0.000950 -0.000695 0.024113 0.010844 0.002472
# 5 -0.000433 0.002074 0.004095 0.010844 0.041724 0.000635
# 6 0.000761 0.002453 0.000612 0.002472 0.000635 0.027058
#
#
# Mechanical properties :
#
#
# Convention : Reuss Voigt Hill
#
# Bulk Modulus (GPa) = 52.62146 58.84729 55.73438
# Shear Modulus (GPa) = 30.74173 35.63832 33.19003
#
# Velocity S-wave (km/s) = 3.64590 3.92554 3.78830
# Velocity P-wave (km/s) = 6.36214 6.78173 6.57528
#
# Compressibility (1/GPa) = 0.01900365
#
# Stress axis : x y z
#
# Youngs Moduli (GPa) = 71.66279 66.82982 81.35204
#
# Poissons Ratio (x) = 0.38196 0.10139
# Poissons Ratio (y) = 0.40958 0.33691
# Poissons Ratio (z) = 0.08931 0.27677
#
# Static dielectric constant tensor:
#      x y z
#    x 3.804070 -0.137670 0.009830 
#    y -0.137670 4.289430 0.092320 
#    z 0.009830 0.092320 4.574960 
# 
# 
# High freq. dielectric constant tensor:
#      x y z
#    x 1.888010 -0.013130 -0.005790 
#    y -0.013130 1.921990 -0.000800 
#    z -0.005790 -0.000800 1.944670 
# 
# From -- ./inp_files/410485.got.cif
#   From: 2010.06.25/outbox.cif.g09.slc.cpg/sg2_206_cif.got.tgz:410485.got - 2010.06.27 13:26:56.
