data_PCOD8025842
_publ_section_title
;
Structure prediction by ZEFSAII (Michael W. Deem and Ramdas Pophale) SiO2 
 PCOD8025842
Probable space group: P -1
;
_chemical_formula_sum "Si O2"
_cell_formula_units_Z 14
_cell_length_a 18.666318
_cell_length_b 7.493732
_cell_length_c 5.047142
_cell_angle_alpha 97.465086
_cell_angle_beta 128.730012
_cell_angle_gamma 103.341958
_cell_volume 499.670717
_symmetry_space_group_name_H-M "P -1"
_symmetry_group_IT_number 2
_symmetry_cell_setting 'triclinic'
loop_
_space_group_symop_operation_xyz
x,y,z
-x,-y,-z
loop_
_atom_site_type_symbol
_atom_site_label
_atom_site_fract_x
_atom_site_fract_y
_atom_site_fract_z
Si Si1 0.446346 0.347294 0.580254
Si Si2 0.136780 0.059048 0.310652
Si Si3 0.232309 0.266205 0.062771
Si Si4 0.337100 0.879143 0.140619
Si Si5 0.060129 0.320335 0.465534
Si Si6 0.578863 0.217390 0.191826
Si Si7 0.891753 0.257858 0.456067
O O1 0.500000 0.500000 0.500000
O O2 0.347798 0.390500 0.440150
O O3 0.408464 0.115279 0.360173
O O4 0.521491 0.363251 0.009330
O O5 0.179481 0.097093 0.124220
O O6 0.056619 0.154105 0.213220
O O7 0.094265 0.826155 0.239284
O O8 0.229660 0.158411 0.754843
O O9 0.162576 0.389416 0.897844
O O10 0.365146 0.741440 0.388154
O O11 0.344235 0.780785 0.859632
O O12 0.222908 0.841692 0.925773
O O13 0.064699 0.509717 0.356918
O O14 0.960510 0.211207 0.387798
O O15 0.500000 0.000000 0.000000
#
# Coordination Sequence:
#
# PCOD8025842 Si02
#       7
#     2   2   2   2   2   2   2
#     4  11  24  45  71 103 136 187 233 287 356 410
#     4  10  23  46  70 101 144 181 230 289 348 416
#     4  10  24  47  68 100 147 178 236 291 352 413
#     4  11  24  47  66 102 137 184 227 292 340 423
#     4   9  24  48  69 116 134 189 235 296 346 433
#     4  10  24  44  68  96 138 179 236 281 346 415
#     4  11  22  46  80 100 147 188 235 286 366 416
#
# _framework density 28.018453000000001
#
# number of rings (size 3 to 8) (size 9 to 14) (size 15 to 20)
#    0.857    0.857    1.429    2.143    6.000    1.714 
#   10.286   10.000    0.000    0.000    0.000    0.000 
#    0.000    0.000    0.000    0.000    0.000    0.000 
#
# Total GULP energy -173484.503160 kJ/mol
# GULP energy per Si atom -12391.750226 kJ/mol
# Density = 2.795468 g / cm^3
# Si number density = 28.018453 Si / 1000 Ang^3
#
#
#
# Elastic Constant Matrix: (Units=GPa)
#
#
# Indices 1 2 3 4 5 6 
#
# 1 135.9651 34.2863 41.7963 -13.1949 37.3110 23.3974
# 2 34.2863 98.0391 52.3211 -14.2197 31.5284 37.5439
# 3 41.7963 52.3211 120.1358 -18.5802 21.8870 14.3047
# 4 -13.1949 -14.2197 -18.5802 44.8745 -0.0006 -9.6272
# 5 37.3110 31.5284 21.8870 -0.0006 48.6769 -10.0865
# 6 23.3974 37.5439 14.3047 -9.6272 -10.0865 24.8738
#
#
#
# Elastic Compliance Matrix: (Units=1/GPa)
#
#
# Indices 1 2 3 4 5 6 
#
# 1 0.002703 -0.016471 0.000531 0.001919 0.014273 0.028545
# 2 -0.016471 -0.021325 0.000529 0.002423 0.039534 0.064346
# 3 0.000531 0.000529 0.010863 0.002770 -0.007615 -0.009560
# 4 0.001919 0.002423 0.002770 0.024967 -0.004089 0.000949
# 5 0.014273 0.039534 -0.007615 -0.004089 -0.029637 -0.082318
# 6 0.028545 0.064346 -0.009560 0.000949 -0.082318 -0.111285
#
#
# Mechanical properties :
#
#
# Convention : Reuss Voigt Hill
#
# Bulk Modulus (GPa) = -25.91802 67.88303 20.98251
# Shear Modulus (GPa) = -47.28057 38.73414 -4.27322
#
# Velocity S-wave (km/s) = -4.11235 3.72217 -1.23631
# Velocity P-wave (km/s) = 5.64083 6.53860 2.33819
#
# Compressibility (1/GPa) = -0.03858319
#
# Stress axis : x y z
#
# Youngs Moduli (GPa) = 370.01301 -46.89304 92.05501
#
# Poissons Ratio (x) = -0.77239 -0.04887
# Poissons Ratio (y) = 6.09461 -0.04866
# Poissons Ratio (z) = -0.19644 0.02479
#
# Static dielectric constant tensor:
#      x y z
#    x 4.960520 -0.045760 0.224790 
#    y -0.045760 5.413840 -0.837140 
#    z 0.224790 -0.837140 6.670310 
# 
# 
# High freq. dielectric constant tensor:
#      x y z
#    x 2.119980 -0.001900 0.021020 
#    y -0.001900 2.156810 -0.008340 
#    z 0.021020 -0.008340 2.160290 
# 
# From -- ./inp_files/116101.got.cif
#   From: 2010.06.25/outbox.cif.g09.slc.cpg/sg2_59_cif.got.tgz:116101.got - 2010.06.27 13:26:56.
