data_PCOD8025897
_publ_section_title
;
Structure prediction by ZEFSAII (Michael W. Deem and Ramdas Pophale) SiO2 
 PCOD8025897
Probable space group: P -1
;
_chemical_formula_sum "Si O2"
_cell_formula_units_Z 16
_cell_length_a 12.050889
_cell_length_b 24.177447
_cell_length_c 10.955800
_cell_angle_alpha 39.846808
_cell_angle_beta 40.835906
_cell_angle_gamma 19.878275
_cell_volume 686.632413
_symmetry_space_group_name_H-M "P -1"
_symmetry_group_IT_number 2
_symmetry_cell_setting 'triclinic'
loop_
_space_group_symop_operation_xyz
x,y,z
-x,-y,-z
loop_
_atom_site_type_symbol
_atom_site_label
_atom_site_fract_x
_atom_site_fract_y
_atom_site_fract_z
Si Si1 0.860968 0.278246 0.364155
Si Si2 0.647160 0.845409 0.181165
Si Si3 0.600033 0.174545 0.037461
Si Si4 0.506728 0.316335 0.089775
Si Si5 0.178753 0.308109 0.939117
Si Si6 0.845835 0.023749 0.466513
Si Si7 0.210946 0.189748 0.448753
Si Si8 0.828013 0.354651 0.737690
O O1 0.470731 0.451394 0.372542
O O2 0.065616 0.259083 0.146244
O O3 0.911817 0.288729 0.442998
O O4 0.941229 0.142683 0.499920
O O5 0.462070 0.895525 0.369526
O O6 0.020181 0.685162 0.191077
O O7 0.630993 0.781414 0.195707
O O8 0.500000 0.000000 0.000000
O O9 0.499727 0.306756 0.964306
O O10 0.458983 0.226108 0.932121
O O11 0.388073 0.202754 0.252333
O O12 0.000000 0.000000 0.000000
O O13 0.716041 0.151194 0.263550
O O14 0.709188 0.313172 0.944649
O O15 0.130324 0.491715 0.152596
O O16 0.000000 0.000000 0.500000
O O17 0.090856 0.238467 0.605184
O O18 0.500000 0.000000 0.500000
#
# Coordination Sequence:
#
# PCOD8025897 Si02
#       8
#     2   2   2   2   2   2   2   2
#     4  10  23  46  72 103 138 185 233 285 342 417
#     4  12  25  46  72  98 138 188 237 276 345 424
#     4  11  24  42  72 105 141 177 229 292 349 401
#     4  11  25  45  69 106 141 178 229 292 351 398
#     4  10  25  45  73 101 139 188 230 281 345 423
#     4  12  27  45  67 102 142 180 233 291 344 406
#     4  11  22  43  72 105 137 183 237 278 344 419
#     4  11  25  44  76 101 138 187 232 282 343 419
#
# _framework density 23.302135
#
# number of rings (size 3 to 8) (size 9 to 14) (size 15 to 20)
#    0.000    1.000    1.250    4.500    7.000    1.500 
#    2.250    0.000    0.000    0.000    0.000    0.875 
#    0.000    0.000    0.000    0.000    0.000    0.000 
#
# Total GULP energy -198218.295162 kJ/mol
# GULP energy per Si atom -12388.643448 kJ/mol
# Density = 2.324910 g / cm^3
# Si number density = 23.302135 Si / 1000 Ang^3
#
#
#
# Elastic Constant Matrix: (Units=GPa)
#
#
# Indices 1 2 3 4 5 6 
#
# 1 161.2471 65.4952 17.2064 -10.2221 11.5154 -15.5279
# 2 65.4952 152.6588 49.6512 -17.4992 7.1800 -2.5609
# 3 17.2064 49.6512 66.0178 -12.0450 7.2657 -5.8705
# 4 -10.2221 -17.4992 -12.0450 38.4457 3.3510 0.6468
# 5 11.5154 7.1800 7.2657 3.3510 33.3164 1.2685
# 6 -15.5279 -2.5609 -5.8705 0.6468 1.2685 47.7348
#
#
#
# Elastic Compliance Matrix: (Units=1/GPa)
#
#
# Indices 1 2 3 4 5 6 
#
# 1 0.008016 -0.003579 0.001309 0.001085 -0.002494 0.002628
# 2 -0.003579 0.010443 -0.006787 0.001669 0.000354 -0.001471
# 3 0.001309 -0.006787 0.021397 0.004282 -0.004191 0.002746
# 4 0.001085 0.001669 0.004282 0.028789 -0.004591 0.000701
# 5 -0.002494 0.000354 -0.004191 -0.004591 0.032257 -0.002103
# 6 0.002628 -0.001471 0.002746 0.000701 -0.002103 0.022109
#
#
# Mechanical properties :
#
#
# Convention : Reuss Voigt Hill
#
# Bulk Modulus (GPa) = 45.99300 71.62546 58.80923
# Shear Modulus (GPa) = 33.69900 40.40410 37.05155
#
# Velocity S-wave (km/s) = 3.80699 4.16856 3.99187
# Velocity P-wave (km/s) = 6.25338 7.34667 6.82196
#
# Compressibility (1/GPa) = 0.02174244
#
# Stress axis : x y z
#
# Youngs Moduli (GPa) = 124.75653 95.75506 46.73492
#
# Poissons Ratio (x) = 0.34268 -0.06116
# Poissons Ratio (y) = 0.44647 0.31718
# Poissons Ratio (z) = -0.16326 0.64986
#
# Static dielectric constant tensor:
#      x y z
#    x 4.373980 -0.069640 -0.081830 
#    y -0.069640 4.242410 0.152060 
#    z -0.081830 0.152060 3.953750 
# 
# 
# High freq. dielectric constant tensor:
#      x y z
#    x 1.949080 -0.003340 -0.003300 
#    y -0.003340 1.928260 0.005020 
#    z -0.003300 0.005020 1.913250 
# 
# From -- ./inp_files/439243.got.cif
#   From: 2010.06.25/outbox.cif.g09.slc.cpg/sg2_220_cif.got.tgz:439243.got - 2010.06.27 13:26:56.
