data_PCOD8025203
_publ_section_title
;
Structure prediction by ZEFSAII (Michael W. Deem and Ramdas Pophale) SiO2 
 PCOD8025203
Probable space group: P -1
;
_chemical_formula_sum "Si O2"
_cell_formula_units_Z 14
_cell_length_a 9.125034
_cell_length_b 14.687179
_cell_length_c 7.832945
_cell_angle_alpha 81.292734
_cell_angle_beta 72.222878
_cell_angle_gamma 38.144272
_cell_volume 610.363012
_symmetry_space_group_name_H-M "P -1"
_symmetry_group_IT_number 2
_symmetry_cell_setting 'triclinic'
loop_
_space_group_symop_operation_xyz
x,y,z
-x,-y,-z
loop_
_atom_site_type_symbol
_atom_site_label
_atom_site_fract_x
_atom_site_fract_y
_atom_site_fract_z
Si Si1 0.869805 0.685323 0.059681
Si Si2 0.636270 0.343379 0.549959
Si Si3 0.801671 0.916777 0.529692
Si Si4 0.572184 0.746490 0.456899
Si Si5 0.572375 0.752523 0.838129
Si Si6 0.449669 0.425267 0.959602
Si Si7 0.658578 0.960090 0.198620
O O1 0.784273 0.672478 0.265615
O O2 0.763459 0.840043 0.054746
O O3 0.784687 0.669899 0.927164
O O4 0.162532 0.551750 0.980168
O O5 0.500000 0.500000 0.500000
O O6 0.504510 0.323411 0.501728
O O7 0.616133 0.335078 0.759735
O O8 0.929521 0.209606 0.440183
O O9 0.631033 0.925045 0.689862
O O10 0.675189 0.076890 0.540100
O O11 0.823050 0.873730 0.336769
O O12 0.677659 0.716174 0.618471
O O13 0.346587 0.932307 0.900361
O O14 0.469241 0.696852 0.910380
O O15 0.500000 0.500000 0.000000
#
# Coordination Sequence:
#
# PCOD8025203 Si02
#       7
#     2   2   2   2   2   2   2
#     4  11  23  45  69 100 138 174 226 277 328 406
#     4  12  25  42  65  97 140 181 219 277 341 397
#     4   9  20  41  68  99 134 173 226 274 333 403
#     4  10  23  44  70  98 129 179 221 278 338 388
#     4  11  23  43  70 100 132 174 229 272 334 401
#     4  12  27  45  63  99 142 177 225 279 331 406
#     4   9  20  40  72 101 127 176 225 282 331 390
#
# _framework density 22.937169000000001
#
# number of rings (size 3 to 8) (size 9 to 14) (size 15 to 20)
#    0.000    1.429    1.429    3.857    2.000    0.571 
#    0.000    6.429    0.000    0.000    0.000    0.000 
#    0.000    0.000    0.000    0.000    0.000    0.000 
#
# Total GULP energy -173616.875628 kJ/mol
# GULP energy per Si atom -12401.205402 kJ/mol
# Density = 2.288496 g / cm^3
# Si number density = 22.937169 Si / 1000 Ang^3
#
#
#
# Elastic Constant Matrix: (Units=GPa)
#
#
# Indices 1 2 3 4 5 6 
#
# 1 100.9549 46.8364 18.0565 -0.9824 8.2466 30.9413
# 2 46.8364 97.5677 30.8876 -10.6933 -17.9076 21.8651
# 3 18.0565 30.8876 79.4737 -9.7860 14.2923 2.2242
# 4 -0.9824 -10.6933 -9.7860 32.8806 3.9015 -7.0438
# 5 8.2466 -17.9076 14.2923 3.9015 33.3329 0.5407
# 6 30.9413 21.8651 2.2242 -7.0438 0.5407 46.5815
#
#
#
# Elastic Compliance Matrix: (Units=1/GPa)
#
#
# Indices 1 2 3 4 5 6 
#
# 1 0.016624 -0.008515 0.000992 -0.002525 -0.008697 -0.007374
# 2 -0.008515 0.021578 -0.009394 0.000996 0.017677 -0.004079
# 3 0.000992 -0.009394 0.019077 0.005140 -0.014135 0.003781
# 4 -0.002525 0.000996 0.005140 0.034126 -0.005139 0.006184
# 5 -0.008697 0.017677 -0.014135 -0.005139 0.048362 -0.003184
# 6 -0.007374 -0.004079 0.003781 0.006184 -0.003184 0.029072
#
#
# Mechanical properties :
#
#
# Convention : Reuss Voigt Hill
#
# Bulk Modulus (GPa) = 42.65114 52.17306 47.41210
# Shear Modulus (GPa) = 23.75420 34.70673 29.23046
#
# Velocity S-wave (km/s) = 3.22160 3.89411 3.57371
# Velocity P-wave (km/s) = 5.69854 6.55852 6.14360
#
# Compressibility (1/GPa) = 0.02344603
#
# Stress axis : x y z
#
# Youngs Moduli (GPa) = 60.15332 46.34293 52.41792
#
# Poissons Ratio (x) = 0.39460 -0.05199
# Poissons Ratio (y) = 0.51220 0.49241
# Poissons Ratio (z) = -0.05966 0.43534
#
# Static dielectric constant tensor:
#      x y z
#    x 4.268030 0.449360 0.013820 
#    y 0.449360 4.129780 -0.065350 
#    z 0.013820 -0.065350 4.114420 
# 
# 
# High freq. dielectric constant tensor:
#      x y z
#    x 1.908630 0.026940 0.009950 
#    y 0.026940 1.908030 -0.005810 
#    z 0.009950 -0.005810 1.898340 
# 
# From -- ./inp_files/185784.got.cif
#   From: 2010.06.25/outbox.cif.g09.slc.cpg/sg2_93_cif.got.tgz:185784.got - 2010.06.27 13:26:56.
