data_PCOD8025059
_publ_section_title
;
Structure prediction by ZEFSAII (Michael W. Deem and Ramdas Pophale) SiO2 
 PCOD8025059
Probable space group: P -1
;
_chemical_formula_sum "Si O2"
_cell_formula_units_Z 12
_cell_length_a 16.464579
_cell_length_b 5.087096
_cell_length_c 9.271177
_cell_angle_alpha 108.058876
_cell_angle_beta 139.750374
_cell_angle_gamma 57.867035
_cell_volume 418.285424
_symmetry_space_group_name_H-M "P -1"
_symmetry_group_IT_number 2
_symmetry_cell_setting 'triclinic'
loop_
_space_group_symop_operation_xyz
x,y,z
-x,-y,-z
loop_
_atom_site_type_symbol
_atom_site_label
_atom_site_fract_x
_atom_site_fract_y
_atom_site_fract_z
Si Si1 0.445081 0.729751 0.828725
Si Si2 0.028872 0.689887 0.758261
Si Si3 0.791465 0.783166 0.863829
Si Si4 0.626516 0.503344 0.760286
Si Si5 0.216467 0.387518 0.709060
Si Si6 0.816058 0.340485 0.585072
O O1 0.578812 0.622520 0.881088
O O2 0.321275 0.702015 0.565876
O O3 0.378061 0.094979 0.855800
O O4 0.500000 0.500000 0.000000
O O5 0.178466 0.558756 0.844977
O O6 0.898902 0.736569 0.485781
O O7 0.058167 0.442387 0.886135
O O8 0.967842 0.047379 0.795413
O O9 0.669573 0.741268 0.778660
O O10 0.798639 0.658283 0.689490
O O11 0.759229 0.142799 0.876379
O O12 0.500000 0.500000 0.500000
O O13 0.186327 0.643314 0.589089
#
# Coordination Sequence:
#
# PCOD8025059 Si02
#       6
#     2   2   2   2   2   2
#     4  11  25  42  67 100 133 181 228 277 341 405
#     4  10  24  44  67 101 130 179 227 283 341 401
#     4  12  27  44  74 101 138 182 225 280 341 403
#     4  12  26  47  69 101 143 179 225 280 337 406
#     4  10  23  44  68  94 138 173 230 284 339 398
#     4  11  24  42  69  97 134 178 224 288 333 406
#
# _framework density 28.688545000000001
#
# number of rings (size 3 to 8) (size 9 to 14) (size 15 to 20)
#    0.000    1.000    1.667    3.500    9.333    1.333 
#    0.000    0.000    0.000    0.000    0.000    0.000 
#    0.000    0.000    0.000    0.000    0.000    0.000 
#
# Total GULP energy -148852.880544 kJ/mol
# GULP energy per Si atom -12404.406712 kJ/mol
# Density = 2.862325 g / cm^3
# Si number density = 28.688545 Si / 1000 Ang^3
#
#
#
# Elastic Constant Matrix: (Units=GPa)
#
#
# Indices 1 2 3 4 5 6 
#
# 1 95.4098 4.6567 -0.4771 -11.2203 10.1898 -28.1905
# 2 4.6567 157.3178 41.1457 -10.3913 5.7974 -24.9478
# 3 -0.4771 41.1457 106.8993 -19.7277 3.2828 -22.9542
# 4 -11.2203 -10.3913 -19.7277 60.7719 -9.3928 -3.5846
# 5 10.1898 5.7974 3.2828 -9.3928 53.0958 -16.4223
# 6 -28.1905 -24.9478 -22.9542 -3.5846 -16.4223 39.2622
#
#
#
# Elastic Compliance Matrix: (Units=1/GPa)
#
#
# Indices 1 2 3 4 5 6 
#
# 1 0.015526 0.001308 0.003949 0.005703 0.002553 0.015876
# 2 0.001308 0.007644 -0.001512 0.001529 0.000966 0.005455
# 3 0.003949 -0.001512 0.013472 0.006033 0.003248 0.011660
# 4 0.005703 0.001529 0.006033 0.021468 0.006234 0.013161
# 5 0.002553 0.000966 0.003248 0.006234 0.023731 0.014840
# 6 0.015876 0.005455 0.011660 0.013161 0.014840 0.054561
#
#
# Mechanical properties :
#
#
# Convention : Reuss Voigt Hill
#
# Bulk Modulus (GPa) = 22.66031 50.03083 36.34557
# Shear Modulus (GPa) = 34.81367 51.57944 43.19655
#
# Velocity S-wave (km/s) = 3.48732 4.24478 3.88455
# Velocity P-wave (km/s) = 4.91234 6.44215 5.72854
#
# Compressibility (1/GPa) = 0.04413002
#
# Stress axis : x y z
#
# Youngs Moduli (GPa) = 64.40882 130.82297 74.22942
#
# Poissons Ratio (x) = -0.17110 -0.29313
# Poissons Ratio (y) = -0.08424 0.11227
# Poissons Ratio (z) = -0.25435 0.19787
#
# Static dielectric constant tensor:
#      x y z
#    x 5.355620 -0.318670 0.517120 
#    y -0.318670 5.228550 0.016400 
#    z 0.517120 0.016400 5.487070 
# 
# 
# High freq. dielectric constant tensor:
#      x y z
#    x 2.181130 -0.006810 0.036060 
#    y -0.006810 2.169660 0.016570 
#    z 0.036060 0.016570 2.200470 
# 
# From -- ./inp_files/17803.got.cif
#   From: 2010.06.25/outbox.cif.g09.slc.cpg/sg2_9_cif.got.tgz:17803.got - 2010.06.27 13:26:56.
