data_PCOD8025385
_publ_section_title
;
Structure prediction by ZEFSAII (Michael W. Deem and Ramdas Pophale) SiO2 
 PCOD8025385
Probable space group: P -1
;
_chemical_formula_sum "Si O2"
_cell_formula_units_Z 14
_cell_length_a 6.413282
_cell_length_b 15.700813
_cell_length_c 11.452309
_cell_angle_alpha 142.995273
_cell_angle_beta 60.906475
_cell_angle_gamma 121.531629
_cell_volume 586.282409
_symmetry_space_group_name_H-M "P -1"
_symmetry_group_IT_number 2
_symmetry_cell_setting 'triclinic'
loop_
_space_group_symop_operation_xyz
x,y,z
-x,-y,-z
loop_
_atom_site_type_symbol
_atom_site_label
_atom_site_fract_x
_atom_site_fract_y
_atom_site_fract_z
Si Si1 0.957154 0.998723 0.370251
Si Si2 0.199819 0.329433 0.997418
Si Si3 0.470647 0.996494 0.143055
Si Si4 0.683856 0.636331 0.479747
Si Si5 0.581478 0.606151 0.225616
Si Si6 0.329543 0.677998 0.800979
Si Si7 0.786563 0.198459 0.465073
O O1 0.224238 0.047120 0.291076
O O2 0.803461 0.840241 0.192350
O O3 0.000000 0.000000 0.500000
O O4 0.803150 0.107683 0.480236
O O5 0.211055 0.386136 0.921382
O O6 0.442662 0.436235 0.106249
O O7 0.965954 0.353540 0.158851
O O8 0.693805 0.094424 0.264646
O O9 0.435317 0.827144 0.008877
O O10 0.500000 0.000000 0.000000
O O11 0.720653 0.682316 0.385090
O O12 0.461775 0.699817 0.660872
O O13 0.596599 0.460075 0.315057
O O14 0.945963 0.704138 0.544403
O O15 0.385964 0.696582 0.338377
#
# Coordination Sequence:
#
# PCOD8025385 Si02
#       7
#     2   2   2   2   2   2   2
#     4  11  25  45  68 102 141 179 230 283 339 411
#     4  10  23  45  65 101 134 178 227 282 338 404
#     4  11  25  45  68 102 141 179 230 283 339 411
#     4  11  24  44  69  98 138 179 228 282 339 407
#     4  11  24  44  69  98 138 179 228 282 339 407
#     4  10  23  45  65 101 134 178 227 282 338 404
#     4  12  24  44  74 102 138 186 224 284 350 400
#
# _framework density 23.879276999999998
#
# number of rings (size 3 to 8) (size 9 to 14) (size 15 to 20)
#    0.000    1.143    1.429    4.286    2.000    5.714 
#   15.429    0.000    0.000    0.000    0.000    0.000 
#    0.000    0.000    0.000    0.000    0.000    0.000 
#
# Total GULP energy -173508.351009 kJ/mol
# GULP energy per Si atom -12393.453644 kJ/mol
# Density = 2.382493 g / cm^3
# Si number density = 23.879277 Si / 1000 Ang^3
#
#
#
# Elastic Constant Matrix: (Units=GPa)
#
#
# Indices 1 2 3 4 5 6 
#
# 1 86.2624 39.4170 39.4921 0.8072 24.0020 4.3652
# 2 39.4170 77.3662 24.2637 -9.6675 18.4184 13.6894
# 3 39.4921 24.2637 103.2793 13.0995 16.9104 1.7945
# 4 0.8072 -9.6675 13.0995 55.0187 1.1195 -1.4228
# 5 24.0020 18.4184 16.9104 1.1195 35.4526 -1.7526
# 6 4.3652 13.6894 1.7945 -1.4228 -1.7526 44.2042
#
#
#
# Elastic Compliance Matrix: (Units=1/GPa)
#
#
# Indices 1 2 3 4 5 6 
#
# 1 0.018495 -0.006391 -0.004383 -0.000205 -0.007102 0.000042
# 2 -0.006391 0.019410 -0.001634 0.003863 -0.005367 -0.005402
# 3 -0.004383 -0.001634 0.012467 -0.003143 -0.002019 0.000251
# 4 -0.000205 0.003863 -0.003143 0.019615 -0.001010 -0.000457
# 5 -0.007102 -0.005367 -0.002019 -0.001010 0.036990 0.003880
# 6 0.000042 -0.005402 0.000251 -0.000457 0.003880 0.024420
#
#
# Mechanical properties :
#
#
# Convention : Reuss Voigt Hill
#
# Bulk Modulus (GPa) = 39.12637 52.58372 45.85504
# Shear Modulus (GPa) = 30.35255 37.85077 34.10166
#
# Velocity S-wave (km/s) = 3.56909 3.98564 3.78310
# Velocity P-wave (km/s) = 5.77972 6.57639 6.19088
#
# Compressibility (1/GPa) = 0.02555821
#
# Stress axis : x y z
#
# Youngs Moduli (GPa) = 54.06820 51.51915 80.21149
#
# Poissons Ratio (x) = 0.32925 0.35153
# Poissons Ratio (y) = 0.34554 0.13104
# Poissons Ratio (z) = 0.23696 0.08416
#
# Static dielectric constant tensor:
#      x y z
#    x 3.945690 0.279150 0.038910 
#    y 0.279150 4.495890 0.212710 
#    z 0.038910 0.212710 4.714550 
# 
# 
# High freq. dielectric constant tensor:
#      x y z
#    x 1.914530 0.019700 0.004960 
#    y 0.019700 1.960980 0.019520 
#    z 0.004960 0.019520 1.971560 
# 
# From -- ./inp_files/368153.got.cif
#   From: 2010.06.25/outbox.cif.g09.slc.cpg/sg2_185_cif.got.tgz:368153.got - 2010.06.27 13:26:56.
