data_PCOD8025796
_publ_section_title
;
Structure prediction by ZEFSAII (Michael W. Deem and Ramdas Pophale) SiO2 
 PCOD8025796
Probable space group: P -1
;
_chemical_formula_sum "Si O2"
_cell_formula_units_Z 16
_cell_length_a 14.592123
_cell_length_b 11.840055
_cell_length_c 15.340520
_cell_angle_alpha 124.413418
_cell_angle_beta 28.131388
_cell_angle_gamma 139.855052
_cell_volume 752.151310
_symmetry_space_group_name_H-M "P -1"
_symmetry_group_IT_number 2
_symmetry_cell_setting 'triclinic'
loop_
_space_group_symop_operation_xyz
x,y,z
-x,-y,-z
loop_
_atom_site_type_symbol
_atom_site_label
_atom_site_fract_x
_atom_site_fract_y
_atom_site_fract_z
Si Si1 0.283468 0.045797 0.035260
Si Si2 0.634619 0.565928 0.529425
Si Si3 0.291283 0.313094 0.034614
Si Si4 0.274372 0.823144 0.553497
Si Si5 0.784334 0.184890 0.598640
Si Si6 0.906595 0.606352 0.156031
Si Si7 0.052173 0.024121 0.567350
Si Si8 0.309275 0.535133 0.381240
O O1 0.201219 0.124969 0.070252
O O2 0.599238 0.176775 0.818473
O O3 0.148855 0.831524 0.042947
O O4 0.224075 0.079299 0.195226
O O5 0.778006 0.525968 0.326339
O O6 0.316252 0.426076 0.730807
O O7 0.740015 0.759550 0.488463
O O8 0.713533 0.582118 0.570946
O O9 0.416764 0.346801 0.849351
O O10 0.500000 0.500000 0.000000
O O11 0.020640 0.263241 0.220164
O O12 0.345540 0.871011 0.412378
O O13 0.281573 0.668697 0.506845
O O14 0.500000 0.000000 0.500000
O O15 0.073429 0.394565 0.448500
O O16 0.803480 0.039911 0.548932
O O17 0.000000 0.500000 0.000000
O O18 0.000000 0.000000 0.500000
#
# Coordination Sequence:
#
# PCOD8025796 Si02
#       8
#     2   2   2   2   2   2   2   2
#     4  11  24  40  74  98 133 183 230 277 353 415
#     4  10  24  42  68 101 135 178 229 284 347 419
#     4  12  24  46  72 100 140 193 230 287 358 414
#     4  12  28  43  70 105 140 186 236 288 347 417
#     4  12  23  46  71 100 145 180 234 296 346 413
#     4  10  23  46  68  96 140 182 224 287 354 416
#     4  11  22  43  68 103 134 175 229 290 347 410
#     4  12  25  45  70 102 145 182 238 288 348 424
#
# _framework density 21.272317000000001
#
# number of rings (size 3 to 8) (size 9 to 14) (size 15 to 20)
#    0.000    0.750    5.000    1.875    1.750    5.000 
#    2.250    0.000    0.000    0.000    0.000    0.000 
#    0.000    0.000    0.000    0.000    0.000    0.000 
#
# Total GULP energy -198339.680386 kJ/mol
# GULP energy per Si atom -12396.230024 kJ/mol
# Density = 2.122390 g / cm^3
# Si number density = 21.272317 Si / 1000 Ang^3
#
#
#
# Elastic Constant Matrix: (Units=GPa)
#
#
# Indices 1 2 3 4 5 6 
#
# 1 94.1284 39.2664 48.6043 -1.1268 8.8753 12.5697
# 2 39.2664 84.8943 31.9767 11.4615 -3.3589 -10.3475
# 3 48.6043 31.9767 165.5633 17.6454 -0.4084 -0.8757
# 4 -1.1268 11.4615 17.6454 33.5460 -0.1696 -3.1685
# 5 8.8753 -3.3589 -0.4084 -0.1696 38.4436 -3.3171
# 6 12.5697 -10.3475 -0.8757 -3.1685 -3.3171 35.8259
#
#
#
# Elastic Compliance Matrix: (Units=1/GPa)
#
#
# Indices 1 2 3 4 5 6 
#
# 1 0.018406 -0.008939 -0.004275 0.005019 -0.005851 -0.009242
# 2 -0.008939 0.017903 -0.000191 -0.005519 0.004310 0.008213
# 3 -0.004275 -0.000191 0.007772 -0.004030 0.001155 0.001385
# 4 0.005019 -0.005519 -0.004030 0.033919 -0.001586 -0.000600
# 5 -0.005851 0.004310 0.001155 -0.001586 0.028245 0.005801
# 6 -0.009242 0.008213 0.001385 -0.000600 0.005801 0.034045
#
#
# Mechanical properties :
#
#
# Convention : Reuss Voigt Hill
#
# Bulk Modulus (GPa) = 57.90429 64.92010 61.41220
# Shear Modulus (GPa) = 28.92565 36.54567 32.73566
#
# Velocity S-wave (km/s) = 3.69152 4.14936 3.92712
# Velocity P-wave (km/s) = 6.74161 7.31718 7.03528
#
# Compressibility (1/GPa) = 0.01726988
#
# Stress axis : x y z
#
# Youngs Moduli (GPa) = 54.32973 55.85802 128.67273
#
# Poissons Ratio (x) = 0.49929 0.55011
# Poissons Ratio (y) = 0.48563 0.02462
# Poissons Ratio (z) = 0.23227 0.01069
#
# Static dielectric constant tensor:
#      x y z
#    x 3.941380 0.062470 0.241980 
#    y 0.062470 4.132770 0.180380 
#    z 0.241980 0.180380 4.159190 
# 
# 
# High freq. dielectric constant tensor:
#      x y z
#    x 1.821880 -0.011100 0.004990 
#    y -0.011100 1.845490 0.006460 
#    z 0.004990 0.006460 1.851920 
# 
# From -- ./inp_files/308913.got.cif
#   From: 2010.06.25/outbox.cif.g09.slc.cpg/sg2_155_cif.got.tgz:308913.got - 2010.06.27 13:26:56.
