data_PCOD8025147
_publ_section_title
;
Structure prediction by ZEFSAII (Michael W. Deem and Ramdas Pophale) SiO2 
 PCOD8025147
Probable space group: P -1
;
_chemical_formula_sum "Si O2"
_cell_formula_units_Z 14
_cell_length_a 12.488581
_cell_length_b 9.238998
_cell_length_c 13.671798
_cell_angle_alpha 106.769871
_cell_angle_beta 126.949496
_cell_angle_gamma 33.953987
_cell_volume 621.249676
_symmetry_space_group_name_H-M "P -1"
_symmetry_group_IT_number 2
_symmetry_cell_setting 'triclinic'
loop_
_space_group_symop_operation_xyz
x,y,z
-x,-y,-z
loop_
_atom_site_type_symbol
_atom_site_label
_atom_site_fract_x
_atom_site_fract_y
_atom_site_fract_z
Si Si1 0.618822 0.130264 0.327122
Si Si2 0.212652 0.845475 0.009079
Si Si3 0.959901 0.382538 0.899704
Si Si4 0.887833 0.720627 0.560204
Si Si5 0.252543 0.710205 0.471842
Si Si6 0.060505 0.582298 0.334484
Si Si7 0.205427 0.702075 0.774891
O O1 0.644997 0.039941 0.436237
O O2 0.778414 0.878305 0.287616
O O3 0.727666 0.198678 0.404753
O O4 0.502628 0.561295 0.159336
O O5 0.201994 0.734764 0.894879
O O6 0.168643 0.058478 0.987403
O O7 0.320465 0.415779 0.188264
O O8 0.000000 0.000000 0.000000
O O9 0.984996 0.386714 0.799255
O O10 0.000000 0.500000 0.000000
O O11 0.809887 0.699011 0.609302
O O12 0.000000 0.500000 0.500000
O O13 0.109947 0.624764 0.690965
O O14 0.500000 0.500000 0.500000
O O15 0.247165 0.539055 0.464721
O O16 0.985434 0.993069 0.320890
#
# Coordination Sequence:
#
# PCOD8025147 Si02
#       7
#     2   2   2   2   2   2   2
#     4  10  23  44  69  98 136 174 224 282 349 404
#     4  11  26  46  68  96 134 190 232 273 336 403
#     4  12  28  45  65 103 137 179 238 281 331 415
#     4   9  22  43  67 103 130 176 220 277 350 402
#     4  11  20  44  69 102 133 171 228 288 339 410
#     4  11  23  43  70  97 135 179 220 284 348 400
#     4  10  23  46  68  96 141 172 229 282 332 412
#
# _framework density 22.535222000000001
#
# number of rings (size 3 to 8) (size 9 to 14) (size 15 to 20)
#    0.000    1.429    2.857    0.429    8.000    1.143 
#    7.714    0.000    0.000    0.000    0.000    0.000 
#    0.000    0.000    0.000    0.000    0.000    0.000 
#
# Total GULP energy -173606.035600 kJ/mol
# GULP energy per Si atom -12400.431114 kJ/mol
# Density = 2.248393 g / cm^3
# Si number density = 22.535222 Si / 1000 Ang^3
#
#
#
# Elastic Constant Matrix: (Units=GPa)
#
#
# Indices 1 2 3 4 5 6 
#
# 1 118.6051 42.5783 45.8443 -7.2039 6.7939 6.0981
# 2 42.5783 85.9953 36.8840 2.7404 13.0723 -2.1769
# 3 45.8443 36.8840 95.6646 10.1527 14.6976 3.7304
# 4 -7.2039 2.7404 10.1527 38.6186 -2.7920 13.7716
# 5 6.7939 13.0723 14.6976 -2.7920 46.8886 2.9066
# 6 6.0981 -2.1769 3.7304 13.7716 2.9066 49.3668
#
#
#
# Elastic Compliance Matrix: (Units=1/GPa)
#
#
# Indices 1 2 3 4 5 6 
#
# 1 0.012247 -0.004459 -0.004789 0.004969 0.001440 -0.002819
# 2 -0.004459 0.015867 -0.003390 -0.002090 -0.002980 0.002265
# 3 -0.004789 -0.003390 0.015104 -0.005216 -0.003466 0.000960
# 4 0.004969 -0.002090 -0.005216 0.032009 0.003991 -0.009476
# 5 0.001440 -0.002980 -0.003466 0.003991 0.023431 -0.002540
# 6 -0.002819 0.002265 0.000960 -0.009476 -0.002540 0.023425
#
#
# Mechanical properties :
#
#
# Convention : Reuss Voigt Hill
#
# Bulk Modulus (GPa) = 55.73021 61.20870 58.46945
# Shear Modulus (GPa) = 32.60792 38.63869 35.62331
#
# Velocity S-wave (km/s) = 3.80804 4.14525 3.98022
# Velocity P-wave (km/s) = 6.64220 7.08034 6.86477
#
# Compressibility (1/GPa) = 0.01794359
#
# Stress axis : x y z
#
# Youngs Moduli (GPa) = 81.65155 63.02460 66.20955
#
# Poissons Ratio (x) = 0.28100 0.31706
# Poissons Ratio (y) = 0.36405 0.22443
# Poissons Ratio (z) = 0.39101 0.21363
#
# Static dielectric constant tensor:
#      x y z
#    x 4.099240 0.248040 -0.017060 
#    y 0.248040 4.462850 -0.097720 
#    z -0.017060 -0.097720 4.091960 
# 
# 
# High freq. dielectric constant tensor:
#      x y z
#    x 1.889630 0.004570 0.001650 
#    y 0.004570 1.900900 0.006050 
#    z 0.001650 0.006050 1.883550 
# 
# From -- ./inp_files/220876.got.cif
#   From: 2010.06.25/outbox.cif.g09.slc.cpg/sg2_111_cif.got.tgz:220876.got - 2010.06.27 13:26:56.
