data_PCOD8025850
_publ_section_title
;
Structure prediction by ZEFSAII (Michael W. Deem and Ramdas Pophale) SiO2 
 PCOD8025850
Probable space group: P -1
;
_chemical_formula_sum "Si O2"
_cell_formula_units_Z 16
_cell_length_a 8.963860
_cell_length_b 13.980024
_cell_length_c 5.165765
_cell_angle_alpha 96.450889
_cell_angle_beta 95.474535
_cell_angle_gamma 90.101518
_cell_volume 640.263952
_symmetry_space_group_name_H-M "P -1"
_symmetry_group_IT_number 2
_symmetry_cell_setting 'triclinic'
loop_
_space_group_symop_operation_xyz
x,y,z
-x,-y,-z
loop_
_atom_site_type_symbol
_atom_site_label
_atom_site_fract_x
_atom_site_fract_y
_atom_site_fract_z
Si Si1 0.509721 0.575155 0.249101
Si Si2 0.300289 0.277288 0.977865
Si Si3 0.218675 0.433335 0.418287
Si Si4 0.037831 0.129423 0.799713
Si Si5 0.608781 0.200166 0.126137
Si Si6 0.011791 0.582963 0.237085
Si Si7 0.860549 0.083621 0.268346
Si Si8 0.266719 0.708856 0.326207
O O1 0.604648 0.539614 0.505789
O O2 0.340996 0.603310 0.281475
O O3 0.500000 0.500000 0.000000
O O4 0.603910 0.671244 0.213929
O O5 0.209318 0.357943 0.155988
O O6 0.428946 0.215225 0.139042
O O7 0.173275 0.206123 0.827021
O O8 0.125956 0.531937 0.438695
O O9 0.146259 0.384739 0.653038
O O10 0.909637 0.143223 0.558110
O O11 0.115642 0.028278 0.719837
O O12 0.961604 0.127912 0.067346
O O13 0.681339 0.096322 0.181789
O O14 0.702796 0.266671 0.362022
O O15 0.658757 0.218432 0.844286
O O16 0.092963 0.685452 0.207832
O O17 0.000000 0.500000 0.000000
#
# Coordination Sequence:
#
# PCOD8025850 Si02
#       8
#     2   2   2   2   2   2   2   2
#     4  11  24  42  65  90 132 180 228 276 338 395
#     4  11  25  42  66 103 134 181 228 284 340 408
#     4  11  24  41  64  89 130 172 228 283 339 395
#     4  10  24  44  74 101 141 174 228 273 343 411
#     4  11  25  42  68  99 138 171 226 272 343 400
#     4  11  26  41  59  92 126 174 232 281 340 392
#     4  10  23  46  70 106 135 182 217 280 343 412
#     4  11  25  42  64  95 130 175 222 281 332 404
#
# _framework density 24.989695000000001
#
# number of rings (size 3 to 8) (size 9 to 14) (size 15 to 20)
#    0.000    1.250    1.250    3.000   10.500    3.500 
#    0.000    0.000    0.000    6.750    0.000    0.000 
#    0.000    0.000    0.000    0.000    0.000    0.000 
#
# Total GULP energy -198221.005932 kJ/mol
# GULP energy per Si atom -12388.812871 kJ/mol
# Density = 2.493282 g / cm^3
# Si number density = 24.989695 Si / 1000 Ang^3
#
#
#
# Elastic Constant Matrix: (Units=GPa)
#
#
# Indices 1 2 3 4 5 6 
#
# 1 123.0302 15.7545 2.1848 0.5090 11.5852 -2.1119
# 2 15.7545 41.7637 -4.5075 2.1720 12.4108 1.6570
# 3 2.1848 -4.5075 106.8478 6.4341 -1.8864 16.1317
# 4 0.5090 2.1720 6.4341 30.0159 -2.6088 9.2173
# 5 11.5852 12.4108 -1.8864 -2.6088 46.2500 -5.3647
# 6 -2.1119 1.6570 16.1317 9.2173 -5.3647 48.9041
#
#
#
# Elastic Compliance Matrix: (Units=1/GPa)
#
#
# Indices 1 2 3 4 5 6 
#
# 1 0.008644 -0.002914 -0.000388 -0.000115 -0.001351 0.000474
# 2 -0.002914 0.027459 0.001518 -0.002286 -0.006924 -0.001886
# 3 -0.000388 0.001518 0.009979 -0.001304 -0.000342 -0.003152
# 4 -0.000115 -0.002286 -0.001304 0.035781 0.001908 -0.006032
# 5 -0.001351 -0.006924 -0.000342 0.001908 0.024212 0.002586
# 6 0.000474 -0.001886 -0.003152 -0.006032 0.002586 0.022993
#
#
# Mechanical properties :
#
#
# Convention : Reuss Voigt Hill
#
# Bulk Modulus (GPa) = 23.52174 33.16725 28.34449
# Shear Modulus (GPa) = 34.05845 42.24799 38.15322
#
# Velocity S-wave (km/s) = 3.69575 4.11617 3.91161
# Velocity P-wave (km/s) = 5.25780 5.99097 5.63632
#
# Compressibility (1/GPa) = 0.04251386
#
# Stress axis : x y z
#
# Youngs Moduli (GPa) = 115.68820 36.41839 100.20610
#
# Poissons Ratio (x) = 0.10613 0.03889
# Poissons Ratio (y) = 0.33712 -0.15212
# Poissons Ratio (z) = 0.04490 -0.05529
#
# Static dielectric constant tensor:
#      x y z
#    x 5.158340 -0.768830 -0.178700 
#    y -0.768830 5.053220 -0.301310 
#    z -0.178700 -0.301310 4.429360 
# 
# 
# High freq. dielectric constant tensor:
#      x y z
#    x 2.024950 -0.032580 0.003660 
#    y -0.032580 1.996680 -0.013150 
#    z 0.003660 -0.013150 1.995610 
# 
# From -- ./inp_files/39986.got.cif
#   From: 2010.06.25/outbox.cif.g09.slc.cpg/sg2_20_cif.got.tgz:39986.got - 2010.06.27 13:26:56.
