data_PCOD8025211
_publ_section_title
;
Structure prediction by ZEFSAII (Michael W. Deem and Ramdas Pophale) SiO2 
 PCOD8025211
Probable space group: P -1
;
_chemical_formula_sum "Si O2"
_cell_formula_units_Z 14
_cell_length_a 8.899347
_cell_length_b 13.467977
_cell_length_c 12.216772
_cell_angle_alpha 145.033589
_cell_angle_beta 47.795538
_cell_angle_gamma 125.232393
_cell_volume 620.407912
_symmetry_space_group_name_H-M "P -1"
_symmetry_group_IT_number 2
_symmetry_cell_setting 'triclinic'
loop_
_space_group_symop_operation_xyz
x,y,z
-x,-y,-z
loop_
_atom_site_type_symbol
_atom_site_label
_atom_site_fract_x
_atom_site_fract_y
_atom_site_fract_z
Si Si1 0.705900 0.244868 0.139742
Si Si2 0.362414 0.885285 0.545456
Si Si3 0.465893 0.318526 0.533907
Si Si4 0.920271 0.604332 0.317539
Si Si5 0.636324 0.363343 0.863738
Si Si6 0.430136 0.295996 0.119360
Si Si7 0.082703 0.103126 0.232392
O O1 0.536926 0.250305 0.321122
O O2 0.844775 0.422097 0.244820
O O3 0.590653 0.229396 0.066905
O O4 0.833393 0.077557 0.934940
O O5 0.499753 0.830987 0.530173
O O6 0.286892 0.729333 0.364157
O O7 0.145585 0.951467 0.750122
O O8 0.500000 0.000000 0.500000
O O9 0.226852 0.352654 0.673362
O O10 0.588377 0.496630 0.672796
O O11 0.907647 0.762847 0.551048
O O12 0.146221 0.573060 0.131390
O O13 0.500000 0.500000 0.000000
O O14 0.505648 0.253225 0.920187
O O15 0.213143 0.192350 0.149384
#
# Coordination Sequence:
#
# PCOD8025211 Si02
#       7
#     2   2   2   2   2   2   2
#     4  11  23  40  73 101 132 171 228 276 324 390
#     4  11  28  45  62 100 139 172 221 276 331 396
#     4  11  22  44  70  96 137 172 222 280 322 395
#     4  10  23  44  70  99 131 176 224 268 335 388
#     4  11  25  44  67  96 133 176 218 271 332 397
#     4  11  22  43  69 100 129 173 228 273 325 395
#     4  11  24  43  70  98 133 177 222 269 335 392
#
# _framework density 22.565798000000001
#
# number of rings (size 3 to 8) (size 9 to 14) (size 15 to 20)
#    0.000    1.143    4.286    1.286    4.000    5.714 
#    0.000    2.857    0.000    0.000    0.000    0.000 
#    0.000    0.000    0.000    0.000    0.000    0.000 
#
# Total GULP energy -173491.950152 kJ/mol
# GULP energy per Si atom -12392.282154 kJ/mol
# Density = 2.251444 g / cm^3
# Si number density = 22.565798 Si / 1000 Ang^3
#
#
#
# Elastic Constant Matrix: (Units=GPa)
#
#
# Indices 1 2 3 4 5 6 
#
# 1 119.4111 72.3884 33.3675 -10.2897 -46.9384 -4.3141
# 2 72.3884 126.7122 21.9294 -9.5682 -46.9579 -9.6125
# 3 33.3675 21.9294 71.2218 3.2317 -30.5618 -3.8136
# 4 -10.2897 -9.5682 3.2317 44.7071 -2.1789 -0.8206
# 5 -46.9384 -46.9579 -30.5618 -2.1789 40.9950 -7.8827
# 6 -4.3141 -9.6125 -3.8136 -0.8206 -7.8827 44.9624
#
#
#
# Elastic Compliance Matrix: (Units=1/GPa)
#
#
# Indices 1 2 3 4 5 6 
#
# 1 0.017781 -0.002461 0.000720 0.004536 0.019220 0.004693
# 2 -0.002461 0.018451 0.006504 0.004295 0.025073 0.008734
# 3 0.000720 0.006504 0.024065 0.001333 0.027904 0.008417
# 4 0.004536 0.004295 0.001333 0.024958 0.013249 0.004245
# 5 0.019220 0.025073 0.027904 0.013249 0.101949 0.027686
# 6 0.004693 0.008734 0.008417 0.004245 0.027686 0.030204
#
#
# Mechanical properties :
#
#
# Convention : Reuss Voigt Hill
#
# Bulk Modulus (GPa) = 14.32219 63.63508 38.97863
# Shear Modulus (GPa) = 21.63047 38.77688 30.20368
#
# Velocity S-wave (km/s) = 3.09941 4.14985 3.66248
# Velocity P-wave (km/s) = 4.37825 7.15700 5.93261
#
# Compressibility (1/GPa) = 0.06982172
#
# Stress axis : x y z
#
# Youngs Moduli (GPa) = 56.24125 54.19788 41.55478
#
# Poissons Ratio (x) = 0.13339 -0.02994
# Poissons Ratio (y) = 0.13842 -0.27026
# Poissons Ratio (z) = -0.04051 -0.35249
#
# Static dielectric constant tensor:
#      x y z
#    x 4.441050 0.117960 -0.120620 
#    y 0.117960 4.055520 0.047100 
#    z -0.120620 0.047100 3.952440 
# 
# 
# High freq. dielectric constant tensor:
#      x y z
#    x 1.894320 0.002140 -0.006990 
#    y 0.002140 1.886160 -0.001040 
#    z -0.006990 -0.001040 1.897200 
# 
# From -- ./inp_files/154007.got.cif
#   From: 2010.06.25/outbox.cif.g09.slc.cpg/sg2_78_cif.got.tgz:154007.got - 2010.06.27 13:26:56.
