data_PCOD8025975
_publ_section_title
;
Structure prediction by ZEFSAII (Michael W. Deem and Ramdas Pophale) SiO2 
 PCOD8025975
Probable space group: P -1
;
_chemical_formula_sum "Si O2"
_cell_formula_units_Z 16
_cell_length_a 6.431585
_cell_length_b 10.622416
_cell_length_c 14.972955
_cell_angle_alpha 56.967906
_cell_angle_beta 78.248688
_cell_angle_gamma 105.898311
_cell_volume 741.552436
_symmetry_space_group_name_H-M "P -1"
_symmetry_group_IT_number 2
_symmetry_cell_setting 'triclinic'
loop_
_space_group_symop_operation_xyz
x,y,z
-x,-y,-z
loop_
_atom_site_type_symbol
_atom_site_label
_atom_site_fract_x
_atom_site_fract_y
_atom_site_fract_z
Si Si1 0.582007 0.459835 0.417232
Si Si2 0.099765 0.690437 0.273865
Si Si3 0.750200 0.095100 0.191270
Si Si4 0.721254 0.205972 0.584596
Si Si5 0.095727 0.009179 0.086907
Si Si6 0.526106 0.280483 0.039016
Si Si7 0.813171 0.667761 0.823197
Si Si8 0.155073 0.367154 0.364877
O O1 0.500000 0.500000 0.500000
O O2 0.630706 0.302497 0.488778
O O3 0.410340 0.417197 0.365320
O O4 0.819980 0.631150 0.308469
O O5 0.187306 0.703151 0.363232
O O6 0.150124 0.546386 0.280118
O O7 0.200837 0.875175 0.147345
O O8 0.682863 0.184306 0.081905
O O9 0.879594 0.988565 0.181163
O O10 0.930164 0.237865 0.187361
O O11 0.501213 0.979594 0.310132
O O12 0.954503 0.223604 0.503012
O O13 0.330058 0.190850 0.012189
O O14 0.000000 0.000000 0.000000
O O15 0.379910 0.278380 0.142027
O O16 0.712249 0.467313 0.920099
O O17 0.858391 0.719162 0.695701
#
# Coordination Sequence:
#
# PCOD8025975 Si02
#       8
#     2   2   2   2   2   2   2   2
#     4  11  19  36  61  90 131 170 204 252 318 380
#     4  11  22  38  61  97 135 162 206 257 326 384
#     4  11  24  44  69  87 131 173 206 271 318 373
#     4  11  22  39  63  98 127 169 213 254 329 379
#     4  11  26  40  65 106 127 162 214 262 321 385
#     4  10  23  47  68  88 129 169 215 265 322 377
#     4  10  25  44  65  94 121 172 223 260 314 375
#     4  11  24  39  66  97 130 169 213 265 307 389
#
# _framework density 21.576357000000002
#
# number of rings (size 3 to 8) (size 9 to 14) (size 15 to 20)
#    0.000    1.250    3.750    1.875    3.500    3.000 
#    0.000    1.250    0.000    0.000    0.000    0.000 
#    0.000    0.000    0.000    0.000    0.000    0.000 
#
# Total GULP energy -198304.475772 kJ/mol
# GULP energy per Si atom -12394.029736 kJ/mol
# Density = 2.152725 g / cm^3
# Si number density = 21.576357 Si / 1000 Ang^3
#
#
#
# Elastic Constant Matrix: (Units=GPa)
#
#
# Indices 1 2 3 4 5 6 
#
# 1 94.3326 41.6286 22.2979 -1.6431 4.7157 29.4518
# 2 41.6286 105.1640 48.6958 9.1457 -2.3050 32.9701
# 3 22.2979 48.6958 73.4316 1.0734 -2.3196 14.8975
# 4 -1.6431 9.1457 1.0734 44.3908 4.6427 2.3346
# 5 4.7157 -2.3050 -2.3196 4.6427 38.1125 -6.8737
# 6 29.4518 32.9701 14.8975 2.3346 -6.8737 36.6976
#
#
#
# Elastic Compliance Matrix: (Units=1/GPa)
#
#
# Indices 1 2 3 4 5 6 
#
# 1 0.015593 -0.002654 -0.000976 0.002163 -0.004340 -0.010684
# 2 -0.002654 0.018400 -0.009224 -0.003040 -0.000659 -0.010586
# 3 -0.000976 -0.009224 0.019816 0.001242 0.000816 0.001100
# 4 0.002163 -0.003040 0.001242 0.023665 -0.003562 -0.001681
# 5 -0.004340 -0.000659 0.000816 -0.003562 0.028912 0.009386
# 6 -0.010684 -0.010586 0.001100 -0.001681 0.009386 0.046753
#
#
# Mechanical properties :
#
#
# Convention : Reuss Voigt Hill
#
# Bulk Modulus (GPa) = 35.58784 55.35252 45.47018
# Shear Modulus (GPa) = 26.56550 34.52722 30.54636
#
# Velocity S-wave (km/s) = 3.51270 4.00463 3.76670
# Velocity P-wave (km/s) = 5.74298 6.86241 6.32750
#
# Compressibility (1/GPa) = 0.02809948
#
# Stress axis : x y z
#
# Youngs Moduli (GPa) = 64.13113 54.34849 50.46413
#
# Poissons Ratio (x) = 0.14425 0.04925
# Poissons Ratio (y) = 0.17022 0.46551
# Poissons Ratio (z) = 0.06259 0.50134
#
# Static dielectric constant tensor:
#      x y z
#    x 3.708130 0.023750 -0.164190 
#    y 0.023750 3.808090 -0.111500 
#    z -0.164190 -0.111500 3.811330 
# 
# 
# High freq. dielectric constant tensor:
#      x y z
#    x 1.860120 0.014900 -0.000720 
#    y 0.014900 1.841010 -0.006020 
#    z -0.000720 -0.006020 1.838600 
# 
# From -- ./inp_files/109717.got.cif
#   From: 2010.06.25/outbox.cif.g09.slc.cpg/sg2_55_cif.got.tgz:109717.got - 2010.06.27 13:26:56.
