data_PCOD8025702
_publ_section_title
;
Structure prediction by ZEFSAII (Michael W. Deem and Ramdas Pophale) SiO2 
 PCOD8025702
Probable space group: P -1
;
_chemical_formula_sum "Si O2"
_cell_formula_units_Z 14
_cell_length_a 7.728358
_cell_length_b 8.706291
_cell_length_c 28.256877
_cell_angle_alpha 30.154151
_cell_angle_beta 36.416994
_cell_angle_gamma 35.145901
_cell_volume 517.474771
_symmetry_space_group_name_H-M "P -1"
_symmetry_group_IT_number 2
_symmetry_cell_setting 'triclinic'
loop_
_space_group_symop_operation_xyz
x,y,z
-x,-y,-z
loop_
_atom_site_type_symbol
_atom_site_label
_atom_site_fract_x
_atom_site_fract_y
_atom_site_fract_z
Si Si1 0.133089 0.256545 0.384798
Si Si2 0.239154 0.585146 0.729631
Si Si3 0.623884 0.652132 0.803994
Si Si4 0.628124 0.685625 0.125349
Si Si5 0.788409 0.774391 0.397349
Si Si6 0.661483 0.554283 0.997345
Si Si7 0.541104 0.597841 0.367087
O O1 0.070751 0.537601 0.364515
O O2 0.928125 0.426665 0.337510
O O3 0.513207 0.042786 0.352530
O O4 0.000000 0.000000 0.500000
O O5 0.403465 0.389316 0.792879
O O6 0.503081 0.473842 0.659131
O O7 0.956022 0.474432 0.806966
O O8 0.095668 0.992293 0.657754
O O9 0.609343 0.436020 0.818868
O O10 0.588045 0.011445 0.696974
O O11 0.348991 0.691603 0.892786
O O12 0.982345 0.491278 0.079483
O O13 0.527349 0.078192 0.037105
O O14 0.652901 0.555061 0.517051
O O15 0.500000 0.500000 0.000000
#
# Coordination Sequence:
#
# PCOD8025702 Si02
#       7
#     2   2   2   2   2   2   2
#     4  10  23  45  74 102 143 199 254 305 368 434
#     4  12  29  45  76 113 151 200 255 308 367 448
#     4  12  29  47  79 113 150 200 250 304 381 447
#     4  12  29  51  80 110 156 192 247 312 378 447
#     4  11  26  48  74 108 154 204 249 311 371 430
#     4  12  26  54  82 111 151 194 246 313 378 449
#     4  11  26  45  74 108 157 196 255 309 365 444
#
# _framework density 27.054459000000001
#
# number of rings (size 3 to 8) (size 9 to 14) (size 15 to 20)
#    0.000    0.571    1.429    5.143   14.000    0.571 
#    0.000    0.000    0.000    0.000    0.000    0.000 
#    0.000    0.000    0.000    0.000    0.000    0.000 
#
# Total GULP energy -173651.987931 kJ/mol
# GULP energy per Si atom -12403.713424 kJ/mol
# Density = 2.699288 g / cm^3
# Si number density = 27.054459 Si / 1000 Ang^3
#
#
#
# Elastic Constant Matrix: (Units=GPa)
#
#
# Indices 1 2 3 4 5 6 
#
# 1 146.8303 20.8888 44.6071 -0.6475 -6.7224 36.1882
# 2 20.8888 96.9585 18.7920 -14.7420 5.0211 20.8807
# 3 44.6071 18.7920 110.7177 0.5917 3.6591 11.4629
# 4 -0.6475 -14.7420 0.5917 47.7828 18.2160 -0.1586
# 5 -6.7224 5.0211 3.6591 18.2160 46.8331 0.6332
# 6 36.1882 20.8807 11.4629 -0.1586 0.6332 48.4738
#
#
#
# Elastic Compliance Matrix: (Units=1/GPa)
#
#
# Indices 1 2 3 4 5 6 
#
# 1 0.009429 -0.000293 -0.003170 -0.000703 0.001990 -0.006192
# 2 -0.000293 0.012642 -0.001449 0.005123 -0.003212 -0.004825
# 3 -0.003170 -0.001449 0.010538 -0.000221 -0.001044 0.000512
# 4 -0.000703 0.005123 -0.000221 0.026688 -0.010994 -0.001399
# 5 0.001990 -0.003212 -0.001044 -0.010994 0.026343 -0.000235
# 6 -0.006192 -0.004825 0.000512 -0.001399 -0.000235 0.027208
#
#
# Mechanical properties :
#
#
# Convention : Reuss Voigt Hill
#
# Bulk Modulus (GPa) = 43.89079 58.12025 51.00552
# Shear Modulus (GPa) = 38.38189 46.63252 42.50721
#
# Velocity S-wave (km/s) = 3.77064 4.15619 3.96810
# Velocity P-wave (km/s) = 5.93425 6.67542 6.31572
#
# Compressibility (1/GPa) = 0.02278382
#
# Stress axis : x y z
#
# Youngs Moduli (GPa) = 106.05038 79.10064 94.89581
#
# Poissons Ratio (x) = 0.02321 0.30084
# Poissons Ratio (y) = 0.03112 0.13752
# Poissons Ratio (z) = 0.33620 0.11463
#
# Static dielectric constant tensor:
#      x y z
#    x 6.253550 -0.215080 -0.361300 
#    y -0.215080 5.002750 -0.020060 
#    z -0.361300 -0.020060 5.212090 
# 
# 
# High freq. dielectric constant tensor:
#      x y z
#    x 2.107970 0.011340 -0.003790 
#    y 0.011340 2.093310 0.005700 
#    z -0.003790 0.005700 2.103510 
# 
# From -- ./inp_files/622372.got.cif
#   From: 2010.06.25/outbox.cif.g09.slc.cpg/sg2_312_cif.got.tgz:622372.got - 2010.06.27 13:26:56.
