data_PCOD8025402
_publ_section_title
;
Structure prediction by ZEFSAII (Michael W. Deem and Ramdas Pophale) SiO2 
 PCOD8025402
Probable space group: P -1
;
_chemical_formula_sum "Si O2"
_cell_formula_units_Z 16
_cell_length_a 11.787971
_cell_length_b 9.244739
_cell_length_c 9.287839
_cell_angle_alpha 74.272007
_cell_angle_beta 49.000729
_cell_angle_gamma 86.135852
_cell_volume 726.746009
_symmetry_space_group_name_H-M "P -1"
_symmetry_group_IT_number 2
_symmetry_cell_setting 'triclinic'
loop_
_space_group_symop_operation_xyz
x,y,z
-x,-y,-z
loop_
_atom_site_type_symbol
_atom_site_label
_atom_site_fract_x
_atom_site_fract_y
_atom_site_fract_z
Si Si1 0.125212 0.656382 0.709309
Si Si2 0.572498 0.946548 0.683660
Si Si3 0.151775 0.930663 0.400029
Si Si4 0.532709 0.291501 0.615161
Si Si5 0.991991 0.316256 0.894840
Si Si6 0.691284 0.735392 0.437628
Si Si7 0.736052 0.228053 0.904276
Si Si8 0.400087 0.537076 0.206588
O O1 0.117536 0.773383 0.556422
O O2 0.299841 0.635053 0.598679
O O3 0.034915 0.495060 0.781343
O O4 0.050875 0.719251 0.894612
O O5 0.630473 0.890034 0.496759
O O6 0.714868 0.951585 0.671245
O O7 0.518212 0.109290 0.675779
O O8 0.435485 0.823640 0.886351
O O9 0.204922 0.902467 0.202362
O O10 0.000000 0.000000 0.500000
O O11 0.408217 0.337987 0.595498
O O12 0.503360 0.354241 0.782856
O O13 0.131864 0.227142 0.763960
O O14 0.843984 0.258381 0.942130
O O15 0.676638 0.618294 0.614042
O O16 0.734112 0.377396 0.766662
O O17 0.500000 0.500000 0.000000
#
# Coordination Sequence:
#
# PCOD8025402 Si02
#       8
#     2   2   2   2   2   2   2   2
#     4  10  23  45  65  97 133 184 222 279 346 392
#     4  11  24  44  71  99 137 181 229 274 348 398
#     4  11  24  44  69  96 138 181 223 280 339 408
#     4  11  24  47  70  96 139 177 230 282 336 405
#     4  11  25  41  69  98 138 176 227 283 338 398
#     4  12  24  43  70 106 131 178 233 280 338 407
#     4  12  24  45  66 100 139 178 225 282 335 408
#     4  12  25  42  71 104 132 176 231 285 334 404
#
# _framework density 22.015947000000001
#
# number of rings (size 3 to 8) (size 9 to 14) (size 15 to 20)
#    0.000    0.750    5.000    2.625    0.000    6.000 
#    0.000    3.750    0.000    0.000    0.000    0.000 
#    0.000    0.000    0.000    0.000    0.000    0.000 
#
# Total GULP energy -198457.940120 kJ/mol
# GULP energy per Si atom -12403.621258 kJ/mol
# Density = 2.196584 g / cm^3
# Si number density = 22.015947 Si / 1000 Ang^3
#
#
#
# Elastic Constant Matrix: (Units=GPa)
#
#
# Indices 1 2 3 4 5 6 
#
# 1 102.7658 27.3203 52.3640 8.9682 -24.3892 7.3005
# 2 27.3203 79.7648 47.2689 30.5398 -2.6595 16.1672
# 3 52.3640 47.2689 131.4274 28.0801 -8.4257 7.1043
# 4 8.9682 30.5398 28.0801 43.1021 4.7439 -2.8736
# 5 -24.3892 -2.6595 -8.4257 4.7439 30.6921 4.8679
# 6 7.3005 16.1672 7.1043 -2.8736 4.8679 35.3842
#
#
#
# Elastic Compliance Matrix: (Units=1/GPa)
#
#
# Indices 1 2 3 4 5 6 
#
# 1 0.015468 -0.001124 -0.004636 -0.000906 0.011603 -0.003417
# 2 -0.001124 0.023484 -0.003873 -0.015119 0.004245 -0.011532
# 3 -0.004636 -0.003873 0.011649 -0.003846 -0.000244 0.000108
# 4 -0.000906 -0.015119 -0.003846 0.038659 -0.011048 0.012527
# 5 0.011603 0.004245 -0.000244 -0.011048 0.045628 -0.011459
# 6 -0.003417 -0.011532 0.000108 0.012527 -0.011459 0.036807
#
#
# Mechanical properties :
#
#
# Convention : Reuss Voigt Hill
#
# Bulk Modulus (GPa) = 31.91300 63.09606 47.50453
# Shear Modulus (GPa) = 24.82548 34.30266 29.56407
#
# Velocity S-wave (km/s) = 3.36164 3.95154 3.66846
# Velocity P-wave (km/s) = 5.44007 7.03854 6.29028
#
# Compressibility (1/GPa) = 0.03133519
#
# Stress axis : x y z
#
# Youngs Moduli (GPa) = 64.65114 42.58136 85.84365
#
# Poissons Ratio (x) = 0.04786 0.39799
# Poissons Ratio (y) = 0.07266 0.33246
# Poissons Ratio (z) = 0.29974 0.16491
#
# Static dielectric constant tensor:
#      x y z
#    x 4.008790 0.040050 -0.016610 
#    y 0.040050 4.192970 0.272330 
#    z -0.016610 0.272330 4.106940 
# 
# 
# High freq. dielectric constant tensor:
#      x y z
#    x 1.863280 0.002900 0.003190 
#    y 0.002900 1.876300 0.015460 
#    z 0.003190 0.015460 1.870640 
# 
# From -- ./inp_files/243355.got.cif
#   From: 2010.06.25/outbox.cif.g09.slc.cpg/sg2_122_cif.got.tgz:243355.got - 2010.06.27 13:26:56.
