data_PCOD8025071
_publ_section_title
;
Structure prediction by ZEFSAII (Michael W. Deem and Ramdas Pophale) SiO2 
 PCOD8025071
Probable space group: P -1
;
_chemical_formula_sum "Si O2"
_cell_formula_units_Z 16
_cell_length_a 8.292420
_cell_length_b 15.839040
_cell_length_c 7.516060
_cell_angle_alpha 107.596608
_cell_angle_beta 46.336022
_cell_angle_gamma 108.983216
_cell_volume 670.921935
_symmetry_space_group_name_H-M "P -1"
_symmetry_group_IT_number 2
_symmetry_cell_setting 'triclinic'
loop_
_space_group_symop_operation_xyz
x,y,z
-x,-y,-z
loop_
_atom_site_type_symbol
_atom_site_label
_atom_site_fract_x
_atom_site_fract_y
_atom_site_fract_z
Si Si1 0.905156 0.222860 0.605052
Si Si2 0.308031 0.372742 0.502720
Si Si3 0.989370 0.493584 0.211954
Si Si4 0.599985 0.360535 0.949365
Si Si5 0.667950 0.996816 0.146645
Si Si6 0.958390 0.851134 0.916984
Si Si7 0.232760 0.966162 0.294937
Si Si8 0.218422 0.338300 0.943350
O O1 0.823270 0.141355 0.750105
O O2 0.096232 0.293446 0.596644
O O3 0.006764 0.186748 0.327470
O O4 0.687248 0.269625 0.767477
O O5 0.524149 0.356197 0.213657
O O6 0.353011 0.373380 0.681658
O O7 0.239746 0.467232 0.540971
O O8 0.205434 0.554554 0.178291
O O9 0.004224 0.390033 0.181547
O O10 0.000000 0.500000 0.000000
O O11 0.385988 0.366711 0.996135
O O12 0.391691 0.990230 0.371504
O O13 0.767151 0.914837 0.107544
O O14 0.803208 0.092832 0.163924
O O15 0.662781 0.984934 0.930644
O O16 0.876211 0.768070 0.058587
O O17 0.000000 0.000000 0.500000
#
# Coordination Sequence:
#
# PCOD8025071 Si02
#       8
#     2   2   2   2   2   2   2   2
#     4  11  23  43  64  96 138 173 216 282 326 400
#     4  10  23  44  68  96 136 174 216 277 329 397
#     4   9  22  43  66  99 134 172 221 275 330 398
#     4  11  23  44  66  97 136 173 224 273 332 395
#     4  10  24  42  67  93 131 176 225 281 334 402
#     4  11  22  45  65  99 137 173 226 281 337 402
#     4  11  22  42  65  95 128 177 225 274 340 397
#     4  11  22  43  69 100 131 176 224 272 337 400
#
# _framework density 23.847781000000001
#
# number of rings (size 3 to 8) (size 9 to 14) (size 15 to 20)
#    0.000    1.500    2.500    1.875    0.000    3.000 
#   15.750    0.000    0.000    0.000    0.000    0.000 
#    0.000    0.000    0.000    0.000    0.000    0.000 
#
# Total GULP energy -198258.584276 kJ/mol
# GULP energy per Si atom -12391.161517 kJ/mol
# Density = 2.379350 g / cm^3
# Si number density = 23.847781 Si / 1000 Ang^3
#
#
#
# Elastic Constant Matrix: (Units=GPa)
#
#
# Indices 1 2 3 4 5 6 
#
# 1 84.6860 35.8347 11.8984 12.5104 -15.3807 -5.3512
# 2 35.8347 122.5280 13.0250 17.6244 -10.4593 -22.0659
# 3 11.8984 13.0250 72.9324 9.9826 -4.3071 -11.3420
# 4 12.5104 17.6244 9.9826 28.6941 -3.9029 2.0282
# 5 -15.3807 -10.4593 -4.3071 -3.9029 33.2813 4.4623
# 6 -5.3512 -22.0659 -11.3420 2.0282 4.4623 32.0215
#
#
#
# Elastic Compliance Matrix: (Units=1/GPa)
#
#
# Indices 1 2 3 4 5 6 
#
# 1 0.014819 -0.003457 -0.001191 -0.003132 0.005358 -0.000876
# 2 -0.003457 0.011453 0.000620 -0.006261 0.000290 0.007890
# 3 -0.001191 0.000620 0.015524 -0.005666 0.000176 0.006061
# 4 -0.003132 -0.006261 -0.005666 0.043034 0.002223 -0.009880
# 5 0.005358 0.000290 0.000176 0.002223 0.033385 -0.003636
# 6 -0.000876 0.007890 0.006061 -0.009880 -0.003636 0.039799
#
#
# Mechanical properties :
#
#
# Convention : Reuss Voigt Hill
#
# Bulk Modulus (GPa) = 29.64013 44.62919 37.13466
# Shear Modulus (GPa) = 28.19812 33.42524 30.81168
#
# Velocity S-wave (km/s) = 3.44237 3.74787 3.59836
# Velocity P-wave (km/s) = 5.31561 6.12238 5.73320
#
# Compressibility (1/GPa) = 0.03373805
#
# Stress axis : x y z
#
# Youngs Moduli (GPa) = 67.48032 87.31438 64.41839
#
# Poissons Ratio (x) = 0.30187 0.07674
# Poissons Ratio (y) = 0.23329 -0.03992
# Poissons Ratio (z) = 0.08039 -0.05412
#
# Static dielectric constant tensor:
#      x y z
#    x 4.476210 -0.276720 -0.260210 
#    y -0.276720 4.651240 0.711300 
#    z -0.260210 0.711300 4.355970 
# 
# 
# High freq. dielectric constant tensor:
#      x y z
#    x 1.957150 0.000910 -0.007190 
#    y 0.000910 1.950790 0.009840 
#    z -0.007190 0.009840 1.933510 
# 
# From -- ./inp_files/208118.got.cif
#   From: 2010.06.25/outbox.cif.g09.slc.cpg/sg2_105_cif.got.tgz:208118.got - 2010.06.27 13:26:56.
