data_PCOD8025710
_publ_section_title
;
Structure prediction by ZEFSAII (Michael W. Deem and Ramdas Pophale) SiO2 
 PCOD8025710
Probable space group: P -1
;
_chemical_formula_sum "Si O2"
_cell_formula_units_Z 14
_cell_length_a 10.502114
_cell_length_b 17.455329
_cell_length_c 9.289904
_cell_angle_alpha 143.903637
_cell_angle_beta 136.973810
_cell_angle_gamma 39.409153
_cell_volume 610.473622
_symmetry_space_group_name_H-M "P -1"
_symmetry_group_IT_number 2
_symmetry_cell_setting 'triclinic'
loop_
_space_group_symop_operation_xyz
x,y,z
-x,-y,-z
loop_
_atom_site_type_symbol
_atom_site_label
_atom_site_fract_x
_atom_site_fract_y
_atom_site_fract_z
Si Si1 0.810114 0.682596 0.378904
Si Si2 0.817305 0.089744 0.594866
Si Si3 0.931950 0.148608 0.088196
Si Si4 0.228943 0.414862 0.281918
Si Si5 0.508353 0.254160 0.035051
Si Si6 0.599683 0.907313 0.084035
Si Si7 0.557414 0.613157 0.299530
O O1 0.630327 0.758389 0.228357
O O2 0.715853 0.648114 0.390250
O O3 0.897600 0.794705 0.664701
O O4 0.992937 0.534194 0.240464
O O5 0.650628 0.239409 0.610580
O O6 0.707998 0.987148 0.387035
O O7 0.906430 0.129308 0.869784
O O8 0.000000 0.000000 0.500000
O O9 0.711472 0.261050 0.149440
O O10 0.000000 0.000000 0.000000
O O11 0.325739 0.460171 0.567485
O O12 0.370762 0.401096 0.236740
O O13 0.231492 0.256951 0.072680
O O14 0.565385 0.113285 0.975487
O O15 0.500000 0.000000 0.000000
O O16 0.500000 0.500000 0.000000
#
# Coordination Sequence:
#
# PCOD8025710 Si02
#       7
#     2   2   2   2   2   2   2
#     4  12  26  50  75 108 155 195 252 309 381 446
#     4  12  27  44  73 107 150 194 252 308 369 451
#     4  12  29  45  74 113 146 198 249 311 378 447
#     4  10  25  45  77 106 145 201 246 308 376 450
#     4  10  25  49  73 108 148 192 248 312 370 445
#     4  10  23  45  74 104 142 195 248 308 366 446
#     4  12  27  48  75 108 151 199 252 315 374 443
#
# _framework density 22.933012999999999
#
# number of rings (size 3 to 8) (size 9 to 14) (size 15 to 20)
#    0.857    0.000    2.857    2.571   10.000    1.714 
#    2.571    0.000    0.000    0.000    0.000    0.000 
#    0.000    0.000    0.000    0.000    0.000    0.000 
#
# Total GULP energy -173578.838006 kJ/mol
# GULP energy per Si atom -12398.488429 kJ/mol
# Density = 2.288082 g / cm^3
# Si number density = 22.933013 Si / 1000 Ang^3
#
#
#
# Elastic Constant Matrix: (Units=GPa)
#
#
# Indices 1 2 3 4 5 6 
#
# 1 133.4468 11.3214 40.9797 -3.1172 -6.7955 -17.2066
# 2 11.3214 67.0365 -4.0638 7.5854 0.3346 -11.8361
# 3 40.9797 -4.0638 116.9194 -4.6368 9.7281 -2.2319
# 4 -3.1172 7.5854 -4.6368 46.0597 3.6610 -6.9388
# 5 -6.7955 0.3346 9.7281 3.6610 46.6212 5.6995
# 6 -17.2066 -11.8361 -2.2319 -6.9388 5.6995 35.5343
#
#
#
# Elastic Compliance Matrix: (Units=1/GPa)
#
#
# Indices 1 2 3 4 5 6 
#
# 1 0.009188 -0.001195 -0.003277 0.000941 0.001494 0.003789
# 2 -0.001195 0.016226 0.001077 -0.001865 -0.000941 0.004680
# 3 -0.003277 0.001077 0.009990 0.000813 -0.002631 -0.000020
# 4 0.000941 -0.001865 0.000813 0.023075 -0.002415 0.004779
# 5 0.001494 -0.000941 -0.002631 -0.002415 0.022889 -0.003898
# 6 0.003789 0.004680 -0.000020 0.004779 -0.003898 0.033093
#
#
# Mechanical properties :
#
#
# Convention : Reuss Voigt Hill
#
# Bulk Modulus (GPa) = 34.94855 45.98638 40.46746
# Shear Modulus (GPa) = 38.22938 43.58740 40.90839
#
# Velocity S-wave (km/s) = 4.08732 4.36436 4.22811
# Velocity P-wave (km/s) = 6.12760 6.74484 6.44361
#
# Compressibility (1/GPa) = 0.02861349
#
# Stress axis : x y z
#
# Youngs Moduli (GPa) = 108.83945 61.62771 100.10503
#
# Poissons Ratio (x) = 0.07366 0.32800
# Poissons Ratio (y) = 0.13009 -0.10777
# Poissons Ratio (z) = 0.35662 -0.06635
#
# Static dielectric constant tensor:
#      x y z
#    x 4.253220 -0.064720 -0.075050 
#    y -0.064720 4.210310 0.075950 
#    z -0.075050 0.075950 4.168450 
# 
# 
# High freq. dielectric constant tensor:
#      x y z
#    x 1.903440 -0.001340 -0.007450 
#    y -0.001340 1.908210 0.002890 
#    z -0.007450 0.002890 1.916740 
# 
# From -- ./inp_files/281348.got.cif
#   From: 2010.06.25/outbox.cif.g09.slc.cpg/sg2_141_cif.got.tgz:281348.got - 2010.06.27 13:26:56.
