data_PCOD8025717
_publ_section_title
;
Structure prediction by ZEFSAII (Michael W. Deem and Ramdas Pophale) SiO2 
 PCOD8025717
Probable space group: P -1
;
_chemical_formula_sum "Si O2"
_cell_formula_units_Z 14
_cell_length_a 9.833919
_cell_length_b 9.165671
_cell_length_c 8.232662
_cell_angle_alpha 110.447707
_cell_angle_beta 87.347451
_cell_angle_gamma 116.568084
_cell_volume 616.493464
_symmetry_space_group_name_H-M "P -1"
_symmetry_group_IT_number 2
_symmetry_cell_setting 'triclinic'
loop_
_space_group_symop_operation_xyz
x,y,z
-x,-y,-z
loop_
_atom_site_type_symbol
_atom_site_label
_atom_site_fract_x
_atom_site_fract_y
_atom_site_fract_z
Si Si1 0.320358 0.191473 0.743203
Si Si2 0.998496 0.036670 0.195197
Si Si3 0.106191 0.425400 0.395593
Si Si4 0.447003 0.808479 0.001175
Si Si5 0.139585 0.622179 0.154586
Si Si6 0.388116 0.509872 0.643650
Si Si7 0.863483 0.045715 0.591583
O O1 0.375647 0.383858 0.744461
O O2 0.154718 0.130817 0.804619
O O3 0.293376 0.054585 0.541577
O O4 0.434864 0.184932 0.866380
O O5 0.995639 0.217866 0.304275
O O6 0.152622 0.035134 0.258463
O O7 0.000000 0.000000 0.000000
O O8 0.173842 0.507667 0.245312
O O9 0.232693 0.459568 0.536889
O O10 0.000000 0.500000 0.500000
O O11 0.445712 0.696674 0.800295
O O12 0.283571 0.729962 0.071198
O O13 0.500000 0.000000 0.000000
O O14 0.093726 0.750686 0.312919
O O15 0.000000 0.500000 0.000000
O O16 0.500000 0.500000 0.500000
O O17 0.000000 0.000000 0.500000
#
# Coordination Sequence:
#
# PCOD8025717 Si02
#       7
#     2   2   2   2   2   2   2
#     4  11  26  48  75 105 155 194 249 307 378 455
#     4  11  25  41  78 108 145 194 250 300 372 450
#     4  12  26  46  76 115 146 193 254 314 374 441
#     4  12  32  49  75 113 152 196 252 318 382 443
#     4  12  28  48  78 109 156 196 250 316 376 441
#     4  12  29  51  76 104 151 203 254 307 385 462
#     4  10  23  45  74 108 145 197 246 304 371 446
#
# _framework density 22.709078000000002
#
# number of rings (size 3 to 8) (size 9 to 14) (size 15 to 20)
#    0.000    0.571    1.429    4.714   20.000    0.571 
#    0.000    0.000    0.000    0.000    0.000    0.000 
#    0.000    0.000    0.000    0.000    0.000    0.000 
#
# Total GULP energy -173448.393014 kJ/mol
# GULP energy per Si atom -12389.170930 kJ/mol
# Density = 2.265739 g / cm^3
# Si number density = 22.709078 Si / 1000 Ang^3
#
#
#
# Elastic Constant Matrix: (Units=GPa)
#
#
# Indices 1 2 3 4 5 6 
#
# 1 114.3553 42.1399 62.2041 -5.1786 15.6496 -0.4212
# 2 42.1399 156.4743 51.4789 -7.9776 6.7978 -3.1110
# 3 62.2041 51.4789 171.2051 5.7428 24.4208 -3.8784
# 4 -5.1786 -7.9776 5.7428 54.9515 -7.5732 0.3080
# 5 15.6496 6.7978 24.4208 -7.5732 44.1155 -7.7173
# 6 -0.4212 -3.1110 -3.8784 0.3080 -7.7173 37.4937
#
#
#
# Elastic Compliance Matrix: (Units=1/GPa)
#
#
# Indices 1 2 3 4 5 6 
#
# 1 0.011602 -0.001883 -0.003425 0.000919 -0.001908 -0.000781
# 2 -0.001883 0.007498 -0.001706 0.001191 0.000762 0.000571
# 3 -0.003425 -0.001706 0.008140 -0.001883 -0.003353 -0.000013
# 4 0.000919 0.001191 -0.001883 0.019192 0.003926 0.000565
# 5 -0.001908 0.000762 -0.003353 0.003926 0.026658 0.005150
# 6 -0.000781 0.000571 -0.000013 0.000565 0.005150 0.027764
#
#
# Mechanical properties :
#
#
# Convention : Reuss Voigt Hill
#
# Bulk Modulus (GPa) = 75.69789 83.74227 79.72008
# Shear Modulus (GPa) = 41.91573 46.39292 44.15432
#
# Velocity S-wave (km/s) = 4.30090 4.52478 4.41426
# Velocity P-wave (km/s) = 7.62035 8.01588 7.82062
#
# Compressibility (1/GPa) = 0.01321041
#
# Stress axis : x y z
#
# Youngs Moduli (GPa) = 86.19369 133.36386 122.85527
#
# Poissons Ratio (x) = 0.25116 0.42082
# Poissons Ratio (y) = 0.16233 0.20959
# Poissons Ratio (z) = 0.29524 0.22752
#
# Static dielectric constant tensor:
#      x y z
#    x 4.131150 -0.107110 0.598630 
#    y -0.107110 4.490510 -0.233510 
#    z 0.598630 -0.233510 5.316980 
# 
# 
# High freq. dielectric constant tensor:
#      x y z
#    x 1.881460 -0.009040 0.013990 
#    y -0.009040 1.913320 -0.007130 
#    z 0.013990 -0.007130 1.931940 
# 
# From -- ./inp_files/159775.got.cif
#   From: 2010.06.25/outbox.cif.g09.slc.cpg/sg2_80_cif.got.tgz:159775.got - 2010.06.27 13:26:56.
