data_PCOD8025690
_publ_section_title
;
Structure prediction by ZEFSAII (Michael W. Deem and Ramdas Pophale) SiO2 
 PCOD8025690
Probable space group: P -1
;
_chemical_formula_sum "Si O2"
_cell_formula_units_Z 12
_cell_length_a 11.518405
_cell_length_b 5.267861
_cell_length_c 9.440274
_cell_angle_alpha 108.004414
_cell_angle_beta 116.309465
_cell_angle_gamma 86.338430
_cell_volume 486.531670
_symmetry_space_group_name_H-M "P -1"
_symmetry_group_IT_number 2
_symmetry_cell_setting 'triclinic'
loop_
_space_group_symop_operation_xyz
x,y,z
-x,-y,-z
loop_
_atom_site_type_symbol
_atom_site_label
_atom_site_fract_x
_atom_site_fract_y
_atom_site_fract_z
Si Si1 0.772406 0.257627 0.669772
Si Si2 0.017054 0.056710 0.855491
Si Si3 0.179697 0.306923 0.458139
Si Si4 0.337294 0.483180 0.807168
Si Si5 0.316648 0.091481 0.979435
Si Si6 0.453237 0.477899 0.309594
O O1 0.761614 0.440589 0.557287
O O2 0.668945 0.340512 0.744582
O O3 0.922422 0.294030 0.813466
O O4 0.733442 0.945976 0.560058
O O5 0.165285 0.139024 0.914788
O O6 0.967684 0.795051 0.686857
O O7 0.000000 0.000000 0.000000
O O8 0.193603 0.392567 0.646799
O O9 0.625293 0.702745 0.075125
O O10 0.432128 0.427909 0.718881
O O11 0.344912 0.791003 0.909822
O O12 0.392282 0.178179 0.180386
O O13 0.500000 0.500000 0.500000
#
# Coordination Sequence:
#
# PCOD8025690 Si02
#       6
#     2   2   2   2   2   2
#     4  10  24  45  77 115 140 194 260 308 373 425
#     4  10  26  47  80 112 153 191 264 309 382 446
#     4  10  23  45  73 112 148 194 246 310 372 450
#     4  12  28  51  73 115 157 201 249 302 398 447
#     4  12  30  50  76 112 157 201 244 323 379 452
#     4  12  27  51  84 108 156 200 264 312 365 461
#
# _framework density 24.664376000000001
#
# number of rings (size 3 to 8) (size 9 to 14) (size 15 to 20)
#    1.000    0.000    1.667    3.000    4.667    4.667 
#    0.000    0.000    0.000    0.000    0.000    0.000 
#    0.000    0.000    0.000    0.000    0.000    0.000 
#
# Total GULP energy -148681.290245 kJ/mol
# GULP energy per Si atom -12390.107520 kJ/mol
# Density = 2.460824 g / cm^3
# Si number density = 24.664376 Si / 1000 Ang^3
#
#
#
# Elastic Constant Matrix: (Units=GPa)
#
#
# Indices 1 2 3 4 5 6 
#
# 1 126.1335 30.1692 30.5725 -4.4363 -1.3067 -11.3465
# 2 30.1692 129.9902 44.3422 9.0732 -8.1909 7.3594
# 3 30.5725 44.3422 208.4496 11.8045 -0.2050 4.1262
# 4 -4.4363 9.0732 11.8045 32.3071 0.5051 -0.7414
# 5 -1.3067 -8.1909 -0.2050 0.5051 29.4564 -3.3223
# 6 -11.3465 7.3594 4.1262 -0.7414 -3.3223 24.6184
#
#
#
# Elastic Compliance Matrix: (Units=1/GPa)
#
#
# Indices 1 2 3 4 5 6 
#
# 1 0.009294 -0.002216 -0.001133 0.002428 0.000339 0.005255
# 2 -0.002216 0.009186 -0.001421 -0.002474 0.002114 -0.003318
# 3 -0.001133 -0.001421 0.005386 -0.001742 -0.000504 -0.001121
# 4 0.002428 -0.002474 -0.001742 0.032700 -0.000812 0.003026
# 5 0.000339 0.002114 -0.000504 -0.000812 0.035048 0.004314
# 6 0.005255 -0.003318 -0.001121 0.003026 0.004314 0.044895
#
#
# Mechanical properties :
#
#
# Convention : Reuss Voigt Hill
#
# Bulk Modulus (GPa) = 69.80422 74.97123 72.38772
# Shear Modulus (GPa) = 33.15080 41.24233 37.19656
#
# Velocity S-wave (km/s) = 3.67014 4.09362 3.88765
# Velocity P-wave (km/s) = 6.80610 7.26679 7.04021
#
# Compressibility (1/GPa) = 0.01432578
#
# Stress axis : x y z
#
# Youngs Moduli (GPa) = 107.59114 108.86352 185.66172
#
# Poissons Ratio (x) = 0.24127 0.21034
# Poissons Ratio (y) = 0.23845 0.26385
# Poissons Ratio (z) = 0.12189 0.15471
#
# Static dielectric constant tensor:
#      x y z
#    x 5.487880 -0.377700 0.491860 
#    y -0.377700 4.254210 -0.089460 
#    z 0.491860 -0.089460 4.957450 
# 
# 
# High freq. dielectric constant tensor:
#      x y z
#    x 1.970260 -0.007510 0.012630 
#    y -0.007510 1.973020 -0.000190 
#    z 0.012630 -0.000190 2.007660 
# 
# From -- ./inp_files/408850.got.cif
#   From: 2010.06.25/outbox.cif.g09.slc.cpg/sg2_205_cif.got.tgz:408850.got - 2010.06.27 13:26:56.
