data_PCOD8025092
_publ_section_title
;
Structure prediction by ZEFSAII (Michael W. Deem and Ramdas Pophale) SiO2 
 PCOD8025092
Probable space group: P -1
;
_chemical_formula_sum "Si O2"
_cell_formula_units_Z 12
_cell_length_a 7.203373
_cell_length_b 12.636304
_cell_length_c 8.350222
_cell_angle_alpha 69.750698
_cell_angle_beta 79.054459
_cell_angle_gamma 127.233918
_cell_volume 479.821206
_symmetry_space_group_name_H-M "P -1"
_symmetry_group_IT_number 2
_symmetry_cell_setting 'triclinic'
loop_
_space_group_symop_operation_xyz
x,y,z
-x,-y,-z
loop_
_atom_site_type_symbol
_atom_site_label
_atom_site_fract_x
_atom_site_fract_y
_atom_site_fract_z
Si Si1 0.922311 0.555347 0.854156
Si Si2 0.064000 0.797118 0.930097
Si Si3 0.936742 0.974156 0.336434
Si Si4 0.468952 0.791101 0.023351
Si Si5 0.774593 0.690533 0.357806
Si Si6 0.168066 0.681103 0.431372
O O1 0.650381 0.386935 0.899619
O O2 0.872642 0.651286 0.904308
O O3 0.184247 0.682474 0.621316
O O4 0.000000 0.500000 0.000000
O O5 0.188669 0.960495 0.733267
O O6 0.304349 0.817820 0.940615
O O7 0.867725 0.753900 0.127482
O O8 0.215413 0.065461 0.148074
O O9 0.000000 0.000000 0.500000
O O10 0.720669 0.783659 0.415630
O O11 0.447407 0.803838 0.213429
O O12 0.500000 0.500000 0.500000
O O13 0.007582 0.725745 0.396538
O O14 0.000000 0.500000 0.500000
#
# Coordination Sequence:
#
# PCOD8025092 Si02
#       6
#     2   2   2   2   2   2
#     4   9  18  38  69 105 134 174 229 273 341 406
#     4  10  23  44  68  99 137 179 225 282 343 400
#     4  12  27  46  67 103 138 180 229 285 344 394
#     4   9  22  42  68  99 136 178 228 281 332 412
#     4  11  26  45  66 101 137 180 230 279 340 411
#     4   9  19  40  67 100 128 180 224 275 339 400
#
# _framework density 25.009315000000001
#
# number of rings (size 3 to 8) (size 9 to 14) (size 15 to 20)
#    0.000    2.000    0.000    2.500    7.000    4.000 
#    3.000    0.000    0.000    0.000    0.000    0.000 
#    0.000    0.000    0.000    0.000    0.000    0.000 
#
# Total GULP energy -148718.335321 kJ/mol
# GULP energy per Si atom -12393.194610 kJ/mol
# Density = 2.495239 g / cm^3
# Si number density = 25.009315 Si / 1000 Ang^3
#
#
#
# Elastic Constant Matrix: (Units=GPa)
#
#
# Indices 1 2 3 4 5 6 
#
# 1 48.3260 28.2641 31.7579 1.6057 14.5864 -17.8176
# 2 28.2641 168.2025 46.8485 9.3769 17.7964 -30.5872
# 3 31.7579 46.8485 162.5906 28.4117 21.9867 -1.7188
# 4 1.6057 9.3769 28.4117 47.7155 2.2238 3.9594
# 5 14.5864 17.7964 21.9867 2.2238 41.7765 -8.9575
# 6 -17.8176 -30.5872 -1.7188 3.9594 -8.9575 37.6252
#
#
#
# Elastic Compliance Matrix: (Units=1/GPa)
#
#
# Indices 1 2 3 4 5 6 
#
# 1 0.030585 -0.001079 -0.005112 0.001463 -0.005029 0.012022
# 2 -0.001079 0.007756 -0.001701 -0.000906 -0.000777 0.005627
# 3 -0.005112 -0.001701 0.008697 -0.004254 -0.002609 -0.003580
# 4 0.001463 -0.000906 -0.004254 0.023829 0.000270 -0.002681
# 5 -0.005029 -0.000777 -0.002609 0.000270 0.028141 0.003539
# 6 0.012022 0.005627 -0.003580 -0.002681 0.003539 0.037806
#
#
# Mechanical properties :
#
#
# Convention : Reuss Voigt Hill
#
# Bulk Modulus (GPa) = 31.99527 65.87336 48.93431
# Shear Modulus (GPa) = 30.67164 43.57334 37.12249
#
# Velocity S-wave (km/s) = 3.50581 4.17860 3.85690
# Velocity P-wave (km/s) = 5.40451 7.04823 6.28038
#
# Compressibility (1/GPa) = 0.03125462
#
# Stress axis : x y z
#
# Youngs Moduli (GPa) = 32.69609 128.92629 114.97804
#
# Poissons Ratio (x) = 0.13912 0.58772
# Poissons Ratio (y) = 0.03528 0.19561
# Poissons Ratio (z) = 0.16713 0.21934
#
# Static dielectric constant tensor:
#      x y z
#    x 4.400550 -0.570800 0.333910 
#    y -0.570800 5.783700 0.216230 
#    z 0.333910 0.216230 4.898600 
# 
# 
# High freq. dielectric constant tensor:
#      x y z
#    x 1.979630 -0.019670 0.022570 
#    y -0.019670 2.004800 0.008880 
#    z 0.022570 0.008880 2.008070 
# 
# From -- ./inp_files/177616.got.cif
#   From: 2010.06.25/outbox.cif.g09.slc.cpg/sg2_89_cif.got.tgz:177616.got - 2010.06.27 13:26:56.
