data_PCOD8025859
_publ_section_title
;
Structure prediction by ZEFSAII (Michael W. Deem and Ramdas Pophale) SiO2 
 PCOD8025859
Probable space group: P -1
;
_chemical_formula_sum "Si O2"
_cell_formula_units_Z 16
_cell_length_a 11.840372
_cell_length_b 11.641750
_cell_length_c 6.673849
_cell_angle_alpha 80.338938
_cell_angle_beta 50.235721
_cell_angle_gamma 91.023098
_cell_volume 687.533440
_symmetry_space_group_name_H-M "P -1"
_symmetry_group_IT_number 2
_symmetry_cell_setting 'triclinic'
loop_
_space_group_symop_operation_xyz
x,y,z
-x,-y,-z
loop_
_atom_site_type_symbol
_atom_site_label
_atom_site_fract_x
_atom_site_fract_y
_atom_site_fract_z
Si Si1 0.204952 0.272300 0.012145
Si Si2 0.135466 0.759880 0.082310
Si Si3 0.527589 0.838629 0.193659
Si Si4 0.886373 0.588021 0.576511
Si Si5 0.284372 0.924036 0.200162
Si Si6 0.944487 0.086451 0.202506
Si Si7 0.611327 0.350547 0.312848
Si Si8 0.340166 0.449308 0.484306
O O1 0.142960 0.370642 0.180694
O O2 0.086862 0.153596 0.141795
O O3 0.346244 0.239695 0.986613
O O4 0.251143 0.335885 0.732458
O O5 0.173202 0.851122 0.192746
O O6 0.966561 0.698738 0.324441
O O7 0.141403 0.822652 0.842691
O O8 0.245210 0.662201 0.979644
O O9 0.393376 0.837305 0.188747
O O10 0.463198 0.783025 0.495707
O O11 0.613774 0.972962 0.071425
O O12 0.735621 0.533635 0.647601
O O13 0.000000 0.500000 0.500000
O O14 0.181514 0.972637 0.475983
O O15 0.000000 0.000000 0.000000
O O16 0.506381 0.418846 0.274870
O O17 0.655955 0.428108 0.438171
#
# Coordination Sequence:
#
# PCOD8025859 Si02
#       8
#     2   2   2   2   2   2   2   2
#     4  11  24  46  67 103 136 179 227 279 343 410
#     4  12  25  43  70 100 137 184 221 286 343 405
#     4  10  24  45  69  95 141 178 227 287 328 402
#     4  12  27  41  71 104 136 181 224 282 346 408
#     4  11  25  46  67 104 136 176 232 284 337 408
#     4  12  26  45  72 100 139 181 224 282 348 410
#     4  10  23  46  70  98 137 186 229 280 337 404
#     4  10  24  46  69 100 140 177 228 283 337 406
#
# _framework density 23.271594
#
# number of rings (size 3 to 8) (size 9 to 14) (size 15 to 20)
#    0.000    1.000    3.750    1.500    7.000    2.500 
#    6.750    2.500    0.000    0.000    0.000    0.000 
#    0.000    0.000    0.000    0.000    0.000    0.000 
#
# Total GULP energy -198338.829881 kJ/mol
# GULP energy per Si atom -12396.176868 kJ/mol
# Density = 2.321863 g / cm^3
# Si number density = 23.271594 Si / 1000 Ang^3
#
#
#
# Elastic Constant Matrix: (Units=GPa)
#
#
# Indices 1 2 3 4 5 6 
#
# 1 123.0966 26.6528 23.9110 9.6589 2.5147 4.5117
# 2 26.6528 67.5915 6.1436 13.3416 2.6498 0.4821
# 3 23.9110 6.1436 51.4150 9.8858 -6.7230 3.0157
# 4 9.6589 13.3416 9.8858 39.3801 -2.5841 -0.1947
# 5 2.5147 2.6498 -6.7230 -2.5841 28.8320 0.3558
# 6 4.5117 0.4821 3.0157 -0.1947 0.3558 37.0178
#
#
#
# Elastic Compliance Matrix: (Units=1/GPa)
#
#
# Indices 1 2 3 4 5 6 
#
# 1 0.009753 -0.003334 -0.004235 -0.000305 -0.001549 -0.000787
# 2 -0.003334 0.017173 0.000264 -0.005177 -0.001692 0.000150
# 3 -0.004235 0.000264 0.023032 -0.004490 0.005331 -0.001439
# 4 -0.000305 -0.005177 -0.004490 0.028483 0.002001 0.000601
# 5 -0.001549 -0.001692 0.005331 0.002001 0.036404 -0.000563
# 6 -0.000787 0.000150 -0.001439 0.000601 -0.000563 0.027234
#
#
# Mechanical properties :
#
#
# Convention : Reuss Voigt Hill
#
# Bulk Modulus (GPa) = 28.29084 39.50199 33.89642
# Shear Modulus (GPa) = 29.67865 33.40569 31.54217
#
# Velocity S-wave (km/s) = 3.57503 3.79287 3.68556
# Velocity P-wave (km/s) = 5.40595 6.01601 5.71912
#
# Compressibility (1/GPa) = 0.03534712
#
# Stress axis : x y z
#
# Youngs Moduli (GPa) = 102.53603 58.23239 43.41723
#
# Poissons Ratio (x) = 0.19416 0.18387
# Poissons Ratio (y) = 0.34188 -0.01146
# Poissons Ratio (z) = 0.43424 -0.01537
#
# Static dielectric constant tensor:
#      x y z
#    x 4.354150 -0.126540 -0.306720 
#    y -0.126540 4.059570 -0.222700 
#    z -0.306720 -0.222700 4.171220 
# 
# 
# High freq. dielectric constant tensor:
#      x y z
#    x 1.931580 -0.012950 -0.016540 
#    y -0.012950 1.915190 -0.013420 
#    z -0.016540 -0.013420 1.916560 
# 
# From -- ./inp_files/69626.got.cif
#   From: 2010.06.25/outbox.cif.g09.slc.cpg/sg2_35_cif.got.tgz:69626.got - 2010.06.27 13:26:56.
