data_PCOD8025634
_publ_section_title
;
Structure prediction by ZEFSAII (Michael W. Deem and Ramdas Pophale) SiO2 
 PCOD8025634
Probable space group: P -1
;
_chemical_formula_sum "Si O2"
_cell_formula_units_Z 14
_cell_length_a 4.912183
_cell_length_b 20.115497
_cell_length_c 12.067532
_cell_angle_alpha 151.122975
_cell_angle_beta 102.987368
_cell_angle_gamma 74.066023
_cell_volume 553.409899
_symmetry_space_group_name_H-M "P -1"
_symmetry_group_IT_number 2
_symmetry_cell_setting 'triclinic'
loop_
_space_group_symop_operation_xyz
x,y,z
-x,-y,-z
loop_
_atom_site_type_symbol
_atom_site_label
_atom_site_fract_x
_atom_site_fract_y
_atom_site_fract_z
Si Si1 0.587844 0.403219 0.547138
Si Si2 0.094534 0.690093 0.356076
Si Si3 0.049357 0.282643 0.256983
Si Si4 0.929432 0.641602 0.873031
Si Si5 0.948063 0.998517 0.242463
Si Si6 0.242570 0.519740 0.921797
Si Si7 0.565098 0.936007 0.294139
O O1 0.616517 0.382155 0.655253
O O2 0.269229 0.382069 0.461941
O O3 0.687479 0.544708 0.720642
O O4 0.795180 0.284533 0.324205
O O5 0.053403 0.856096 0.608744
O O6 0.860842 0.629213 0.318373
O O7 0.043537 0.639777 0.152798
O O8 0.947753 0.348246 0.223858
O O9 0.178039 0.117536 0.012614
O O10 0.217235 0.589262 0.897550
O O11 0.766704 0.789546 0.113950
O O12 0.742061 0.033563 0.380983
O O13 0.267037 0.926209 0.194750
O O14 0.500000 0.500000 0.000000
O O15 0.500000 0.000000 0.500000
#
# Coordination Sequence:
#
# PCOD8025634 Si02
#       7
#     2   2   2   2   2   2   2
#     4  11  25  43  72  99 139 183 234 289 340 406
#     4  10  25  45  65 106 135 185 230 285 350 416
#     4  11  24  45  66 105 136 182 236 284 346 403
#     4  10  23  45  71 104 136 180 232 292 347 411
#     4  11  25  44  68 100 143 183 232 284 344 419
#     4  10  23  46  71 100 138 180 231 289 349 419
#     4  11  24  44  69 104 140 185 232 282 350 414
#
# _framework density 25.297702999999998
#
# number of rings (size 3 to 8) (size 9 to 14) (size 15 to 20)
#    0.000    1.429    0.000    3.857    6.000    4.571 
#   15.429    0.000    0.000    0.000    0.000    0.000 
#    0.000    0.000    0.000    0.000    0.000    0.000 
#
# Total GULP energy -173437.444196 kJ/mol
# GULP energy per Si atom -12388.388871 kJ/mol
# Density = 2.524012 g / cm^3
# Si number density = 25.297703 Si / 1000 Ang^3
#
#
#
# Elastic Constant Matrix: (Units=GPa)
#
#
# Indices 1 2 3 4 5 6 
#
# 1 94.8973 22.1540 -5.3587 -12.6744 16.9441 -1.2947
# 2 22.1540 118.9318 48.6913 -8.3476 18.9959 0.8213
# 3 -5.3587 48.6913 104.8201 6.2116 12.4806 12.1025
# 4 -12.6744 -8.3476 6.2116 41.1157 5.9526 -0.4823
# 5 16.9441 18.9959 12.4806 5.9526 33.0149 -9.8674
# 6 -1.2947 0.8213 12.1025 -0.4823 -9.8674 48.1399
#
#
#
# Elastic Compliance Matrix: (Units=1/GPa)
#
#
# Indices 1 2 3 4 5 6 
#
# 1 0.013079 -0.001838 0.002409 0.004417 -0.007899 -0.001797
# 2 -0.001838 0.011849 -0.005293 0.003278 -0.004402 0.000210
# 3 0.002409 -0.005293 0.013171 -0.001783 -0.004045 -0.004003
# 4 0.004417 0.003278 -0.001783 0.027882 -0.008810 -0.001015
# 5 -0.007899 -0.004402 -0.004045 -0.008810 0.042855 0.009576
# 6 -0.001797 0.000210 -0.004003 -0.001015 0.009576 0.023680
#
#
# Mechanical properties :
#
#
# Convention : Reuss Voigt Hill
#
# Bulk Modulus (GPa) = 34.89801 49.95804 42.42802
# Shear Modulus (GPa) = 33.00070 41.33159 37.16615
#
# Velocity S-wave (km/s) = 3.61570 4.04642 3.83711
# Velocity P-wave (km/s) = 5.59070 6.45154 6.03648
#
# Compressibility (1/GPa) = 0.02865493
#
# Stress axis : x y z
#
# Youngs Moduli (GPa) = 76.46057 84.39434 75.92250
#
# Poissons Ratio (x) = 0.15515 -0.18288
# Poissons Ratio (y) = 0.14056 0.40182
# Poissons Ratio (z) = -0.18418 0.44666
#
# Static dielectric constant tensor:
#      x y z
#    x 4.904790 -0.055220 -0.158030 
#    y -0.055220 3.343370 1.023510 
#    z -0.158030 1.023510 3.763510 
# 
# 
# High freq. dielectric constant tensor:
#      x y z
#    x 2.018900 0.007790 -0.010130 
#    y 0.007790 2.002620 -0.009490 
#    z -0.010130 -0.009490 2.028770 
# 
# From -- ./inp_files/370206.got.cif
#   From: 2010.06.25/outbox.cif.g09.slc.cpg/sg2_186_cif.got.tgz:370206.got - 2010.06.27 13:26:56.
