data_PCOD8025448
_publ_section_title
;
Structure prediction by ZEFSAII (Michael W. Deem and Ramdas Pophale) SiO2 
 PCOD8025448
Probable space group: P -1
;
_chemical_formula_sum "Si O2"
_cell_formula_units_Z 12
_cell_length_a 7.246294
_cell_length_b 15.283955
_cell_length_c 8.832054
_cell_angle_alpha 145.159265
_cell_angle_beta 86.728358
_cell_angle_gamma 96.400545
_cell_volume 554.319532
_symmetry_space_group_name_H-M "P -1"
_symmetry_group_IT_number 2
_symmetry_cell_setting 'triclinic'
loop_
_space_group_symop_operation_xyz
x,y,z
-x,-y,-z
loop_
_atom_site_type_symbol
_atom_site_label
_atom_site_fract_x
_atom_site_fract_y
_atom_site_fract_z
Si Si1 0.756167 0.464766 0.800201
Si Si2 0.942543 0.382267 0.201849
Si Si3 0.781903 0.115310 0.282360
Si Si4 0.383831 0.566892 0.921792
Si Si5 0.880866 0.040105 0.842776
Si Si6 0.535769 0.899228 0.497158
O O1 0.827100 0.299669 0.533664
O O2 0.747264 0.504548 0.036292
O O3 0.903179 0.594882 0.904299
O O4 0.549526 0.462132 0.729382
O O5 0.000000 0.500000 0.500000
O O6 0.739462 0.412731 0.191469
O O7 0.936417 0.209835 0.015905
O O8 0.588662 0.062114 0.298970
O O9 0.776605 0.046396 0.016858
O O10 0.937950 0.046553 0.276391
O O11 0.492425 0.723595 0.202642
O O12 0.749303 0.937531 0.587984
O O13 0.500000 0.000000 0.500000
#
# Coordination Sequence:
#
# PCOD8025448 Si02
#       6
#     2   2   2   2   2   2
#     4  10  23  45  67  96 128 172 210 267 321 380
#     4  12  24  42  67  97 131 167 216 266 318 381
#     4  10  24  45  66  94 132 172 213 263 319 383
#     4  10  24  44  67  94 129 170 217 261 321 379
#     4  11  24  44  66  97 129 171 215 261 323 378
#     4  11  23  42  66  95 129 166 215 266 314 379
#
# _framework density 21.648164000000001
#
# number of rings (size 3 to 8) (size 9 to 14) (size 15 to 20)
#    0.000    1.333    3.333    1.000    2.333    8.000 
#    3.000    0.000    0.000    0.000    0.000    0.000 
#    0.000    0.000    0.000    0.000    0.000    0.000 
#
# Total GULP energy -148834.389279 kJ/mol
# GULP energy per Si atom -12402.865773 kJ/mol
# Density = 2.159889 g / cm^3
# Si number density = 21.648164 Si / 1000 Ang^3
#
#
#
# Elastic Constant Matrix: (Units=GPa)
#
#
# Indices 1 2 3 4 5 6 
#
# 1 107.5930 62.3687 53.9946 14.8353 14.3169 -26.6284
# 2 62.3687 136.2871 38.1396 16.1270 7.7168 -9.3539
# 3 53.9946 38.1396 82.5508 8.6250 15.9692 -15.2028
# 4 14.8353 16.1270 8.6250 20.6608 -8.4424 1.8869
# 5 14.3169 7.7168 15.9692 -8.4424 36.9699 0.9258
# 6 -26.6284 -9.3539 -15.2028 1.8869 0.9258 52.1890
#
#
#
# Elastic Compliance Matrix: (Units=1/GPa)
#
#
# Indices 1 2 3 4 5 6 
#
# 1 0.019933 -0.005011 -0.006941 -0.010802 -0.006336 0.007754
# 2 -0.005011 0.010433 -0.001109 -0.004299 -0.000719 -0.000842
# 3 -0.006941 -0.001109 0.019417 -0.005202 -0.006711 0.002223
# 4 -0.010802 -0.004299 -0.005202 0.072549 0.024166 -0.010849
# 5 -0.006336 -0.000719 -0.006711 0.024166 0.038242 -0.006869
# 6 0.007754 -0.000842 0.002223 -0.010849 -0.006869 0.024128
#
#
# Mechanical properties :
#
#
# Convention : Reuss Voigt Hill
#
# Bulk Modulus (GPa) = 42.26274 70.60408 56.43341
# Shear Modulus (GPa) = 22.86111 33.42582 28.14346
#
# Velocity S-wave (km/s) = 3.25319 3.93370 3.60952
# Velocity P-wave (km/s) = 5.80309 7.30186 6.59519
#
# Compressibility (1/GPa) = 0.02366150
#
# Stress axis : x y z
#
# Youngs Moduli (GPa) = 50.16688 95.85383 51.50028
#
# Poissons Ratio (x) = 0.48029 0.35745
# Poissons Ratio (y) = 0.25137 0.05714
# Poissons Ratio (z) = 0.34820 0.10635
#
# Static dielectric constant tensor:
#      x y z
#    x 3.992660 -0.063560 -0.166190 
#    y -0.063560 4.148360 -0.032520 
#    z -0.166190 -0.032520 3.639600 
# 
# 
# High freq. dielectric constant tensor:
#      x y z
#    x 1.857720 -0.004130 -0.004580 
#    y -0.004130 1.871980 0.003990 
#    z -0.004580 0.003990 1.835050 
# 
# From -- ./inp_files/26235.got.cif
#   From: 2010.06.25/outbox.cif.g09.slc.cpg/sg2_14_cif.got.tgz:26235.got - 2010.06.27 13:26:56.
