data_PCOD8025835
_publ_section_title
;
Structure prediction by ZEFSAII (Michael W. Deem and Ramdas Pophale) SiO2 
 PCOD8025835
Probable space group: P -1
;
_chemical_formula_sum "Si O2"
_cell_formula_units_Z 16
_cell_length_a 20.373472
_cell_length_b 8.760729
_cell_length_c 6.740460
_cell_angle_alpha 80.543146
_cell_angle_beta 126.561104
_cell_angle_gamma 131.369531
_cell_volume 670.640589
_symmetry_space_group_name_H-M "P -1"
_symmetry_group_IT_number 2
_symmetry_cell_setting 'triclinic'
loop_
_space_group_symop_operation_xyz
x,y,z
-x,-y,-z
loop_
_atom_site_type_symbol
_atom_site_label
_atom_site_fract_x
_atom_site_fract_y
_atom_site_fract_z
Si Si1 0.337880 0.352930 0.917312
Si Si2 0.989322 0.166336 0.960961
Si Si3 0.096032 0.710712 0.986829
Si Si4 0.484642 0.666328 0.782273
Si Si5 0.132916 0.836352 0.601432
Si Si6 0.352449 0.626582 0.214849
Si Si7 0.772618 0.389873 0.667727
Si Si8 0.328480 0.867347 0.832627
O O1 0.363708 0.472254 0.725915
O O2 0.223325 0.095003 0.755601
O O3 0.453162 0.408252 0.157357
O O4 0.315942 0.444011 0.035808
O O5 0.969584 0.229389 0.703688
O O6 0.884632 0.088951 0.931158
O O7 0.104555 0.380279 0.236986
O O8 0.000000 0.000000 0.000000
O O9 0.063364 0.684187 0.702774
O O10 0.214080 0.769314 0.194106
O O11 0.000000 0.500000 0.000000
O O12 0.464774 0.731251 0.526188
O O13 0.568984 0.869013 0.046179
O O14 0.203532 0.785768 0.645774
O O15 0.254930 0.526292 0.226162
O O16 0.368110 0.809903 0.094106
O O17 0.677356 0.248210 0.350769
#
# Coordination Sequence:
#
# PCOD8025835 Si02
#       8
#     2   2   2   2   2   2   2   2
#     4  10  25  45  70 101 142 182 228 287 345 416
#     4  11  27  44  71 101 141 183 229 282 346 415
#     4  10  23  46  69  99 136 179 231 284 339 407
#     4  10  24  47  68 101 138 185 231 289 344 403
#     4  11  24  46  72 101 136 188 230 278 353 411
#     4  12  24  41  71 102 139 177 234 286 346 406
#     4  11  25  44  67 104 139 179 227 289 344 404
#     4  11  24  44  72  99 136 184 233 284 344 411
#
# _framework density 23.857787999999999
#
# number of rings (size 3 to 8) (size 9 to 14) (size 15 to 20)
#    0.000    1.250    2.500    1.500    5.250    7.500 
#    2.250    0.000    0.000    0.000    0.000    0.000 
#    0.000    0.000    0.000    0.000    0.000    0.000 
#
# Total GULP energy -198217.043224 kJ/mol
# GULP energy per Si atom -12388.565202 kJ/mol
# Density = 2.380349 g / cm^3
# Si number density = 23.857788 Si / 1000 Ang^3
#
#
#
# Elastic Constant Matrix: (Units=GPa)
#
#
# Indices 1 2 3 4 5 6 
#
# 1 130.1363 34.2162 28.5929 -5.7272 -18.7820 -31.6839
# 2 34.2162 70.1388 28.1857 -6.4786 -7.4871 -14.5880
# 3 28.5929 28.1857 114.4354 -21.4830 -10.8954 -9.9620
# 4 -5.7272 -6.4786 -21.4830 41.7601 -7.8927 -3.1002
# 5 -18.7820 -7.4871 -10.8954 -7.8927 37.9973 -1.9354
# 6 -31.6839 -14.5880 -9.9620 -3.1002 -1.9354 42.1781
#
#
#
# Elastic Compliance Matrix: (Units=1/GPa)
#
#
# Indices 1 2 3 4 5 6 
#
# 1 0.011441 -0.002890 -0.000396 0.002628 0.005924 0.007967
# 2 -0.002890 0.017900 -0.002942 0.001456 0.001736 0.003511
# 3 -0.000396 -0.002942 0.011252 0.006148 0.003828 0.001970
# 4 0.002628 0.001456 0.006148 0.030061 0.009929 0.006595
# 5 0.005924 0.001736 0.003828 0.009929 0.033166 0.008206
# 6 0.007967 0.003511 0.001970 0.006595 0.008206 0.032235
#
#
# Mechanical properties :
#
#
# Convention : Reuss Voigt Hill
#
# Bulk Modulus (GPa) = 35.54114 55.18893 45.36503
# Shear Modulus (GPa) = 31.66722 39.30147 35.48434
#
# Velocity S-wave (km/s) = 3.64721 4.06313 3.86077
# Velocity P-wave (km/s) = 5.71538 6.72270 6.23940
#
# Compressibility (1/GPa) = 0.02813641
#
# Stress axis : x y z
#
# Youngs Moduli (GPa) = 87.40146 55.86595 88.87069
#
# Poissons Ratio (x) = 0.16147 0.03519
# Poissons Ratio (y) = 0.25262 0.26149
# Poissons Ratio (z) = 0.03461 0.16438
#
# Static dielectric constant tensor:
#      x y z
#    x 4.802640 -0.488340 0.020940 
#    y -0.488340 4.154330 -0.225090 
#    z 0.020940 -0.225090 4.303550 
# 
# 
# High freq. dielectric constant tensor:
#      x y z
#    x 1.960990 -0.029380 0.000610 
#    y -0.029380 1.928900 -0.009100 
#    z 0.000610 -0.009100 1.947480 
# 
# From -- ./inp_files/116970.got.cif
#   From: 2010.06.25/outbox.cif.g09.slc.cpg/sg2_59_cif.got.tgz:116970.got - 2010.06.27 13:26:56.
