data_PCOD8025630
_publ_section_title
;
Structure prediction by ZEFSAII (Michael W. Deem and Ramdas Pophale) SiO2 
 PCOD8025630
Probable space group: P -1
;
_chemical_formula_sum "Si O2"
_cell_formula_units_Z 16
_cell_length_a 8.552329
_cell_length_b 19.110028
_cell_length_c 4.990886
_cell_angle_alpha 62.864033
_cell_angle_beta 83.092070
_cell_angle_gamma 63.417209
_cell_volume 645.554180
_symmetry_space_group_name_H-M "P -1"
_symmetry_group_IT_number 2
_symmetry_cell_setting 'triclinic'
loop_
_space_group_symop_operation_xyz
x,y,z
-x,-y,-z
loop_
_atom_site_type_symbol
_atom_site_label
_atom_site_fract_x
_atom_site_fract_y
_atom_site_fract_z
Si Si1 0.910199 0.934519 0.134143
Si Si2 0.899964 0.232960 0.923815
Si Si3 0.363258 0.808304 0.761801
Si Si4 0.905915 0.670191 0.287702
Si Si5 0.071296 0.569885 0.927012
Si Si6 0.529982 0.702759 0.418997
Si Si7 0.375154 0.580353 0.569035
Si Si8 0.318782 0.002145 0.437549
O O1 0.054298 0.836320 0.208502
O O2 0.834690 0.934999 0.443201
O O3 0.745524 0.964055 0.907733
O O4 0.000000 0.000000 0.000000
O O5 0.769743 0.335662 0.704504
O O6 0.078662 0.240655 0.956793
O O7 0.820512 0.198269 0.249506
O O8 0.513550 0.752470 0.616566
O O9 0.340804 0.904525 0.620788
O O10 0.389798 0.768440 0.125631
O O11 0.712133 0.679916 0.274107
O O12 0.954793 0.653111 0.620999
O O13 0.037418 0.590782 0.211401
O O14 0.277103 0.543003 0.864451
O O15 0.000000 0.500000 0.000000
O O16 0.501626 0.616082 0.629662
O O17 0.500000 0.500000 0.500000
O O18 0.500000 0.000000 0.500000
#
# Coordination Sequence:
#
# PCOD8025630 Si02
#       8
#     2   2   2   2   2   2   2   2
#     4  12  26  48  75 109 146 200 244 303 364 440
#     4  10  25  44  71 101 142 185 242 292 358 433
#     4  11  24  44  67  99 145 183 234 291 354 430
#     4  11  24  42  66 100 132 183 231 291 355 423
#     4  11  23  43  67  96 136 177 234 293 352 428
#     4  11  24  42  69 100 137 186 231 291 359 424
#     4  10  23  45  71 102 140 186 235 294 360 428
#     4  12  28  45  74 110 152 190 246 303 372 437
#
# _framework density 24.784907
#
# number of rings (size 3 to 8) (size 9 to 14) (size 15 to 20)
#    0.000    1.000    1.250    4.125    5.250    4.000 
#    0.000    5.625    0.000    0.000    0.000    0.000 
#    0.000    0.000    0.000    0.000    0.000    0.000 
#
# Total GULP energy -198264.893978 kJ/mol
# GULP energy per Si atom -12391.555874 kJ/mol
# Density = 2.472850 g / cm^3
# Si number density = 24.784907 Si / 1000 Ang^3
#
#
#
# Elastic Constant Matrix: (Units=GPa)
#
#
# Indices 1 2 3 4 5 6 
#
# 1 145.0971 45.7222 30.6625 -4.2349 -49.2640 9.0162
# 2 45.7222 181.4487 37.9183 5.6596 -26.4424 -2.3568
# 3 30.6625 37.9183 72.0628 6.1877 -22.6567 6.5109
# 4 -4.2349 5.6596 6.1877 42.8316 2.0389 -10.8817
# 5 -49.2640 -26.4424 -22.6567 2.0389 60.5714 0.5651
# 6 9.0162 -2.3568 6.5109 -10.8817 0.5651 39.9390
#
#
#
# Elastic Compliance Matrix: (Units=1/GPa)
#
#
# Indices 1 2 3 4 5 6 
#
# 1 0.010166 -0.001294 -0.001208 0.000459 0.007256 -0.002152
# 2 -0.001294 0.006543 -0.002698 -0.000386 0.000798 0.001002
# 3 -0.001208 -0.002698 0.017944 -0.003557 0.004707 -0.003847
# 4 0.000459 -0.000386 -0.003557 0.025977 -0.002071 0.007560
# 5 0.007256 0.000798 0.004707 -0.002071 0.024620 -0.003271
# 6 -0.002152 0.001002 -0.003847 0.007560 -0.003271 0.028316
#
#
# Mechanical properties :
#
#
# Convention : Reuss Voigt Hill
#
# Bulk Modulus (GPa) = 41.23661 69.69051 55.46356
# Shear Modulus (GPa) = 37.86460 47.62211 42.74335
#
# Velocity S-wave (km/s) = 3.91286 4.38815 4.15730
# Velocity P-wave (km/s) = 6.08998 7.33851 6.74320
#
# Compressibility (1/GPa) = 0.02425030
#
# Stress axis : x y z
#
# Youngs Moduli (GPa) = 98.37082 152.84648 55.73028
#
# Poissons Ratio (x) = 0.19778 0.06734
# Poissons Ratio (y) = 0.12729 0.15038
# Poissons Ratio (z) = 0.11886 0.41245
#
# Static dielectric constant tensor:
#      x y z
#    x 4.704840 0.117040 -0.195870 
#    y 0.117040 4.473550 0.093160 
#    z -0.195870 0.093160 4.471570 
# 
# 
# High freq. dielectric constant tensor:
#      x y z
#    x 2.004780 0.008970 -0.023370 
#    y 0.008970 1.992870 0.002450 
#    z -0.023370 0.002450 1.979730 
# 
# From -- ./inp_files/46605.got.cif
#   From: 2010.06.25/outbox.cif.g09.slc.cpg/sg2_24_cif.got.tgz:46605.got - 2010.06.27 13:26:56.
