data_PCOD8025765
_publ_section_title
;
Structure prediction by ZEFSAII (Michael W. Deem and Ramdas Pophale) SiO2 
 PCOD8025765
Probable space group: P -1
;
_chemical_formula_sum "Si O2"
_cell_formula_units_Z 16
_cell_length_a 9.196347
_cell_length_b 15.118337
_cell_length_c 9.001298
_cell_angle_alpha 89.399840
_cell_angle_beta 78.766188
_cell_angle_gamma 39.208346
_cell_volume 755.779062
_symmetry_space_group_name_H-M "P -1"
_symmetry_group_IT_number 2
_symmetry_cell_setting 'triclinic'
loop_
_space_group_symop_operation_xyz
x,y,z
-x,-y,-z
loop_
_atom_site_type_symbol
_atom_site_label
_atom_site_fract_x
_atom_site_fract_y
_atom_site_fract_z
Si Si1 0.535576 0.900119 0.196981
Si Si2 0.211004 0.405202 0.341889
Si Si3 0.697860 0.312219 0.662789
Si Si4 0.933450 0.352840 0.789384
Si Si5 0.233902 0.611676 0.857367
Si Si6 0.867951 0.048785 0.679276
Si Si7 0.694927 0.255389 0.329694
Si Si8 0.720733 0.807959 0.839091
O O1 0.356176 0.911690 0.299185
O O2 0.779961 0.784388 0.244646
O O3 0.422595 0.051337 0.229978
O O4 0.578345 0.853999 0.017898
O O5 0.146323 0.510015 0.232236
O O6 0.457177 0.308003 0.382491
O O7 0.249290 0.294722 0.256441
O O8 0.000000 0.500000 0.500000
O O9 0.859287 0.321195 0.673103
O O10 0.417766 0.453972 0.757054
O O11 0.780764 0.187128 0.742905
O O12 0.727876 0.288456 0.480518
O O13 0.789821 0.388432 0.962300
O O14 0.338714 0.659249 0.798746
O O15 0.981145 0.723860 0.824007
O O16 0.000000 0.000000 0.500000
O O17 0.068064 0.914761 0.753743
#
# Coordination Sequence:
#
# PCOD8025765 Si02
#       8
#     2   2   2   2   2   2   2   2
#     4  10  23  46  66  98 135 173 223 271 332 398
#     4  12  28  43  66 102 136 174 224 273 334 400
#     4  11  24  42  68  95 135 176 215 276 332 388
#     4  11  27  41  66 104 131 171 222 277 335 387
#     4  11  22  44  69  94 130 172 224 273 328 392
#     4  10  24  41  66  95 129 173 220 267 326 391
#     4  11  24  45  67  94 132 178 224 266 330 398
#     4  10  24  43  71  94 133 181 216 272 336 392
#
# _framework density 21.170210000000001
#
# number of rings (size 3 to 8) (size 9 to 14) (size 15 to 20)
#    0.000    1.250    2.500    1.500   10.500    1.000 
#    0.000    4.375    0.000    0.000    0.000    0.000 
#    0.000    0.000    0.000    0.000    0.000    0.000 
#
# Total GULP energy -198446.520710 kJ/mol
# GULP energy per Si atom -12402.907544 kJ/mol
# Density = 2.112203 g / cm^3
# Si number density = 21.170210 Si / 1000 Ang^3
#
#
#
# Elastic Constant Matrix: (Units=GPa)
#
#
# Indices 1 2 3 4 5 6 
#
# 1 85.5151 6.1054 21.8331 0.3806 -8.6558 6.4578
# 2 6.1054 112.7409 10.9379 5.5118 -1.2284 13.1701
# 3 21.8331 10.9379 69.1218 -2.9620 -9.0207 8.5110
# 4 0.3806 5.5118 -2.9620 24.2313 -0.7425 -1.4986
# 5 -8.6558 -1.2284 -9.0207 -0.7425 33.9332 8.2359
# 6 6.4578 13.1701 8.5110 -1.4986 8.2359 45.7682
#
#
#
# Elastic Compliance Matrix: (Units=1/GPa)
#
#
# Indices 1 2 3 4 5 6 
#
# 1 0.013017 -0.000105 -0.003557 -0.000634 0.002761 -0.001663
# 2 -0.000105 0.009425 -0.001155 -0.002430 0.000602 -0.002671
# 3 -0.003557 -0.001155 0.016801 0.002319 0.004293 -0.002987
# 4 -0.000634 -0.002430 0.002319 0.042241 0.000908 0.001577
# 5 0.002761 0.000602 0.004293 0.000908 0.033127 -0.007293
# 6 -0.001663 -0.002671 -0.002987 0.001577 -0.007293 0.024772
#
#
# Mechanical properties :
#
#
# Convention : Reuss Voigt Hill
#
# Bulk Modulus (GPa) = 33.77307 38.34785 36.06046
# Shear Modulus (GPa) = 31.46915 36.01997 33.74456
#
# Velocity S-wave (km/s) = 3.85968 4.12933 3.99678
# Velocity P-wave (km/s) = 5.98753 6.39442 6.19432
#
# Compressibility (1/GPa) = 0.02960939
#
# Stress axis : x y z
#
# Youngs Moduli (GPa) = 76.82059 106.10134 59.52046
#
# Poissons Ratio (x) = 0.01109 0.21173
# Poissons Ratio (y) = 0.00803 0.06875
# Poissons Ratio (z) = 0.27327 0.12256
#
# Static dielectric constant tensor:
#      x y z
#    x 3.656380 0.196510 -0.148490 
#    y 0.196510 4.712760 0.099670 
#    z -0.148490 0.099670 3.674430 
# 
# 
# High freq. dielectric constant tensor:
#      x y z
#    x 1.832770 -0.003730 -0.017080 
#    y -0.003730 1.859150 0.003290 
#    z -0.017080 0.003290 1.817400 
# 
# From -- ./inp_files/207308.got.cif
#   From: 2010.06.25/outbox.cif.g09.slc.cpg/sg2_104_cif.got.tgz:207308.got - 2010.06.27 13:26:56.
