data_PCOD8025840
_publ_section_title
;
Structure prediction by ZEFSAII (Michael W. Deem and Ramdas Pophale) SiO2 
 PCOD8025840
Probable space group: P -1
;
_chemical_formula_sum "Si O2"
_cell_formula_units_Z 16
_cell_length_a 14.688780
_cell_length_b 14.607082
_cell_length_c 11.453632
_cell_angle_alpha 58.740942
_cell_angle_beta 29.303178
_cell_angle_gamma 40.574085
_cell_volume 698.372649
_symmetry_space_group_name_H-M "P -1"
_symmetry_group_IT_number 2
_symmetry_cell_setting 'triclinic'
loop_
_space_group_symop_operation_xyz
x,y,z
-x,-y,-z
loop_
_atom_site_type_symbol
_atom_site_label
_atom_site_fract_x
_atom_site_fract_y
_atom_site_fract_z
Si Si1 0.366952 0.945917 0.148392
Si Si2 0.566032 0.490588 0.207031
Si Si3 0.598461 0.129064 0.094156
Si Si4 0.961249 0.749643 0.329954
Si Si5 0.323115 0.972316 0.687940
Si Si6 0.361577 0.348956 0.580962
Si Si7 0.261412 0.384806 0.934566
Si Si8 0.147727 0.774140 0.333867
O O1 0.307432 0.975639 0.056569
O O2 0.572053 0.761427 0.066585
O O3 0.085574 0.050923 0.465048
O O4 0.500000 0.000000 0.000000
O O5 0.543694 0.378709 0.349714
O O6 0.273535 0.651605 0.378606
O O7 0.661829 0.524216 0.185193
O O8 0.782394 0.413062 0.911584
O O9 0.288704 0.228776 0.410291
O O10 0.791893 0.019163 0.062877
O O11 0.623730 0.245465 0.966578
O O12 0.025089 0.744276 0.396993
O O13 0.909353 0.887000 0.233425
O O14 0.496897 0.805699 0.544951
O O15 0.500000 0.000000 0.500000
O O16 0.061891 0.496215 0.764326
O O17 0.342118 0.320568 0.755388
#
# Coordination Sequence:
#
# PCOD8025840 Si02
#       8
#     2   2   2   2   2   2   2   2
#     4  12  24  46  71 100 139 179 227 282 342 401
#     4  12  26  45  67 106 140 178 233 275 342 411
#     4  11  24  43  70 100 132 177 224 282 335 401
#     4  11  25  45  69 101 137 178 226 280 340 404
#     4  10  23  46  70 101 133 178 230 278 340 405
#     4  11  25  46  71 100 141 180 225 287 340 402
#     4  11  25  46  70 102 139 182 228 280 343 407
#     4  12  25  44  69 103 135 180 227 279 340 402
#
# _framework density 22.910405000000001
#
# number of rings (size 3 to 8) (size 9 to 14) (size 15 to 20)
#    0.000    0.750    2.500    4.875    1.750    3.500 
#    2.250    0.000    0.000    0.000    0.000    0.000 
#    0.000    0.000    0.000    0.000    0.000    0.000 
#
# Total GULP energy -198439.851149 kJ/mol
# GULP energy per Si atom -12402.490697 kJ/mol
# Density = 2.285826 g / cm^3
# Si number density = 22.910405 Si / 1000 Ang^3
#
#
#
# Elastic Constant Matrix: (Units=GPa)
#
#
# Indices 1 2 3 4 5 6 
#
# 1 116.2717 29.0162 27.9843 4.9912 16.6754 9.9814
# 2 29.0162 99.0237 36.3088 -1.5063 3.4093 16.7914
# 3 27.9843 36.3088 85.4648 1.6460 -2.8875 2.8164
# 4 4.9912 -1.5063 1.6460 37.6703 5.8674 -3.8632
# 5 16.6754 3.4093 -2.8875 5.8674 31.8822 -4.9699
# 6 9.9814 16.7914 2.8164 -3.8632 -4.9699 41.6991
#
#
#
# Elastic Compliance Matrix: (Units=1/GPa)
#
#
# Indices 1 2 3 4 5 6 
#
# 1 0.010806 -0.001411 -0.003045 -0.000678 -0.006057 -0.002597
# 2 -0.001411 0.013287 -0.005107 0.000763 -0.002040 -0.004840
# 3 -0.003045 -0.005107 0.014947 -0.000852 0.003988 0.002172
# 4 -0.000678 0.000763 -0.000852 0.027615 -0.004586 0.001925
# 5 -0.006057 -0.002040 0.003988 -0.004586 0.036888 0.005974
# 6 -0.002597 -0.004840 0.002172 0.001925 0.005974 0.027296
#
#
# Mechanical properties :
#
#
# Convention : Reuss Voigt Hill
#
# Bulk Modulus (GPa) = 50.21512 54.15320 52.18416
# Shear Modulus (GPa) = 31.92767 36.08037 34.00402
#
# Velocity S-wave (km/s) = 3.73713 3.97274 3.85673
# Velocity P-wave (km/s) = 6.37080 6.68818 6.53142
#
# Compressibility (1/GPa) = 0.01991432
#
# Stress axis : x y z
#
# Youngs Moduli (GPa) = 92.53824 75.25974 66.90357
#
# Poissons Ratio (x) = 0.10622 0.20370
# Poissons Ratio (y) = 0.13061 0.34167
# Poissons Ratio (z) = 0.28176 0.38435
#
# Static dielectric constant tensor:
#      x y z
#    x 4.425590 -0.258360 -0.009130 
#    y -0.258360 4.138850 -0.062460 
#    z -0.009130 -0.062460 4.135170 
# 
# 
# High freq. dielectric constant tensor:
#      x y z
#    x 1.926360 0.003140 -0.001350 
#    y 0.003140 1.898600 -0.008040 
#    z -0.001350 -0.008040 1.903300 
# 
# From -- ./inp_files/455606.got.cif
#   From: 2010.06.25/outbox.cif.g09.slc.cpg/sg2_228_cif.got.tgz:455606.got - 2010.06.27 13:26:56.
