data_PCOD8025345
_publ_section_title
;
Structure prediction by ZEFSAII (Michael W. Deem and Ramdas Pophale) SiO2 
 PCOD8025345
Probable space group: P -1
;
_chemical_formula_sum "Si O2"
_cell_formula_units_Z 14
_cell_length_a 11.926862
_cell_length_b 8.964418
_cell_length_c 8.688927
_cell_angle_alpha 128.360153
_cell_angle_beta 65.604564
_cell_angle_gamma 93.656071
_cell_volume 638.837819
_symmetry_space_group_name_H-M "P -1"
_symmetry_group_IT_number 2
_symmetry_cell_setting 'triclinic'
loop_
_space_group_symop_operation_xyz
x,y,z
-x,-y,-z
loop_
_atom_site_type_symbol
_atom_site_label
_atom_site_fract_x
_atom_site_fract_y
_atom_site_fract_z
Si Si1 0.507662 0.807432 0.109434
Si Si2 0.769197 0.750907 0.768469
Si Si3 0.381314 0.493702 0.893956
Si Si4 0.309554 0.230991 0.515432
Si Si5 0.963318 0.716810 0.220003
Si Si6 0.983056 0.964840 0.810230
Si Si7 0.139645 0.629089 0.336128
O O1 0.528505 0.694075 0.188310
O O2 0.416584 0.024884 0.322139
O O3 0.637819 0.840735 0.991527
O O4 0.452331 0.666419 0.935074
O O5 0.731682 0.691012 0.582439
O O6 0.851532 0.907283 0.817841
O O7 0.855191 0.564218 0.691969
O O8 0.349049 0.408688 0.695300
O O9 0.259288 0.598384 0.135325
O O10 0.188627 0.188734 0.644129
O O11 0.008134 0.701789 0.361470
O O12 0.036348 0.837616 0.151389
O O13 0.000000 0.500000 0.000000
O O14 0.117376 0.809570 0.584279
O O15 0.000000 0.000000 0.000000
#
# Coordination Sequence:
#
# PCOD8025345 Si02
#       7
#     2   2   2   2   2   2   2
#     4  10  24  47  64 102 140 184 235 285 339 413
#     4  11  26  45  68 101 146 179 226 297 336 412
#     4  10  23  44  74  97 136 184 236 286 343 410
#     4  12  24  42  74  98 138 187 231 286 344 411
#     4  12  25  43  70 102 135 180 230 282 349 418
#     4  12  27  42  70 106 138 183 225 288 356 411
#     4  11  23  46  68  99 143 175 229 283 351 407
#
# _framework density 21.914795000000002
#
# number of rings (size 3 to 8) (size 9 to 14) (size 15 to 20)
#    0.000    0.857    2.857    3.429    6.000    0.571 
#    7.714    0.000    0.000    0.000    0.000    0.000 
#    0.000    0.000    0.000    0.000    0.000    0.000 
#
# Total GULP energy -173579.515850 kJ/mol
# GULP energy per Si atom -12398.536846 kJ/mol
# Density = 2.186492 g / cm^3
# Si number density = 21.914795 Si / 1000 Ang^3
#
#
#
# Elastic Constant Matrix: (Units=GPa)
#
#
# Indices 1 2 3 4 5 6 
#
# 1 123.0163 52.5165 67.3366 4.3327 5.8458 0.4800
# 2 52.5165 129.3897 66.5290 9.2703 -4.4086 9.7999
# 3 67.3366 66.5290 151.9354 11.1310 4.2106 -3.7031
# 4 4.3327 9.2703 11.1310 24.7138 -7.5864 3.9908
# 5 5.8458 -4.4086 4.2106 -7.5864 44.0023 -4.5430
# 6 0.4800 9.7999 -3.7031 3.9908 -4.5430 33.7611
#
#
#
# Elastic Compliance Matrix: (Units=1/GPa)
#
#
# Indices 1 2 3 4 5 6 
#
# 1 0.011469 -0.002733 -0.003874 0.000342 -0.001370 -0.000019
# 2 -0.002733 0.011105 -0.003687 -0.001096 0.001300 -0.003285
# 3 -0.003874 -0.003687 0.010248 -0.003307 -0.001149 0.002486
# 4 0.000342 -0.001096 -0.003307 0.045323 0.007522 -0.004395
# 5 -0.001370 0.001300 -0.001149 0.007522 0.024646 0.001943
# 6 -0.000019 -0.003285 0.002486 -0.004395 0.001943 0.031627
#
#
# Mechanical properties :
#
#
# Convention : Reuss Voigt Hill
#
# Bulk Modulus (GPa) = 81.73820 86.34507 84.04163
# Shear Modulus (GPa) = 31.42969 35.02607 33.22788
#
# Velocity S-wave (km/s) = 3.79116 4.00219 3.89810
# Velocity P-wave (km/s) = 7.51951 7.80017 7.66112
#
# Compressibility (1/GPa) = 0.01223418
#
# Stress axis : x y z
#
# Youngs Moduli (GPa) = 87.18836 90.04622 97.57974
#
# Poissons Ratio (x) = 0.24609 0.37803
# Poissons Ratio (y) = 0.23828 0.35981
# Poissons Ratio (z) = 0.33777 0.33203
#
# Static dielectric constant tensor:
#      x y z
#    x 3.996290 -0.113360 0.059790 
#    y -0.113360 3.827910 0.053850 
#    z 0.059790 0.053850 3.953870 
# 
# 
# High freq. dielectric constant tensor:
#      x y z
#    x 1.869510 -0.002460 -0.004890 
#    y -0.002460 1.859660 0.000190 
#    z -0.004890 0.000190 1.873030 
# 
# From -- ./inp_files/180808.got.cif
#   From: 2010.06.25/outbox.cif.g09.slc.cpg/sg2_91_cif.got.tgz:180808.got - 2010.06.27 13:26:56.
