data_PCOD8025100
_publ_section_title
;
Structure prediction by ZEFSAII (Michael W. Deem and Ramdas Pophale) SiO2 
 PCOD8025100
Probable space group: P -1
;
_chemical_formula_sum "Si O2"
_cell_formula_units_Z 16
_cell_length_a 10.809742
_cell_length_b 11.597450
_cell_length_c 9.353762
_cell_angle_alpha 114.435271
_cell_angle_beta 94.344437
_cell_angle_gamma 130.241649
_cell_volume 708.766209
_symmetry_space_group_name_H-M "P -1"
_symmetry_group_IT_number 2
_symmetry_cell_setting 'triclinic'
loop_
_space_group_symop_operation_xyz
x,y,z
-x,-y,-z
loop_
_atom_site_type_symbol
_atom_site_label
_atom_site_fract_x
_atom_site_fract_y
_atom_site_fract_z
Si Si1 0.621303 0.793503 0.187483
Si Si2 0.949380 0.265884 0.974158
Si Si3 0.809811 0.818691 0.468069
Si Si4 0.330198 0.554396 0.819495
Si Si5 0.389805 0.929520 0.600388
Si Si6 0.446488 0.075921 0.131827
Si Si7 0.029896 0.053949 0.865028
Si Si8 0.046630 0.600403 0.245033
O O1 0.645103 0.766621 0.341010
O O2 0.801974 0.898323 0.161939
O O3 0.585181 0.915959 0.243518
O O4 0.436215 0.592173 0.994378
O O5 0.077555 0.239876 0.945239
O O6 0.874123 0.268935 0.821581
O O7 0.776438 0.086596 0.961464
O O8 0.069199 0.465382 0.166677
O O9 0.766414 0.637163 0.364351
O O10 0.000000 0.000000 0.500000
O O11 0.837790 0.879171 0.667867
O O12 0.483792 0.736509 0.825584
O O13 0.171132 0.535900 0.827741
O O14 0.461257 0.873218 0.679883
O O15 0.168735 0.740734 0.460147
O O16 0.500000 0.000000 0.500000
O O17 0.500000 0.000000 0.000000
O O18 0.000000 0.000000 0.000000
#
# Coordination Sequence:
#
# PCOD8025100 Si02
#       8
#     2   2   2   2   2   2   2   2
#     4  11  23  45  70 102 140 188 241 292 356 421
#     4  11  23  43  67 100 143 183 234 286 355 423
#     4  10  23  44  69 100 136 185 243 288 338 432
#     4  12  24  44  76 104 140 189 243 297 369 412
#     4  12  25  45  74 105 140 187 240 297 360 429
#     4  12  24  46  68 104 149 182 227 305 360 419
#     4  11  24  43  70  98 146 187 228 296 358 421
#     4  11  23  41  72 103 134 182 242 291 348 430
#
# _framework density 22.574439999999999
#
# number of rings (size 3 to 8) (size 9 to 14) (size 15 to 20)
#    0.000    0.750    3.750    4.875    1.750    1.500 
#    0.000    2.500    0.000    0.000    0.000    0.000 
#    0.000    0.000    0.000    0.000    0.000    0.000 
#
# Total GULP energy -198414.672850 kJ/mol
# GULP energy per Si atom -12400.917053 kJ/mol
# Density = 2.252306 g / cm^3
# Si number density = 22.574440 Si / 1000 Ang^3
#
#
#
# Elastic Constant Matrix: (Units=GPa)
#
#
# Indices 1 2 3 4 5 6 
#
# 1 84.1846 23.5841 29.9849 0.5214 -5.9191 -8.0904
# 2 23.5841 112.0629 42.1604 8.3475 -7.4277 -9.1986
# 3 29.9849 42.1604 137.5513 -6.1058 10.1107 -14.1304
# 4 0.5214 8.3475 -6.1058 38.5171 -8.7325 -5.2282
# 5 -5.9191 -7.4277 10.1107 -8.7325 43.5655 5.4514
# 6 -8.0904 -9.1986 -14.1304 -5.2282 5.4514 39.2973
#
#
#
# Elastic Compliance Matrix: (Units=1/GPa)
#
#
# Indices 1 2 3 4 5 6 
#
# 1 0.013482 -0.001725 -0.002408 0.000443 0.002025 0.001284
# 2 -0.001725 0.010793 -0.003118 -0.002335 0.001800 0.000490
# 3 -0.002408 -0.003118 0.009343 0.001890 -0.002999 0.002801
# 4 0.000443 -0.002335 0.001890 0.028230 0.004461 0.003361
# 5 0.002025 0.001800 -0.002999 0.004461 0.025525 -0.003187
# 6 0.001284 0.000490 0.002801 0.003361 -0.003187 0.027723
#
#
# Mechanical properties :
#
#
# Convention : Reuss Voigt Hill
#
# Bulk Modulus (GPa) = 52.30849 58.36194 55.33522
# Shear Modulus (GPa) = 36.77317 40.14727 38.46022
#
# Velocity S-wave (km/s) = 4.04043 4.22173 4.13208
# Velocity P-wave (km/s) = 6.70736 7.04792 6.87975
#
# Compressibility (1/GPa) = 0.01911735
#
# Stress axis : x y z
#
# Youngs Moduli (GPa) = 74.17035 92.65228 107.03764
#
# Poissons Ratio (x) = 0.15983 0.25769
# Poissons Ratio (y) = 0.12795 0.33372
# Poissons Ratio (z) = 0.17857 0.28887
#
# Static dielectric constant tensor:
#      x y z
#    x 4.238440 -0.185440 0.299630 
#    y -0.185440 3.997940 -0.096990 
#    z 0.299630 -0.096990 4.600090 
# 
# 
# High freq. dielectric constant tensor:
#      x y z
#    x 1.891010 -0.010560 0.003020 
#    y -0.010560 1.878440 0.003740 
#    z 0.003020 0.003740 1.899530 
# 
# From -- ./inp_files/263068.got.cif
#   From: 2010.06.25/outbox.cif.g09.slc.cpg/sg2_132_cif.got.tgz:263068.got - 2010.06.27 13:26:56.
