data_PCOD8025920
_publ_section_title
;
Structure prediction by ZEFSAII (Michael W. Deem and Ramdas Pophale) SiO2 
 PCOD8025920
Probable space group: P -1
;
_chemical_formula_sum "Si O2"
_cell_formula_units_Z 16
_cell_length_a 16.078641
_cell_length_b 11.650634
_cell_length_c 5.238052
_cell_angle_alpha 69.102023
_cell_angle_beta 130.442069
_cell_angle_gamma 123.386231
_cell_volume 623.540943
_symmetry_space_group_name_H-M "P -1"
_symmetry_group_IT_number 2
_symmetry_cell_setting 'triclinic'
loop_
_space_group_symop_operation_xyz
x,y,z
-x,-y,-z
loop_
_atom_site_type_symbol
_atom_site_label
_atom_site_fract_x
_atom_site_fract_y
_atom_site_fract_z
Si Si1 0.192907 0.128817 0.402188
Si Si2 0.998642 0.859137 0.340701
Si Si3 0.807004 0.646108 0.450794
Si Si4 0.495202 0.828257 0.530133
Si Si5 0.563259 0.584538 0.808338
Si Si6 0.212715 0.638717 0.202467
Si Si7 0.386263 0.030742 0.835523
Si Si8 0.161261 0.747799 0.524142
O O1 0.235979 0.279154 0.481169
O O2 0.314613 0.121232 0.564815
O O3 0.107864 0.107836 0.004817
O O4 0.111938 0.004160 0.540521
O O5 0.942877 0.749862 0.543831
O O6 0.053281 0.794060 0.286417
O O7 0.811611 0.516393 0.688906
O O8 0.703459 0.605485 0.056702
O O9 0.559812 0.730137 0.695078
O O10 0.355991 0.738308 0.399091
O O11 0.507487 0.915053 0.219303
O O12 0.562871 0.939695 0.797492
O O13 0.500000 0.500000 0.500000
O O14 0.500000 0.500000 0.000000
O O15 0.152956 0.681355 0.285026
O O16 0.144429 0.640179 0.803540
O O17 0.293981 0.872382 0.739894
#
# Coordination Sequence:
#
# PCOD8025920 Si02
#       8
#     2   2   2   2   2   2   2   2
#     4  10  23  46  73 116 133 184 235 309 365 429
#     4  10  25  46  78 100 146 180 248 301 360 413
#     4  12  26  44  76 105 145 190 231 299 364 432
#     4  12  24  43  72 108 138 191 236 298 354 427
#     4  12  26  43  70 109 151 184 226 290 368 434
#     4  12  29  45  70 101 149 191 247 281 350 432
#     4  11  24  45  77 102 144 181 239 302 364 414
#     4  11  28  51  67 104 141 194 245 298 342 421
#
# _framework density 25.659904999999998
#
# number of rings (size 3 to 8) (size 9 to 14) (size 15 to 20)
#    0.000    0.750    2.500    3.375    7.000    4.000 
#    0.000    0.000    0.000    0.000    0.000    0.000 
#    0.000    0.000    0.000    0.000    0.000    0.000 
#
# Total GULP energy -198468.061221 kJ/mol
# GULP energy per Si atom -12404.253826 kJ/mol
# Density = 2.560150 g / cm^3
# Si number density = 25.659905 Si / 1000 Ang^3
#
#
#
# Elastic Constant Matrix: (Units=GPa)
#
#
# Indices 1 2 3 4 5 6 
#
# 1 97.9667 35.1167 36.8160 -7.7185 -14.7536 -4.5303
# 2 35.1167 112.9607 24.7802 -9.4509 -26.4632 -10.8272
# 3 36.8160 24.7802 79.0568 -17.4271 -16.3323 9.2927
# 4 -7.7185 -9.4509 -17.4271 38.4513 -0.5868 -0.1602
# 5 -14.7536 -26.4632 -16.3323 -0.5868 44.2384 -5.3039
# 6 -4.5303 -10.8272 9.2927 -0.1602 -5.3039 37.8606
#
#
#
# Elastic Compliance Matrix: (Units=1/GPa)
#
#
# Indices 1 2 3 4 5 6 
#
# 1 0.013472 -0.002465 -0.005630 -0.000424 0.001229 0.002459
# 2 -0.002465 0.012003 -0.001378 0.001947 0.006401 0.004381
# 3 -0.005630 -0.001378 0.018596 0.006994 0.003646 -0.005092
# 4 -0.000424 0.001947 0.006994 0.029628 0.003934 -0.000534
# 5 0.001229 0.006401 0.003646 0.003934 0.028858 0.005142
# 6 0.002459 0.004381 -0.005092 -0.000534 0.005142 0.029928
#
#
# Mechanical properties :
#
#
# Convention : Reuss Voigt Hill
#
# Bulk Modulus (GPa) = 39.79894 53.71222 46.75558
# Shear Modulus (GPa) = 31.28770 36.99480 34.14125
#
# Velocity S-wave (km/s) = 3.49567 3.80114 3.65160
# Velocity P-wave (km/s) = 5.64241 6.34371 6.00331
#
# Compressibility (1/GPa) = 0.02512630
#
# Stress axis : x y z
#
# Youngs Moduli (GPa) = 74.22648 83.30904 53.77416
#
# Poissons Ratio (x) = 0.20535 0.30274
# Poissons Ratio (y) = 0.18296 0.07410
# Poissons Ratio (z) = 0.41789 0.11480
#
# Static dielectric constant tensor:
#      x y z
#    x 4.915100 0.067800 0.266280 
#    y 0.067800 4.919660 -0.221680 
#    z 0.266280 -0.221680 4.589630 
# 
# 
# High freq. dielectric constant tensor:
#      x y z
#    x 2.039910 -0.001740 0.015170 
#    y -0.001740 2.044270 -0.015170 
#    z 0.015170 -0.015170 2.024860 
# 
# From -- ./inp_files/109643.got.cif
#   From: 2010.06.25/outbox.cif.g09.slc.cpg/sg2_55_cif.got.tgz:109643.got - 2010.06.27 13:26:56.
