data_PCOD8025114
_publ_section_title
;
Structure prediction by ZEFSAII (Michael W. Deem and Ramdas Pophale) SiO2 
 PCOD8025114
Probable space group: P -1
;
_chemical_formula_sum "Si O2"
_cell_formula_units_Z 16
_cell_length_a 17.176734
_cell_length_b 12.317183
_cell_length_c 8.574053
_cell_angle_alpha 128.921694
_cell_angle_beta 149.069996
_cell_angle_gamma 47.211294
_cell_volume 679.230902
_symmetry_space_group_name_H-M "P -1"
_symmetry_group_IT_number 2
_symmetry_cell_setting 'triclinic'
loop_
_space_group_symop_operation_xyz
x,y,z
-x,-y,-z
loop_
_atom_site_type_symbol
_atom_site_label
_atom_site_fract_x
_atom_site_fract_y
_atom_site_fract_z
Si Si1 0.833082 0.101418 0.725903
Si Si2 0.374177 0.073336 0.683054
Si Si3 0.665406 0.368327 0.189261
Si Si4 0.194944 0.347699 0.795652
Si Si5 0.184015 0.440416 0.209417
Si Si6 0.154526 0.640880 0.827514
Si Si7 0.680841 0.874682 0.698939
Si Si8 0.289335 0.928173 0.833632
O O1 0.836992 0.080537 0.524574
O O2 0.677863 0.065657 0.486757
O O3 0.801332 0.271747 0.873454
O O4 0.000000 0.000000 0.000000
O O5 0.338644 0.194516 0.869579
O O6 0.266301 0.144667 0.408295
O O7 0.566302 0.023727 0.946507
O O8 0.761303 0.422242 0.532927
O O9 0.762512 0.328188 0.157939
O O10 0.636021 0.224833 0.079788
O O11 0.500000 0.500000 0.000000
O O12 0.208784 0.465653 0.798009
O O13 0.037734 0.300483 0.471593
O O14 0.205537 0.414650 0.040800
O O15 0.298678 0.290233 0.356403
O O16 0.000000 0.500000 0.000000
O O17 0.500000 0.000000 0.500000
O O18 0.792508 0.939606 0.060110
#
# Coordination Sequence:
#
# PCOD8025114 Si02
#       8
#     2   2   2   2   2   2   2   2
#     4  12  25  43  67 102 139 180 230 288 354 419
#     4  11  23  45  72  98 138 189 233 288 352 425
#     4  12  25  46  70 103 144 183 241 294 357 425
#     4  11  23  43  71  99 139 182 232 289 357 417
#     4  12  25  43  72 106 141 187 243 291 355 427
#     4  11  24  43  67 100 138 181 227 291 356 413
#     4  10  23  44  69 102 141 189 234 286 357 420
#     4  11  25  45  70 104 141 188 236 291 353 429
#
# _framework density 23.556055000000001
#
# number of rings (size 3 to 8) (size 9 to 14) (size 15 to 20)
#    0.000    0.750    2.500    5.625    1.750    4.000 
#    0.000    4.375    0.000    0.000    0.000    0.000 
#    0.000    0.000    0.000    0.000    0.000    0.000 
#
# Total GULP energy -198333.838598 kJ/mol
# GULP energy per Si atom -12395.864912 kJ/mol
# Density = 2.350244 g / cm^3
# Si number density = 23.556055 Si / 1000 Ang^3
#
#
#
# Elastic Constant Matrix: (Units=GPa)
#
#
# Indices 1 2 3 4 5 6 
#
# 1 95.8416 16.8494 41.3465 4.1037 -19.0964 -0.7073
# 2 16.8494 79.0141 13.5668 3.8719 6.3800 4.6567
# 3 41.3465 13.5668 117.2562 14.0355 -25.2919 -6.0244
# 4 4.1037 3.8719 14.0355 40.7941 -2.1176 -10.1992
# 5 -19.0964 6.3800 -25.2919 -2.1176 51.9788 10.2021
# 6 -0.7073 4.6567 -6.0244 -10.1992 10.2021 35.9177
#
#
#
# Elastic Compliance Matrix: (Units=1/GPa)
#
#
# Indices 1 2 3 4 5 6 
#
# 1 0.013126 -0.002403 -0.003649 0.000091 0.003546 -0.001023
# 2 -0.002403 0.013783 -0.001329 -0.001149 -0.002965 -0.001541
# 3 -0.003649 -0.001329 0.011248 -0.003186 0.004187 -0.000107
# 4 0.000091 -0.001149 -0.003186 0.027608 -0.001816 0.007972
# 5 0.003546 -0.002965 0.004187 -0.001816 0.024086 -0.006200
# 6 -0.001023 -0.001541 -0.000107 0.007972 -0.006200 0.032028
#
#
# Mechanical properties :
#
#
# Convention : Reuss Voigt Hill
#
# Bulk Modulus (GPa) = 42.74389 48.40414 45.57401
# Shear Modulus (GPa) = 34.61702 40.42806 37.52254
#
# Velocity S-wave (km/s) = 3.83764 4.14726 3.99545
# Velocity P-wave (km/s) = 6.14993 6.59743 6.37761
#
# Compressibility (1/GPa) = 0.02339516
#
# Stress axis : x y z
#
# Youngs Moduli (GPa) = 76.18698 72.55268 88.90747
#
# Poissons Ratio (x) = 0.17434 0.32441
# Poissons Ratio (y) = 0.18308 0.11814
# Poissons Ratio (z) = 0.27800 0.09640
#
# Static dielectric constant tensor:
#      x y z
#    x 4.707250 0.023700 -0.420940 
#    y 0.023700 4.119180 0.214180 
#    z -0.420940 0.214180 4.539630 
# 
# 
# High freq. dielectric constant tensor:
#      x y z
#    x 1.935670 0.005440 -0.023030 
#    y 0.005440 1.935230 0.016180 
#    z -0.023030 0.016180 1.942680 
# 
# From -- ./inp_files/333855.got.cif
#   From: 2010.06.25/outbox.cif.g09.slc.cpg/sg2_167_cif.got.tgz:333855.got - 2010.06.27 13:26:56.
