data_PCOD8025127
_publ_section_title
;
Structure prediction by ZEFSAII (Michael W. Deem and Ramdas Pophale) SiO2 
 PCOD8025127
Probable space group: P -1
;
_chemical_formula_sum "Si O2"
_cell_formula_units_Z 16
_cell_length_a 9.165309
_cell_length_b 11.557517
_cell_length_c 9.608920
_cell_angle_alpha 89.563439
_cell_angle_beta 136.151201
_cell_angle_gamma 102.402412
_cell_volume 672.159836
_symmetry_space_group_name_H-M "P -1"
_symmetry_group_IT_number 2
_symmetry_cell_setting 'triclinic'
loop_
_space_group_symop_operation_xyz
x,y,z
-x,-y,-z
loop_
_atom_site_type_symbol
_atom_site_label
_atom_site_fract_x
_atom_site_fract_y
_atom_site_fract_z
Si Si1 0.265405 0.032290 0.504575
Si Si2 0.382733 0.816212 0.453111
Si Si3 0.620069 0.711111 0.844232
Si Si4 0.236780 0.260382 0.761658
Si Si5 0.315299 0.735607 0.990811
Si Si6 0.032958 0.639981 0.049486
Si Si7 0.136017 0.899464 0.678170
Si Si8 0.234907 0.526553 0.728125
O O1 0.466923 0.143126 0.583272
O O2 0.026271 0.057011 0.329776
O O3 0.262595 0.915534 0.410875
O O4 0.292469 0.008922 0.690387
O O5 0.541098 0.800416 0.687077
O O6 0.185856 0.690189 0.290340
O O7 0.412305 0.596198 0.736466
O O8 0.727239 0.785173 0.057191
O O9 0.795449 0.659029 0.889206
O O10 0.280738 0.403748 0.807946
O O11 0.002123 0.195093 0.533144
O O12 0.425447 0.235545 0.791724
O O13 0.289103 0.838671 0.867702
O O14 0.239415 0.604278 0.868134
O O15 0.161507 0.728734 0.016177
O O16 0.000000 0.500000 0.000000
O O17 0.000000 0.500000 0.500000
#
# Coordination Sequence:
#
# PCOD8025127 Si02
#       8
#     2   2   2   2   2   2   2   2
#     4  10  23  44  69  93 129 184 218 279 334 382
#     4  11  25  47  65  92 141 175 223 271 331 394
#     4  11  25  41  67  98 131 181 221 259 340 400
#     4  11  22  40  66  98 132 171 222 274 325 397
#     4  11  23  40  64 100 133 171 226 270 334 395
#     4  12  26  43  67 100 138 174 218 271 333 400
#     4  11  22  42  67  95 131 165 229 283 330 375
#     4  11  22  40  67  96 132 175 212 270 331 389
#
# _framework density 23.803863
#
# number of rings (size 3 to 8) (size 9 to 14) (size 15 to 20)
#    0.000    1.000    1.250    6.750    3.500    0.500 
#    0.000   25.000    0.000    0.000    0.000    0.000 
#    0.000    0.000    0.000    0.000    0.000    0.000 
#
# Total GULP energy -198391.323208 kJ/mol
# GULP energy per Si atom -12399.457700 kJ/mol
# Density = 2.374968 g / cm^3
# Si number density = 23.803863 Si / 1000 Ang^3
#
#
#
# Elastic Constant Matrix: (Units=GPa)
#
#
# Indices 1 2 3 4 5 6 
#
# 1 127.5172 16.4411 19.2704 -6.7408 4.6344 -2.8675
# 2 16.4411 88.1677 25.0123 -4.3529 0.0068 -9.2385
# 3 19.2704 25.0123 73.6182 -10.2536 10.9363 5.1465
# 4 -6.7408 -4.3529 -10.2536 37.0439 -1.8407 1.7761
# 5 4.6344 0.0068 10.9363 -1.8407 27.7906 -3.8485
# 6 -2.8675 -9.2385 5.1465 1.7761 -3.8485 44.0486
#
#
#
# Elastic Compliance Matrix: (Units=1/GPa)
#
#
# Indices 1 2 3 4 5 6 
#
# 1 0.008298 -0.000989 -0.001652 0.000885 -0.000614 0.000436
# 2 -0.000989 0.013279 -0.004882 -0.000012 0.002569 0.003516
# 3 -0.001652 -0.004882 0.017507 0.003817 -0.006905 -0.003934
# 4 0.000885 -0.000012 0.003817 0.028285 0.000012 -0.001530
# 5 -0.000614 0.002569 -0.006905 0.000012 0.039461 0.004753
# 6 0.000436 0.003516 -0.003934 -0.001530 0.004753 0.024405
#
#
# Mechanical properties :
#
#
# Convention : Reuss Voigt Hill
#
# Bulk Modulus (GPa) = 41.60042 45.63896 43.61969
# Shear Modulus (GPa) = 32.40560 37.01524 34.71042
#
# Velocity S-wave (km/s) = 3.69366 3.94764 3.82276
# Velocity P-wave (km/s) = 5.97538 6.32400 6.15216
#
# Compressibility (1/GPa) = 0.02403822
#
# Stress axis : x y z
#
# Youngs Moduli (GPa) = 120.50797 75.30663 57.11983
#
# Poissons Ratio (x) = 0.07450 0.09436
# Poissons Ratio (y) = 0.11922 0.27885
# Poissons Ratio (z) = 0.19908 0.36763
#
# Static dielectric constant tensor:
#      x y z
#    x 4.673770 0.032490 0.083850 
#    y 0.032490 4.773800 0.083930 
#    z 0.083850 0.083930 4.137850 
# 
# 
# High freq. dielectric constant tensor:
#      x y z
#    x 1.965690 -0.004050 0.007340 
#    y -0.004050 1.948550 0.005120 
#    z 0.007340 0.005120 1.934630 
# 
# From -- ./inp_files/188075.got.cif
#   From: 2010.06.25/outbox.cif.g09.slc.cpg/sg2_95_cif.got.tgz:188075.got - 2010.06.27 13:26:56.
