data_PCOD8025488
_publ_section_title
;
Structure prediction by ZEFSAII (Michael W. Deem and Ramdas Pophale) SiO2 
 PCOD8025488
Probable space group: P -1
;
_chemical_formula_sum "Si O2"
_cell_formula_units_Z 14
_cell_length_a 6.985057
_cell_length_b 14.776536
_cell_length_c 9.445204
_cell_angle_alpha 137.127720
_cell_angle_beta 81.616152
_cell_angle_gamma 95.627417
_cell_volume 656.135615
_symmetry_space_group_name_H-M "P -1"
_symmetry_group_IT_number 2
_symmetry_cell_setting 'triclinic'
loop_
_space_group_symop_operation_xyz
x,y,z
-x,-y,-z
loop_
_atom_site_type_symbol
_atom_site_label
_atom_site_fract_x
_atom_site_fract_y
_atom_site_fract_z
Si Si1 0.962454 0.965839 0.685204
Si Si2 0.782358 0.256325 0.494431
Si Si3 0.447828 0.665709 0.833540
Si Si4 0.787072 0.482171 0.550117
Si Si5 0.475160 0.652981 0.126653
Si Si6 0.697755 0.912825 0.387860
Si Si7 0.340152 0.899611 0.942951
O O1 0.152374 0.046405 0.706682
O O2 0.800551 0.948314 0.564127
O O3 0.865474 0.040917 0.915476
O O4 0.021545 0.819183 0.567482
O O5 0.809082 0.406154 0.610002
O O6 0.649824 0.261243 0.652282
O O7 0.682508 0.184884 0.292514
O O8 0.671974 0.618473 0.749703
O O9 0.317574 0.590192 0.649528
O O10 0.434729 0.819648 0.972549
O O11 0.367712 0.643282 0.975370
O O12 0.000000 0.500000 0.500000
O O13 0.660576 0.751871 0.198648
O O14 0.500000 0.500000 0.000000
O O15 0.500000 0.000000 0.500000
O O16 0.500000 0.000000 0.000000
#
# Coordination Sequence:
#
# PCOD8025488 Si02
#       7
#     2   2   2   2   2   2   2
#     4  11  25  44  72 105 136 187 245 293 360 422
#     4  11  24  44  65 104 138 172 245 290 342 435
#     4  10  24  43  67  96 137 176 235 280 348 422
#     4  10  23  45  68  93 134 188 226 288 347 418
#     4  12  24  44  71 104 143 188 233 291 363 424
#     4  11  24  45  73 100 146 188 235 299 356 427
#     4  11  25  43  72 102 138 186 234 297 356 418
#
# _framework density 21.337052
#
# number of rings (size 3 to 8) (size 9 to 14) (size 15 to 20)
#    0.000    1.143    2.857    2.143    6.000    3.429 
#    0.000    1.429    0.000    0.000    0.000    0.000 
#    0.000    0.000    0.000    0.000    0.000    0.000 
#
# Total GULP energy -173483.243266 kJ/mol
# GULP energy per Si atom -12391.660233 kJ/mol
# Density = 2.128849 g / cm^3
# Si number density = 21.337052 Si / 1000 Ang^3
#
#
#
# Elastic Constant Matrix: (Units=GPa)
#
#
# Indices 1 2 3 4 5 6 
#
# 1 135.3971 70.0659 40.2599 2.6603 -24.8436 -4.9274
# 2 70.0659 134.2073 50.0030 -6.6594 -9.5266 -21.3004
# 3 40.2599 50.0030 98.2367 -13.8083 -27.8129 -4.5608
# 4 2.6603 -6.6594 -13.8083 45.5342 2.9780 -1.7244
# 5 -24.8436 -9.5266 -27.8129 2.9780 33.8350 0.0256
# 6 -4.9274 -21.3004 -4.5608 -1.7244 0.0256 39.9376
#
#
#
# Elastic Compliance Matrix: (Units=1/GPa)
#
#
# Indices 1 2 3 4 5 6 
#
# 1 0.011808 -0.005999 -0.000188 -0.002154 0.007017 -0.001862
# 2 -0.005999 0.013143 -0.005244 0.001235 -0.005127 0.005727
# 3 -0.000188 -0.005244 0.016734 0.003516 0.011832 -0.000765
# 4 -0.002154 0.001235 0.003516 0.023429 -0.000407 0.001806
# 5 0.007017 -0.005127 0.011832 -0.000407 0.043027 -0.000563
# 6 -0.001862 0.005727 -0.000765 0.001806 -0.000563 0.027855
#
#
# Mechanical properties :
#
#
# Convention : Reuss Voigt Hill
#
# Bulk Modulus (GPa) = 53.12299 76.49986 64.81143
# Shear Modulus (GPa) = 30.27872 37.69550 33.98711
#
# Velocity S-wave (km/s) = 3.77114 4.20774 3.99541
# Velocity P-wave (km/s) = 6.62670 7.71606 7.19203
#
# Compressibility (1/GPa) = 0.01882424
#
# Stress axis : x y z
#
# Youngs Moduli (GPa) = 84.68771 76.08668 59.75714
#
# Poissons Ratio (x) = 0.45642 0.01125
# Poissons Ratio (y) = 0.50802 0.31334
# Poissons Ratio (z) = 0.01594 0.39897
#
# Static dielectric constant tensor:
#      x y z
#    x 3.713330 0.055290 -0.035200 
#    y 0.055290 4.061370 -0.254110 
#    z -0.035200 -0.254110 3.908640 
# 
# 
# High freq. dielectric constant tensor:
#      x y z
#    x 1.822130 -0.010050 -0.009450 
#    y -0.010050 1.859840 -0.009680 
#    z -0.009450 -0.009680 1.848980 
# 
# From -- ./inp_files/70232.got.cif
#   From: 2010.06.25/outbox.cif.g09.slc.cpg/sg2_36_cif.got.tgz:70232.got - 2010.06.27 13:26:56.
