data_PCOD8025946
_publ_section_title
;
Structure prediction by ZEFSAII (Michael W. Deem and Ramdas Pophale) SiO2 
 PCOD8025946
Probable space group: P -1
;
_chemical_formula_sum "Si O2"
_cell_formula_units_Z 12
_cell_length_a 10.555095
_cell_length_b 8.734628
_cell_length_c 16.755133
_cell_angle_alpha 143.469595
_cell_angle_beta 47.301541
_cell_angle_gamma 139.437712
_cell_volume 588.715622
_symmetry_space_group_name_H-M "P -1"
_symmetry_group_IT_number 2
_symmetry_cell_setting 'triclinic'
loop_
_space_group_symop_operation_xyz
x,y,z
-x,-y,-z
loop_
_atom_site_type_symbol
_atom_site_label
_atom_site_fract_x
_atom_site_fract_y
_atom_site_fract_z
Si Si1 0.825706 0.692763 0.412685
Si Si2 0.465490 0.732645 0.511117
Si Si3 0.564761 0.374239 0.702758
Si Si4 0.783017 0.794069 0.913176
Si Si5 0.415231 0.733660 0.985675
Si Si6 0.940965 0.566631 0.887584
O O1 0.669863 0.742936 0.449782
O O2 0.714687 0.474921 0.441853
O O3 0.910934 0.536798 0.252863
O O4 0.000000 0.000000 0.500000
O O5 0.395279 0.609520 0.401055
O O6 0.502272 0.061968 0.638889
O O7 0.766292 0.629408 0.766326
O O8 0.386656 0.445187 0.827697
O O9 0.575115 0.795839 0.014474
O O10 0.814814 0.606039 0.888420
O O11 0.952794 0.132246 0.981382
O O12 0.211848 0.681863 0.090285
O O13 0.500000 0.000000 0.000000
#
# Coordination Sequence:
#
# PCOD8025946 Si02
#       6
#     2   2   2   2   2   2
#     4  11  26  41  70  94 128 170 216 262 309 386
#     4  10  23  47  64  92 133 172 210 260 317 376
#     4   9  22  45  66  90 129 174 206 258 326 372
#     4   9  23  40  66  96 125 166 206 271 317 375
#     4  10  24  41  65  93 131 165 205 272 319 368
#     4  11  23  41  67  98 123 167 217 260 322 379
#
# _framework density 20.383355999999999
#
# number of rings (size 3 to 8) (size 9 to 14) (size 15 to 20)
#    1.000    1.000    0.000    1.500    9.333    2.000 
#    3.000    2.500    0.000    0.000    0.000    0.000 
#    0.000    0.000    0.000    0.000    0.000    0.000 
#
# Total GULP energy -148694.379958 kJ/mol
# GULP energy per Si atom -12391.198330 kJ/mol
# Density = 2.033696 g / cm^3
# Si number density = 20.383356 Si / 1000 Ang^3
#
#
#
# Elastic Constant Matrix: (Units=GPa)
#
#
# Indices 1 2 3 4 5 6 
#
# 1 93.5668 75.6651 70.4197 7.1424 4.0759 -0.3414
# 2 75.6651 154.0427 89.5915 -8.0607 -1.8112 -10.9359
# 3 70.4197 89.5915 132.9262 3.7599 -2.6871 -2.4997
# 4 7.1424 -8.0607 3.7599 34.7091 10.2657 -2.5807
# 5 4.0759 -1.8112 -2.6871 10.2657 41.2454 9.5875
# 6 -0.3414 -10.9359 -2.4997 -2.5807 9.5875 27.4859
#
#
#
# Elastic Compliance Matrix: (Units=1/GPa)
#
#
# Indices 1 2 3 4 5 6 
#
# 1 0.022309 -0.007734 -0.006526 -0.005754 -0.000678 -0.003697
# 2 -0.007734 0.014402 -0.005720 0.006672 -0.002145 0.006488
# 3 -0.006526 -0.005720 0.014916 -0.002488 0.002472 -0.002096
# 4 -0.005754 0.006672 -0.002488 0.035554 -0.010309 0.009291
# 5 -0.000678 -0.002145 0.002472 -0.010309 0.029728 -0.011975
# 6 -0.003697 0.006488 -0.002096 0.009291 -0.011975 0.043777
#
#
# Mechanical properties :
#
#
# Convention : Reuss Voigt Hill
#
# Bulk Modulus (GPa) = 85.71014 94.65426 90.18220
# Shear Modulus (GPa) = 24.44579 30.34537 27.39558
#
# Velocity S-wave (km/s) = 3.46685 3.86260 3.67006
# Velocity P-wave (km/s) = 7.62665 8.15050 7.89292
#
# Compressibility (1/GPa) = 0.01166723
#
# Stress axis : x y z
#
# Youngs Moduli (GPa) = 44.82544 69.43673 67.04069
#
# Poissons Ratio (x) = 0.53701 0.43753
# Poissons Ratio (y) = 0.34667 0.38345
# Poissons Ratio (z) = 0.29255 0.39715
#
# Static dielectric constant tensor:
#      x y z
#    x 3.820330 -0.035850 -0.028340 
#    y -0.035850 3.569270 0.186420 
#    z -0.028340 0.186420 3.701110 
# 
# 
# High freq. dielectric constant tensor:
#      x y z
#    x 1.803920 -0.006780 0.001700 
#    y -0.006780 1.795870 0.014740 
#    z 0.001700 0.014740 1.794320 
# 
# From -- ./inp_files/512465.got.cif
#   From: 2010.06.25/outbox.cif.g09.slc.cpg/sg2_257_cif.got.tgz:512465.got - 2010.06.27 13:26:56.
