data_PCOD8025292
_publ_section_title
;
Structure prediction by ZEFSAII (Michael W. Deem and Ramdas Pophale) SiO2 
 PCOD8025292
Probable space group: P -1
;
_chemical_formula_sum "Si O2"
_cell_formula_units_Z 16
_cell_length_a 8.951759
_cell_length_b 9.173388
_cell_length_c 15.668879
_cell_angle_alpha 80.875045
_cell_angle_beta 105.898755
_cell_angle_gamma 47.057047
_cell_volume 789.496690
_symmetry_space_group_name_H-M "P -1"
_symmetry_group_IT_number 2
_symmetry_cell_setting 'triclinic'
loop_
_space_group_symop_operation_xyz
x,y,z
-x,-y,-z
loop_
_atom_site_type_symbol
_atom_site_label
_atom_site_fract_x
_atom_site_fract_y
_atom_site_fract_z
Si Si1 0.805955 0.059103 0.215755
Si Si2 0.257023 0.475325 0.095455
Si Si3 0.887535 0.733697 0.879759
Si Si4 0.116111 0.283154 0.630774
Si Si5 0.114245 0.861431 0.119714
Si Si6 0.066438 0.709556 0.738579
Si Si7 0.224705 0.211629 0.464630
Si Si8 0.476132 0.216810 0.792797
O O1 0.526559 0.235088 0.142199
O O2 0.855952 0.175838 0.262065
O O3 0.908161 0.843701 0.302481
O O4 0.904141 0.993571 0.141980
O O5 0.108297 0.444970 0.112064
O O6 0.244609 0.611292 0.150624
O O7 0.127470 0.619652 0.974102
O O8 0.885959 0.805983 0.778777
O O9 0.649669 0.956852 0.876775
O O10 0.181349 0.180289 0.555813
O O11 0.320209 0.255707 0.689844
O O12 0.861452 0.554220 0.572180
O O13 0.318257 0.815153 0.199772
O O14 0.000000 0.000000 0.000000
O O15 0.298385 0.430117 0.810895
O O16 0.932664 0.776366 0.623126
O O17 0.500000 0.000000 0.500000
#
# Coordination Sequence:
#
# PCOD8025292 Si02
#       8
#     2   2   2   2   2   2   2   2
#     4  12  25  40  65  97 134 163 217 267 305 375
#     4  11  25  39  62  95 131 173 214 264 301 375
#     4  11  23  41  62  93 131 172 219 251 313 372
#     4  10  24  44  66  96 123 162 211 269 320 379
#     4  12  25  40  61  93 134 178 214 255 315 365
#     4  11  24  40  68  94 123 174 206 263 325 372
#     4  10  23  44  72  89 123 164 208 262 334 388
#     4  11  21  41  63  88 132 167 212 260 308 382
#
# _framework density 20.266076000000002
#
# number of rings (size 3 to 8) (size 9 to 14) (size 15 to 20)
#    0.000    1.000    5.000    0.750    5.250    1.500 
#    0.000    3.750    0.000    0.000    0.000    0.000 
#    0.000    0.000    0.000    0.000    0.000    0.000 
#
# Total GULP energy -198270.412257 kJ/mol
# GULP energy per Si atom -12391.900766 kJ/mol
# Density = 2.021995 g / cm^3
# Si number density = 20.266076 Si / 1000 Ang^3
#
#
#
# Elastic Constant Matrix: (Units=GPa)
#
#
# Indices 1 2 3 4 5 6 
#
# 1 89.9135 48.0462 49.9996 10.7191 1.1663 8.1710
# 2 48.0462 126.2561 46.9485 -5.6677 -8.1273 -0.0065
# 3 49.9996 46.9485 94.7983 4.9649 -3.9784 1.7015
# 4 10.7191 -5.6677 4.9649 35.8742 -1.3863 7.2720
# 5 1.1663 -8.1273 -3.9784 -1.3863 25.6035 -2.9493
# 6 8.1710 -0.0065 1.7015 7.2720 -2.9493 35.2709
#
#
#
# Elastic Compliance Matrix: (Units=1/GPa)
#
#
# Indices 1 2 3 4 5 6 
#
# 1 0.018749 -0.004899 -0.007325 -0.004847 -0.004195 -0.003342
# 2 -0.004899 0.011328 -0.003080 0.003650 0.003634 0.000837
# 3 -0.007325 -0.003080 0.016033 -0.000691 0.001951 0.001228
# 4 -0.004847 0.003650 -0.000691 0.031113 0.002374 -0.005059
# 5 -0.004195 0.003634 0.001951 0.002374 0.041276 0.003840
# 6 -0.003342 0.000837 0.001228 -0.005059 0.003840 0.030431
#
#
# Mechanical properties :
#
#
# Convention : Reuss Voigt Hill
#
# Bulk Modulus (GPa) = 64.50420 66.77296 65.63858
# Shear Modulus (GPa) = 27.07021 30.41463 28.74242
#
# Velocity S-wave (km/s) = 3.65874 3.87817 3.77006
# Velocity P-wave (km/s) = 7.05310 7.28514 7.17006
#
# Compressibility (1/GPa) = 0.01550287
#
# Stress axis : x y z
#
# Youngs Moduli (GPa) = 53.33715 88.27865 62.36992
#
# Poissons Ratio (x) = 0.43246 0.45684
# Poissons Ratio (y) = 0.26129 0.19210
# Poissons Ratio (z) = 0.39068 0.27189
#
# Static dielectric constant tensor:
#      x y z
#    x 3.584310 0.115800 0.189260 
#    y 0.115800 4.121320 -0.122340 
#    z 0.189260 -0.122340 3.625000 
# 
# 
# High freq. dielectric constant tensor:
#      x y z
#    x 1.783500 0.008990 0.019610 
#    y 0.008990 1.819930 -0.005170 
#    z 0.019610 -0.005170 1.776410 
# 
# From -- ./inp_files/207514.got.cif
#   From: 2010.06.25/outbox.cif.g09.slc.cpg/sg2_104_cif.got.tgz:207514.got - 2010.06.27 13:26:56.
