data_PCOD8025858
_publ_section_title
;
Structure prediction by ZEFSAII (Michael W. Deem and Ramdas Pophale) SiO2 
 PCOD8025858
Probable space group: P -1
;
_chemical_formula_sum "Si O2"
_cell_formula_units_Z 14
_cell_length_a 14.082767
_cell_length_b 16.616220
_cell_length_c 11.451757
_cell_angle_alpha 158.161930
_cell_angle_beta 142.307573
_cell_angle_gamma 39.915736
_cell_volume 603.236304
_symmetry_space_group_name_H-M "P -1"
_symmetry_group_IT_number 2
_symmetry_cell_setting 'triclinic'
loop_
_space_group_symop_operation_xyz
x,y,z
-x,-y,-z
loop_
_atom_site_type_symbol
_atom_site_label
_atom_site_fract_x
_atom_site_fract_y
_atom_site_fract_z
Si Si1 0.853437 0.031821 0.679594
Si Si2 0.314521 0.499633 0.829625
Si Si3 0.457873 0.564538 0.677354
Si Si4 0.956510 0.795533 0.250857
Si Si5 0.646530 0.825543 0.372309
Si Si6 0.259771 0.309250 0.282495
Si Si7 0.808714 0.113497 0.240247
O O1 0.823535 0.882634 0.336360
O O2 0.781707 0.946361 0.611926
O O3 0.042489 0.024801 0.868516
O O4 0.771362 0.275325 0.898852
O O5 0.283052 0.302021 0.616447
O O6 0.236914 0.466371 0.583691
O O7 0.500000 0.500000 0.000000
O O8 0.500000 0.500000 0.500000
O O9 0.413956 0.356464 0.425872
O O10 0.308993 0.757623 0.792731
O O11 0.599288 0.652472 0.999448
O O12 0.119429 0.709427 0.364302
O O13 0.890036 0.633418 0.875623
O O14 0.000000 0.000000 0.500000
O O15 0.500000 0.000000 0.500000
O O16 0.281129 0.055358 0.000234
#
# Coordination Sequence:
#
# PCOD8025858 Si02
#       7
#     2   2   2   2   2   2   2
#     4  10  23  46  70  98 137 182 225 281 344 392
#     4  12  24  43  68  98 138 181 225 274 335 409
#     4  12  26  42  71 107 129 178 233 278 345 401
#     4   8  19  44  67  95 134 172 220 282 335 392
#     4  12  24  44  69 100 143 179 224 281 341 405
#     4  11  22  45  68 100 137 175 230 278 335 408
#     4   9  24  45  69  98 138 173 224 284 338 397
#
# _framework density 23.208152999999999
#
# number of rings (size 3 to 8) (size 9 to 14) (size 15 to 20)
#    0.857    0.571    2.857    1.714    0.000    5.143 
#    0.000    5.000    0.000    0.000    0.000    0.000 
#    0.000    0.000    0.000    0.000    0.000    0.000 
#
# Total GULP energy -173468.875205 kJ/mol
# GULP energy per Si atom -12390.633943 kJ/mol
# Density = 2.315533 g / cm^3
# Si number density = 23.208153 Si / 1000 Ang^3
#
#
#
# Elastic Constant Matrix: (Units=GPa)
#
#
# Indices 1 2 3 4 5 6 
#
# 1 154.8009 38.4593 31.3013 22.1665 8.0095 18.1394
# 2 38.4593 84.8600 23.1275 9.8519 -2.3033 3.2665
# 3 31.3013 23.1275 91.0013 -10.3283 -3.9593 7.6767
# 4 22.1665 9.8519 -10.3283 38.2420 11.5229 -7.0319
# 5 8.0095 -2.3033 -3.9593 11.5229 36.6626 -0.3460
# 6 18.1394 3.2665 7.6767 -7.0319 -0.3460 36.0310
#
#
#
# Elastic Compliance Matrix: (Units=1/GPa)
#
#
# Indices 1 2 3 4 5 6 
#
# 1 0.009143 -0.002483 -0.002818 -0.006167 -0.000567 -0.004987
# 2 -0.002483 0.014256 -0.003089 -0.003776 0.002290 -0.000099
# 3 -0.002818 -0.003089 0.013429 0.006071 -0.000036 0.000022
# 4 -0.006167 -0.003776 0.006071 0.036987 -0.009771 0.009278
# 5 -0.000567 0.002290 -0.000036 -0.009771 0.030596 -0.001528
# 6 -0.004987 -0.000099 0.000022 0.009278 -0.001528 0.032065
#
#
# Mechanical properties :
#
#
# Convention : Reuss Voigt Hill
#
# Bulk Modulus (GPa) = 49.88289 57.38205 53.63247
# Shear Modulus (GPa) = 31.26182 38.03873 34.65028
#
# Velocity S-wave (km/s) = 3.67416 4.05288 3.86816
# Velocity P-wave (km/s) = 6.28805 6.83226 6.56579
#
# Compressibility (1/GPa) = 0.02004696
#
# Stress axis : x y z
#
# Youngs Moduli (GPa) = 109.36795 70.14640 74.46645
#
# Poissons Ratio (x) = 0.17420 0.20984
# Poissons Ratio (y) = 0.27160 0.23006
# Poissons Ratio (z) = 0.30818 0.21671
#
# Static dielectric constant tensor:
#      x y z
#    x 4.682080 0.615520 -0.474960 
#    y 0.615520 4.455430 -0.777130 
#    z -0.474960 -0.777130 4.984160 
# 
# 
# High freq. dielectric constant tensor:
#      x y z
#    x 1.924790 0.022340 0.010200 
#    y 0.022340 1.899860 -0.014250 
#    z 0.010200 -0.014250 1.912240 
# 
# From -- ./inp_files/456884.got.cif
#   From: 2010.06.25/outbox.cif.g09.slc.cpg/sg2_229_cif.got.tgz:456884.got - 2010.06.27 13:26:56.
