data_PCOD8025481
_publ_section_title
;
Structure prediction by ZEFSAII (Michael W. Deem and Ramdas Pophale) SiO2 
 PCOD8025481
Probable space group: P -1
;
_chemical_formula_sum "Si O2"
_cell_formula_units_Z 16
_cell_length_a 16.122158
_cell_length_b 13.366362
_cell_length_c 8.444630
_cell_angle_alpha 107.879616
_cell_angle_beta 61.926071
_cell_angle_gamma 153.212004
_cell_volume 693.777491
_symmetry_space_group_name_H-M "P -1"
_symmetry_group_IT_number 2
_symmetry_cell_setting 'triclinic'
loop_
_space_group_symop_operation_xyz
x,y,z
-x,-y,-z
loop_
_atom_site_type_symbol
_atom_site_label
_atom_site_fract_x
_atom_site_fract_y
_atom_site_fract_z
Si Si1 0.540766 0.398937 0.610691
Si Si2 0.348507 0.299439 0.171033
Si Si3 0.105034 0.395073 0.489156
Si Si4 0.107519 0.004589 0.972377
Si Si5 0.860327 0.370275 0.217308
Si Si6 0.071639 0.390073 0.154066
Si Si7 0.662024 0.872931 0.654030
Si Si8 0.434756 0.850596 0.860591
O O1 0.676918 0.640207 0.636281
O O2 0.684264 0.444469 0.553337
O O3 0.463843 0.313616 0.459088
O O4 0.335243 0.202711 0.803979
O O5 0.418997 0.261048 0.174914
O O6 0.500000 0.500000 0.000000
O O7 0.131335 0.053544 0.162185
O O8 0.059202 0.454390 0.659923
O O9 0.146027 0.466583 0.305129
O O10 0.913101 0.120400 0.533849
O O11 0.967669 0.766308 0.945601
O O12 0.000000 0.000000 0.000000
O O13 0.627484 0.158555 0.257204
O O14 0.876296 0.275904 0.253773
O O15 0.000000 0.500000 0.000000
O O16 0.247001 0.598897 0.978312
O O17 0.621240 0.956304 0.718031
O O18 0.500000 0.000000 0.000000
#
# Coordination Sequence:
#
# PCOD8025481 Si02
#       8
#     2   2   2   2   2   2   2   2
#     4  11  25  48  70 108 150 187 248 303 369 430
#     4  10  26  44  72 101 146 188 247 300 362 437
#     4  12  25  47  73 112 148 192 244 306 369 435
#     4  11  25  47  75 109 144 193 249 300 371 440
#     4  10  23  45  68 107 145 191 242 294 363 437
#     4  11  25  44  78 103 153 193 249 308 362 440
#     4  12  25  46  74 104 150 194 242 306 373 431
#     4  11  26  45  73 107 150 194 247 304 370 441
#
# _framework density 23.062148000000001
#
# number of rings (size 3 to 8) (size 9 to 14) (size 15 to 20)
#    0.000    1.000    2.500    3.000   12.250    0.500 
#    0.000    1.875    0.000    0.000    0.000    0.000 
#    0.000    0.000    0.000    0.000    0.000    0.000 
#
# Total GULP energy -198271.707094 kJ/mol
# GULP energy per Si atom -12391.981693 kJ/mol
# Density = 2.300966 g / cm^3
# Si number density = 23.062148 Si / 1000 Ang^3
#
#
#
# Elastic Constant Matrix: (Units=GPa)
#
#
# Indices 1 2 3 4 5 6 
#
# 1 162.4731 62.2538 29.9352 8.6500 4.8964 5.0812
# 2 62.2538 120.5775 41.7725 48.7791 -0.8659 4.1833
# 3 29.9352 41.7725 63.0044 23.3966 1.5531 7.0254
# 4 8.6500 48.7791 23.3966 54.5520 3.0925 -2.4729
# 5 4.8964 -0.8659 1.5531 3.0925 40.4588 11.0341
# 6 5.0812 4.1833 7.0254 -2.4729 11.0341 38.1316
#
#
#
# Elastic Compliance Matrix: (Units=1/GPa)
#
#
# Indices 1 2 3 4 5 6 
#
# 1 0.008445 -0.005544 -0.002088 0.004632 -0.001586 0.000627
# 2 -0.005544 0.018372 -0.004154 -0.014035 0.002914 -0.002265
# 3 -0.002088 -0.004154 0.022148 -0.005679 0.000826 -0.003954
# 4 0.004632 -0.014035 -0.005679 0.033094 -0.004663 0.005464
# 5 -0.001586 0.002914 0.000826 -0.004663 0.027629 -0.008558
# 6 0.000627 -0.002265 -0.003954 0.005464 -0.008558 0.029949
#
#
# Mechanical properties :
#
#
# Convention : Reuss Voigt Hill
#
# Bulk Modulus (GPa) = 39.38039 68.21978 53.80009
# Shear Modulus (GPa) = 29.12485 40.76805 34.94645
#
# Velocity S-wave (km/s) = 3.55757 4.20902 3.89693
# Velocity P-wave (km/s) = 5.82991 7.29837 6.60508
#
# Compressibility (1/GPa) = 0.02539335
#
# Stress axis : x y z
#
# Youngs Moduli (GPa) = 118.40832 54.42974 45.15149
#
# Poissons Ratio (x) = 0.30176 0.09427
# Poissons Ratio (y) = 0.65645 0.18757
# Poissons Ratio (z) = 0.24721 0.22612
#
# Static dielectric constant tensor:
#      x y z
#    x 4.947730 0.310290 0.011980 
#    y 0.310290 4.499880 0.758350 
#    z 0.011980 0.758350 4.319190 
# 
# 
# High freq. dielectric constant tensor:
#      x y z
#    x 1.929820 0.006840 0.003040 
#    y 0.006840 1.917610 0.031240 
#    z 0.003040 0.031240 1.900050 
# 
# From -- ./inp_files/307699.got.cif
#   From: 2010.06.25/outbox.cif.g09.slc.cpg/sg2_154_cif.got.tgz:307699.got - 2010.06.27 13:26:56.
