data_PCOD8025631
_publ_section_title
;
Structure prediction by ZEFSAII (Michael W. Deem and Ramdas Pophale) SiO2 
 PCOD8025631
Probable space group: P -1
;
_chemical_formula_sum "Si O2"
_cell_formula_units_Z 16
_cell_length_a 10.711963
_cell_length_b 11.301761
_cell_length_c 12.023024
_cell_angle_alpha 55.734143
_cell_angle_beta 108.219909
_cell_angle_gamma 144.606260
_cell_volume 663.374563
_symmetry_space_group_name_H-M "P -1"
_symmetry_group_IT_number 2
_symmetry_cell_setting 'triclinic'
loop_
_space_group_symop_operation_xyz
x,y,z
-x,-y,-z
loop_
_atom_site_type_symbol
_atom_site_label
_atom_site_fract_x
_atom_site_fract_y
_atom_site_fract_z
Si Si1 0.402046 0.359753 0.663193
Si Si2 0.283605 0.887411 0.551609
Si Si3 0.951619 0.600798 0.224930
Si Si4 0.476223 0.157881 0.673200
Si Si5 0.620062 0.504990 0.873641
Si Si6 0.462958 0.057791 0.067533
Si Si7 0.092718 0.339145 0.577046
Si Si8 0.808418 0.751065 0.007481
O O1 0.500000 0.500000 0.500000
O O2 0.355136 0.148435 0.740501
O O3 0.580910 0.536128 0.722368
O O4 0.174179 0.249710 0.681340
O O5 0.119821 0.624771 0.703599
O O6 0.155173 0.874733 0.433886
O O7 0.500000 0.000000 0.500000
O O8 0.354218 0.066753 0.568830
O O9 0.927967 0.584558 0.359696
O O10 0.781033 0.563829 0.142073
O O11 0.199490 0.864015 0.110595
O O12 0.463425 0.978836 0.791223
O O13 0.735707 0.437864 0.581832
O O14 0.407124 0.345236 0.976723
O O15 0.829881 0.757422 0.872462
O O16 0.630288 0.341698 0.956290
O O17 0.500000 0.000000 0.000000
O O18 0.000000 0.000000 0.000000
#
# Coordination Sequence:
#
# PCOD8025631 Si02
#       8
#     2   2   2   2   2   2   2   2
#     4  10  23  45  71 102 145 187 241 304 362 439
#     4  12  24  41  72 109 141 190 244 302 370 428
#     4  12  23  44  70 102 144 182 244 305 363 430
#     4  11  23  45  69 103 145 187 246 296 366 434
#     4  11  23  46  71 101 142 189 241 299 366 428
#     4  12  24  43  73  98 144 196 236 304 362 432
#     4  11  23  44  70 101 143 188 237 310 356 434
#     4  11  24  44  71 106 138 187 243 299 360 434
#
# _framework density 24.119102000000002
#
# number of rings (size 3 to 8) (size 9 to 14) (size 15 to 20)
#    0.000    0.750    6.250    1.875    0.000    0.500 
#    4.500    8.750    0.000    0.000    0.000    0.000 
#    0.000    0.000    0.000    0.000    0.000    0.000 
#
# Total GULP energy -198242.105266 kJ/mol
# GULP energy per Si atom -12390.131579 kJ/mol
# Density = 2.406421 g / cm^3
# Si number density = 24.119102 Si / 1000 Ang^3
#
#
#
# Elastic Constant Matrix: (Units=GPa)
#
#
# Indices 1 2 3 4 5 6 
#
# 1 109.6647 45.4169 23.7696 15.8819 8.8583 -5.0126
# 2 45.4169 141.6254 37.6019 42.6278 0.8381 -13.0117
# 3 23.7696 37.6019 88.2111 27.9123 9.9828 -2.7820
# 4 15.8819 42.6278 27.9123 48.9532 1.0756 -4.2255
# 5 8.8583 0.8381 9.9828 1.0756 43.0927 10.2450
# 6 -5.0126 -13.0117 -2.7820 -4.2255 10.2450 34.1896
#
#
#
# Elastic Compliance Matrix: (Units=1/GPa)
#
#
# Indices 1 2 3 4 5 6 
#
# 1 0.010882 -0.003030 -0.001382 0.000024 -0.002086 0.000958
# 2 -0.003030 0.010894 -0.001415 -0.007482 0.000315 0.002568
# 3 -0.001382 -0.001415 0.014776 -0.006628 -0.003080 0.000565
# 4 0.000024 -0.007482 -0.006628 0.030708 0.000874 0.000150
# 5 -0.002086 0.000315 -0.003080 0.000874 0.026270 -0.008200
# 6 0.000958 0.002568 0.000565 0.000150 -0.008200 0.032888
#
#
# Mechanical properties :
#
#
# Convention : Reuss Voigt Hill
#
# Bulk Modulus (GPa) = 40.16269 61.45312 50.80790
# Shear Modulus (GPa) = 34.15998 40.76128 37.46063
#
# Velocity S-wave (km/s) = 3.76746 4.11542 3.94528
# Velocity P-wave (km/s) = 5.96766 6.93661 6.47030
#
# Compressibility (1/GPa) = 0.02489873
#
# Stress axis : x y z
#
# Youngs Moduli (GPa) = 91.89698 91.79254 67.67915
#
# Poissons Ratio (x) = 0.27810 0.09355
# Poissons Ratio (y) = 0.27841 0.09574
# Poissons Ratio (z) = 0.12702 0.12985
#
# Static dielectric constant tensor:
#      x y z
#    x 5.697320 0.071300 0.410550 
#    y 0.071300 5.105260 0.442880 
#    z 0.410550 0.442880 4.590890 
# 
# 
# High freq. dielectric constant tensor:
#      x y z
#    x 1.968770 -0.013790 0.013830 
#    y -0.013790 1.946740 0.026450 
#    z 0.013830 0.026450 1.950830 
# 
# From -- ./inp_files/427846.got.cif
#   From: 2010.06.25/outbox.cif.g09.slc.cpg/sg2_214_cif.got.tgz:427846.got - 2010.06.27 13:26:56.
