data_PCOD8025073
_publ_section_title
;
Structure prediction by ZEFSAII (Michael W. Deem and Ramdas Pophale) SiO2 
 PCOD8025073
Probable space group: P -1
;
_chemical_formula_sum "Si O2"
_cell_formula_units_Z 16
_cell_length_a 11.416379
_cell_length_b 11.439562
_cell_length_c 11.052379
_cell_angle_alpha 80.013514
_cell_angle_beta 49.550488
_cell_angle_gamma 118.236063
_cell_volume 675.066828
_symmetry_space_group_name_H-M "P -1"
_symmetry_group_IT_number 2
_symmetry_cell_setting 'triclinic'
loop_
_space_group_symop_operation_xyz
x,y,z
-x,-y,-z
loop_
_atom_site_type_symbol
_atom_site_label
_atom_site_fract_x
_atom_site_fract_y
_atom_site_fract_z
Si Si1 0.577735 0.732383 0.876993
Si Si2 0.394513 0.911539 0.369619
Si Si3 0.185420 0.571689 0.699456
Si Si4 0.180139 0.308101 0.671181
Si Si5 0.136281 0.301747 0.219373
Si Si6 0.328086 0.341694 0.828706
Si Si7 0.662537 0.909281 0.020008
Si Si8 0.344143 0.702370 0.825733
O O1 0.820990 0.799383 0.725309
O O2 0.563525 0.773769 0.742549
O O3 0.332554 0.508893 0.109871
O O4 0.580329 0.843764 0.948070
O O5 0.374332 0.782483 0.486784
O O6 0.508067 0.930058 0.165567
O O7 0.135093 0.820379 0.540872
O O8 0.587497 0.117233 0.268133
O O9 0.167249 0.442739 0.657438
O O10 0.299179 0.607838 0.747427
O O11 0.914444 0.466623 0.900153
O O12 0.179673 0.252292 0.817192
O O13 0.424724 0.431491 0.404950
O O14 0.952099 0.113156 0.790693
O O15 0.177566 0.315410 0.043145
O O16 0.388147 0.242312 0.843448
#
# Coordination Sequence:
#
# PCOD8025073 Si02
#       8
#     2   2   2   2   2   2   2   2
#     4  10  23  48  65  95 139 183 227 269 333 404
#     4  12  24  43  70 105 133 174 223 284 340 392
#     4  11  23  43  69 102 135 173 224 283 335 395
#     4  11  22  43  69 100 133 187 224 273 344 393
#     4  10  23  46  70  98 135 182 223 277 337 396
#     4  10  23  44  68  96 141 178 227 281 328 403
#     4  11  24  44  68 101 139 174 228 277 334 409
#     4  11  24  43  68 100 138 176 224 278 333 405
#
# _framework density 23.701356000000001
#
# number of rings (size 3 to 8) (size 9 to 14) (size 15 to 20)
#    0.000    1.250    3.750    1.500    1.750    2.500 
#   20.250    0.000    0.000    0.000    0.000    0.000 
#    0.000    0.000    0.000    0.000    0.000    0.000 
#
# Total GULP energy -198367.133024 kJ/mol
# GULP energy per Si atom -12397.945814 kJ/mol
# Density = 2.364741 g / cm^3
# Si number density = 23.701356 Si / 1000 Ang^3
#
#
#
# Elastic Constant Matrix: (Units=GPa)
#
#
# Indices 1 2 3 4 5 6 
#
# 1 91.4093 13.7950 20.1488 3.9682 -0.6001 10.3566
# 2 13.7950 108.5790 30.2662 -11.1315 -10.3896 9.7920
# 3 20.1488 30.2662 78.1220 -6.0647 -18.2545 2.0670
# 4 3.9682 -11.1315 -6.0647 32.5632 -13.3734 -5.2902
# 5 -0.6001 -10.3896 -18.2545 -13.3734 31.6043 -4.0440
# 6 10.3566 9.7920 2.0670 -5.2902 -4.0440 29.5211
#
#
#
# Elastic Compliance Matrix: (Units=1/GPa)
#
#
# Indices 1 2 3 4 5 6 
#
# 1 0.013058 -0.001055 -0.004776 -0.006397 -0.006321 -0.005909
# 2 -0.001055 0.011111 -0.002728 0.004703 0.003822 -0.001758
# 3 -0.004776 -0.002728 0.019303 0.010321 0.015190 0.005159
# 4 -0.006397 0.004703 0.010321 0.049419 0.029951 0.012920
# 5 -0.006321 0.003822 0.015190 0.029951 0.055876 0.012908
# 6 -0.005909 -0.001758 0.005159 0.012920 0.012908 0.040252
#
#
# Mechanical properties :
#
#
# Convention : Reuss Voigt Hill
#
# Bulk Modulus (GPa) = 37.94633 45.17004 41.55818
# Shear Modulus (GPa) = 23.26435 32.99773 28.13104
#
# Velocity S-wave (km/s) = 3.13639 3.73531 3.44887
# Velocity P-wave (km/s) = 5.40008 6.14026 5.78202
#
# Compressibility (1/GPa) = 0.02635301
#
# Stress axis : x y z
#
# Youngs Moduli (GPa) = 76.58433 90.00352 51.80523
#
# Poissons Ratio (x) = 0.09499 0.24743
# Poissons Ratio (y) = 0.08083 0.14130
# Poissons Ratio (z) = 0.36577 0.24549
#
# Static dielectric constant tensor:
#      x y z
#    x 4.110450 -0.112520 0.016660 
#    y -0.112520 4.341640 -0.090060 
#    z 0.016660 -0.090060 4.197530 
# 
# 
# High freq. dielectric constant tensor:
#      x y z
#    x 1.933160 -0.012370 0.000640 
#    y -0.012370 1.949970 -0.008840 
#    z 0.000640 -0.008840 1.930960 
# 
# From -- ./inp_files/428098.got.cif
#   From: 2010.06.25/outbox.cif.g09.slc.cpg/sg2_215_cif.got.tgz:428098.got - 2010.06.27 13:26:56.
