data_PCOD8025601
_publ_section_title
;
Structure prediction by ZEFSAII (Michael W. Deem and Ramdas Pophale) SiO2 
 PCOD8025601
Probable space group: P -1
;
_chemical_formula_sum "Si O2"
_cell_formula_units_Z 14
_cell_length_a 11.556062
_cell_length_b 6.936676
_cell_length_c 8.122049
_cell_angle_alpha 79.165721
_cell_angle_beta 83.095888
_cell_angle_gamma 102.675538
_cell_volume 614.959236
_symmetry_space_group_name_H-M "P -1"
_symmetry_group_IT_number 2
_symmetry_cell_setting 'triclinic'
loop_
_space_group_symop_operation_xyz
x,y,z
-x,-y,-z
loop_
_atom_site_type_symbol
_atom_site_label
_atom_site_fract_x
_atom_site_fract_y
_atom_site_fract_z
Si Si1 0.121830 0.433051 0.488765
Si Si2 0.089057 0.065130 0.749223
Si Si3 0.351074 0.626458 0.609874
Si Si4 0.500078 0.336863 0.752227
Si Si5 0.678915 0.062956 0.169355
Si Si6 0.269247 0.565339 0.116980
Si Si7 0.937108 0.684604 0.978960
O O1 0.093404 0.187675 0.556390
O O2 0.210482 0.532775 0.607537
O O3 0.183962 0.511938 0.296028
O O4 0.000000 0.500000 0.500000
O O5 0.221826 0.046482 0.767894
O O6 0.041969 0.201465 0.870322
O O7 0.997020 0.842645 0.797668
O O8 0.403615 0.468385 0.730878
O O9 0.428983 0.682557 0.423731
O O10 0.363458 0.823457 0.687857
O O11 0.594874 0.441614 0.861134
O O12 0.433609 0.108897 0.851161
O O13 0.730458 0.211757 0.985568
O O14 0.206636 0.400071 0.016921
O O15 0.000000 0.500000 0.000000
#
# Coordination Sequence:
#
# PCOD8025601 Si02
#       7
#     2   2   2   2   2   2   2
#     4  11  24  44  66 100 138 172 224 276 330 401
#     4  11  25  42  71  96 133 183 220 269 337 407
#     4  10  23  45  70  94 134 182 212 276 335 398
#     4  10  23  46  67  98 134 171 230 267 331 398
#     4  12  23  43  71  99 130 176 226 269 338 394
#     4  11  25  42  67 101 136 172 219 286 324 384
#     4  11  23  45  68  96 136 177 224 271 336 397
#
# _framework density 22.765737000000001
#
# number of rings (size 3 to 8) (size 9 to 14) (size 15 to 20)
#    0.000    1.143    2.857    2.571    4.000    1.143 
#    2.571    0.000    0.000    0.000    0.000    0.000 
#    0.000    0.000    0.000    0.000    0.000    0.000 
#
# Total GULP energy -173594.936353 kJ/mol
# GULP energy per Si atom -12399.638311 kJ/mol
# Density = 2.271392 g / cm^3
# Si number density = 22.765737 Si / 1000 Ang^3
#
#
#
# Elastic Constant Matrix: (Units=GPa)
#
#
# Indices 1 2 3 4 5 6 
#
# 1 159.8468 63.1699 26.6679 -16.5685 12.7589 5.3642
# 2 63.1699 127.0669 34.5670 -25.5940 1.3512 4.6079
# 3 26.6679 34.5670 75.5245 -33.7596 9.0710 -9.7351
# 4 -16.5685 -25.5940 -33.7596 45.2809 0.0970 -5.9138
# 5 12.7589 1.3512 9.0710 0.0970 30.6138 -2.7246
# 6 5.3642 4.6079 -9.7351 -5.9138 -2.7246 50.2209
#
#
#
# Elastic Compliance Matrix: (Units=1/GPa)
#
#
# Indices 1 2 3 4 5 6 
#
# 1 0.008161 -0.003734 -0.000853 0.000135 -0.003059 -0.000844
# 2 -0.003734 0.011048 -0.002886 0.002622 0.001848 -0.000765
# 3 -0.000853 -0.002886 0.023961 0.016802 -0.006078 0.006649
# 4 0.000135 0.002622 0.016802 0.037082 -0.004635 0.007117
# 5 -0.003059 0.001848 -0.006078 -0.004635 0.035707 0.000370
# 6 -0.000844 -0.000765 0.006649 0.007117 0.000370 0.022220
#
#
# Mechanical properties :
#
#
# Convention : Reuss Voigt Hill
#
# Bulk Modulus (GPa) = 35.43424 67.91642 51.67533
# Shear Modulus (GPa) = 30.76292 41.09202 35.92747
#
# Velocity S-wave (km/s) = 3.67997 4.25313 3.97689
# Velocity P-wave (km/s) = 5.80127 7.34958 6.62084
#
# Compressibility (1/GPa) = 0.02822129
#
# Stress axis : x y z
#
# Youngs Moduli (GPa) = 122.53834 90.51502 41.73504
#
# Poissons Ratio (x) = 0.33803 0.03561
# Poissons Ratio (y) = 0.45762 0.12046
# Poissons Ratio (z) = 0.10456 0.26125
#
# Static dielectric constant tensor:
#      x y z
#    x 4.382310 0.318000 0.074600 
#    y 0.318000 4.162630 -0.230390 
#    z 0.074600 -0.230390 4.252220 
# 
# 
# High freq. dielectric constant tensor:
#      x y z
#    x 1.912680 0.010100 -0.005680 
#    y 0.010100 1.894540 -0.020350 
#    z -0.005680 -0.020350 1.901560 
# 
# From -- ./inp_files/60898.got.cif
#   From: 2010.06.25/outbox.cif.g09.slc.cpg/sg2_31_cif.got.tgz:60898.got - 2010.06.27 13:26:56.
