data_PCOD8025873
_publ_section_title
;
Structure prediction by ZEFSAII (Michael W. Deem and Ramdas Pophale) SiO2 
 PCOD8025873
Probable space group: P -1
;
_chemical_formula_sum "Si O2"
_cell_formula_units_Z 14
_cell_length_a 12.306757
_cell_length_b 5.266413
_cell_length_c 11.938631
_cell_angle_alpha 80.806750
_cell_angle_beta 52.951093
_cell_angle_gamma 103.951191
_cell_volume 550.919019
_symmetry_space_group_name_H-M "P -1"
_symmetry_group_IT_number 2
_symmetry_cell_setting 'triclinic'
loop_
_space_group_symop_operation_xyz
x,y,z
-x,-y,-z
loop_
_atom_site_type_symbol
_atom_site_label
_atom_site_fract_x
_atom_site_fract_y
_atom_site_fract_z
Si Si1 0.708987 0.365742 0.194862
Si Si2 0.609306 0.245832 0.763365
Si Si3 0.073447 0.329291 0.398139
Si Si4 0.627124 0.809140 0.919524
Si Si5 0.429801 0.419262 0.426307
Si Si6 0.884160 0.703064 0.865399
Si Si7 0.187070 0.092717 0.748443
O O1 0.530177 0.292341 0.304091
O O2 0.732705 0.096038 0.239594
O O3 0.789102 0.641596 0.205448
O O4 0.777075 0.431003 0.023283
O O5 0.743123 0.540598 0.707699
O O6 0.574297 0.308637 0.654094
O O7 0.666079 0.999867 0.767198
O O8 0.449287 0.097200 0.937551
O O9 0.043941 0.379662 0.281752
O O10 0.000000 0.500000 0.500000
O O11 0.000000 0.000000 0.500000
O O12 0.788354 0.855602 0.861556
O O13 0.500000 0.500000 0.000000
O O14 0.500000 0.500000 0.500000
O O15 0.258726 0.191568 0.572372
O O16 0.009944 0.913697 0.856476
#
# Coordination Sequence:
#
# PCOD8025873 Si02
#       7
#     2   2   2   2   2   2   2
#     4  11  25  47  73 109 149 198 256 306 371 459
#     4  11  24  46  72 106 150 193 260 307 379 461
#     4  12  28  47  72 109 150 197 245 314 388 453
#     4  11  24  45  73 110 144 200 253 319 374 448
#     4  10  23  46  71 106 148 199 246 310 380 453
#     4  12  25  48  77 108 151 199 254 315 383 450
#     4  11  26  46  73 112 152 196 249 314 381 447
#
# _framework density 25.412081000000001
#
# number of rings (size 3 to 8) (size 9 to 14) (size 15 to 20)
#    0.000    0.857    2.857    3.000    0.000    9.143 
#    5.143    0.000    0.000    0.000    0.000    0.000 
#    0.000    0.000    0.000    0.000    0.000    0.000 
#
# Total GULP energy -173472.781458 kJ/mol
# GULP energy per Si atom -12390.912961 kJ/mol
# Density = 2.535424 g / cm^3
# Si number density = 25.412081 Si / 1000 Ang^3
#
#
#
# Elastic Constant Matrix: (Units=GPa)
#
#
# Indices 1 2 3 4 5 6 
#
# 1 114.0182 9.7622 33.4842 -22.4409 14.0308 -16.3536
# 2 9.7622 83.5441 29.5471 -14.9984 13.9304 -11.8217
# 3 33.4842 29.5471 175.9805 -13.4620 30.8172 -18.9544
# 4 -22.4409 -14.9984 -13.4620 40.7600 -10.3203 9.9045
# 5 14.0308 13.9304 30.8172 -10.3203 59.7065 -11.8151
# 6 -16.3536 -11.8217 -18.9544 9.9045 -11.8151 38.0363
#
#
#
# Elastic Compliance Matrix: (Units=1/GPa)
#
#
# Indices 1 2 3 4 5 6 
#
# 1 0.010499 0.000569 -0.001349 0.004769 -0.000564 0.002601
# 2 0.000569 0.013733 -0.001631 0.003934 -0.001371 0.002250
# 3 -0.001349 -0.001631 0.006815 -0.000110 -0.002532 0.001551
# 4 0.004769 0.003934 -0.000110 0.030133 0.002462 -0.003863
# 5 -0.000564 -0.001371 -0.002532 0.002462 0.019631 0.003526
# 6 0.002601 0.002250 0.001551 -0.003863 0.003526 0.030983
#
#
# Mechanical properties :
#
#
# Convention : Reuss Voigt Hill
#
# Bulk Modulus (GPa) = 38.13145 57.68107 47.90626
# Shear Modulus (GPa) = 39.88541 47.75052 43.81796
#
# Velocity S-wave (km/s) = 3.96605 4.33950 4.15697
# Velocity P-wave (km/s) = 6.00088 6.91780 6.47559
#
# Compressibility (1/GPa) = 0.02622507
#
# Stress axis : x y z
#
# Youngs Moduli (GPa) = 95.24414 72.81607 146.73407
#
# Poissons Ratio (x) = -0.04142 0.19800
# Poissons Ratio (y) = -0.05417 0.23927
# Poissons Ratio (z) = 0.12852 0.11874
#
# Static dielectric constant tensor:
#      x y z
#    x 6.159490 -1.649040 -3.598160 
#    y -1.649040 6.065260 3.508620 
#    z -3.598160 3.508620 13.292100 
# 
# 
# High freq. dielectric constant tensor:
#      x y z
#    x 2.017590 -0.004940 -0.004670 
#    y -0.004940 1.996580 -0.009410 
#    z -0.004670 -0.009410 2.043790 
# 
# From -- ./inp_files/409991.got.cif
#   From: 2010.06.25/outbox.cif.g09.slc.cpg/sg2_205_cif.got.tgz:409991.got - 2010.06.27 13:26:56.
