data_PCOD8025569
_publ_section_title
;
Structure prediction by ZEFSAII (Michael W. Deem and Ramdas Pophale) SiO2 
 PCOD8025569
Probable space group: P -1
;
_chemical_formula_sum "Si O2"
_cell_formula_units_Z 16
_cell_length_a 8.415283
_cell_length_b 15.521523
_cell_length_c 8.534927
_cell_angle_alpha 78.232798
_cell_angle_beta 52.971929
_cell_angle_gamma 111.552575
_cell_volume 678.644729
_symmetry_space_group_name_H-M "P -1"
_symmetry_group_IT_number 2
_symmetry_cell_setting 'triclinic'
loop_
_space_group_symop_operation_xyz
x,y,z
-x,-y,-z
loop_
_atom_site_type_symbol
_atom_site_label
_atom_site_fract_x
_atom_site_fract_y
_atom_site_fract_z
Si Si1 0.188127 0.175004 0.619890
Si Si2 0.588629 0.462508 0.600978
Si Si3 0.292405 0.013707 0.561218
Si Si4 0.279185 0.943863 0.276228
Si Si5 0.062046 0.730416 0.667023
Si Si6 0.420390 0.386832 0.214731
Si Si7 0.114135 0.215073 0.983311
Si Si8 0.989232 0.518281 0.815956
O O1 0.331734 0.120583 0.579209
O O2 0.387154 0.304032 0.399401
O O3 0.049245 0.174158 0.857483
O O4 0.979792 0.101934 0.638141
O O5 0.500000 0.500000 0.500000
O O6 0.593233 0.519618 0.736453
O O7 0.412881 0.325751 0.776242
O O8 0.876148 0.515526 0.362498
O O9 0.500000 0.000000 0.500000
O O10 0.330339 0.032729 0.343882
O O11 0.996711 0.899964 0.811417
O O12 0.266743 0.845860 0.408966
O O13 0.500000 0.000000 0.000000
O O14 0.783952 0.675718 0.778881
O O15 0.139869 0.650850 0.642155
O O16 0.045578 0.748624 0.857002
O O17 0.699822 0.448422 0.954132
O O18 0.000000 0.500000 0.000000
#
# Coordination Sequence:
#
# PCOD8025569 Si02
#       8
#     2   2   2   2   2   2   2   2
#     4  11  23  43  69  95 132 183 221 278 347 398
#     4  12  23  41  66 101 135 182 229 276 338 411
#     4  11  25  43  69 100 134 175 227 283 340 407
#     4  10  23  45  69  99 134 174 228 283 339 408
#     4  10  24  44  68 101 139 177 225 290 339 403
#     4  11  24  46  65  98 143 176 230 284 334 409
#     4  11  22  41  69  95 136 172 224 286 333 402
#     4  12  23  40  70  97 136 186 222 276 346 401
#
# _framework density 23.576402999999999
#
# number of rings (size 3 to 8) (size 9 to 14) (size 15 to 20)
#    0.000    1.000    3.750    1.875    0.000    6.500 
#    4.500    0.000    0.000    0.000    0.000    0.000 
#    0.000    0.000    0.000    0.000    0.000    0.000 
#
# Total GULP energy -198276.188592 kJ/mol
# GULP energy per Si atom -12392.261787 kJ/mol
# Density = 2.352274 g / cm^3
# Si number density = 23.576403 Si / 1000 Ang^3
#
#
#
# Elastic Constant Matrix: (Units=GPa)
#
#
# Indices 1 2 3 4 5 6 
#
# 1 64.0908 41.3533 30.7293 14.3960 4.0680 -13.0163
# 2 41.3533 121.1984 54.7564 4.3825 -2.7399 -7.4708
# 3 30.7293 54.7564 157.9072 7.0895 -2.8904 -11.4825
# 4 14.3960 4.3825 7.0895 41.3530 -6.2243 6.5035
# 5 4.0680 -2.7399 -2.8904 -6.2243 31.9221 4.1404
# 6 -13.0163 -7.4708 -11.4825 6.5035 4.1404 39.7245
#
#
#
# Elastic Compliance Matrix: (Units=1/GPa)
#
#
# Indices 1 2 3 4 5 6 
#
# 1 0.025677 -0.007329 -0.001460 -0.010430 -0.007244 0.009076
# 2 -0.007329 0.011924 -0.002892 0.002398 0.002375 -0.001635
# 3 -0.001460 -0.002892 0.007750 -0.000665 0.000342 0.001291
# 4 -0.010430 0.002398 -0.000665 0.030382 0.008569 -0.009026
# 5 -0.007244 0.002375 0.000342 0.008569 0.035048 -0.006884
# 6 0.009076 -0.001635 0.001291 -0.009026 -0.006884 0.030408
#
#
# Mechanical properties :
#
#
# Convention : Reuss Voigt Hill
#
# Bulk Modulus (GPa) = 45.47452 66.31938 55.89695
# Shear Modulus (GPa) = 29.08998 37.02376 33.05687
#
# Velocity S-wave (km/s) = 3.51645 3.96709 3.74855
# Velocity P-wave (km/s) = 5.98475 7.01245 6.51888
#
# Compressibility (1/GPa) = 0.02199034
#
# Stress axis : x y z
#
# Youngs Moduli (GPa) = 38.94491 83.86304 129.03694
#
# Poissons Ratio (x) = 0.61461 0.18838
# Poissons Ratio (y) = 0.28542 0.37314
# Poissons Ratio (z) = 0.05686 0.24251
#
# Static dielectric constant tensor:
#      x y z
#    x 4.040810 0.064050 0.164840 
#    y 0.064050 4.635140 -0.209160 
#    z 0.164840 -0.209160 4.509600 
# 
# 
# High freq. dielectric constant tensor:
#      x y z
#    x 1.911210 0.006950 0.012300 
#    y 0.006950 1.941620 -0.003200 
#    z 0.012300 -0.003200 1.947200 
# 
# From -- ./inp_files/206745.got.cif
#   From: 2010.06.25/outbox.cif.g09.slc.cpg/sg2_104_cif.got.tgz:206745.got - 2010.06.27 13:26:56.
