data_PCOD8025626
_publ_section_title
;
Structure prediction by ZEFSAII (Michael W. Deem and Ramdas Pophale) SiO2 
 PCOD8025626
Probable space group: P -1
;
_chemical_formula_sum "Si O2"
_cell_formula_units_Z 16
_cell_length_a 22.405241
_cell_length_b 8.727000
_cell_length_c 20.804696
_cell_angle_alpha 143.793866
_cell_angle_beta 17.349938
_cell_angle_gamma 143.137108
_cell_volume 706.172818
_symmetry_space_group_name_H-M "P -1"
_symmetry_group_IT_number 2
_symmetry_cell_setting 'triclinic'
loop_
_space_group_symop_operation_xyz
x,y,z
-x,-y,-z
loop_
_atom_site_type_symbol
_atom_site_label
_atom_site_fract_x
_atom_site_fract_y
_atom_site_fract_z
Si Si1 0.018884 0.683246 0.918208
Si Si2 0.681094 0.978790 0.356193
Si Si3 0.479080 0.198060 0.404668
Si Si4 0.370180 0.631104 0.007593
Si Si5 0.781595 0.907486 0.726319
Si Si6 0.828408 0.950690 0.994380
Si Si7 0.933256 0.257947 0.531335
Si Si8 0.862142 0.873080 0.364411
O O1 0.047047 0.397016 0.815793
O O2 0.149564 0.765197 0.747033
O O3 0.097313 0.898029 0.965640
O O4 0.785179 0.712802 0.152425
O O5 0.612608 0.984956 0.502521
O O6 0.500000 0.000000 0.500000
O O7 0.500000 0.500000 0.500000
O O8 0.362194 0.162011 0.445632
O O9 0.697450 0.120784 0.143566
O O10 0.242708 0.694719 0.222830
O O11 0.322536 0.833077 0.069380
O O12 0.613856 0.686045 0.788475
O O13 0.297773 0.336964 0.957244
O O14 0.845922 0.780414 0.682010
O O15 0.000000 0.000000 0.500000
O O16 0.011649 0.928651 0.750008
O O17 0.000000 0.500000 0.500000
O O18 0.847313 0.996849 0.491112
#
# Coordination Sequence:
#
# PCOD8025626 Si02
#       8
#     2   2   2   2   2   2   2   2
#     4  11  24  42  67  99 137 178 227 279 346 415
#     4  11  22  42  64  97 138 173 226 283 336 409
#     4  12  24  42  66  98 138 180 231 280 346 414
#     4  10  23  45  71 101 133 179 234 281 351 409
#     4   9  22  46  70  98 134 177 228 291 344 409
#     4  12  23  40  71 100 131 181 228 284 343 416
#     4  11  24  44  67  99 140 177 231 283 344 408
#     4  12  25  45  66  98 139 186 225 286 343 409
#
# _framework density 22.657342
#
# number of rings (size 3 to 8) (size 9 to 14) (size 15 to 20)
#    0.000    1.000    5.000    1.125    1.750    3.500 
#    6.750    0.000    0.000    0.000    0.000    0.000 
#    0.000    0.000    0.000    0.000    0.000    0.000 
#
# Total GULP energy -198226.145230 kJ/mol
# GULP energy per Si atom -12389.134077 kJ/mol
# Density = 2.260577 g / cm^3
# Si number density = 22.657342 Si / 1000 Ang^3
#
#
#
# Elastic Constant Matrix: (Units=GPa)
#
#
# Indices 1 2 3 4 5 6 
#
# 1 103.7425 37.4032 46.7125 10.8431 -31.1453 -4.8531
# 2 37.4032 115.8513 27.4380 7.4920 -12.9515 5.7859
# 3 46.7125 27.4380 98.2250 -1.0201 -31.7514 10.0936
# 4 10.8431 7.4920 -1.0201 34.1145 -7.3562 -0.2687
# 5 -31.1453 -12.9515 -31.7514 -7.3562 55.1755 1.6425
# 6 -4.8531 5.7859 10.0936 -0.2687 1.6425 38.0385
#
#
#
# Elastic Compliance Matrix: (Units=1/GPa)
#
#
# Indices 1 2 3 4 5 6 
#
# 1 0.014861 -0.003052 -0.005298 -0.003305 0.004077 0.003567
# 2 -0.003052 0.010061 -0.001286 -0.001341 -0.000233 -0.001578
# 3 -0.005298 -0.001286 0.015658 0.003769 0.006366 -0.004884
# 4 -0.003305 -0.001341 0.003769 0.031677 0.004247 -0.001177
# 5 0.004077 -0.000233 0.006366 0.004247 0.024665 -0.002169
# 6 0.003567 -0.001578 -0.004884 -0.001177 -0.002169 0.028365
#
#
# Mechanical properties :
#
#
# Convention : Reuss Voigt Hill
#
# Bulk Modulus (GPa) = 46.92919 60.10290 53.51605
# Shear Modulus (GPa) = 32.96774 39.21670 36.09222
#
# Velocity S-wave (km/s) = 3.81866 4.16487 3.99552
# Velocity P-wave (km/s) = 6.34038 7.05073 6.70497
#
# Compressibility (1/GPa) = 0.02130870
#
# Stress axis : x y z
#
# Youngs Moduli (GPa) = 67.28860 99.39212 63.86352
#
# Poissons Ratio (x) = 0.30334 0.33835
# Poissons Ratio (y) = 0.20536 0.08214
# Poissons Ratio (z) = 0.35650 0.12783
#
# Static dielectric constant tensor:
#      x y z
#    x 5.866410 -0.432460 -0.433990 
#    y -0.432460 4.105500 -0.057180 
#    z -0.433990 -0.057180 4.543880 
# 
# 
# High freq. dielectric constant tensor:
#      x y z
#    x 1.887740 -0.024000 -0.024290 
#    y -0.024000 1.890280 -0.005550 
#    z -0.024290 -0.005550 1.904990 
# 
# From -- ./inp_files/601291.got.cif
#   From: 2010.06.25/outbox.cif.g09.slc.cpg/sg2_301_cif.got.tgz:601291.got - 2010.06.27 13:26:56.
