data_PCOD8025209
_publ_section_title
;
Structure prediction by ZEFSAII (Michael W. Deem and Ramdas Pophale) SiO2 
 PCOD8025209
Probable space group: P -1
;
_chemical_formula_sum "Si O2"
_cell_formula_units_Z 16
_cell_length_a 11.968809
_cell_length_b 9.111564
_cell_length_c 9.601743
_cell_angle_alpha 76.148057
_cell_angle_beta 53.396059
_cell_angle_gamma 56.316357
_cell_volume 692.910245
_symmetry_space_group_name_H-M "P -1"
_symmetry_group_IT_number 2
_symmetry_cell_setting 'triclinic'
loop_
_space_group_symop_operation_xyz
x,y,z
-x,-y,-z
loop_
_atom_site_type_symbol
_atom_site_label
_atom_site_fract_x
_atom_site_fract_y
_atom_site_fract_z
Si Si1 0.278512 0.488556 0.634256
Si Si2 0.174479 0.970595 0.912766
Si Si3 0.338803 0.785855 0.561687
Si Si4 0.422609 0.909343 0.214642
Si Si5 0.638471 0.296101 0.915148
Si Si6 0.823969 0.696544 0.738482
Si Si7 0.157077 0.586262 0.403571
Si Si8 0.209471 0.274721 0.934909
O O1 0.236749 0.687003 0.656729
O O2 0.469485 0.354702 0.543010
O O3 0.239765 0.473883 0.506740
O O4 0.172271 0.439568 0.824950
O O5 0.275919 0.811616 0.983733
O O6 0.281530 0.917565 0.705056
O O7 0.142846 0.158049 0.946183
O O8 0.000000 0.000000 0.000000
O O9 0.306136 0.897212 0.419173
O O10 0.444208 0.791686 0.089639
O O11 0.596070 0.850964 0.163969
O O12 0.341764 0.111962 0.181142
O O13 0.779739 0.284770 0.713830
O O14 0.500000 0.500000 0.000000
O O15 0.790699 0.552591 0.730249
O O16 0.962147 0.703817 0.544452
O O17 0.880384 0.645042 0.868755
#
# Coordination Sequence:
#
# PCOD8025209 Si02
#       8
#     2   2   2   2   2   2   2   2
#     4  10  23  44  70  98 137 178 232 288 351 414
#     4  12  30  45  69 105 146 186 232 296 361 418
#     4  10  24  43  68 102 134 179 231 286 347 427
#     4  11  24  45  76  99 138 185 241 295 346 420
#     4  12  26  46  76 105 140 190 244 293 347 429
#     4  11  26  44  67 103 139 179 237 292 353 421
#     4  11  26  43  71  99 141 187 230 294 357 415
#     4  11  26  45  70 102 138 186 234 294 353 422
#
# _framework density 23.091014000000001
#
# number of rings (size 3 to 8) (size 9 to 14) (size 15 to 20)
#    0.000    1.000    2.500    1.875   14.000    3.000 
#    0.000    0.000    0.000    0.000    0.000    0.000 
#    0.000    0.000    0.000    0.000    0.000    0.000 
#
# Total GULP energy -198478.450505 kJ/mol
# GULP energy per Si atom -12404.903157 kJ/mol
# Density = 2.303846 g / cm^3
# Si number density = 23.091014 Si / 1000 Ang^3
#
#
#
# Elastic Constant Matrix: (Units=GPa)
#
#
# Indices 1 2 3 4 5 6 
#
# 1 105.3538 31.4487 19.8775 -7.9356 20.7858 23.5098
# 2 31.4487 80.3305 27.6907 -6.9554 16.1190 14.9163
# 3 19.8775 27.6907 116.1995 -8.0693 30.9840 17.5409
# 4 -7.9356 -6.9554 -8.0693 34.8511 6.6902 8.7964
# 5 20.7858 16.1190 30.9840 6.6902 43.4560 -1.0961
# 6 23.5098 14.9163 17.5409 8.7964 -1.0961 36.3166
#
#
#
# Elastic Compliance Matrix: (Units=1/GPa)
#
#
# Indices 1 2 3 4 5 6 
#
# 1 0.015162 -0.001632 0.003339 0.009343 -0.010803 -0.013347
# 2 -0.001632 0.016219 -0.000614 0.005566 -0.005827 -0.006832
# 3 0.003339 -0.000614 0.014017 0.009248 -0.013073 -0.011314
# 4 0.009343 0.005566 0.009248 0.044096 -0.020524 -0.024101
# 5 -0.010803 -0.005827 -0.013073 -0.020524 0.043375 0.021981
# 6 -0.013347 -0.006832 -0.011314 -0.024101 0.021981 0.050948
#
#
# Mechanical properties :
#
#
# Convention : Reuss Voigt Hill
#
# Bulk Modulus (GPa) = 21.01528 51.10195 36.05862
# Shear Modulus (GPa) = 25.31731 37.78255 31.54993
#
# Velocity S-wave (km/s) = 3.31481 4.04944 3.70040
# Velocity P-wave (km/s) = 4.87559 6.63647 5.82298
#
# Compressibility (1/GPa) = 0.04758443
#
# Stress axis : x y z
#
# Youngs Moduli (GPa) = 65.95235 61.65582 71.34196
#
# Poissons Ratio (x) = 0.10063 -0.23823
# Poissons Ratio (y) = 0.10764 0.04382
# Poissons Ratio (z) = -0.22024 0.03787
#
# Static dielectric constant tensor:
#      x y z
#    x 4.215250 0.136850 0.071500 
#    y 0.136850 4.064600 -0.249660 
#    z 0.071500 -0.249660 4.488640 
# 
# 
# High freq. dielectric constant tensor:
#      x y z
#    x 1.922880 0.004950 -0.000670 
#    y 0.004950 1.903550 -0.007790 
#    z -0.000670 -0.007790 1.931730 
# 
# From -- ./inp_files/243397.got.cif
#   From: 2010.06.25/outbox.cif.g09.slc.cpg/sg2_122_cif.got.tgz:243397.got - 2010.06.27 13:26:56.
