data_PCOD8025289
_publ_section_title
;
Structure prediction by ZEFSAII (Michael W. Deem and Ramdas Pophale) SiO2 
 PCOD8025289
Probable space group: P -1
;
_chemical_formula_sum "Si O2"
_cell_formula_units_Z 16
_cell_length_a 8.408012
_cell_length_b 8.769970
_cell_length_c 11.894581
_cell_angle_alpha 69.583914
_cell_angle_beta 111.630041
_cell_angle_gamma 71.090306
_cell_volume 652.864322
_symmetry_space_group_name_H-M "P -1"
_symmetry_group_IT_number 2
_symmetry_cell_setting 'triclinic'
loop_
_space_group_symop_operation_xyz
x,y,z
-x,-y,-z
loop_
_atom_site_type_symbol
_atom_site_label
_atom_site_fract_x
_atom_site_fract_y
_atom_site_fract_z
Si Si1 0.528589 0.155767 0.314096
Si Si2 0.944068 0.284843 0.109684
Si Si3 0.924161 0.755846 0.283294
Si Si4 0.123837 0.511488 0.186708
Si Si5 0.359418 0.904431 0.312471
Si Si6 0.626795 0.184863 0.084409
Si Si7 0.733927 0.277695 0.480095
Si Si8 0.407993 0.328855 0.764486
O O1 0.349806 0.336864 0.284914
O O2 0.512870 0.198426 0.166210
O O3 0.734141 0.123857 0.431395
O O4 0.510835 0.971293 0.377479
O O5 0.749891 0.290445 0.106527
O O6 0.972011 0.435045 0.150367
O O7 0.913599 0.336804 0.957574
O O8 0.132107 0.073052 0.222749
O O9 0.796997 0.665499 0.317232
O O10 0.082714 0.619481 0.266402
O O11 0.043448 0.773379 0.415895
O O12 0.773126 0.966009 0.141303
O O13 0.385298 0.729300 0.439142
O O14 0.408310 0.840517 0.212686
O O15 0.457980 0.293428 0.918188
O O16 0.613634 0.477611 0.333840
#
# Coordination Sequence:
#
# PCOD8025289 Si02
#       8
#     2   2   2   2   2   2   2   2
#     4  11  27  48  75 111 145 193 244 303 366 430
#     4  10  23  44  72 108 144 193 237 303 366 428
#     4  12  27  49  72 110 147 195 242 302 364 429
#     4  10  25  43  73 107 151 186 243 303 362 429
#     4  11  24  49  73 107 147 194 244 299 362 440
#     4  12  26  48  79 109 146 189 247 306 365 428
#     4  12  28  48  72 107 150 200 241 293 368 443
#     4  12  28  46  76 109 151 190 245 305 363 431
#
# _framework density 24.507390000000001
#
# number of rings (size 3 to 8) (size 9 to 14) (size 15 to 20)
#    0.000    0.750    2.500    3.000   12.250    2.500 
#    0.000    0.000    0.000    0.000    0.000    0.000 
#    0.000    0.000    0.000    0.000    0.000    0.000 
#
# Total GULP energy -198445.508831 kJ/mol
# GULP energy per Si atom -12402.844302 kJ/mol
# Density = 2.445161 g / cm^3
# Si number density = 24.507390 Si / 1000 Ang^3
#
#
#
# Elastic Constant Matrix: (Units=GPa)
#
#
# Indices 1 2 3 4 5 6 
#
# 1 115.3017 19.7420 18.5657 2.8655 -4.3705 24.2975
# 2 19.7420 47.8923 3.4359 -5.8485 -2.9315 -1.0350
# 3 18.5657 3.4359 78.4561 4.3150 -3.3842 -0.5870
# 4 2.8655 -5.8485 4.3150 35.4434 8.5087 -2.8351
# 5 -4.3705 -2.9315 -3.3842 8.5087 35.5903 3.9740
# 6 24.2975 -1.0350 -0.5870 -2.8351 3.9740 47.5072
#
#
#
# Elastic Compliance Matrix: (Units=1/GPa)
#
#
# Indices 1 2 3 4 5 6 
#
# 1 0.011317 -0.004805 -0.002293 -0.002420 0.002051 -0.006237
# 2 -0.004805 0.023491 -0.000124 0.004569 -0.000122 0.003251
# 3 -0.002293 -0.000124 0.013450 -0.001686 0.001264 0.001130
# 4 -0.002420 0.004569 -0.001686 0.031617 -0.008073 0.003879
# 5 0.002051 -0.000122 0.001264 -0.008073 0.030847 -0.004098
# 6 -0.006237 0.003251 0.001130 0.003879 -0.004098 0.024898
#
#
# Mechanical properties :
#
#
# Convention : Reuss Voigt Hill
#
# Bulk Modulus (GPa) = 29.57404 36.12637 32.85020
# Shear Modulus (GPa) = 30.99141 37.03528 34.01335
#
# Velocity S-wave (km/s) = 3.55994 3.89162 3.72947
# Velocity P-wave (km/s) = 5.38435 5.91320 5.65496
#
# Compressibility (1/GPa) = 0.03381344
#
# Stress axis : x y z
#
# Youngs Moduli (GPa) = 88.36218 42.57013 74.35156
#
# Poissons Ratio (x) = 0.20456 0.17047
# Poissons Ratio (y) = 0.42461 0.00921
# Poissons Ratio (z) = 0.20259 0.00527
#
# Static dielectric constant tensor:
#      x y z
#    x 4.539950 0.378360 -0.053340 
#    y 0.378360 4.414260 0.046360 
#    z -0.053340 0.046360 4.250270 
# 
# 
# High freq. dielectric constant tensor:
#      x y z
#    x 1.985110 0.023080 -0.004970 
#    y 0.023080 1.975400 0.002490 
#    z -0.004970 0.002490 1.969690 
# 
# From -- ./inp_files/381763.got.cif
#   From: 2010.06.25/outbox.cif.g09.slc.cpg/sg2_191_cif.got.tgz:381763.got - 2010.06.27 13:26:56.
