data_PCOD8025574
_publ_section_title
;
Structure prediction by ZEFSAII (Michael W. Deem and Ramdas Pophale) SiO2 
 PCOD8025574
Probable space group: P -1
;
_chemical_formula_sum "Si O2"
_cell_formula_units_Z 16
_cell_length_a 13.098855
_cell_length_b 13.981162
_cell_length_c 5.160830
_cell_angle_alpha 109.688484
_cell_angle_beta 82.660798
_cell_angle_gamma 131.256622
_cell_volume 663.004195
_symmetry_space_group_name_H-M "P -1"
_symmetry_group_IT_number 2
_symmetry_cell_setting 'triclinic'
loop_
_space_group_symop_operation_xyz
x,y,z
-x,-y,-z
loop_
_atom_site_type_symbol
_atom_site_label
_atom_site_fract_x
_atom_site_fract_y
_atom_site_fract_z
Si Si1 0.794383 0.211432 0.157283
Si Si2 0.514204 0.756710 0.184289
Si Si3 0.916467 0.650300 0.032368
Si Si4 0.876382 0.845001 0.350584
Si Si5 0.643478 0.486975 0.643286
Si Si6 0.252754 0.604166 0.852962
Si Si7 0.700572 0.745716 0.809986
Si Si8 0.642323 0.040095 0.547658
O O1 0.695024 0.099553 0.871207
O O2 0.949188 0.278579 0.117507
O O3 0.783208 0.326863 0.263113
O O4 0.754700 0.146454 0.395144
O O5 0.485851 0.642757 0.278320
O O6 0.615147 0.902100 0.422616
O O7 0.367211 0.715534 0.128313
O O8 0.593877 0.767077 0.914746
O O9 0.928413 0.762407 0.295916
O O10 0.890242 0.533650 0.114010
O O11 0.785755 0.572555 0.824136
O O12 0.763167 0.800953 0.557185
O O13 0.818574 0.822814 0.060559
O O14 0.000000 0.000000 0.500000
O O15 0.664746 0.435886 0.332430
O O16 0.612860 0.584424 0.685458
O O17 0.500000 0.000000 0.500000
#
# Coordination Sequence:
#
# PCOD8025574 Si02
#       8
#     2   2   2   2   2   2   2   2
#     4  12  28  44  75  98 138 183 230 281 339 408
#     4  11  26  41  72 101 137 182 228 276 348 403
#     4  10  25  45  68 104 133 182 230 280 341 400
#     4  11  25  45  68  97 144 178 224 281 338 402
#     4  10  23  45  69  99 144 175 226 290 329 404
#     4  11  23  45  71  97 140 180 225 291 333 399
#     4  11  25  44  69 104 132 180 230 276 339 409
#     4  12  27  48  67 102 142 179 229 283 340 404
#
# _framework density 24.132580000000001
#
# number of rings (size 3 to 8) (size 9 to 14) (size 15 to 20)
#    0.000    1.000    2.500    2.250   10.500    1.000 
#    0.000    0.000    0.000    0.000    0.000    0.000 
#    0.000    0.000    0.000    0.000    0.000    0.000 
#
# Total GULP energy -198418.045011 kJ/mol
# GULP energy per Si atom -12401.127813 kJ/mol
# Density = 2.407765 g / cm^3
# Si number density = 24.132580 Si / 1000 Ang^3
#
#
#
# Elastic Constant Matrix: (Units=GPa)
#
#
# Indices 1 2 3 4 5 6 
#
# 1 45.6744 20.7825 -0.8382 15.0084 -18.7912 8.6208
# 2 20.7825 126.5973 10.2441 16.5964 -4.5236 7.3697
# 3 -0.8382 10.2441 68.9315 7.7198 -7.1195 4.6415
# 4 15.0084 16.5964 7.7198 43.7377 3.0055 -9.9945
# 5 -18.7912 -4.5236 -7.1195 3.0055 34.8928 -6.4946
# 6 8.6208 7.3697 4.6415 -9.9945 -6.4946 27.0046
#
#
#
# Elastic Compliance Matrix: (Units=1/GPa)
#
#
# Indices 1 2 3 4 5 6 
#
# 1 0.041903 -0.003168 0.006492 -0.019382 0.022275 -0.015444
# 2 -0.003168 0.008954 -0.001010 -0.002628 -0.000985 -0.002468
# 3 0.006492 -0.001010 0.016474 -0.006440 0.006256 -0.005507
# 4 -0.019382 -0.002628 -0.006440 0.036749 -0.011762 0.018784
# 5 0.022275 -0.000985 0.006256 -0.011762 0.042433 -0.002066
# 6 -0.015444 -0.002468 -0.005507 0.018784 -0.002066 0.050037
#
#
# Mechanical properties :
#
#
# Convention : Reuss Voigt Hill
#
# Bulk Modulus (GPa) = 13.89701 33.50890 23.70296
# Shear Modulus (GPa) = 23.15779 35.19468 29.17623
#
# Velocity S-wave (km/s) = 3.10111 3.82303 3.48084
# Velocity P-wave (km/s) = 4.31203 5.77952 5.09885
#
# Compressibility (1/GPa) = 0.07195793
#
# Stress axis : x y z
#
# Youngs Moduli (GPa) = 23.86452 111.68184 60.69988
#
# Poissons Ratio (x) = 0.35383 -0.39404
# Poissons Ratio (y) = 0.07561 0.06133
# Poissons Ratio (z) = -0.15492 0.11284
#
# Static dielectric constant tensor:
#      x y z
#    x 4.130820 -0.062030 -0.199990 
#    y -0.062030 4.813450 0.235050 
#    z -0.199990 0.235050 4.506610 
# 
# 
# High freq. dielectric constant tensor:
#      x y z
#    x 1.950270 0.004570 -0.007080 
#    y 0.004570 1.970870 0.012190 
#    z -0.007080 0.012190 1.965760 
# 
# From -- ./inp_files/95250.got.cif
#   From: 2010.06.25/outbox.cif.g09.slc.cpg/sg2_48_cif.got.tgz:95250.got - 2010.06.27 13:26:56.
