data_PCOD8025392
_publ_section_title
;
Structure prediction by ZEFSAII (Michael W. Deem and Ramdas Pophale) SiO2 
 PCOD8025392
Probable space group: P -1
;
_chemical_formula_sum "Si O2"
_cell_formula_units_Z 16
_cell_length_a 13.316336
_cell_length_b 16.229197
_cell_length_c 8.220834
_cell_angle_alpha 47.104722
_cell_angle_beta 134.504745
_cell_angle_gamma 144.869257
_cell_volume 703.734310
_symmetry_space_group_name_H-M "P -1"
_symmetry_group_IT_number 2
_symmetry_cell_setting 'triclinic'
loop_
_space_group_symop_operation_xyz
x,y,z
-x,-y,-z
loop_
_atom_site_type_symbol
_atom_site_label
_atom_site_fract_x
_atom_site_fract_y
_atom_site_fract_z
Si Si1 0.136001 0.369649 0.415740
Si Si2 0.149141 0.608972 0.284346
Si Si3 0.739701 0.394306 0.231448
Si Si4 0.182885 0.007497 0.811656
Si Si5 0.247813 0.864364 0.822570
Si Si6 0.509492 0.524039 0.165049
Si Si7 0.203034 0.255468 0.359758
Si Si8 0.514164 0.085917 0.248377
O O1 0.157896 0.512274 0.293035
O O2 0.274407 0.365650 0.686802
O O3 0.183042 0.363658 0.289087
O O4 0.918988 0.225056 0.380956
O O5 0.267955 0.637350 0.541135
O O6 0.944482 0.534207 0.216822
O O7 0.230770 0.759654 0.083197
O O8 0.679105 0.257955 0.238008
O O9 0.591866 0.412965 0.993858
O O10 0.249046 0.986663 0.744300
O O11 0.971700 0.855360 0.811918
O O12 0.201425 0.151254 0.624401
O O13 0.312427 0.037757 0.066762
O O14 0.437260 0.951063 0.817404
O O15 0.397381 0.363186 0.340369
O O16 0.500000 0.500000 0.000000
O O17 0.500000 0.000000 0.500000
#
# Coordination Sequence:
#
# PCOD8025392 Si02
#       8
#     2   2   2   2   2   2   2   2
#     4  11  22  42  67 100 128 167 216 271 331 385
#     4  11  23  42  71  98 134 169 213 282 334 384
#     4  11  24  43  65 101 135 169 216 274 336 386
#     4  10  23  45  65  91 128 176 220 267 315 385
#     4  11  24  41  68  96 129 171 225 266 327 387
#     4  12  25  40  65 100 135 170 211 269 335 388
#     4  10  24  42  69  93 129 174 222 265 319 393
#     4  12  26  40  64  95 132 175 218 268 323 391
#
# _framework density 22.735852999999999
#
# number of rings (size 3 to 8) (size 9 to 14) (size 15 to 20)
#    0.000    1.000    2.500    4.125    3.500    3.000 
#    0.000    0.000    0.000    6.000    0.000    0.000 
#    0.000    0.000    0.000    0.000    0.000    0.000 
#
# Total GULP energy -198342.746302 kJ/mol
# GULP energy per Si atom -12396.421644 kJ/mol
# Density = 2.268411 g / cm^3
# Si number density = 22.735853 Si / 1000 Ang^3
#
#
#
# Elastic Constant Matrix: (Units=GPa)
#
#
# Indices 1 2 3 4 5 6 
#
# 1 79.8078 12.1713 22.4376 -19.5809 1.3342 -2.8948
# 2 12.1713 60.7066 33.0704 13.3817 -1.4140 0.3519
# 3 22.4376 33.0704 122.3197 17.7222 5.6586 20.5196
# 4 -19.5809 13.3817 17.7222 37.3496 5.6156 8.0616
# 5 1.3342 -1.4140 5.6586 5.6156 36.7370 1.2520
# 6 -2.8948 0.3519 20.5196 8.0616 1.2520 35.4243
#
#
#
# Elastic Compliance Matrix: (Units=1/GPa)
#
#
# Indices 1 2 3 4 5 6 
#
# 1 0.017457 -0.004183 -0.003966 0.012648 -0.002150 0.000963
# 2 -0.004183 0.021916 -0.004658 -0.009172 0.002974 0.004121
# 3 -0.003966 -0.004658 0.011893 -0.004596 -0.000957 -0.006087
# 4 0.012648 -0.009172 -0.004596 0.040948 -0.006183 -0.005313
# 5 -0.002150 0.002974 -0.000957 -0.006183 0.028480 0.000750
# 6 0.000963 0.004121 -0.006087 -0.005313 0.000750 0.032976
#
#
# Mechanical properties :
#
#
# Convention : Reuss Voigt Hill
#
# Bulk Modulus (GPa) = 38.98262 44.24366 41.61314
# Shear Modulus (GPa) = 26.61904 34.91250 30.76577
#
# Velocity S-wave (km/s) = 3.42540 3.92289 3.68255
# Velocity P-wave (km/s) = 5.72954 6.32620 6.03525
#
# Compressibility (1/GPa) = 0.02565246
#
# Stress axis : x y z
#
# Youngs Moduli (GPa) = 57.28299 45.62882 84.08038
#
# Poissons Ratio (x) = 0.19088 0.33345
# Poissons Ratio (y) = 0.23964 0.39163
# Poissons Ratio (z) = 0.22717 0.21253
#
# Static dielectric constant tensor:
#      x y z
#    x 4.036620 0.096070 0.117030 
#    y 0.096070 4.963640 0.632780 
#    z 0.117030 0.632780 3.877890 
# 
# 
# High freq. dielectric constant tensor:
#      x y z
#    x 1.894440 -0.006640 0.019360 
#    y -0.006640 1.901240 0.021220 
#    z 0.019360 0.021220 1.896180 
# 
# From -- ./inp_files/205294.got.cif
#   From: 2010.06.25/outbox.cif.g09.slc.cpg/sg2_103_cif.got.tgz:205294.got - 2010.06.27 13:26:56.
