data_PCOD8025047
_publ_section_title
;
Structure prediction by ZEFSAII (Michael W. Deem and Ramdas Pophale) SiO2 
 PCOD8025047
Probable space group: P -1
;
_chemical_formula_sum "Si O2"
_cell_formula_units_Z 16
_cell_length_a 22.434693
_cell_length_b 8.754898
_cell_length_c 13.837892
_cell_angle_alpha 53.175855
_cell_angle_beta 32.391633
_cell_angle_gamma 30.771126
_cell_volume 661.286937
_symmetry_space_group_name_H-M "P -1"
_symmetry_group_IT_number 2
_symmetry_cell_setting 'triclinic'
loop_
_space_group_symop_operation_xyz
x,y,z
-x,-y,-z
loop_
_atom_site_type_symbol
_atom_site_label
_atom_site_fract_x
_atom_site_fract_y
_atom_site_fract_z
Si Si1 0.008768 0.744735 0.036686
Si Si2 0.074433 0.595998 0.325823
Si Si3 0.566146 0.710598 0.727141
Si Si4 0.229985 0.666101 0.603611
Si Si5 0.687805 0.621076 0.088128
Si Si6 0.191284 0.083900 0.020996
Si Si7 0.828372 0.254618 0.710782
Si Si8 0.377858 0.703550 0.724957
O O1 0.098006 0.702301 0.829852
O O2 0.113683 0.710120 0.995207
O O3 0.062614 0.446125 0.088253
O O4 0.768093 0.088353 0.248394
O O5 0.177750 0.542962 0.297115
O O6 0.000000 0.500000 0.500000
O O7 0.240066 0.344219 0.111121
O O8 0.890175 0.976004 0.394803
O O9 0.709753 0.524313 0.507654
O O10 0.640598 0.516614 0.799317
O O11 0.470834 0.053117 0.749144
O O12 0.404351 0.788424 0.889245
O O13 0.419485 0.464828 0.486302
O O14 0.589182 0.569234 0.197514
O O15 0.113458 0.995427 0.200828
O O16 0.221498 0.024567 0.888219
O O17 0.000000 0.000000 0.500000
#
# Coordination Sequence:
#
# PCOD8025047 Si02
#       8
#     2   2   2   2   2   2   2   2
#     4  11  24  47  74 102 149 190 233 298 355 429
#     4  12  28  47  71 104 147 187 239 304 355 421
#     4  10  25  43  74 103 141 184 242 290 353 431
#     4  11  25  49  71 107 146 184 247 289 352 433
#     4  11  25  47  69 105 145 188 236 299 365 414
#     4  10  23  44  68 104 138 185 235 290 354 422
#     4  12  24  45  73 101 139 189 239 291 355 425
#     4  11  23  43  72 103 143 191 230 296 358 418
#
# _framework density 24.195243999999999
#
# number of rings (size 3 to 8) (size 9 to 14) (size 15 to 20)
#    0.000    1.000    3.750    1.125    5.250    7.500 
#    4.500    0.000    0.000    0.000    0.000    0.000 
#    0.000    0.000    0.000    0.000    0.000    0.000 
#
# Total GULP energy -198237.309984 kJ/mol
# GULP energy per Si atom -12389.831874 kJ/mol
# Density = 2.414017 g / cm^3
# Si number density = 24.195244 Si / 1000 Ang^3
#
#
#
# Elastic Constant Matrix: (Units=GPa)
#
#
# Indices 1 2 3 4 5 6 
#
# 1 96.4378 23.9333 24.7048 -0.9274 -1.0374 7.3079
# 2 23.9333 78.2498 28.7730 -7.1994 -9.5845 -9.0554
# 3 24.7048 28.7730 69.6208 0.0399 -0.6052 6.3718
# 4 -0.9274 -7.1994 0.0399 37.4657 1.8185 -2.1425
# 5 -1.0374 -9.5845 -0.6052 1.8185 44.4576 3.2914
# 6 7.3079 -9.0554 6.3718 -2.1425 3.2914 38.6732
#
#
#
# Elastic Compliance Matrix: (Units=1/GPa)
#
#
# Indices 1 2 3 4 5 6 
#
# 1 0.012015 -0.003001 -0.002794 -0.000411 -0.000201 -0.002518
# 2 -0.003001 0.017500 -0.006664 0.003473 0.003048 0.005696
# 3 -0.002794 -0.006664 0.018477 -0.001560 -0.000884 -0.004088
# 4 -0.000411 0.003473 -0.001560 0.027535 -0.000610 0.002725
# 5 -0.000201 0.003048 -0.000884 -0.000610 0.023241 -0.001114
# 6 -0.002518 0.005696 -0.004088 0.002725 -0.001114 0.028587
#
#
# Mechanical properties :
#
#
# Convention : Reuss Voigt Hill
#
# Bulk Modulus (GPa) = 43.34226 44.34785 43.84506
# Shear Modulus (GPa) = 31.25691 35.24579 33.25135
#
# Velocity S-wave (km/s) = 3.59815 3.82085 3.71117
# Velocity P-wave (km/s) = 5.93419 6.15094 6.04354
#
# Compressibility (1/GPa) = 0.02307217
#
# Stress axis : x y z
#
# Youngs Moduli (GPa) = 83.23137 57.14242 54.12274
#
# Poissons Ratio (x) = 0.17150 0.15122
# Poissons Ratio (y) = 0.24980 0.36069
# Poissons Ratio (z) = 0.23255 0.38081
#
# Static dielectric constant tensor:
#      x y z
#    x 4.466780 0.282280 -0.008230 
#    y 0.282280 3.821870 0.203390 
#    z -0.008230 0.203390 4.205620 
# 
# 
# High freq. dielectric constant tensor:
#      x y z
#    x 1.988000 0.001280 -0.006740 
#    y 0.001280 1.956110 0.010290 
#    z -0.006740 0.010290 1.949580 
# 
# From -- ./inp_files/315048.got.cif
#   From: 2010.06.25/outbox.cif.g09.slc.cpg/sg2_158_cif.got.tgz:315048.got - 2010.06.27 13:26:56.
