data_PCOD8025396
_publ_section_title
;
Structure prediction by ZEFSAII (Michael W. Deem and Ramdas Pophale) SiO2 
 PCOD8025396
Probable space group: P -1
;
_chemical_formula_sum "Si O2"
_cell_formula_units_Z 12
_cell_length_a 10.452726
_cell_length_b 10.294420
_cell_length_c 12.814317
_cell_angle_alpha 44.198917
_cell_angle_beta 33.906915
_cell_angle_gamma 37.910748
_cell_volume 464.796003
_symmetry_space_group_name_H-M "P -1"
_symmetry_group_IT_number 2
_symmetry_cell_setting 'triclinic'
loop_
_space_group_symop_operation_xyz
x,y,z
-x,-y,-z
loop_
_atom_site_type_symbol
_atom_site_label
_atom_site_fract_x
_atom_site_fract_y
_atom_site_fract_z
Si Si1 0.091917 0.110650 0.996319
Si Si2 0.968620 0.558913 0.778818
Si Si3 0.452555 0.598749 0.168130
Si Si4 0.111947 0.136068 0.530556
Si Si5 0.568638 0.193605 0.218844
Si Si6 0.197279 0.697988 0.723968
O O1 0.067827 0.309066 0.827955
O O2 0.352285 0.890952 0.907941
O O3 0.836583 0.075462 0.174231
O O4 0.066380 0.194825 0.084239
O O5 0.977159 0.682730 0.600717
O O6 0.161292 0.569299 0.728901
O O7 0.667220 0.673589 0.959491
O O8 0.155185 0.802680 0.257150
O O9 0.450897 0.449170 0.160749
O O10 0.539151 0.461332 0.297219
O O11 0.343714 0.139335 0.440186
O O12 0.225238 0.896976 0.544692
#
# Coordination Sequence:
#
# PCOD8025396 Si02
#       6
#     2   2   2   2   2   2
#     4   9  20  43  74  88 125 180 205 259 327 373
#     4  10  23  45  65  94 130 170 215 260 315 379
#     4  10  24  45  66  94 128 172 212 260 321 377
#     4  12  25  39  66 102 128 165 211 268 320 373
#     4   9  21  43  63  99 128 163 215 262 319 382
#     4  10  23  45  65  94 130 170 215 260 315 379
#
# _framework density 25.817779000000002
#
# number of rings (size 3 to 8) (size 9 to 14) (size 15 to 20)
#    0.000    2.333    0.000    3.000    4.667    6.667 
#   18.000    0.000    0.000    0.000    0.000    0.000 
#    0.000    0.000    0.000    0.000    0.000    0.000 
#
# Total GULP energy -148690.996438 kJ/mol
# GULP energy per Si atom -12390.916370 kJ/mol
# Density = 2.575902 g / cm^3
# Si number density = 25.817779 Si / 1000 Ang^3
#
#
#
# Elastic Constant Matrix: (Units=GPa)
#
#
# Indices 1 2 3 4 5 6 
#
# 1 70.8986 37.7536 12.2587 0.4532 -32.6950 3.8949
# 2 37.7536 99.9070 3.0029 5.2694 -21.8138 -2.9694
# 3 12.2587 3.0029 67.1879 2.2371 -24.0945 -1.2000
# 4 0.4532 5.2694 2.2371 42.3188 -4.0145 -4.9889
# 5 -32.6950 -21.8138 -24.0945 -4.0145 32.9102 -7.0633
# 6 3.8949 -2.9694 -1.2000 -4.9889 -7.0633 28.9490
#
#
#
# Elastic Compliance Matrix: (Units=1/GPa)
#
#
# Indices 1 2 3 4 5 6 
#
# 1 0.030632 -0.004451 0.006694 0.003618 0.033806 0.004571
# 2 -0.004451 0.013339 0.002916 -0.000634 0.007284 0.003756
# 3 0.006694 0.002916 0.023504 0.001816 0.027605 0.007421
# 4 0.003618 -0.000634 0.001816 0.025124 0.008860 0.006015
# 5 0.033806 0.007284 0.027605 0.008860 0.094812 0.022003
# 6 0.004571 0.003756 0.007421 0.006015 0.022003 0.041027
#
#
# Mechanical properties :
#
#
# Convention : Reuss Voigt Hill
#
# Bulk Modulus (GPa) = 12.85440 38.22486 25.53963
# Shear Modulus (GPa) = 20.48767 33.16747 26.82757
#
# Velocity S-wave (km/s) = 2.82006 3.58813 3.22702
# Velocity P-wave (km/s) = 3.94884 5.65721 4.87839
#
# Compressibility (1/GPa) = 0.07779436
#
# Stress axis : x y z
#
# Youngs Moduli (GPa) = 32.64522 74.96893 42.54653
#
# Poissons Ratio (x) = 0.33366 -0.28482
# Poissons Ratio (y) = 0.14529 -0.12407
# Poissons Ratio (z) = -0.21854 -0.21861
#
# Static dielectric constant tensor:
#      x y z
#    x 4.444190 0.064960 -0.094560 
#    y 0.064960 4.641550 -0.040100 
#    z -0.094560 -0.040100 4.727330 
# 
# 
# High freq. dielectric constant tensor:
#      x y z
#    x 2.014670 -0.007610 -0.003490 
#    y -0.007610 2.036350 -0.015760 
#    z -0.003490 -0.015760 2.035010 
# 
# From -- ./inp_files/517560.got.cif
#   From: 2010.06.25/outbox.cif.g09.slc.cpg/sg2_259_cif.got.tgz:517560.got - 2010.06.27 13:26:56.
