data_PCOD8025801
_publ_section_title
;
Structure prediction by ZEFSAII (Michael W. Deem and Ramdas Pophale) SiO2 
 PCOD8025801
Probable space group: P -1
;
_chemical_formula_sum "Si O2"
_cell_formula_units_Z 16
_cell_length_a 20.167605
_cell_length_b 6.374836
_cell_length_c 9.033810
_cell_angle_alpha 96.520776
_cell_angle_beta 131.323403
_cell_angle_gamma 64.232485
_cell_volume 759.217535
_symmetry_space_group_name_H-M "P -1"
_symmetry_group_IT_number 2
_symmetry_cell_setting 'triclinic'
loop_
_space_group_symop_operation_xyz
x,y,z
-x,-y,-z
loop_
_atom_site_type_symbol
_atom_site_label
_atom_site_fract_x
_atom_site_fract_y
_atom_site_fract_z
Si Si1 0.781830 0.067008 0.824799
Si Si2 0.438410 0.645144 0.563024
Si Si3 0.207246 0.555712 0.903163
Si Si4 0.413312 0.201923 0.052903
Si Si5 0.537256 0.658988 0.153537
Si Si6 0.061773 0.420192 0.838124
Si Si7 0.932132 0.934264 0.796366
Si Si8 0.928440 0.195087 0.520962
O O1 0.665311 0.141921 0.638833
O O2 0.822707 0.053728 0.718916
O O3 0.794625 0.256077 0.963839
O O4 0.847284 0.798093 0.960424
O O5 0.500000 0.500000 0.500000
O O6 0.496122 0.763926 0.743119
O O7 0.415585 0.476087 0.630864
O O8 0.119532 0.489581 0.805288
O O9 0.180160 0.661741 0.706092
O O10 0.318101 0.329570 0.032559
O O11 0.444401 0.920871 0.077540
O O12 0.390641 0.300269 0.855671
O O13 0.500000 0.500000 0.000000
O O14 0.992450 0.644988 0.858084
O O15 0.979982 0.356420 0.647076
O O16 0.911785 0.058465 0.619603
O O17 0.000000 0.000000 0.000000
O O18 0.000000 0.000000 0.500000
#
# Coordination Sequence:
#
# PCOD8025801 Si02
#       8
#     2   2   2   2   2   2   2   2
#     4  12  26  44  67 100 134 179 222 269 340 390
#     4  11  24  43  69  99 135 171 218 279 328 393
#     4  12  25  42  71  97 132 177 223 270 332 395
#     4  10  23  46  68  98 132 178 221 270 329 395
#     4   9  22  46  67  89 137 170 218 276 325 380
#     4  12  24  43  69  95 138 176 221 271 334 387
#     4  12  24  46  67  95 139 175 218 280 324 396
#     4  12  24  45  66  97 134 171 222 274 325 393
#
# _framework density 21.074325999999999
#
# number of rings (size 3 to 8) (size 9 to 14) (size 15 to 20)
#    0.000    0.750    6.250    0.750    3.500    1.500 
#    6.750    0.000    0.000    0.000    0.000    0.000 
#    0.000    0.000    0.000    0.000    0.000    0.000 
#
# Total GULP energy -198278.689451 kJ/mol
# GULP energy per Si atom -12392.418091 kJ/mol
# Density = 2.102636 g / cm^3
# Si number density = 21.074326 Si / 1000 Ang^3
#
#
#
# Elastic Constant Matrix: (Units=GPa)
#
#
# Indices 1 2 3 4 5 6 
#
# 1 93.6420 50.8458 41.6225 -5.5619 -6.7603 -27.1497
# 2 50.8458 164.2305 52.2519 3.7421 0.3831 -19.2683
# 3 41.6225 52.2519 111.0440 -7.8808 -7.7772 -11.5226
# 4 -5.5619 3.7421 -7.8808 24.1288 -3.6623 -0.8420
# 5 -6.7603 0.3831 -7.7772 -3.6623 41.0496 -5.8540
# 6 -27.1497 -19.2683 -11.5226 -0.8420 -5.8540 34.3867
#
#
#
# Elastic Compliance Matrix: (Units=1/GPa)
#
#
# Indices 1 2 3 4 5 6 
#
# 1 0.018056 -0.003211 -0.003339 0.004684 0.004532 0.012224
# 2 -0.003211 0.008161 -0.002869 -0.003116 -0.001316 0.000776
# 3 -0.003339 -0.002869 0.012066 0.003952 0.002153 0.000262
# 4 0.004684 -0.003116 0.003952 0.045458 0.006386 0.005477
# 5 0.004532 -0.001316 0.002153 0.006386 0.027290 0.008365
# 6 0.012224 0.000776 0.000262 0.005477 0.008365 0.040813
#
#
# Mechanical properties :
#
#
# Convention : Reuss Voigt Hill
#
# Bulk Modulus (GPa) = 51.42819 73.15076 62.28948
# Shear Modulus (GPa) = 28.22237 34.85945 31.54091
#
# Velocity S-wave (km/s) = 3.66345 4.07150 3.87285
# Velocity P-wave (km/s) = 6.50775 7.54248 7.04414
#
# Compressibility (1/GPa) = 0.01944459
#
# Stress axis : x y z
#
# Youngs Moduli (GPa) = 55.38293 122.53120 82.88035
#
# Poissons Ratio (x) = 0.39345 0.27671
# Poissons Ratio (y) = 0.17784 0.23782
# Poissons Ratio (z) = 0.18491 0.35160
#
# Static dielectric constant tensor:
#      x y z
#    x 3.819010 0.043550 -0.288180 
#    y 0.043550 3.930160 -0.013740 
#    z -0.288180 -0.013740 3.692800 
# 
# 
# High freq. dielectric constant tensor:
#      x y z
#    x 1.829970 -0.009010 -0.017500 
#    y -0.009010 1.840950 -0.000550 
#    z -0.017500 -0.000550 1.823870 
# 
# From -- ./inp_files/38877.got.cif
#   From: 2010.06.25/outbox.cif.g09.slc.cpg/sg2_20_cif.got.tgz:38877.got - 2010.06.27 13:26:56.
