data_PCOD8025252
_publ_section_title
;
Structure prediction by ZEFSAII (Michael W. Deem and Ramdas Pophale) SiO2 
 PCOD8025252
Probable space group: P -1
;
_chemical_formula_sum "Si O2"
_cell_formula_units_Z 16
_cell_length_a 10.407878
_cell_length_b 8.971777
_cell_length_c 11.047963
_cell_angle_alpha 124.892059
_cell_angle_beta 59.406242
_cell_angle_gamma 88.958199
_cell_volume 654.765846
_symmetry_space_group_name_H-M "P -1"
_symmetry_group_IT_number 2
_symmetry_cell_setting 'triclinic'
loop_
_space_group_symop_operation_xyz
x,y,z
-x,-y,-z
loop_
_atom_site_type_symbol
_atom_site_label
_atom_site_fract_x
_atom_site_fract_y
_atom_site_fract_z
Si Si1 0.587728 0.613873 0.211510
Si Si2 0.960601 0.174553 0.495984
Si Si3 0.260284 0.938605 0.615449
Si Si4 0.824712 0.997723 0.050885
Si Si5 0.157428 0.425001 0.123859
Si Si6 0.556671 0.229185 0.090701
Si Si7 0.692594 0.861297 0.698279
Si Si8 0.193539 0.322138 0.695902
O O1 0.431007 0.825073 0.408954
O O2 0.532203 0.437334 0.140046
O O3 0.708565 0.555827 0.244173
O O4 0.675634 0.641245 0.062950
O O5 0.874330 0.132222 0.402228
O O6 0.846571 0.400908 0.702752
O O7 0.125098 0.178125 0.362535
O O8 0.000000 0.000000 0.500000
O O9 0.286459 0.907436 0.732015
O O10 0.190791 0.177041 0.737610
O O11 0.721274 0.136371 0.053271
O O12 0.843773 0.772782 0.905424
O O13 0.000000 0.000000 0.000000
O O14 0.993317 0.522172 0.166404
O O15 0.385075 0.277025 0.266599
O O16 0.569088 0.090084 0.903127
O O17 0.707685 0.820364 0.529380
#
# Coordination Sequence:
#
# PCOD8025252 Si02
#       8
#     2   2   2   2   2   2   2   2
#     4  12  26  43  71 106 139 182 237 284 346 421
#     4  11  22  43  71 102 138 180 232 292 347 408
#     4  12  26  43  71 106 140 179 229 294 352 403
#     4  12  27  45  70 105 146 184 233 288 347 422
#     4  11  25  42  75 102 134 190 235 282 346 415
#     4  11  26  45  68 101 147 186 226 288 353 407
#     4  10  23  44  71  93 140 189 224 279 357 405
#     4  11  23  44  72 101 139 177 233 290 345 408
#
# _framework density 24.436216000000002
#
# number of rings (size 3 to 8) (size 9 to 14) (size 15 to 20)
#    0.000    0.750    3.750    3.750    3.500    6.500 
#    0.000    3.750    0.000    0.000    0.000    0.000 
#    0.000    0.000    0.000    0.000    0.000    0.000 
#
# Total GULP energy -198353.449822 kJ/mol
# GULP energy per Si atom -12397.090614 kJ/mol
# Density = 2.438060 g / cm^3
# Si number density = 24.436216 Si / 1000 Ang^3
#
#
#
# Elastic Constant Matrix: (Units=GPa)
#
#
# Indices 1 2 3 4 5 6 
#
# 1 67.3042 13.9398 4.7028 -3.1486 -8.0188 21.4968
# 2 13.9398 89.5529 20.8229 10.9276 -3.9720 25.2704
# 3 4.7028 20.8229 100.1701 -4.7769 -8.3736 13.7526
# 4 -3.1486 10.9276 -4.7769 35.8925 9.6002 -0.7441
# 5 -8.0188 -3.9720 -8.3736 9.6002 46.9694 -0.4058
# 6 21.4968 25.2704 13.7526 -0.7441 -0.4058 41.0690
#
#
#
# Elastic Compliance Matrix: (Units=1/GPa)
#
#
# Indices 1 2 3 4 5 6 
#
# 1 0.018338 -0.000284 0.000813 0.000800 0.003005 -0.009652
# 2 -0.000284 0.014790 -0.002017 -0.005475 0.001889 -0.008357
# 3 0.000813 -0.002017 0.010959 0.001669 0.001557 -0.002809
# 4 0.000800 -0.005475 0.001669 0.031609 -0.006465 0.002900
# 5 0.003005 0.001889 0.001557 -0.006465 0.023535 -0.003141
# 6 -0.009652 -0.008357 -0.002809 0.002900 -0.003141 0.035505
#
#
# Mechanical properties :
#
#
# Convention : Reuss Voigt Hill
#
# Bulk Modulus (GPa) = 24.32474 37.32870 30.82672
# Shear Modulus (GPa) = 33.02128 39.29028 36.15578
#
# Velocity S-wave (km/s) = 3.68003 4.01418 3.85073
# Velocity P-wave (km/s) = 5.29460 6.06580 5.69327
#
# Compressibility (1/GPa) = 0.04111041
#
# Stress axis : x y z
#
# Youngs Moduli (GPa) = 54.53106 67.61424 91.24530
#
# Poissons Ratio (x) = 0.01921 -0.07414
# Poissons Ratio (y) = 0.01550 0.18403
# Poissons Ratio (z) = -0.04431 0.13637
#
# Static dielectric constant tensor:
#      x y z
#    x 4.649650 0.368500 0.095870 
#    y 0.368500 4.152970 -0.049550 
#    z 0.095870 -0.049550 4.522350 
# 
# 
# High freq. dielectric constant tensor:
#      x y z
#    x 1.988300 0.020150 0.005350 
#    y 0.020150 1.952000 -0.001480 
#    z 0.005350 -0.001480 1.984250 
# 
# From -- ./inp_files/319088.got.cif
#   From: 2010.06.25/outbox.cif.g09.slc.cpg/sg2_160_cif.got.tgz:319088.got - 2010.06.27 13:26:56.
