data_PCOD8025205
_publ_section_title
;
Structure prediction by ZEFSAII (Michael W. Deem and Ramdas Pophale) SiO2 
 PCOD8025205
Probable space group: P -1
;
_chemical_formula_sum "Si O2"
_cell_formula_units_Z 14
_cell_length_a 21.192683
_cell_length_b 18.431864
_cell_length_c 8.914922
_cell_angle_alpha 50.297850
_cell_angle_beta 139.322796
_cell_angle_gamma 161.284238
_cell_volume 673.652450
_symmetry_space_group_name_H-M "P -1"
_symmetry_group_IT_number 2
_symmetry_cell_setting 'triclinic'
loop_
_space_group_symop_operation_xyz
x,y,z
-x,-y,-z
loop_
_atom_site_type_symbol
_atom_site_label
_atom_site_fract_x
_atom_site_fract_y
_atom_site_fract_z
Si Si1 0.314709 0.575507 0.143091
Si Si2 0.513177 0.922180 0.231692
Si Si3 0.830943 0.034518 0.007600
Si Si4 0.618203 0.719384 0.310438
Si Si5 0.950838 0.554527 0.418558
Si Si6 0.423997 0.834065 0.507495
Si Si7 0.894447 0.846439 0.869958
O O1 0.404323 0.731883 0.214901
O O2 0.549942 0.724369 0.321934
O O3 0.094307 0.316618 0.164973
O O4 0.229815 0.546504 0.874248
O O5 0.352718 0.795566 0.259446
O O6 0.798482 0.161205 0.479483
O O7 0.500000 0.000000 0.000000
O O8 0.889256 0.032104 0.958232
O O9 0.729795 0.873797 0.165160
O O10 0.638647 0.947307 0.750553
O O11 0.833524 0.848805 0.603081
O O12 0.365675 0.437730 0.172736
O O13 0.827305 0.429558 0.522259
O O14 0.000000 0.500000 0.500000
O O15 0.500000 0.000000 0.500000
O O16 0.000000 0.000000 0.000000
#
# Coordination Sequence:
#
# PCOD8025205 Si02
#       7
#     2   2   2   2   2   2   2
#     4  11  23  42  65  98 133 174 222 280 329 394
#     4  12  26  41  66  96 133 183 231 271 333 392
#     4  11  23  44  70  97 138 176 220 275 336 393
#     4  10  23  44  70  98 134 172 217 275 341 399
#     4  12  22  44  62  86 136 175 221 283 324 381
#     4  12  24  42  68  96 135 183 223 271 333 392
#     4  10  24  45  71 100 134 170 219 276 339 399
#
# _framework density 20.782230999999999
#
# number of rings (size 3 to 8) (size 9 to 14) (size 15 to 20)
#    0.000    0.857    5.714    0.429    2.000    2.286 
#    2.571    0.000    0.000    0.000    0.000    0.000 
#    0.000    0.000    0.000    0.000    0.000    0.000 
#
# Total GULP energy -173547.493339 kJ/mol
# GULP energy per Si atom -12396.249524 kJ/mol
# Density = 2.073493 g / cm^3
# Si number density = 20.782231 Si / 1000 Ang^3
#
#
#
# Elastic Constant Matrix: (Units=GPa)
#
#
# Indices 1 2 3 4 5 6 
#
# 1 159.9870 77.8680 45.6392 3.2292 -10.0826 -11.7597
# 2 77.8680 146.8116 31.7092 -12.3875 -23.3134 2.0703
# 3 45.6392 31.7092 73.5607 -12.5965 -3.6976 0.6881
# 4 3.2292 -12.3875 -12.5965 33.7169 0.2231 -6.0969
# 5 -10.0826 -23.3134 -3.6976 0.2231 42.5121 1.3381
# 6 -11.7597 2.0703 0.6881 -6.0969 1.3381 47.4316
#
#
#
# Elastic Compliance Matrix: (Units=1/GPa)
#
#
# Indices 1 2 3 4 5 6 
#
# 1 0.010268 -0.004857 -0.005060 -0.004236 -0.000719 0.002307
# 2 -0.004857 0.010607 -0.000654 0.003853 0.004629 -0.001293
# 3 -0.005060 -0.000654 0.018210 0.006939 0.000007 -0.000598
# 4 -0.004236 0.003853 0.006939 0.034622 0.001433 0.003091
# 5 -0.000719 0.004629 0.000007 0.001433 0.025913 -0.000927
# 6 0.002307 -0.001293 -0.000598 0.003091 -0.000927 0.022144
#
#
# Mechanical properties :
#
#
# Convention : Reuss Voigt Hill
#
# Bulk Modulus (GPa) = 55.73425 76.75468 66.24447
# Shear Modulus (GPa) = 33.58259 39.74163 36.66211
#
# Velocity S-wave (km/s) = 4.02422 4.37772 4.20469
# Velocity P-wave (km/s) = 6.96196 7.90984 7.45099
#
# Compressibility (1/GPa) = 0.01794229
#
# Stress axis : x y z
#
# Youngs Moduli (GPa) = 97.39212 94.27362 54.91578
#
# Poissons Ratio (x) = 0.45791 0.27786
# Poissons Ratio (y) = 0.47306 0.03593
# Poissons Ratio (z) = 0.49278 0.06168
#
# Static dielectric constant tensor:
#      x y z
#    x 4.206550 -0.025490 -0.034750 
#    y -0.025490 4.077310 -0.107140 
#    z -0.034750 -0.107140 3.917760 
# 
# 
# High freq. dielectric constant tensor:
#      x y z
#    x 1.821520 0.006090 0.011230 
#    y 0.006090 1.825770 -0.013170 
#    z 0.011230 -0.013170 1.812540 
# 
# From -- ./inp_files/315305.got.cif
#   From: 2010.06.25/outbox.cif.g09.slc.cpg/sg2_158_cif.got.tgz:315305.got - 2010.06.27 13:26:56.
