data_PCOD8025495
_publ_section_title
;
Structure prediction by ZEFSAII (Michael W. Deem and Ramdas Pophale) SiO2 
 PCOD8025495
Probable space group: P -1
;
_chemical_formula_sum "Si O2"
_cell_formula_units_Z 16
_cell_length_a 15.459785
_cell_length_b 14.685673
_cell_length_c 11.821866
_cell_angle_alpha 152.094085
_cell_angle_beta 123.983736
_cell_angle_gamma 39.104108
_cell_volume 715.478105
_symmetry_space_group_name_H-M "P -1"
_symmetry_group_IT_number 2
_symmetry_cell_setting 'triclinic'
loop_
_space_group_symop_operation_xyz
x,y,z
-x,-y,-z
loop_
_atom_site_type_symbol
_atom_site_label
_atom_site_fract_x
_atom_site_fract_y
_atom_site_fract_z
Si Si1 0.329517 0.235520 0.800712
Si Si2 0.397068 0.894528 0.143805
Si Si3 0.833133 0.352650 0.465461
Si Si4 0.125192 0.746908 0.057156
Si Si5 0.520470 0.549851 0.444899
Si Si6 0.643305 0.860656 0.029949
Si Si7 0.876605 0.504901 0.442468
Si Si8 0.664124 0.183981 0.761062
O O1 0.475771 0.138667 0.742903
O O2 0.349367 0.254872 0.969956
O O3 0.332327 0.001464 0.525861
O O4 0.177119 0.540147 0.972719
O O5 0.292610 0.947815 0.226091
O O6 0.282236 0.173909 0.288765
O O7 0.486120 0.613112 0.828571
O O8 0.679213 0.445931 0.428422
O O9 0.916141 0.319267 0.376194
O O10 0.796563 0.586904 0.776866
O O11 0.948983 0.044866 0.271696
O O12 0.218862 0.818869 0.203032
O O13 0.149761 0.597178 0.795372
O O14 0.500000 0.500000 0.500000
O O15 0.373868 0.885387 0.682548
O O16 0.500000 0.000000 0.000000
O O17 0.000000 0.500000 0.500000
O O18 0.500000 0.500000 0.000000
#
# Coordination Sequence:
#
# PCOD8025495 Si02
#       8
#     2   2   2   2   2   2   2   2
#     4  12  25  44  68 103 140 179 237 291 348 419
#     4  12  21  39  68  99 138 181 232 292 352 411
#     4  11  24  45  68 100 140 185 234 288 353 411
#     4  12  26  44  69 102 145 184 231 284 355 424
#     4  11  22  42  71 103 133 182 238 293 348 413
#     4  10  23  45  68  96 133 174 234 292 338 412
#     4  12  24  43  71 104 143 183 233 290 351 420
#     4  12  23  42  65 101 141 184 232 285 350 416
#
# _framework density 22.362666999999998
#
# number of rings (size 3 to 8) (size 9 to 14) (size 15 to 20)
#    0.000    0.500    2.500    8.250    0.000    0.500 
#    0.000    0.625    0.000    0.000    0.000    0.000 
#    0.000    0.000    0.000    0.000    0.000    0.000 
#
# Total GULP energy -198403.698480 kJ/mol
# GULP energy per Si atom -12400.231155 kJ/mol
# Density = 2.231177 g / cm^3
# Si number density = 22.362667 Si / 1000 Ang^3
#
#
#
# Elastic Constant Matrix: (Units=GPa)
#
#
# Indices 1 2 3 4 5 6 
#
# 1 102.5486 32.1659 29.0650 -12.0162 10.1914 5.0878
# 2 32.1659 105.9080 62.5621 6.8483 4.3968 20.6030
# 3 29.0650 62.5621 158.4086 4.9678 15.3600 1.1771
# 4 -12.0162 6.8483 4.9678 48.9126 2.9548 3.3760
# 5 10.1914 4.3968 15.3600 2.9548 33.1141 -7.8915
# 6 5.0878 20.6030 1.1771 3.3760 -7.8915 42.3080
#
#
#
# Elastic Compliance Matrix: (Units=1/GPa)
#
#
# Indices 1 2 3 4 5 6 
#
# 1 0.011723 -0.003073 -0.000717 0.003644 -0.003387 -0.000816
# 2 -0.003073 0.014838 -0.005188 -0.001851 -0.000018 -0.006568
# 3 -0.000717 -0.005188 0.008748 -0.000308 -0.002669 0.001896
# 4 0.003644 -0.001851 -0.000308 0.021948 -0.003136 -0.001864
# 5 -0.003387 -0.000018 -0.002669 -0.003136 0.034470 0.007170
# 6 -0.000816 -0.006568 0.001896 -0.001864 0.007170 0.028366
#
#
# Mechanical properties :
#
#
# Convention : Reuss Voigt Hill
#
# Bulk Modulus (GPa) = 57.62841 68.27237 62.95039
# Shear Modulus (GPa) = 34.76276 41.07177 37.91727
#
# Velocity S-wave (km/s) = 3.94699 4.29023 4.12219
# Velocity P-wave (km/s) = 6.82624 7.42545 7.13214
#
# Compressibility (1/GPa) = 0.01735255
#
# Stress axis : x y z
#
# Youngs Moduli (GPa) = 85.30501 67.39410 114.31798
#
# Poissons Ratio (x) = 0.20711 0.08196
# Poissons Ratio (y) = 0.26216 0.59305
# Poissons Ratio (z) = 0.06116 0.34962
#
# Static dielectric constant tensor:
#      x y z
#    x 4.077220 0.258580 0.263970 
#    y 0.258580 3.814370 0.171010 
#    z 0.263970 0.171010 4.568680 
# 
# 
# High freq. dielectric constant tensor:
#      x y z
#    x 1.871300 0.015170 0.016770 
#    y 0.015170 1.877330 0.004460 
#    z 0.016770 0.004460 1.898250 
# 
# From -- ./inp_files/456040.got.cif
#   From: 2010.06.25/outbox.cif.g09.slc.cpg/sg2_229_cif.got.tgz:456040.got - 2010.06.27 13:26:56.
