data_PCOD8025991
_publ_section_title
;
Structure prediction by ZEFSAII (Michael W. Deem and Ramdas Pophale) SiO2 
 PCOD8025991
Probable space group: P -1
;
_chemical_formula_sum "Si O2"
_cell_formula_units_Z 14
_cell_length_a 12.968495
_cell_length_b 9.460907
_cell_length_c 15.898295
_cell_angle_alpha 154.966530
_cell_angle_beta 134.299927
_cell_angle_gamma 53.936749
_cell_volume 584.429153
_symmetry_space_group_name_H-M "P -1"
_symmetry_group_IT_number 2
_symmetry_cell_setting 'triclinic'
loop_
_space_group_symop_operation_xyz
x,y,z
-x,-y,-z
loop_
_atom_site_type_symbol
_atom_site_label
_atom_site_fract_x
_atom_site_fract_y
_atom_site_fract_z
Si Si1 0.622551 0.118254 0.386048
Si Si2 0.098806 0.202919 0.380331
Si Si3 0.175342 0.216858 0.951866
Si Si4 0.860989 0.076142 0.914918
Si Si5 0.324567 0.133257 0.153643
Si Si6 0.138328 0.184751 0.726864
Si Si7 0.637388 0.048234 0.541516
O O1 0.496692 0.127960 0.250570
O O2 0.714596 0.491183 0.648214
O O3 0.563792 0.005078 0.384543
O O4 0.721555 0.852658 0.268249
O O5 0.000000 0.500000 0.500000
O O6 0.163851 0.208537 0.325532
O O7 0.247754 0.223820 0.531722
O O8 0.992229 0.843504 0.142256
O O9 0.262891 0.016523 0.962890
O O10 0.260921 0.593003 0.194684
O O11 0.162786 0.043028 0.758383
O O12 0.739059 0.089062 0.923460
O O13 0.880649 0.427895 0.067078
O O14 0.000000 0.000000 0.000000
O O15 0.000000 0.000000 0.500000
O O16 0.500000 0.000000 0.500000
#
# Coordination Sequence:
#
# PCOD8025991 Si02
#       7
#     2   2   2   2   2   2   2
#     4  10  24  43  74  99 145 186 240 292 369 435
#     4  12  27  45  74 110 148 192 249 304 370 437
#     4  11  25  47  71 106 146 193 240 303 366 443
#     4  12  25  44  69 102 142 183 238 300 357 424
#     4  10  23  47  70 103 141 191 234 300 364 427
#     4  12  27  44  72 106 142 191 243 294 364 438
#     4  11  24  49  75 105 147 196 245 305 370 439
#
# _framework density 23.954999999999998
#
# number of rings (size 3 to 8) (size 9 to 14) (size 15 to 20)
#    0.000    0.857    2.857    3.000    8.000    1.143 
#    2.571    0.000    0.000    0.000    0.000    0.000 
#    0.000    0.000    0.000    0.000    0.000    0.000 
#
# Total GULP energy -173445.099140 kJ/mol
# GULP energy per Si atom -12388.935653 kJ/mol
# Density = 2.390048 g / cm^3
# Si number density = 23.955000 Si / 1000 Ang^3
#
#
#
# Elastic Constant Matrix: (Units=GPa)
#
#
# Indices 1 2 3 4 5 6 
#
# 1 139.9458 64.8044 40.3295 -10.5892 -4.4268 7.6526
# 2 64.8044 140.5670 52.1046 -31.9065 -12.9871 2.5483
# 3 40.3295 52.1046 65.7449 -20.2976 -4.9101 3.1853
# 4 -10.5892 -31.9065 -20.2976 51.8689 6.0150 -11.2674
# 5 -4.4268 -12.9871 -4.9101 6.0150 40.4743 -7.5435
# 6 7.6526 2.5483 3.1853 -11.2674 -7.5435 51.6308
#
#
#
# Elastic Compliance Matrix: (Units=1/GPa)
#
#
# Indices 1 2 3 4 5 6 
#
# 1 0.009809 -0.003604 -0.003727 -0.001947 -0.000535 -0.001549
# 2 -0.003604 0.012207 -0.005968 0.004512 0.002434 0.001640
# 3 -0.003727 -0.005968 0.023730 0.004963 -0.000097 0.000452
# 4 -0.001947 0.004512 0.004963 0.024799 -0.000910 0.005039
# 5 -0.000535 0.002434 -0.000097 -0.000910 0.026223 0.003598
# 6 -0.001549 0.001640 0.000452 0.005039 0.003598 0.021114
#
#
# Mechanical properties :
#
#
# Convention : Reuss Voigt Hill
#
# Bulk Modulus (GPa) = 52.22717 73.41497 62.82107
# Shear Modulus (GPa) = 33.14235 41.39609 37.26922
#
# Velocity S-wave (km/s) = 3.72361 4.16152 3.94864
# Velocity P-wave (km/s) = 6.35111 7.33516 6.86080
#
# Compressibility (1/GPa) = 0.01914712
#
# Stress axis : x y z
#
# Youngs Moduli (GPa) = 101.94723 81.91889 42.14121
#
# Poissons Ratio (x) = 0.29524 0.15705
# Poissons Ratio (y) = 0.36743 0.25152
# Poissons Ratio (z) = 0.37994 0.48893
#
# Static dielectric constant tensor:
#      x y z
#    x 3.737300 0.001700 -0.135970 
#    y 0.001700 4.496550 -0.318220 
#    z -0.135970 -0.318220 4.140280 
# 
# 
# High freq. dielectric constant tensor:
#      x y z
#    x 1.948090 0.011320 0.003070 
#    y 0.011320 1.970400 -0.019540 
#    z 0.003070 -0.019540 1.932160 
# 
# From -- ./inp_files/159213.got.cif
#   From: 2010.06.25/outbox.cif.g09.slc.cpg/sg2_80_cif.got.tgz:159213.got - 2010.06.27 13:26:56.
