data_PCOD8025476
_publ_section_title
;
Structure prediction by ZEFSAII (Michael W. Deem and Ramdas Pophale) SiO2 
 PCOD8025476
Probable space group: P -1
;
_chemical_formula_sum "Si O2"
_cell_formula_units_Z 16
_cell_length_a 11.355764
_cell_length_b 12.005564
_cell_length_c 11.615183
_cell_angle_alpha 149.983149
_cell_angle_beta 59.021392
_cell_angle_gamma 121.796848
_cell_volume 666.880271
_symmetry_space_group_name_H-M "P -1"
_symmetry_group_IT_number 2
_symmetry_cell_setting 'triclinic'
loop_
_space_group_symop_operation_xyz
x,y,z
-x,-y,-z
loop_
_atom_site_type_symbol
_atom_site_label
_atom_site_fract_x
_atom_site_fract_y
_atom_site_fract_z
Si Si1 0.586506 0.847746 0.752053
Si Si2 0.427424 0.360271 0.020319
Si Si3 0.688796 0.229440 0.879536
Si Si4 0.115263 0.357152 0.783105
Si Si5 0.352119 0.515287 0.441128
Si Si6 0.862324 0.919226 0.125015
Si Si7 0.075843 0.685246 0.715645
Si Si8 0.913201 0.103176 0.495513
O O1 0.489957 0.675709 0.562210
O O2 0.665181 0.724192 0.697553
O O3 0.696301 0.014714 0.765497
O O4 0.500000 0.000000 0.000000
O O5 0.368844 0.497087 0.277175
O O6 0.500000 0.500000 0.000000
O O7 0.534214 0.218235 0.897529
O O8 0.298750 0.194529 0.878426
O O9 0.795568 0.227029 0.719115
O O10 0.735902 0.467150 0.140374
O O11 0.068078 0.225398 0.569121
O O12 0.120988 0.166121 0.704021
O O13 0.000000 0.500000 0.000000
O O14 0.212878 0.608690 0.628804
O O15 0.873416 0.059792 0.128034
O O16 0.908817 0.116308 0.372673
O O17 0.960341 0.726078 0.905529
O O18 0.000000 0.500000 0.500000
#
# Coordination Sequence:
#
# PCOD8025476 Si02
#       8
#     2   2   2   2   2   2   2   2
#     4  11  25  48  71 107 144 192 245 307 363 439
#     4  12  26  45  77 109 150 192 241 302 365 449
#     4  11  24  43  73 105 146 188 240 298 372 431
#     4   9  21  45  64  98 142 182 235 291 349 434
#     4  11  26  49  73 106 147 192 249 301 372 429
#     4  11  26  47  72 110 140 193 247 295 371 439
#     4  11  25  50  73 101 144 189 247 301 356 438
#     4  10  23  45  68 103 146 184 236 295 368 433
#
# _framework density 23.992312999999999
#
# number of rings (size 3 to 8) (size 9 to 14) (size 15 to 20)
#    0.000    1.250    2.500    1.500    5.250    2.500 
#   18.000    0.000    0.000    0.000    0.000    0.000 
#    0.000    0.000    0.000    0.000    0.000    0.000 
#
# Total GULP energy -198349.148417 kJ/mol
# GULP energy per Si atom -12396.821776 kJ/mol
# Density = 2.393771 g / cm^3
# Si number density = 23.992313 Si / 1000 Ang^3
#
#
#
# Elastic Constant Matrix: (Units=GPa)
#
#
# Indices 1 2 3 4 5 6 
#
# 1 128.2502 46.2538 52.2562 -3.5841 -8.4128 0.8654
# 2 46.2538 109.5191 37.1289 7.3837 2.5960 -1.6884
# 3 52.2562 37.1289 105.4205 -2.0604 -0.9973 0.2219
# 4 -3.5841 7.3837 -2.0604 42.9778 -2.2092 1.3922
# 5 -8.4128 2.5960 -0.9973 -2.2092 52.8889 -0.5627
# 6 0.8654 -1.6884 0.2219 1.3922 -0.5627 28.4865
#
#
#
# Elastic Compliance Matrix: (Units=1/GPa)
#
#
# Indices 1 2 3 4 5 6 
#
# 1 0.010856 -0.003318 -0.004167 0.001388 0.001864 -0.000525
# 2 -0.003318 0.011590 -0.002499 -0.002481 -0.001238 0.000904
# 3 -0.004167 -0.002499 0.012442 0.000669 -0.000279 -0.000157
# 4 0.001388 -0.002481 0.000669 0.023954 0.001342 -0.001339
# 5 0.001864 -0.001238 -0.000279 0.001342 0.019318 0.000188
# 6 -0.000525 0.000904 -0.000157 -0.001339 0.000188 0.035244
#
#
# Mechanical properties :
#
#
# Convention : Reuss Voigt Hill
#
# Bulk Modulus (GPa) = 67.02425 68.27416 67.64921
# Shear Modulus (GPa) = 36.14105 38.70737 37.42421
#
# Velocity S-wave (km/s) = 3.88540 4.02098 3.95377
# Velocity P-wave (km/s) = 6.93720 7.07645 7.00717
#
# Compressibility (1/GPa) = 0.01491997
#
# Stress axis : x y z
#
# Youngs Moduli (GPa) = 92.11140 86.28083 80.37097
#
# Poissons Ratio (x) = 0.28630 0.33490
# Poissons Ratio (y) = 0.30565 0.20087
# Poissons Ratio (z) = 0.38382 0.21564
#
# Static dielectric constant tensor:
#      x y z
#    x 4.775280 0.852000 0.393640 
#    y 0.852000 6.625230 1.073990 
#    z 0.393640 1.073990 4.918480 
# 
# 
# High freq. dielectric constant tensor:
#      x y z
#    x 1.957460 0.006110 -0.001620 
#    y 0.006110 1.944790 0.005180 
#    z -0.001620 0.005180 1.963400 
# 
# From -- ./inp_files/429210.got.cif
#   From: 2010.06.25/outbox.cif.g09.slc.cpg/sg2_215_cif.got.tgz:429210.got - 2010.06.27 13:26:56.
