data_PCOD8025135
_publ_section_title
;
Structure prediction by ZEFSAII (Michael W. Deem and Ramdas Pophale) SiO2 
 PCOD8025135
Probable space group: P -1
;
_chemical_formula_sum "Si O2"
_cell_formula_units_Z 16
_cell_length_a 9.111422
_cell_length_b 14.687078
_cell_length_c 8.415224
_cell_angle_alpha 81.097300
_cell_angle_beta 46.264960
_cell_angle_gamma 64.341737
_cell_volume 715.140187
_symmetry_space_group_name_H-M "P -1"
_symmetry_group_IT_number 2
_symmetry_cell_setting 'triclinic'
loop_
_space_group_symop_operation_xyz
x,y,z
-x,-y,-z
loop_
_atom_site_type_symbol
_atom_site_label
_atom_site_fract_x
_atom_site_fract_y
_atom_site_fract_z
Si Si1 0.397999 0.153773 0.078423
Si Si2 0.747902 0.426002 0.405971
Si Si3 0.712998 0.400341 0.803478
Si Si4 0.860257 0.596936 0.354476
Si Si5 0.133622 0.035841 0.275520
Si Si6 0.925915 0.113191 0.091146
Si Si7 0.527905 0.278096 0.169096
Si Si8 0.877631 0.743629 0.040147
O O1 0.227937 0.107444 0.273975
O O2 0.364819 0.247446 0.192324
O O3 0.335742 0.196803 0.934102
O O4 0.656670 0.065155 0.926887
O O5 0.500000 0.500000 0.500000
O O6 0.716923 0.386678 0.613984
O O7 0.903270 0.486442 0.281533
O O8 0.887224 0.328765 0.211859
O O9 0.932656 0.410897 0.692536
O O10 0.500000 0.500000 0.000000
O O11 0.696560 0.303555 0.925464
O O12 0.639899 0.626110 0.623897
O O13 0.806876 0.678009 0.230478
O O14 0.947486 0.104038 0.266927
O O15 0.000000 0.000000 0.500000
O O16 0.669848 0.183699 0.206828
O O17 0.080833 0.170666 0.912797
O O18 0.000000 0.000000 0.000000
#
# Coordination Sequence:
#
# PCOD8025135 Si02
#       8
#     2   2   2   2   2   2   2   2
#     4  10  24  42  65 100 136 178 230 288 340 418
#     4  12  26  46  73 104 142 187 234 292 354 420
#     4  12  26  47  73 102 146 184 234 287 350 422
#     4  12  26  46  71 103 143 185 234 290 352 418
#     4  10  23  44  69  95 136 180 233 286 352 400
#     4  11  23  47  68  99 141 181 233 292 337 423
#     4  12  25  44  72 103 139 186 236 283 353 414
#     4  11  25  44  69 102 143 180 236 281 352 418
#
# _framework density 22.373235999999999
#
# number of rings (size 3 to 8) (size 9 to 14) (size 15 to 20)
#    0.000    0.750    3.750    3.000    5.250    4.000 
#    0.000    1.250    0.000    0.000    0.000    0.000 
#    0.000    0.000    0.000    0.000    0.000    0.000 
#
# Total GULP energy -198394.523903 kJ/mol
# GULP energy per Si atom -12399.657744 kJ/mol
# Density = 2.232231 g / cm^3
# Si number density = 22.373236 Si / 1000 Ang^3
#
#
#
# Elastic Constant Matrix: (Units=GPa)
#
#
# Indices 1 2 3 4 5 6 
#
# 1 121.3988 38.9485 36.2095 -5.2310 -10.1906 -4.9390
# 2 38.9485 107.8476 35.2585 -13.5811 -2.4088 6.4255
# 3 36.2095 35.2585 100.0713 -31.4075 -0.8708 1.1186
# 4 -5.2310 -13.5811 -31.4075 36.4562 -4.1181 2.1772
# 5 -10.1906 -2.4088 -0.8708 -4.1181 24.4176 -0.7590
# 6 -4.9390 6.4255 1.1186 2.1772 -0.7590 49.3350
#
#
#
# Elastic Compliance Matrix: (Units=1/GPa)
#
#
# Indices 1 2 3 4 5 6 
#
# 1 0.010493 -0.002965 -0.003448 -0.002259 0.003635 0.001670
# 2 -0.002965 0.011462 -0.002331 0.001954 0.000083 -0.001822
# 3 -0.003448 -0.002331 0.016045 0.012630 0.001004 -0.000947
# 4 -0.002259 0.001954 0.012630 0.039571 0.006299 -0.002416
# 5 0.003635 0.000083 0.001004 0.006299 0.043600 0.000723
# 6 0.001670 -0.001822 -0.000947 -0.002416 0.000723 0.020813
#
#
# Mechanical properties :
#
#
# Convention : Reuss Voigt Hill
#
# Bulk Modulus (GPa) = 48.75286 61.12787 54.94037
# Shear Modulus (GPa) = 30.06462 36.63516 33.34989
#
# Velocity S-wave (km/s) = 3.66973 4.05094 3.86504
# Velocity P-wave (km/s) = 6.30824 7.01864 6.67290
#
# Compressibility (1/GPa) = 0.02051162
#
# Stress axis : x y z
#
# Youngs Moduli (GPa) = 95.30432 87.24705 62.32476
#
# Poissons Ratio (x) = 0.25868 0.21489
# Poissons Ratio (y) = 0.28257 0.14528
# Poissons Ratio (z) = 0.32860 0.20338
#
# Static dielectric constant tensor:
#      x y z
#    x 4.547200 -0.202540 -0.229000 
#    y -0.202540 4.534530 0.018410 
#    z -0.229000 0.018410 4.074640 
# 
# 
# High freq. dielectric constant tensor:
#      x y z
#    x 1.901360 -0.004310 -0.004810 
#    y -0.004310 1.901940 -0.011820 
#    z -0.004810 -0.011820 1.854710 
# 
# From -- ./inp_files/206644.got.cif
#   From: 2010.06.25/outbox.cif.g09.slc.cpg/sg2_104_cif.got.tgz:206644.got - 2010.06.27 13:26:56.
