data_PCOD8025020
_publ_section_title
;
Structure prediction by ZEFSAII (Michael W. Deem and Ramdas Pophale) SiO2 
 PCOD8025020
Probable space group: P -1
;
_chemical_formula_sum "Si O2"
_cell_formula_units_Z 16
_cell_length_a 15.034764
_cell_length_b 12.661899
_cell_length_c 17.997918
_cell_angle_alpha 149.119672
_cell_angle_beta 30.453694
_cell_angle_gamma 126.758309
_cell_volume 748.122657
_symmetry_space_group_name_H-M "P -1"
_symmetry_group_IT_number 2
_symmetry_cell_setting 'triclinic'
loop_
_space_group_symop_operation_xyz
x,y,z
-x,-y,-z
loop_
_atom_site_type_symbol
_atom_site_label
_atom_site_fract_x
_atom_site_fract_y
_atom_site_fract_z
Si Si1 0.659112 0.635370 0.709907
Si Si2 0.253860 0.954427 0.103228
Si Si3 0.556731 0.464372 0.827677
Si Si4 0.188723 0.817847 0.394726
Si Si5 0.782664 0.723876 0.318372
Si Si6 0.981426 0.236004 0.124126
Si Si7 0.264936 0.623193 0.764218
Si Si8 0.550646 0.933902 0.340053
O O1 0.656310 0.484450 0.691702
O O2 0.841667 0.461787 0.416218
O O3 0.689054 0.850544 0.847369
O O4 0.442561 0.742526 0.887213
O O5 0.201260 0.834807 0.999921
O O6 0.052841 0.093919 0.386711
O O7 0.719126 0.397122 0.738012
O O8 0.529401 0.241466 0.720649
O O9 0.327457 0.708408 0.153937
O O10 0.191936 0.055970 0.550678
O O11 0.734677 0.615779 0.358204
O O12 0.590334 0.816656 0.455217
O O13 0.000000 0.500000 0.000000
O O14 0.889858 0.262064 0.123960
O O15 0.206686 0.199104 0.934891
O O16 0.000000 0.000000 0.000000
O O17 0.500000 0.500000 0.500000
O O18 0.500000 0.000000 0.500000
#
# Coordination Sequence:
#
# PCOD8025020 Si02
#       8
#     2   2   2   2   2   2   2   2
#     4  11  26  45  66  99 136 175 224 275 334 391
#     4  11  25  44  67  98 134 175 224 273 329 401
#     4  10  24  44  67  95 132 173 218 275 331 397
#     4  10  23  44  67  98 129 170 224 269 334 397
#     4  11  23  41  68  99 129 173 216 272 330 394
#     4  12  26  44  68 101 137 176 223 277 336 394
#     4  12  25  43  67  98 138 176 221 272 335 400
#     4  11  24  41  68  98 134 170 221 272 329 391
#
# _framework density 21.386868
#
# number of rings (size 3 to 8) (size 9 to 14) (size 15 to 20)
#    0.000    1.000    2.500    3.000    7.000    2.000 
#    2.250    0.000    0.000    0.000    0.000    0.000 
#    0.000    0.000    0.000    0.000    0.000    0.000 
#
# Total GULP energy -198299.149180 kJ/mol
# GULP energy per Si atom -12393.696824 kJ/mol
# Density = 2.133819 g / cm^3
# Si number density = 21.386868 Si / 1000 Ang^3
#
#
#
# Elastic Constant Matrix: (Units=GPa)
#
#
# Indices 1 2 3 4 5 6 
#
# 1 101.4333 39.0305 38.0139 0.7649 -11.7341 -17.0907
# 2 39.0305 126.3954 34.0283 -2.5515 -13.7292 -18.0432
# 3 38.0139 34.0283 143.3544 -18.3796 -9.5727 -7.3347
# 4 0.7649 -2.5515 -18.3796 46.9198 3.8720 -2.4948
# 5 -11.7341 -13.7292 -9.5727 3.8720 39.6512 1.2495
# 6 -17.0907 -18.0432 -7.3347 -2.4948 1.2495 29.2731
#
#
#
# Elastic Compliance Matrix: (Units=1/GPa)
#
#
# Indices 1 2 3 4 5 6 
#
# 1 0.012886 -0.002299 -0.002609 -0.001272 0.002346 0.005244
# 2 -0.002299 0.009845 -0.001345 0.000088 0.002260 0.004300
# 3 -0.002609 -0.001345 0.008435 0.003235 0.000482 0.000016
# 4 -0.001272 0.000088 0.003235 0.022874 -0.001867 0.002151
# 5 0.002346 0.002260 0.000482 -0.001867 0.026946 0.001574
# 6 0.005244 0.004300 0.000016 0.002151 0.001574 0.039993
#
#
# Mechanical properties :
#
#
# Convention : Reuss Voigt Hill
#
# Bulk Modulus (GPa) = 53.59483 65.92537 59.76010
# Shear Modulus (GPa) = 35.78997 40.50953 38.14975
#
# Velocity S-wave (km/s) = 4.09523 4.35688 4.22808
# Velocity P-wave (km/s) = 6.89023 7.49680 7.19990
#
# Compressibility (1/GPa) = 0.01865852
#
# Stress axis : x y z
#
# Youngs Moduli (GPa) = 77.60510 101.57735 118.55852
#
# Poissons Ratio (x) = 0.23351 0.30937
# Poissons Ratio (y) = 0.17840 0.15947
# Poissons Ratio (z) = 0.20250 0.13663
#
# Static dielectric constant tensor:
#      x y z
#    x 4.043230 0.011710 -0.020060 
#    y 0.011710 3.872130 -0.162590 
#    z -0.020060 -0.162590 3.909480 
# 
# 
# High freq. dielectric constant tensor:
#      x y z
#    x 1.831210 0.003870 -0.007560 
#    y 0.003870 1.853170 -0.001890 
#    z -0.007560 -0.001890 1.861400 
# 
# From -- ./inp_files/298473.got.cif
#   From: 2010.06.25/outbox.cif.g09.slc.cpg/sg2_150_cif.got.tgz:298473.got - 2010.06.27 13:26:56.
