data_PCOD8025585
_publ_section_title
;
Structure prediction by ZEFSAII (Michael W. Deem and Ramdas Pophale) SiO2 
 PCOD8025585
Probable space group: P -1
;
_chemical_formula_sum "Si O2"
_cell_formula_units_Z 16
_cell_length_a 9.110884
_cell_length_b 8.447981
_cell_length_c 11.783650
_cell_angle_alpha 101.747863
_cell_angle_beta 126.046076
_cell_angle_gamma 71.979470
_cell_volume 697.078620
_symmetry_space_group_name_H-M "P -1"
_symmetry_group_IT_number 2
_symmetry_cell_setting 'triclinic'
loop_
_space_group_symop_operation_xyz
x,y,z
-x,-y,-z
loop_
_atom_site_type_symbol
_atom_site_label
_atom_site_fract_x
_atom_site_fract_y
_atom_site_fract_z
Si Si1 0.778015 0.192473 0.736065
Si Si2 0.739657 0.836230 0.255855
Si Si3 0.308850 0.908404 0.085040
Si Si4 0.094341 0.906342 0.769491
Si Si5 0.434596 0.332511 0.457025
Si Si6 0.897554 0.673641 0.528909
Si Si7 0.799685 0.720469 0.855281
Si Si8 0.927549 0.588593 0.126932
O O1 0.704620 0.215218 0.835783
O O2 0.605684 0.201484 0.573141
O O3 0.892454 0.330998 0.785268
O O4 0.898152 0.005382 0.747501
O O5 0.520548 0.913438 0.159221
O O6 0.795953 0.802712 0.406572
O O7 0.803424 0.661227 0.189994
O O8 0.835887 0.973850 0.269116
O O9 0.181742 0.093546 0.082662
O O10 0.238951 0.843862 0.927638
O O11 0.061635 0.745342 0.668589
O O12 0.500000 0.500000 0.500000
O O13 0.250034 0.358525 0.452079
O O14 0.389043 0.271430 0.301912
O O15 0.000000 0.500000 0.500000
O O16 0.982780 0.611481 0.854376
O O17 0.795740 0.630350 0.961945
#
# Coordination Sequence:
#
# PCOD8025585 Si02
#       8
#     2   2   2   2   2   2   2   2
#     4  11  23  44  68 103 137 183 241 287 346 417
#     4  11  24  48  70 108 144 184 231 287 356 426
#     4  12  24  44  72 109 140 178 241 296 350 408
#     4  11  26  46  72  99 144 188 228 288 357 420
#     4  12  26  45  70 105 139 183 237 295 345 409
#     4  12  28  48  69 102 144 188 230 286 357 428
#     4  11  23  41  74 100 138 181 235 285 348 409
#     4  10  23  45  70 102 139 190 233 282 350 422
#
# _framework density 22.952936999999999
#
# number of rings (size 3 to 8) (size 9 to 14) (size 15 to 20)
#    0.000    0.750    5.000    2.625    5.250    2.000 
#    0.000    0.625    0.000    0.000    0.000    0.000 
#    0.000    0.000    0.000    0.000    0.000    0.000 
#
# Total GULP energy -198439.045059 kJ/mol
# GULP energy per Si atom -12402.440316 kJ/mol
# Density = 2.290069 g / cm^3
# Si number density = 22.952937 Si / 1000 Ang^3
#
#
#
# Elastic Constant Matrix: (Units=GPa)
#
#
# Indices 1 2 3 4 5 6 
#
# 1 100.9253 31.9538 34.6886 4.3000 1.4256 3.8359
# 2 31.9538 77.8682 49.2313 11.0626 3.2321 -11.5226
# 3 34.6886 49.2313 203.4189 -5.4769 -3.0017 7.9189
# 4 4.3000 11.0626 -5.4769 39.9438 -3.8264 -7.3558
# 5 1.4256 3.2321 -3.0017 -3.8264 29.3965 -6.5261
# 6 3.8359 -11.5226 7.9189 -7.3558 -6.5261 26.8551
#
#
#
# Elastic Compliance Matrix: (Units=1/GPa)
#
#
# Indices 1 2 3 4 5 6 
#
# 1 0.011907 -0.004848 -0.000739 -0.000903 -0.001145 -0.004089
# 2 -0.004848 0.019528 -0.004371 -0.003893 -0.000848 0.009088
# 3 -0.000739 -0.004371 0.006272 0.001667 0.000710 -0.002990
# 4 -0.000903 -0.003893 0.001667 0.028326 0.005920 0.007164
# 5 -0.001145 -0.000848 0.000710 0.005920 0.037290 0.010274
# 6 -0.004089 0.009088 -0.002990 0.007164 0.010274 0.047061
#
#
# Mechanical properties :
#
#
# Convention : Reuss Voigt Hill
#
# Bulk Modulus (GPa) = 56.20773 68.21776 62.21275
# Shear Modulus (GPa) = 28.37209 36.99500 32.68354
#
# Velocity S-wave (km/s) = 3.51963 4.01905 3.77760
# Velocity P-wave (km/s) = 6.40769 7.16395 6.79635
#
# Compressibility (1/GPa) = 0.01779115
#
# Stress axis : x y z
#
# Youngs Moduli (GPa) = 83.98136 51.20878 159.45069
#
# Poissons Ratio (x) = 0.24826 0.11788
# Poissons Ratio (y) = 0.40715 0.69688
# Poissons Ratio (z) = 0.06208 0.22381
#
# Static dielectric constant tensor:
#      x y z
#    x 4.079060 -0.093390 -0.163320 
#    y -0.093390 4.068100 -0.153940 
#    z -0.163320 -0.153940 4.634870 
# 
# 
# High freq. dielectric constant tensor:
#      x y z
#    x 1.893550 0.001780 -0.009290 
#    y 0.001780 1.902170 -0.009940 
#    z -0.009290 -0.009940 1.930580 
# 
# From -- ./inp_files/382766.got.cif
#   From: 2010.06.25/outbox.cif.g09.slc.cpg/sg2_192_cif.got.tgz:382766.got - 2010.06.27 13:26:56.
