data_PCOD8025024
_publ_section_title
;
Structure prediction by ZEFSAII (Michael W. Deem and Ramdas Pophale) SiO2 
 PCOD8025024
Probable space group: P -1
;
_chemical_formula_sum "Si O2"
_cell_formula_units_Z 16
_cell_length_a 8.804606
_cell_length_b 20.356878
_cell_length_c 9.431019
_cell_angle_alpha 52.331878
_cell_angle_beta 148.088355
_cell_angle_gamma 118.998644
_cell_volume 704.966030
_symmetry_space_group_name_H-M "P -1"
_symmetry_group_IT_number 2
_symmetry_cell_setting 'triclinic'
loop_
_space_group_symop_operation_xyz
x,y,z
-x,-y,-z
loop_
_atom_site_type_symbol
_atom_site_label
_atom_site_fract_x
_atom_site_fract_y
_atom_site_fract_z
Si Si1 0.654592 0.104525 0.589786
Si Si2 0.699736 0.918005 0.934947
Si Si3 0.161800 0.404466 0.057245
Si Si4 0.495122 0.213394 0.852773
Si Si5 0.952781 0.390566 0.616495
Si Si6 0.094696 0.681027 0.788246
Si Si7 0.385974 0.752031 0.410115
Si Si8 0.419147 0.563957 0.993427
O O1 0.417907 0.109842 0.272608
O O2 0.558606 0.176296 0.530259
O O3 0.657365 0.017160 0.790649
O O4 0.964411 0.114557 0.752014
O O5 0.531430 0.878738 0.983631
O O6 0.349670 0.318481 0.283923
O O7 0.972853 0.393536 0.061024
O O8 0.945195 0.425339 0.725788
O O9 0.364303 0.479644 0.145339
O O10 0.647146 0.208163 0.826006
O O11 0.180628 0.258326 0.540162
O O12 0.669415 0.265270 0.029715
O O13 0.900695 0.292440 0.711681
O O14 0.688054 0.441822 0.250744
O O15 0.258009 0.408836 0.766193
O O16 0.209861 0.640276 0.787139
#
# Coordination Sequence:
#
# PCOD8025024 Si02
#       8
#     2   2   2   2   2   2   2   2
#     4  10  24  42  69  98 130 162 209 255 322 366
#     4  10  23  44  67  99 129 165 204 263 304 389
#     4  11  25  46  63  90 133 167 216 268 319 373
#     4  11  24  42  66  93 133 166 213 254 320 377
#     4  12  25  42  61  95 124 167 215 271 312 376
#     4  11  25  43  63  95 126 172 212 265 315 376
#     4  11  26  42  66  95 130 172 207 265 317 380
#     4  12  27  40  67  91 124 173 220 266 319 369
#
# _framework density 22.696128000000002
#
# number of rings (size 3 to 8) (size 9 to 14) (size 15 to 20)
#    0.000    1.000    2.500    2.625    8.750    0.500 
#    0.000    3.125    0.000    6.750    0.000    0.000 
#    0.000    0.000    0.000    0.000    0.000    0.000 
#
# Total GULP energy -198425.417998 kJ/mol
# GULP energy per Si atom -12401.588625 kJ/mol
# Density = 2.264447 g / cm^3
# Si number density = 22.696128 Si / 1000 Ang^3
#
#
#
# Elastic Constant Matrix: (Units=GPa)
#
#
# Indices 1 2 3 4 5 6 
#
# 1 63.2264 48.7126 16.7173 -5.3730 -4.7044 32.1973
# 2 48.7126 132.4407 28.6735 7.4914 -2.5068 26.6757
# 3 16.7173 28.6735 98.5942 14.1475 10.7811 11.8639
# 4 -5.3730 7.4914 14.1475 32.9848 7.6051 -2.1028
# 5 -4.7044 -2.5068 10.7811 7.6051 30.4598 0.0337
# 6 32.1973 26.6757 11.8639 -2.1028 0.0337 48.4181
#
#
#
# Elastic Compliance Matrix: (Units=1/GPa)
#
#
# Indices 1 2 3 4 5 6 
#
# 1 0.031484 -0.008222 -0.002346 0.006207 0.003484 -0.015564
# 2 -0.008222 0.011204 -0.001406 -0.003553 0.001037 -0.000515
# 3 -0.002346 -0.001406 0.012086 -0.004459 -0.003641 -0.000818
# 4 0.006207 -0.003553 -0.004459 0.035610 -0.006647 0.000474
# 5 0.003484 0.001037 -0.003641 -0.006647 0.036405 -0.002310
# 6 -0.015564 -0.000515 -0.000818 0.000474 -0.002310 0.031510
#
#
# Mechanical properties :
#
#
# Convention : Reuss Voigt Hill
#
# Bulk Modulus (GPa) = 32.44072 53.60756 43.02414
# Shear Modulus (GPa) = 25.97124 35.71641 30.84383
#
# Velocity S-wave (km/s) = 3.38642 3.97127 3.69045
# Velocity P-wave (km/s) = 5.44197 6.68572 6.09565
#
# Compressibility (1/GPa) = 0.03082546
#
# Stress axis : x y z
#
# Youngs Moduli (GPa) = 31.76227 89.25764 82.74320
#
# Poissons Ratio (x) = 0.73391 0.19409
# Poissons Ratio (y) = 0.26116 0.11631
# Poissons Ratio (z) = 0.07451 0.12547
#
# Static dielectric constant tensor:
#      x y z
#    x 4.218760 0.383710 -0.095960 
#    y 0.383710 4.231320 0.082550 
#    z -0.095960 0.082550 4.061700 
# 
# 
# High freq. dielectric constant tensor:
#      x y z
#    x 1.892100 0.022630 -0.002110 
#    y 0.022630 1.902250 0.008690 
#    z -0.002110 0.008690 1.903730 
# 
# From -- ./inp_files/223541.got.cif
#   From: 2010.06.25/outbox.cif.g09.slc.cpg/sg2_112_cif.got.tgz:223541.got - 2010.06.27 13:26:56.
