data_PCOD8025913
_publ_section_title
;
Structure prediction by ZEFSAII (Michael W. Deem and Ramdas Pophale) SiO2 
 PCOD8025913
Probable space group: P -1
;
_chemical_formula_sum "Si O2"
_cell_formula_units_Z 14
_cell_length_a 10.598851
_cell_length_b 10.700732
_cell_length_c 8.797367
_cell_angle_alpha 40.812045
_cell_angle_beta 104.474758
_cell_angle_gamma 123.676668
_cell_volume 515.576258
_symmetry_space_group_name_H-M "P -1"
_symmetry_group_IT_number 2
_symmetry_cell_setting 'triclinic'
loop_
_space_group_symop_operation_xyz
x,y,z
-x,-y,-z
loop_
_atom_site_type_symbol
_atom_site_label
_atom_site_fract_x
_atom_site_fract_y
_atom_site_fract_z
Si Si1 0.212765 0.517412 0.291466
Si Si2 0.505175 0.709639 0.383267
Si Si3 0.871883 0.134866 0.100255
Si Si4 0.162143 0.225455 0.261487
Si Si5 0.291255 0.991984 0.382103
Si Si6 0.619364 0.353513 0.254619
Si Si7 0.030739 0.748804 0.298686
O O1 0.382001 0.726847 0.223813
O O2 0.238526 0.391331 0.277948
O O3 0.111116 0.305891 0.579797
O O4 0.117220 0.624064 0.106137
O O5 0.500000 0.500000 0.500000
O O6 0.438852 0.663201 0.576666
O O7 0.685861 0.932180 0.232805
O O8 0.972074 0.109885 0.287559
O O9 0.962804 0.145949 0.961512
O O10 0.194279 0.023948 0.455735
O O11 0.256516 0.378399 0.999788
O O12 0.470370 0.227232 0.209324
O O13 0.290031 0.769300 0.632243
O O14 0.205124 0.940668 0.242194
O O15 0.000000 0.500000 0.500000
#
# Coordination Sequence:
#
# PCOD8025913 Si02
#       7
#     2   2   2   2   2   2   2
#     4  11  25  47  75 107 152 191 251 304 373 445
#     4  12  28  47  74 111 151 193 250 306 371 448
#     4  11  26  46  76 108 149 194 246 309 379 435
#     4  12  27  47  78 112 147 196 253 306 372 449
#     4  11  26  44  81 102 152 194 253 296 384 428
#     4  11  26  49  74 110 152 196 245 312 371 443
#     4  10  23  46  73 103 146 194 243 303 366 441
#
# _framework density 27.154083
#
# number of rings (size 3 to 8) (size 9 to 14) (size 15 to 20)
#    0.000    0.857    0.000    6.429   12.000    1.143 
#    0.000    0.000    0.000    0.000    0.000    0.000 
#    0.000    0.000    0.000    0.000    0.000    0.000 
#
# Total GULP energy -173566.856783 kJ/mol
# GULP energy per Si atom -12397.632627 kJ/mol
# Density = 2.709228 g / cm^3
# Si number density = 27.154083 Si / 1000 Ang^3
#
#
#
# Elastic Constant Matrix: (Units=GPa)
#
#
# Indices 1 2 3 4 5 6 
#
# 1 155.9631 55.4000 61.1593 7.8675 -5.4838 -8.2445
# 2 55.4000 160.5946 28.3131 7.1991 -13.5110 5.9558
# 3 61.1593 28.3131 70.8330 -1.1054 -34.4154 -12.3687
# 4 7.8675 7.1991 -1.1054 35.7414 -0.3345 -4.4346
# 5 -5.4838 -13.5110 -34.4154 -0.3345 41.7975 2.0624
# 6 -8.2445 5.9558 -12.3687 -4.4346 2.0624 61.5618
#
#
#
# Elastic Compliance Matrix: (Units=1/GPa)
#
#
# Indices 1 2 3 4 5 6 
#
# 1 0.014067 -0.002625 -0.018121 -0.003417 -0.013888 -0.001284
# 2 -0.002625 0.007378 0.000186 -0.001028 0.002244 -0.001177
# 3 -0.018121 0.000186 0.049511 0.006672 0.038172 0.006704
# 4 -0.003417 -0.001028 0.006672 0.029555 0.004804 0.002950
# 5 -0.013888 0.002244 0.038172 0.004804 0.054093 0.004126
# 6 -0.001284 -0.001177 0.006704 0.002950 0.004126 0.017607
#
#
# Mechanical properties :
#
#
# Convention : Reuss Voigt Hill
#
# Bulk Modulus (GPa) = 33.51780 75.23727 54.37753
# Shear Modulus (GPa) = 22.39360 43.98801 33.19081
#
# Velocity S-wave (km/s) = 2.87485 4.02922 3.49995
# Velocity P-wave (km/s) = 4.83633 7.02949 6.03340
#
# Compressibility (1/GPa) = 0.02983490
#
# Stress axis : x y z
#
# Youngs Moduli (GPa) = 71.09013 135.53488 20.19739
#
# Poissons Ratio (x) = 0.35582 0.36601
# Poissons Ratio (y) = 0.18663 -0.00376
# Poissons Ratio (z) = 1.28826 -0.02523
#
# Static dielectric constant tensor:
#      x y z
#    x 5.467570 0.133020 -0.208280 
#    y 0.133020 5.289470 -0.016020 
#    z -0.208280 -0.016020 5.295230 
# 
# 
# High freq. dielectric constant tensor:
#      x y z
#    x 2.112800 -0.000520 -0.010130 
#    y -0.000520 2.109770 -0.001370 
#    z -0.010130 -0.001370 2.089310 
# 
# From -- ./inp_files/256425.got.cif
#   From: 2010.06.25/outbox.cif.g09.slc.cpg/sg2_129_cif.got.tgz:256425.got - 2010.06.27 13:26:56.
