data_PCOD8025311
_publ_section_title
;
Structure prediction by ZEFSAII (Michael W. Deem and Ramdas Pophale) SiO2 
 PCOD8025311
Probable space group: P -1
;
_chemical_formula_sum "Si O2"
_cell_formula_units_Z 14
_cell_length_a 22.338809
_cell_length_b 8.924575
_cell_length_c 9.112251
_cell_angle_alpha 133.554388
_cell_angle_beta 46.540068
_cell_angle_gamma 148.938898
_cell_volume 655.738011
_symmetry_space_group_name_H-M "P -1"
_symmetry_group_IT_number 2
_symmetry_cell_setting 'triclinic'
loop_
_space_group_symop_operation_xyz
x,y,z
-x,-y,-z
loop_
_atom_site_type_symbol
_atom_site_label
_atom_site_fract_x
_atom_site_fract_y
_atom_site_fract_z
Si Si1 0.659706 0.838639 0.300515
Si Si2 0.028631 0.102391 0.353804
Si Si3 0.121062 0.845954 0.044246
Si Si4 0.615408 0.291256 0.083923
Si Si5 0.442718 0.713745 0.495832
Si Si6 0.776283 0.250333 0.650682
Si Si7 0.194448 0.072613 0.404743
O O1 0.646646 0.572349 0.161481
O O2 0.538748 0.705209 0.343009
O O3 0.676639 0.983214 0.525280
O O4 0.773790 0.085650 0.170306
O O5 0.113019 0.456759 0.431601
O O6 0.095114 0.019367 0.123945
O O7 0.000000 0.000000 0.500000
O O8 0.899987 0.924431 0.376717
O O9 0.159617 0.938184 0.209975
O O10 0.000000 0.500000 0.000000
O O11 0.596118 0.258890 0.267372
O O12 0.724001 0.334075 0.897704
O O13 0.500000 0.000000 0.000000
O O14 0.327750 0.409563 0.402053
O O15 0.500000 0.000000 0.500000
O O16 0.819429 0.143347 0.607784
#
# Coordination Sequence:
#
# PCOD8025311 Si02
#       7
#     2   2   2   2   2   2   2
#     4  12  25  48  72 106 147 190 241 289 369 425
#     4  10  23  44  73 102 141 189 237 291 361 419
#     4  11  26  46  74 106 145 191 238 301 364 426
#     4  12  25  46  72 103 145 192 238 285 364 430
#     4  12  29  45  73 109 146 190 240 301 355 430
#     4  12  24  47  75 107 145 189 238 303 354 432
#     4  11  26  46  70 107 150 184 243 300 356 427
#
# _framework density 21.349990999999999
#
# number of rings (size 3 to 8) (size 9 to 14) (size 15 to 20)
#    0.000    0.571    4.286    3.429   10.000    0.571 
#    0.000    2.143    0.000    0.000    0.000    0.000 
#    0.000    0.000    0.000    0.000    0.000    0.000 
#
# Total GULP energy -173625.131307 kJ/mol
# GULP energy per Si atom -12401.795093 kJ/mol
# Density = 2.130140 g / cm^3
# Si number density = 21.349991 Si / 1000 Ang^3
#
#
#
# Elastic Constant Matrix: (Units=GPa)
#
#
# Indices 1 2 3 4 5 6 
#
# 1 147.0454 71.2324 42.5060 2.2377 -12.0755 3.2712
# 2 71.2324 163.3970 43.3495 7.8121 3.6518 3.6481
# 3 42.5060 43.3495 99.9206 -4.5559 1.5483 12.7438
# 4 2.2377 7.8121 -4.5559 39.7398 4.6596 -1.1797
# 5 -12.0755 3.6518 1.5483 4.6596 40.4769 -0.7443
# 6 3.2712 3.6481 12.7438 -1.1797 -0.7443 47.7067
#
#
#
# Elastic Compliance Matrix: (Units=1/GPa)
#
#
# Indices 1 2 3 4 5 6 
#
# 1 0.009545 -0.003513 -0.002658 -0.000532 0.003334 0.000363
# 2 -0.003513 0.008334 -0.002182 -0.001506 -0.001541 0.000125
# 3 -0.002658 -0.002182 0.012583 0.002094 -0.001373 -0.002982
# 4 -0.000532 -0.001506 0.002094 0.026099 -0.003104 0.000189
# 5 0.003334 -0.001541 -0.001373 -0.003104 0.026260 0.000589
# 6 0.000363 0.000125 -0.002982 0.000189 0.000589 0.021737
#
#
# Mechanical properties :
#
#
# Convention : Reuss Voigt Hill
#
# Bulk Modulus (GPa) = 72.70374 80.50432 76.60403
# Shear Modulus (GPa) = 39.73010 42.46966 41.09988
#
# Velocity S-wave (km/s) = 4.31849 4.46490 4.39230
# Velocity P-wave (km/s) = 7.68069 8.02304 7.85373
#
# Compressibility (1/GPa) = 0.01375445
#
# Stress axis : x y z
#
# Youngs Moduli (GPa) = 104.77120 119.98999 79.47523
#
# Poissons Ratio (x) = 0.42151 0.21128
# Poissons Ratio (y) = 0.36804 0.17342
# Poissons Ratio (z) = 0.27853 0.26182
#
# Static dielectric constant tensor:
#      x y z
#    x 4.498690 0.179930 -0.141810 
#    y 0.179930 4.061900 -0.056400 
#    z -0.141810 -0.056400 4.365980 
# 
# 
# High freq. dielectric constant tensor:
#      x y z
#    x 1.846970 -0.001080 -0.014760 
#    y -0.001080 1.857050 -0.007130 
#    z -0.014760 -0.007130 1.839080 
# 
# From -- ./inp_files/185628.got.cif
#   From: 2010.06.25/outbox.cif.g09.slc.cpg/sg2_93_cif.got.tgz:185628.got - 2010.06.27 13:26:56.
