data_PCOD8025437
_publ_section_title
;
Structure prediction by ZEFSAII (Michael W. Deem and Ramdas Pophale) SiO2 
 PCOD8025437
Probable space group: P -1
;
_chemical_formula_sum "Si O2"
_cell_formula_units_Z 14
_cell_length_a 6.456956
_cell_length_b 6.380639
_cell_length_c 20.764918
_cell_angle_alpha 83.148621
_cell_angle_beta 53.768097
_cell_angle_gamma 109.276819
_cell_volume 593.254190
_symmetry_space_group_name_H-M "P -1"
_symmetry_group_IT_number 2
_symmetry_cell_setting 'triclinic'
loop_
_space_group_symop_operation_xyz
x,y,z
-x,-y,-z
loop_
_atom_site_type_symbol
_atom_site_label
_atom_site_fract_x
_atom_site_fract_y
_atom_site_fract_z
Si Si1 0.306044 0.872326 0.977400
Si Si2 0.618251 0.280355 0.809819
Si Si3 0.069674 0.010037 0.391963
Si Si4 0.876345 0.825221 0.293310
Si Si5 0.788589 0.599887 0.554419
Si Si6 0.373622 0.951013 0.753069
Si Si7 0.675370 0.438444 0.123806
O O1 0.389949 0.691869 0.929242
O O2 0.362316 0.089947 0.911514
O O3 0.960800 0.708661 0.064214
O O4 0.500000 0.000000 0.000000
O O5 0.612644 0.532916 0.809152
O O6 0.931880 0.291723 0.766775
O O7 0.541341 0.199893 0.753533
O O8 0.012049 0.974813 0.328077
O O9 0.812622 0.789196 0.487964
O O10 0.097412 0.261694 0.402964
O O11 0.392454 0.035396 0.343891
O O12 0.547000 0.610697 0.372644
O O13 0.891176 0.032051 0.234411
O O14 0.000000 0.500000 0.500000
O O15 0.266385 0.716573 0.827205
#
# Coordination Sequence:
#
# PCOD8025437 Si02
#       7
#     2   2   2   2   2   2   2
#     4  10  23  45  69 103 131 182 232 273 339 411
#     4  10  24  45  69 103 137 176 233 279 337 410
#     4  10  24  45  65 103 133 177 235 275 336 409
#     4  11  24  47  71 100 139 182 224 283 344 404
#     4  11  23  45  70  96 140 181 224 286 335 399
#     4  10  23  45  67 103 139 176 229 282 338 405
#     4  10  23  47  70  96 143 177 219 295 332 394
#
# _framework density 23.598655000000001
#
# number of rings (size 3 to 8) (size 9 to 14) (size 15 to 20)
#    0.000    1.714    1.429    0.857    4.000    1.143 
#   18.000    0.000    0.000    0.000    0.000    0.000 
#    0.000    0.000    0.000    0.000    0.000    0.000 
#
# Total GULP energy -173507.639336 kJ/mol
# GULP energy per Si atom -12393.402810 kJ/mol
# Density = 2.354494 g / cm^3
# Si number density = 23.598655 Si / 1000 Ang^3
#
#
#
# Elastic Constant Matrix: (Units=GPa)
#
#
# Indices 1 2 3 4 5 6 
#
# 1 130.5118 75.5573 44.9053 15.4015 -6.1328 -21.4408
# 2 75.5573 137.8701 44.9335 32.2274 -9.3026 -9.9432
# 3 44.9053 44.9335 95.2954 11.1015 -9.3052 -10.6660
# 4 15.4015 32.2274 11.1015 38.0133 5.2348 -5.4046
# 5 -6.1328 -9.3026 -9.3052 5.2348 33.4724 4.5777
# 6 -21.4408 -9.9432 -10.6660 -5.4046 4.5777 43.4189
#
#
#
# Elastic Compliance Matrix: (Units=1/GPa)
#
#
# Indices 1 2 3 4 5 6 
#
# 1 0.012714 -0.006178 -0.002880 0.001712 -0.001069 0.004482
# 2 -0.006178 0.013648 -0.002316 -0.009195 0.003733 -0.002032
# 3 -0.002880 -0.002316 0.013419 -0.001010 0.002588 0.000945
# 4 0.001712 -0.009195 -0.001010 0.035426 -0.008584 0.003806
# 5 -0.001069 0.003733 0.002588 -0.008584 0.033273 -0.003614
# 6 0.004482 -0.002032 0.000945 0.003806 -0.003614 0.025866
#
#
# Mechanical properties :
#
#
# Convention : Reuss Voigt Hill
#
# Bulk Modulus (GPa) = 58.71007 77.16330 67.93668
# Shear Modulus (GPa) = 30.71768 36.19966 33.45867
#
# Velocity S-wave (km/s) = 3.61178 3.92084 3.76948
# Velocity P-wave (km/s) = 6.50583 7.29839 6.91348
#
# Compressibility (1/GPa) = 0.01703285
#
# Stress axis : x y z
#
# Youngs Moduli (GPa) = 78.65517 73.26914 74.52037
#
# Poissons Ratio (x) = 0.45265 0.21463
# Poissons Ratio (y) = 0.48593 0.17259
# Poissons Ratio (z) = 0.22654 0.16969
#
# Static dielectric constant tensor:
#      x y z
#    x 4.129820 -0.074450 -0.101320 
#    y -0.074450 4.406820 0.102000 
#    z -0.101320 0.102000 4.542210 
# 
# 
# High freq. dielectric constant tensor:
#      x y z
#    x 1.911860 -0.003610 -0.001430 
#    y -0.003610 1.946750 0.004550 
#    z -0.001430 0.004550 1.949050 
# 
# From -- ./inp_files/580988.got.cif
#   From: 2010.06.25/outbox.cif.g09.slc.cpg/sg2_291_cif.got.tgz:580988.got - 2010.06.27 13:26:56.
