data_PCOD8025128
_publ_section_title
;
Structure prediction by ZEFSAII (Michael W. Deem and Ramdas Pophale) SiO2 
 PCOD8025128
Probable space group: P -1
;
_chemical_formula_sum "Si O2"
_cell_formula_units_Z 16
_cell_length_a 9.941914
_cell_length_b 11.966322
_cell_length_c 8.831542
_cell_angle_alpha 64.315149
_cell_angle_beta 52.099530
_cell_angle_gamma 54.608805
_cell_volume 670.924220
_symmetry_space_group_name_H-M "P -1"
_symmetry_group_IT_number 2
_symmetry_cell_setting 'triclinic'
loop_
_space_group_symop_operation_xyz
x,y,z
-x,-y,-z
loop_
_atom_site_type_symbol
_atom_site_label
_atom_site_fract_x
_atom_site_fract_y
_atom_site_fract_z
Si Si1 0.795266 0.739686 0.909062
Si Si2 0.416300 0.882911 0.924158
Si Si3 0.770961 0.215457 0.135019
Si Si4 0.626144 0.822239 0.282000
Si Si5 0.489795 0.395672 0.443799
Si Si6 0.075062 0.034005 0.274114
Si Si7 0.974929 0.701376 0.299901
Si Si8 0.055563 0.555924 0.613624
O O1 0.608249 0.760998 0.929063
O O2 0.832566 0.871151 0.787024
O O3 0.983811 0.607293 0.802395
O O4 0.768552 0.719720 0.116450
O O5 0.365610 0.841608 0.818985
O O6 0.457143 0.018355 0.801601
O O7 0.245888 0.906083 0.146272
O O8 0.644571 0.361755 0.222867
O O9 0.908863 0.103636 0.224063
O O10 0.891609 0.241431 0.905003
O O11 0.469529 0.762206 0.440532
O O12 0.755553 0.799372 0.354357
O O13 0.500000 0.500000 0.500000
O O14 0.278169 0.468347 0.486809
O O15 0.000000 0.000000 0.500000
O O16 0.990340 0.696345 0.475001
O O17 0.045413 0.540260 0.304398
#
# Coordination Sequence:
#
# PCOD8025128 Si02
#       8
#     2   2   2   2   2   2   2   2
#     4  11  24  44  73  98 138 191 226 285 350 409
#     4  11  26  44  69 108 139 182 231 285 354 418
#     4  12  26  44  72 106 140 185 226 297 350 403
#     4  10  23  45  69  96 142 182 232 279 347 427
#     4  11  27  44  70 103 136 183 243 285 344 413
#     4  11  25  45  69 103 143 182 229 283 349 422
#     4  10  23  44  69  93 140 177 238 277 352 401
#     4  10  25  45  68  97 135 185 233 287 342 409
#
# _framework density 23.847702000000002
#
# number of rings (size 3 to 8) (size 9 to 14) (size 15 to 20)
#    0.000    1.250    2.500    2.625   12.250    3.000 
#    0.000    0.000    0.000    0.000    0.000    0.000 
#    0.000    0.000    0.000    0.000    0.000    0.000 
#
# Total GULP energy -198268.077658 kJ/mol
# GULP energy per Si atom -12391.754854 kJ/mol
# Density = 2.379342 g / cm^3
# Si number density = 23.847702 Si / 1000 Ang^3
#
#
#
# Elastic Constant Matrix: (Units=GPa)
#
#
# Indices 1 2 3 4 5 6 
#
# 1 94.1230 3.8282 4.0188 -4.2070 -5.9165 9.3581
# 2 3.8282 44.5312 -0.2479 11.5850 -3.7541 5.5251
# 3 4.0188 -0.2479 53.1828 -11.4302 -5.2281 8.6625
# 4 -4.2070 11.5850 -11.4302 43.6929 -1.4173 1.0376
# 5 -5.9165 -3.7541 -5.2281 -1.4173 30.3312 1.7386
# 6 9.3581 5.5251 8.6625 1.0376 1.7386 40.1384
#
#
#
# Elastic Compliance Matrix: (Units=1/GPa)
#
#
# Indices 1 2 3 4 5 6 
#
# 1 0.011126 -0.000812 0.000127 0.001458 0.002312 -0.002647
# 2 -0.000812 0.024858 -0.000483 -0.006635 0.002701 -0.003074
# 3 0.000127 -0.000483 0.021281 0.005959 0.004192 -0.004892
# 4 0.001458 -0.006635 0.005959 0.026439 0.001810 -0.001475
# 5 0.002312 0.002701 0.004192 0.001810 0.034755 -0.003368
# 6 -0.002647 -0.003074 -0.004892 -0.001475 -0.003368 0.027194
#
#
# Mechanical properties :
#
#
# Convention : Reuss Voigt Hill
#
# Bulk Modulus (GPa) = 18.20459 23.00392 20.60426
# Shear Modulus (GPa) = 30.06668 35.11504 32.59086
#
# Velocity S-wave (km/s) = 3.55460 3.84144 3.70080
# Velocity P-wave (km/s) = 4.94946 5.41689 5.18844
#
# Compressibility (1/GPa) = 0.05493119
#
# Stress axis : x y z
#
# Youngs Moduli (GPa) = 89.88246 40.22777 46.99058
#
# Poissons Ratio (x) = 0.03265 -0.00598
# Poissons Ratio (y) = 0.07295 0.02267
# Poissons Ratio (z) = -0.01143 0.01941
#
# Static dielectric constant tensor:
#      x y z
#    x 4.400160 0.151860 -0.103050 
#    y 0.151860 4.211920 0.196730 
#    z -0.103050 0.196730 5.018540 
# 
# 
# High freq. dielectric constant tensor:
#      x y z
#    x 1.949170 0.004070 0.001900 
#    y 0.004070 1.930880 0.005970 
#    z 0.001900 0.005970 1.951970 
# 
# From -- ./inp_files/185715.got.cif
#   From: 2010.06.25/outbox.cif.g09.slc.cpg/sg2_93_cif.got.tgz:185715.got - 2010.06.27 13:26:56.
