data_PCOD8025076
_publ_section_title
;
Structure prediction by ZEFSAII (Michael W. Deem and Ramdas Pophale) SiO2 
 PCOD8025076
Probable space group: P -1
;
_chemical_formula_sum "Si O2"
_cell_formula_units_Z 16
_cell_length_a 6.162328
_cell_length_b 17.521078
_cell_length_c 9.714140
_cell_angle_alpha 44.840213
_cell_angle_beta 94.923400
_cell_angle_gamma 97.481774
_cell_volume 733.243758
_symmetry_space_group_name_H-M "P -1"
_symmetry_group_IT_number 2
_symmetry_cell_setting 'triclinic'
loop_
_space_group_symop_operation_xyz
x,y,z
-x,-y,-z
loop_
_atom_site_type_symbol
_atom_site_label
_atom_site_fract_x
_atom_site_fract_y
_atom_site_fract_z
Si Si1 0.209271 0.483662 0.130580
Si Si2 0.973739 0.096390 0.681302
Si Si3 0.596987 0.635936 0.049312
Si Si4 0.719753 0.069105 0.972380
Si Si5 0.284653 0.764946 0.002329
Si Si6 0.698000 0.743485 0.662403
Si Si7 0.988989 0.551626 0.287094
Si Si8 0.365690 0.894416 0.567645
O O1 0.397244 0.585304 0.004047
O O2 0.337472 0.377866 0.248100
O O3 0.122430 0.479310 0.287245
O O4 0.000000 0.500000 0.000000
O O5 0.109980 0.202189 0.491571
O O6 0.845691 0.124984 0.776160
O O7 0.811042 0.054945 0.603031
O O8 0.127866 0.003889 0.840744
O O9 0.500805 0.701056 0.085780
O O10 0.735798 0.543810 0.235698
O O11 0.755234 0.719949 0.855732
O O12 0.662283 0.160242 0.958471
O O13 0.500000 0.000000 0.000000
O O14 0.074881 0.679675 0.128426
O O15 0.254941 0.827130 0.776336
O O16 0.496097 0.818648 0.568123
O O17 0.000000 0.500000 0.500000
O O18 0.500000 0.000000 0.500000
#
# Coordination Sequence:
#
# PCOD8025076 Si02
#       8
#     2   2   2   2   2   2   2   2
#     4  11  24  42  69  99 136 173 225 282 330 401
#     4  11  25  42  69  98 134 171 224 279 335 407
#     4  10  23  44  68  97 137 175 222 280 333 398
#     4  11  25  48  66  97 139 179 222 276 340 407
#     4  10  24  43  69  95 134 179 223 278 340 403
#     4  11  23  39  70 101 127 173 225 279 339 386
#     4  11  25  44  64  98 138 180 225 270 340 408
#     4  11  24  44  69 102 133 172 227 282 342 407
#
# _framework density 21.820844999999998
#
# number of rings (size 3 to 8) (size 9 to 14) (size 15 to 20)
#    0.000    1.250    1.250    3.375    5.250    8.000 
#    4.500    0.000    0.000    0.000    0.000    0.000 
#    0.000    0.000    0.000    0.000    0.000    0.000 
#
# Total GULP energy -198237.509468 kJ/mol
# GULP energy per Si atom -12389.844342 kJ/mol
# Density = 2.177118 g / cm^3
# Si number density = 21.820845 Si / 1000 Ang^3
#
#
#
# Elastic Constant Matrix: (Units=GPa)
#
#
# Indices 1 2 3 4 5 6 
#
# 1 115.2707 63.0441 74.6764 9.9593 -5.2487 -4.6200
# 2 63.0441 153.9704 46.9519 4.8253 -7.1045 -20.7125
# 3 74.6764 46.9519 147.4227 11.5211 -9.7784 8.0745
# 4 9.9593 4.8253 11.5211 30.7849 -2.3441 0.7548
# 5 -5.2487 -7.1045 -9.7784 -2.3441 41.8998 5.4213
# 6 -4.6200 -20.7125 8.0745 0.7548 5.4213 34.2522
#
#
#
# Elastic Compliance Matrix: (Units=1/GPa)
#
#
# Indices 1 2 3 4 5 6 
#
# 1 0.015229 -0.004098 -0.006356 -0.001976 -0.000537 0.001203
# 2 -0.004098 0.009238 -0.001163 0.000192 0.000108 0.005286
# 3 -0.006356 -0.001163 0.010872 -0.001568 0.002027 -0.004410
# 4 -0.001976 0.000192 -0.001568 0.033805 0.001407 -0.000749
# 5 -0.000537 0.000108 0.002027 0.001407 0.024947 -0.004464
# 6 0.001203 0.005286 -0.004410 -0.000749 -0.004464 0.034317
#
#
# Mechanical properties :
#
#
# Convention : Reuss Voigt Hill
#
# Bulk Modulus (GPa) = 82.62449 87.33428 84.97939
# Shear Modulus (GPa) = 32.11795 36.85348 34.48571
#
# Velocity S-wave (km/s) = 3.84069 4.11410 3.97974
# Velocity P-wave (km/s) = 7.59045 7.91694 7.75541
#
# Compressibility (1/GPa) = 0.01210295
#
# Stress axis : x y z
#
# Youngs Moduli (GPa) = 65.66524 108.25155 91.98170
#
# Poissons Ratio (x) = 0.44366 0.58462
# Poissons Ratio (y) = 0.26912 0.10701
# Poissons Ratio (z) = 0.41736 0.12594
#
# Static dielectric constant tensor:
#      x y z
#    x 4.470460 -0.225210 -0.078350 
#    y -0.225210 3.951640 0.012710 
#    z -0.078350 0.012710 4.082510 
# 
# 
# High freq. dielectric constant tensor:
#      x y z
#    x 1.866290 -0.014780 -0.012110 
#    y -0.014780 1.855230 0.003690 
#    z -0.012110 0.003690 1.860310 
# 
# From -- ./inp_files/138591.got.cif
#   From: 2010.06.25/outbox.cif.g09.slc.cpg/sg2_70_cif.got.tgz:138591.got - 2010.06.27 13:26:56.
