data_PCOD8025017
_publ_section_title
;
Structure prediction by ZEFSAII (Michael W. Deem and Ramdas Pophale) SiO2 
 PCOD8025017
Probable space group: P -1
;
_chemical_formula_sum "Si O2"
_cell_formula_units_Z 12
_cell_length_a 6.429112
_cell_length_b 11.435512
_cell_length_c 8.589573
_cell_angle_alpha 61.535889
_cell_angle_beta 101.077263
_cell_angle_gamma 108.732592
_cell_volume 525.180103
_symmetry_space_group_name_H-M "P -1"
_symmetry_group_IT_number 2
_symmetry_cell_setting 'triclinic'
loop_
_space_group_symop_operation_xyz
x,y,z
-x,-y,-z
loop_
_atom_site_type_symbol
_atom_site_label
_atom_site_fract_x
_atom_site_fract_y
_atom_site_fract_z
Si Si1 0.321037 0.199855 0.568553
Si Si2 0.431501 0.566283 0.141904
Si Si3 0.695404 0.721784 0.820588
Si Si4 0.148784 0.395995 0.622860
Si Si5 0.079739 0.947644 0.885337
Si Si6 0.731895 0.235689 0.805770
O O1 0.351843 0.196264 0.389954
O O2 0.254685 0.339739 0.522666
O O3 0.553377 0.191886 0.673818
O O4 0.138968 0.066025 0.688610
O O5 0.274662 0.426424 0.137337
O O6 0.652935 0.538925 0.269345
O O7 0.293292 0.623041 0.212480
O O8 0.497312 0.683409 0.941718
O O9 0.906745 0.815458 0.873960
O O10 0.000000 0.500000 0.500000
O O11 0.979278 0.262696 0.757729
O O12 0.291008 0.890247 0.995726
O O13 0.000000 0.000000 0.000000
#
# Coordination Sequence:
#
# PCOD8025017 Si02
#       6
#     2   2   2   2   2   2
#     4  11  24  42  66 102 132 167 223 269 320 390
#     4  10  23  44  67  97 136 169 218 268 331 385
#     4  11  23  44  66  98 138 165 215 281 321 381
#     4  11  21  41  70  97 130 174 218 269 323 391
#     4  12  23  46  69  91 134 180 218 261 330 395
#     4  11  22  44  70  94 127 181 215 262 328 391
#
# _framework density 22.849305000000001
#
# number of rings (size 3 to 8) (size 9 to 14) (size 15 to 20)
#    0.000    1.000    3.333    4.000    0.000    3.333 
#    9.000    1.667    0.000    0.000    0.000    0.000 
#    0.000    0.000    0.000    0.000    0.000    0.000 
#
# Total GULP energy -148717.584678 kJ/mol
# GULP energy per Si atom -12393.132056 kJ/mol
# Density = 2.279730 g / cm^3
# Si number density = 22.849305 Si / 1000 Ang^3
#
#
#
# Elastic Constant Matrix: (Units=GPa)
#
#
# Indices 1 2 3 4 5 6 
#
# 1 65.7705 40.3096 27.7830 12.4494 12.1178 5.2119
# 2 40.3096 119.5551 52.8207 10.9311 17.2441 23.8282
# 3 27.7830 52.8207 142.2301 7.9667 9.3414 6.0430
# 4 12.4494 10.9311 7.9667 39.6282 -5.0523 0.7507
# 5 12.1178 17.2441 9.3414 -5.0523 33.1760 -12.9708
# 6 5.2119 23.8282 6.0430 0.7507 -12.9708 24.3999
#
#
#
# Elastic Compliance Matrix: (Units=1/GPa)
#
#
# Indices 1 2 3 4 5 6 
#
# 1 0.021255 -0.003815 -0.001671 -0.006225 -0.008003 -0.004464
# 2 -0.003815 0.020746 -0.004047 -0.005776 -0.020540 -0.029184
# 3 -0.001671 -0.004047 0.008640 0.000031 0.001431 0.002929
# 4 -0.006225 -0.005776 0.000031 0.030481 0.015483 0.014256
# 5 -0.008003 -0.020540 0.001431 0.015483 0.068019 0.057096
# 6 -0.004464 -0.029184 0.002929 0.014256 0.057096 0.099625
#
#
# Mechanical properties :
#
#
# Convention : Reuss Voigt Hill
#
# Bulk Modulus (GPa) = 31.67067 63.26471 47.46769
# Shear Modulus (GPa) = 17.96258 33.21697 25.58978
#
# Velocity S-wave (km/s) = 2.80685 3.81693 3.35018
# Velocity P-wave (km/s) = 4.93916 6.86828 5.98199
#
# Compressibility (1/GPa) = 0.03157495
#
# Stress axis : x y z
#
# Youngs Moduli (GPa) = 47.04783 48.20280 115.74068
#
# Poissons Ratio (x) = 0.18389 0.19342
# Poissons Ratio (y) = 0.17948 0.46837
# Poissons Ratio (z) = 0.07863 0.19506
#
# Static dielectric constant tensor:
#      x y z
#    x 3.916590 0.108380 -0.194840 
#    y 0.108380 4.132040 -0.139850 
#    z -0.194840 -0.139850 4.471420 
# 
# 
# High freq. dielectric constant tensor:
#      x y z
#    x 1.882060 0.009530 -0.011400 
#    y 0.009530 1.906090 -0.008310 
#    z -0.011400 -0.008310 1.920420 
# 
# From -- ./inp_files/21751.got.cif
#   From: 2010.06.25/outbox.cif.g09.slc.cpg/sg2_11_cif.got.tgz:21751.got - 2010.06.27 13:26:56.
