data_PCOD8025642
_publ_section_title
;
Structure prediction by ZEFSAII (Michael W. Deem and Ramdas Pophale) SiO2 
 PCOD8025642
Probable space group: P -1
;
_chemical_formula_sum "Si O2"
_cell_formula_units_Z 16
_cell_length_a 15.566446
_cell_length_b 16.611526
_cell_length_c 8.246703
_cell_angle_alpha 129.872902
_cell_angle_beta 49.228008
_cell_angle_gamma 153.579565
_cell_volume 708.492997
_symmetry_space_group_name_H-M "P -1"
_symmetry_group_IT_number 2
_symmetry_cell_setting 'triclinic'
loop_
_space_group_symop_operation_xyz
x,y,z
-x,-y,-z
loop_
_atom_site_type_symbol
_atom_site_label
_atom_site_fract_x
_atom_site_fract_y
_atom_site_fract_z
Si Si1 0.098323 0.734474 0.600859
Si Si2 0.733051 0.356875 0.706842
Si Si3 0.782313 0.522140 0.149880
Si Si4 0.633263 0.808567 0.642711
Si Si5 0.337187 0.380090 0.808290
Si Si6 0.915928 0.164020 0.573205
Si Si7 0.287873 0.078216 0.941813
Si Si8 0.225706 0.253188 0.135545
O O1 0.240994 0.746850 0.492526
O O2 0.867964 0.526988 0.636533
O O3 0.139062 0.793590 0.440520
O O4 0.147994 0.870871 0.830757
O O5 0.505496 0.217078 0.782508
O O6 0.809147 0.436992 0.900707
O O7 0.605350 0.371448 0.302504
O O8 0.724111 0.565451 0.146069
O O9 0.982266 0.699584 0.226185
O O10 0.716039 0.760186 0.417183
O O11 0.711838 0.886030 0.826949
O O12 0.711161 0.959111 0.623953
O O13 0.570414 0.560293 0.788366
O O14 0.216518 0.285267 0.002931
O O15 0.052949 0.176341 0.350076
O O16 0.199101 0.106572 0.981305
#
# Coordination Sequence:
#
# PCOD8025642 Si02
#       8
#     2   2   2   2   2   2   2   2
#     4  11  25  43  65  99 121 161 221 260 313 369
#     4  10  23  45  71  88 122 168 213 266 313 362
#     4  11  22  43  63  89 130 172 207 254 317 371
#     4  11  23  39  61  93 129 170 205 245 319 382
#     4  11  21  40  62  92 128 164 214 247 308 383
#     4  12  26  39  63  97 133 164 204 265 307 380
#     4  11  23  44  66  92 128 168 209 260 313 375
#     4  11  23  38  66  96 126 167 209 256 315 371
#
# _framework density 22.583143
#
# number of rings (size 3 to 8) (size 9 to 14) (size 15 to 20)
#    0.000    1.000    3.750    3.750    1.750    6.500 
#    0.000    2.500    0.000    0.000    0.000    0.000 
#    0.000    0.000    0.000    0.000    0.000    0.000 
#
# Total GULP energy -198487.064182 kJ/mol
# GULP energy per Si atom -12405.441511 kJ/mol
# Density = 2.253174 g / cm^3
# Si number density = 22.583143 Si / 1000 Ang^3
#
#
#
# Elastic Constant Matrix: (Units=GPa)
#
#
# Indices 1 2 3 4 5 6 
#
# 1 62.4639 30.9507 15.6067 8.3946 7.5733 -19.4375
# 2 30.9507 112.1185 18.9353 10.4038 -1.2481 -30.4211
# 3 15.6067 18.9353 68.9247 21.4191 8.2945 -9.9106
# 4 8.3946 10.4038 21.4191 38.7207 -2.6452 4.1860
# 5 7.5733 -1.2481 8.2945 -2.6452 33.8927 1.4880
# 6 -19.4375 -30.4211 -9.9106 4.1860 1.4880 26.2056
#
#
#
# Elastic Compliance Matrix: (Units=1/GPa)
#
#
# Indices 1 2 3 4 5 6 
#
# 1 0.024010 -0.001099 0.000803 -0.007833 -0.007025 0.018487
# 2 -0.001099 0.014237 0.000648 -0.005814 -0.000585 0.016919
# 3 0.000803 0.000648 0.020925 -0.013671 -0.006863 0.011835
# 4 -0.007833 -0.005814 -0.013671 0.039931 0.009079 -0.024624
# 5 -0.007025 -0.000585 -0.006863 0.009079 0.033962 -0.011864
# 6 0.018487 0.016919 0.011835 -0.024624 -0.011864 0.080595
#
#
# Mechanical properties :
#
#
# Convention : Reuss Voigt Hill
#
# Bulk Modulus (GPa) = 16.70136 41.61028 29.15582
# Shear Modulus (GPa) = 21.46701 31.63145 26.54923
#
# Velocity S-wave (km/s) = 3.08649 3.74661 3.43245
# Velocity P-wave (km/s) = 4.48480 6.09766 5.35233
#
# Compressibility (1/GPa) = 0.05987536
#
# Stress axis : x y z
#
# Youngs Moduli (GPa) = 41.64864 70.24124 47.78980
#
# Poissons Ratio (x) = 0.07720 -0.03838
# Poissons Ratio (y) = 0.04577 -0.03095
# Poissons Ratio (z) = -0.03344 -0.04549
#
# Static dielectric constant tensor:
#      x y z
#    x 3.799210 -0.058120 0.130340 
#    y -0.058120 4.398920 0.091290 
#    z 0.130340 0.091290 4.225960 
# 
# 
# High freq. dielectric constant tensor:
#      x y z
#    x 1.864550 -0.006710 0.008100 
#    y -0.006710 1.910400 0.003700 
#    z 0.008100 0.003700 1.898600 
# 
# From -- ./inp_files/315826.got.cif
#   From: 2010.06.25/outbox.cif.g09.slc.cpg/sg2_158_cif.got.tgz:315826.got - 2010.06.27 13:26:56.
