data_PCOD8025086
_publ_section_title
;
Structure prediction by ZEFSAII (Michael W. Deem and Ramdas Pophale) SiO2 
 PCOD8025086
Probable space group: P -1
;
_chemical_formula_sum "Si O2"
_cell_formula_units_Z 14
_cell_length_a 11.852975
_cell_length_b 6.527417
_cell_length_c 11.033236
_cell_angle_alpha 112.519232
_cell_angle_beta 112.929262
_cell_angle_gamma 48.772836
_cell_volume 581.390310
_symmetry_space_group_name_H-M "P -1"
_symmetry_group_IT_number 2
_symmetry_cell_setting 'triclinic'
loop_
_space_group_symop_operation_xyz
x,y,z
-x,-y,-z
loop_
_atom_site_type_symbol
_atom_site_label
_atom_site_fract_x
_atom_site_fract_y
_atom_site_fract_z
Si Si1 0.517444 0.210312 0.128869
Si Si2 0.768707 0.276238 0.245938
Si Si3 0.963567 0.304456 0.135574
Si Si4 0.191198 0.727948 0.154724
Si Si5 0.717287 0.684943 0.504419
Si Si6 0.536157 0.207159 0.416831
Si Si7 0.038822 0.698709 0.303598
O O1 0.652691 0.215145 0.131079
O O2 0.359946 0.518595 0.125266
O O3 0.559283 0.128360 0.267951
O O4 0.500000 0.000000 0.000000
O O5 0.832168 0.343083 0.173996
O O6 0.676394 0.540415 0.355595
O O7 0.906133 0.026003 0.329068
O O8 0.953598 0.577839 0.187263
O O9 0.936169 0.259783 0.976256
O O10 0.133564 0.046741 0.196434
O O11 0.177330 0.639585 0.263369
O O12 0.600890 0.796963 0.593173
O O13 0.890063 0.453190 0.571669
O O14 0.693107 0.953625 0.492451
O O15 0.500000 0.500000 0.500000
#
# Coordination Sequence:
#
# PCOD8025086 Si02
#       7
#     2   2   2   2   2   2   2
#     4  12  26  46  75 102 144 184 233 301 358 407
#     4  11  26  44  68 110 144 177 237 298 345 423
#     4  10  24  43  68 102 140 184 233 289 355 422
#     4  10  23  44  68  98 137 186 235 288 352 423
#     4  11  25  43  73 102 138 191 237 283 358 417
#     4  11  25  47  72 103 145 183 239 293 348 423
#     4  11  23  44  72  99 140 187 236 284 357 415
#
# _framework density 24.080209
#
# number of rings (size 3 to 8) (size 9 to 14) (size 15 to 20)
#    0.000    1.143    2.857    1.714    6.000    3.429 
#    0.000    0.000    0.000    0.000    0.000    0.000 
#    0.000    0.000    0.000    0.000    0.000    0.000 
#
# Total GULP energy -173566.393221 kJ/mol
# GULP energy per Si atom -12397.599516 kJ/mol
# Density = 2.402540 g / cm^3
# Si number density = 24.080209 Si / 1000 Ang^3
#
#
#
# Elastic Constant Matrix: (Units=GPa)
#
#
# Indices 1 2 3 4 5 6 
#
# 1 59.8161 28.8999 -4.2899 7.1443 -2.6090 -12.3266
# 2 28.8999 141.5134 31.5478 -10.6657 -3.3896 1.4551
# 3 -4.2899 31.5478 76.5117 -3.1508 -5.7552 5.9689
# 4 7.1443 -10.6657 -3.1508 42.2865 -3.2639 1.5483
# 5 -2.6090 -3.3896 -5.7552 -3.2639 29.1490 0.6791
# 6 -12.3266 1.4551 5.9689 1.5483 0.6791 36.5398
#
#
#
# Elastic Compliance Matrix: (Units=1/GPa)
#
#
# Indices 1 2 3 4 5 6 
#
# 1 0.021717 -0.005483 0.002788 -0.005024 0.001124 0.007281
# 2 -0.005483 0.009302 -0.003866 0.003064 0.000211 -0.001722
# 3 0.002788 -0.003866 0.015142 -0.000048 0.002817 -0.001429
# 4 -0.005024 0.003064 -0.000048 0.025593 0.002831 -0.002946
# 5 0.001124 0.000211 0.002817 0.002831 0.035325 -0.000866
# 6 0.007281 -0.001722 -0.001429 -0.002946 -0.000866 0.030267
#
#
# Mechanical properties :
#
#
# Convention : Reuss Voigt Hill
#
# Bulk Modulus (GPa) = 30.26874 43.35076 36.80975
# Shear Modulus (GPa) = 30.96361 36.37395 33.66878
#
# Velocity S-wave (km/s) = 3.58977 3.89077 3.74330
# Velocity P-wave (km/s) = 5.45703 6.18271 5.83117
#
# Compressibility (1/GPa) = 0.03303739
#
# Stress axis : x y z
#
# Youngs Moduli (GPa) = 46.04790 107.50553 66.04194
#
# Poissons Ratio (x) = 0.58946 -0.18413
# Poissons Ratio (y) = 0.25249 0.25535
# Poissons Ratio (z) = -0.12839 0.41566
#
# Static dielectric constant tensor:
#      x y z
#    x 4.043440 0.038810 -0.086280 
#    y 0.038810 4.661260 -0.116960 
#    z -0.086280 -0.116960 4.224310 
# 
# 
# High freq. dielectric constant tensor:
#      x y z
#    x 1.936660 -0.000860 -0.005710 
#    y -0.000860 1.978350 -0.004730 
#    z -0.005710 -0.004730 1.950020 
# 
# From -- ./inp_files/131732.got.cif
#   From: 2010.06.25/outbox.cif.g09.slc.cpg/sg2_66_cif.got.tgz:131732.got - 2010.06.27 13:26:56.
