data_PCOD8025061
_publ_section_title
;
Structure prediction by ZEFSAII (Michael W. Deem and Ramdas Pophale) SiO2 
 PCOD8025061
Probable space group: P -1
;
_chemical_formula_sum "Si O2"
_cell_formula_units_Z 12
_cell_length_a 11.865031
_cell_length_b 8.865837
_cell_length_c 9.827984
_cell_angle_alpha 74.787192
_cell_angle_beta 50.876159
_cell_angle_gamma 47.783139
_cell_volume 570.018040
_symmetry_space_group_name_H-M "P -1"
_symmetry_group_IT_number 2
_symmetry_cell_setting 'triclinic'
loop_
_space_group_symop_operation_xyz
x,y,z
-x,-y,-z
loop_
_atom_site_type_symbol
_atom_site_label
_atom_site_fract_x
_atom_site_fract_y
_atom_site_fract_z
Si Si1 0.010853 0.321031 0.692234
Si Si2 0.465399 0.498745 0.369191
Si Si3 0.815105 0.022011 0.147412
Si Si4 0.600698 0.683256 0.048456
Si Si5 0.942158 0.353490 0.430952
Si Si6 0.715311 0.933734 0.971737
O O1 0.988195 0.270343 0.569943
O O2 0.096903 0.433013 0.598506
O O3 0.801774 0.461521 0.893976
O O4 0.166111 0.099674 0.705019
O O5 0.500000 0.500000 0.500000
O O6 0.613743 0.263406 0.251949
O O7 0.490016 0.643929 0.239000
O O8 0.244968 0.601246 0.492212
O O9 0.812294 0.914160 0.043098
O O10 0.000000 0.000000 0.000000
O O11 0.641192 0.810021 0.074944
O O12 0.467694 0.821230 0.985530
O O13 0.127548 0.167905 0.244531
#
# Coordination Sequence:
#
# PCOD8025061 Si02
#       6
#     2   2   2   2   2   2
#     4  10  23  44  68  95 132 171 213 264 320 389
#     4  12  27  42  65  99 133 166 218 271 320 374
#     4  12  25  42  68  97 128 171 221 261 322 379
#     4  10  23  45  68  92 133 172 216 256 326 387
#     4  10  24  43  67  98 131 169 213 267 324 373
#     4  10  24  44  71  94 126 177 213 262 321 386
#
# _framework density 21.051966
#
# number of rings (size 3 to 8) (size 9 to 14) (size 15 to 20)
#    0.000    1.333    1.667    2.000    7.000    5.333 
#    0.000    0.000    0.000    0.000    0.000    0.000 
#    0.000    0.000    0.000    0.000    0.000    0.000 
#
# Total GULP energy -148891.850242 kJ/mol
# GULP energy per Si atom -12407.654187 kJ/mol
# Density = 2.100405 g / cm^3
# Si number density = 21.051966 Si / 1000 Ang^3
#
#
#
# Elastic Constant Matrix: (Units=GPa)
#
#
# Indices 1 2 3 4 5 6 
#
# 1 161.3534 32.9388 43.1386 -19.4653 5.7342 -1.6578
# 2 32.9388 90.6602 13.7888 -10.3834 1.5833 -4.3993
# 3 43.1386 13.7888 47.9377 -14.3915 0.2181 8.3180
# 4 -19.4653 -10.3834 -14.3915 33.5348 -2.7114 0.8117
# 5 5.7342 1.5833 0.2181 -2.7114 46.9670 -2.4474
# 6 -1.6578 -4.3993 8.3180 0.8117 -2.4474 20.4751
#
#
#
# Elastic Compliance Matrix: (Units=1/GPa)
#
#
# Indices 1 2 3 4 5 6 
#
# 1 0.008792 -0.001727 -0.007641 0.001149 -0.000741 0.003311
# 2 -0.001727 0.012333 -0.001991 0.001890 0.000083 0.003254
# 3 -0.007641 -0.001991 0.033911 0.009918 0.000626 -0.015141
# 4 0.001149 0.001890 0.009918 0.035569 0.001556 -0.004754
# 5 -0.000741 0.000083 0.000626 0.001556 0.021582 0.002222
# 6 0.003311 0.003254 -0.015141 -0.004754 0.002222 0.056412
#
#
# Mechanical properties :
#
#
# Convention : Reuss Voigt Hill
#
# Bulk Modulus (GPa) = 30.94237 53.29822 42.12029
# Shear Modulus (GPa) = 24.74126 34.20103 29.47114
#
# Velocity S-wave (km/s) = 3.43191 4.03501 3.74561
# Velocity P-wave (km/s) = 5.51670 6.86154 6.22554
#
# Compressibility (1/GPa) = 0.03231815
#
# Stress axis : x y z
#
# Youngs Moduli (GPa) = 113.73949 81.08084 29.48865
#
# Poissons Ratio (x) = 0.14002 0.22533
# Poissons Ratio (y) = 0.19642 0.05872
# Poissons Ratio (z) = 0.86910 0.16145
#
# Static dielectric constant tensor:
#      x y z
#    x 3.889910 -0.037070 -0.064640 
#    y -0.037070 3.978090 0.003210 
#    z -0.064640 0.003210 3.861490 
# 
# 
# High freq. dielectric constant tensor:
#      x y z
#    x 1.836050 -0.000940 -0.002930 
#    y -0.000940 1.831310 -0.003190 
#    z -0.002930 -0.003190 1.831880 
# 
# From -- ./inp_files/144481.got.cif
#   From: 2010.06.25/outbox.cif.g09.slc.cpg/sg2_73_cif.got.tgz:144481.got - 2010.06.27 13:26:56.
