data_PCOD8025164
_publ_section_title
;
Structure prediction by ZEFSAII (Michael W. Deem and Ramdas Pophale) SiO2 
 PCOD8025164
Probable space group: P -1
;
_chemical_formula_sum "Si O2"
_cell_formula_units_Z 16
_cell_length_a 19.943554
_cell_length_b 6.581277
_cell_length_c 8.787579
_cell_angle_alpha 55.170536
_cell_angle_beta 51.442144
_cell_angle_gamma 58.742435
_cell_volume 716.125106
_symmetry_space_group_name_H-M "P -1"
_symmetry_group_IT_number 2
_symmetry_cell_setting 'triclinic'
loop_
_space_group_symop_operation_xyz
x,y,z
-x,-y,-z
loop_
_atom_site_type_symbol
_atom_site_label
_atom_site_fract_x
_atom_site_fract_y
_atom_site_fract_z
Si Si1 0.504304 0.245268 0.796675
Si Si2 0.415544 0.999115 0.518748
Si Si3 0.764774 0.995312 0.553687
Si Si4 0.963265 0.773782 0.353226
Si Si5 0.762374 0.079080 0.168427
Si Si6 0.951081 0.778172 0.008509
Si Si7 0.679440 0.539007 0.938705
Si Si8 0.642156 0.431911 0.713493
O O1 0.553902 0.397370 0.773017
O O2 0.551565 0.186475 0.592396
O O3 0.402925 0.406892 0.848233
O O4 0.500000 0.000000 0.000000
O O5 0.335980 0.922323 0.755249
O O6 0.359869 0.274488 0.427112
O O7 0.500000 0.000000 0.500000
O O8 0.864376 0.867526 0.518068
O O9 0.762212 0.089771 0.344835
O O10 0.702455 0.802818 0.746693
O O11 0.729694 0.246876 0.597039
O O12 0.000000 0.500000 0.500000
O O13 0.967129 0.750638 0.176695
O O14 0.013410 0.997489 0.220454
O O15 0.844993 0.851704 0.091582
O O16 0.766889 0.355152 0.974556
O O17 0.000000 0.500000 0.000000
O O18 0.648594 0.392146 0.902291
#
# Coordination Sequence:
#
# PCOD8025164 Si02
#       8
#     2   2   2   2   2   2   2   2
#     4  12  23  43  61  92 134 173 226 280 323 386
#     4  12  27  42  64  98 130 180 229 270 331 395
#     4  11  24  44  66  97 135 173 219 281 332 400
#     4  10  23  44  70 101 135 175 223 280 347 408
#     4  11  24  46  65  96 137 173 220 278 332 398
#     4  10  24  44  70 102 137 175 223 284 343 409
#     4  12  25  41  67  95 132 178 225 273 330 397
#     4  12  23  42  64  91 132 178 221 276 334 387
#
# _framework density 22.342464
#
# number of rings (size 3 to 8) (size 9 to 14) (size 15 to 20)
#    0.000    0.750    5.000    1.875    5.250    2.500 
#    0.000    0.000    0.000    0.000    0.000    0.000 
#    0.000    0.000    0.000    0.000    0.000    0.000 
#
# Total GULP energy -198251.110261 kJ/mol
# GULP energy per Si atom -12390.694391 kJ/mol
# Density = 2.229161 g / cm^3
# Si number density = 22.342464 Si / 1000 Ang^3
#
#
#
# Elastic Constant Matrix: (Units=GPa)
#
#
# Indices 1 2 3 4 5 6 
#
# 1 100.6976 55.4809 45.1162 6.9908 -14.8144 -20.5839
# 2 55.4809 177.9207 59.7621 13.5142 -3.6268 -25.9471
# 3 45.1162 59.7621 93.6398 4.9773 -7.8799 -8.0913
# 4 6.9908 13.5142 4.9773 38.4936 -15.4894 -0.3279
# 5 -14.8144 -3.6268 -7.8799 -15.4894 35.8331 -1.3558
# 6 -20.5839 -25.9471 -8.0913 -0.3279 -1.3558 42.9183
#
#
#
# Elastic Compliance Matrix: (Units=1/GPa)
#
#
# Indices 1 2 3 4 5 6 
#
# 1 0.015248 -0.002269 -0.005033 0.000968 0.005582 0.005176
# 2 -0.002269 0.008272 -0.003945 -0.002782 -0.002054 0.003083
# 3 -0.005033 -0.003945 0.015524 0.000755 0.001191 -0.001829
# 4 0.000968 -0.002782 0.000755 0.032428 0.014288 -0.000376
# 5 0.005582 -0.002054 0.001191 0.014288 0.036556 0.002924
# 6 0.005176 0.003083 -0.001829 -0.000376 0.002924 0.027391
#
#
# Mechanical properties :
#
#
# Convention : Reuss Voigt Hill
#
# Bulk Modulus (GPa) = 60.42157 76.99737 68.70947
# Shear Modulus (GPa) = 30.59447 37.57560 34.08503
#
# Velocity S-wave (km/s) = 3.70448 4.10543 3.91009
# Velocity P-wave (km/s) = 6.73792 7.55049 7.15575
#
# Compressibility (1/GPa) = 0.01655038
#
# Stress axis : x y z
#
# Youngs Moduli (GPa) = 65.58297 120.88805 64.41784
#
# Poissons Ratio (x) = 0.27432 0.32420
# Poissons Ratio (y) = 0.14882 0.25411
# Poissons Ratio (z) = 0.33006 0.47686
#
# Static dielectric constant tensor:
#      x y z
#    x 4.075160 -0.442610 -0.068800 
#    y -0.442610 4.316380 0.227670 
#    z -0.068800 0.227670 4.180980 
# 
# 
# High freq. dielectric constant tensor:
#      x y z
#    x 1.873470 -0.022610 -0.002420 
#    y -0.022610 1.895700 -0.007660 
#    z -0.002420 -0.007660 1.887150 
# 
# From -- ./inp_files/340089.got.cif
#   From: 2010.06.25/outbox.cif.g09.slc.cpg/sg2_171_cif.got.tgz:340089.got - 2010.06.27 13:26:56.
