data_PCOD8025045
_publ_section_title
;
Structure prediction by ZEFSAII (Michael W. Deem and Ramdas Pophale) SiO2 
 PCOD8025045
Probable space group: P -1
;
_chemical_formula_sum "Si O2"
_cell_formula_units_Z 14
_cell_length_a 5.743118
_cell_length_b 18.268306
_cell_length_c 14.521361
_cell_angle_alpha 30.483783
_cell_angle_beta 51.279947
_cell_angle_gamma 58.801257
_cell_volume 602.158876
_symmetry_space_group_name_H-M "P -1"
_symmetry_group_IT_number 2
_symmetry_cell_setting 'triclinic'
loop_
_space_group_symop_operation_xyz
x,y,z
-x,-y,-z
loop_
_atom_site_type_symbol
_atom_site_label
_atom_site_fract_x
_atom_site_fract_y
_atom_site_fract_z
Si Si1 0.924383 0.156180 0.730831
Si Si2 0.303788 0.202266 0.063391
Si Si3 0.742357 0.701179 0.669344
Si Si4 0.414858 0.334620 0.704154
Si Si5 0.064505 0.850401 0.047893
Si Si6 0.847561 0.971646 0.465121
Si Si7 0.088037 0.582077 0.980491
O O1 0.625706 0.239002 0.691719
O O2 0.186304 0.233154 0.520425
O O3 0.993238 0.166601 0.810652
O O4 0.888110 0.985024 0.904473
O O5 0.601652 0.124430 0.105811
O O6 0.447714 0.290967 0.847903
O O7 0.043651 0.082061 0.231934
O O8 0.184124 0.317362 0.039712
O O9 0.885898 0.807385 0.599152
O O10 0.869958 0.541282 0.818764
O O11 0.384311 0.687056 0.784242
O O12 0.500000 0.500000 0.500000
O O13 0.074630 0.299803 0.795971
O O14 0.500000 0.000000 0.500000
O O15 0.000000 0.000000 0.500000
O O16 0.000000 0.500000 0.000000
#
# Coordination Sequence:
#
# PCOD8025045 Si02
#       7
#     2   2   2   2   2   2   2
#     4  10  23  44  68 102 133 183 233 289 360 420
#     4  11  25  43  72 101 139 188 237 303 359 439
#     4  11  25  43  70  99 140 186 237 300 361 438
#     4  11  24  43  68 101 140 184 235 292 363 435
#     4  10  24  43  70  99 139 182 233 297 355 436
#     4  12  27  47  73 108 146 192 249 302 366 438
#     4  11  25  45  66 100 140 186 237 298 367 433
#
# _framework density 23.249677999999999
#
# number of rings (size 3 to 8) (size 9 to 14) (size 15 to 20)
#    0.000    1.143    1.429    3.000    4.000   10.286 
#    0.000    0.000    0.000    0.000    0.000    0.000 
#    0.000    0.000    0.000    0.000    0.000    0.000 
#
# Total GULP energy -173458.445239 kJ/mol
# GULP energy per Si atom -12389.888946 kJ/mol
# Density = 2.319676 g / cm^3
# Si number density = 23.249678 Si / 1000 Ang^3
#
#
#
# Elastic Constant Matrix: (Units=GPa)
#
#
# Indices 1 2 3 4 5 6 
#
# 1 100.1517 50.1343 52.4033 -7.0834 -21.1940 -10.0439
# 2 50.1343 140.1915 68.8350 -4.0896 -15.8809 -11.4530
# 3 52.4033 68.8350 183.3644 -6.4592 -22.0655 -11.2523
# 4 -7.0834 -4.0896 -6.4592 34.2077 9.9946 -3.4170
# 5 -21.1940 -15.8809 -22.0655 9.9946 38.9574 -1.0740
# 6 -10.0439 -11.4530 -11.2523 -3.4170 -1.0740 31.4951
#
#
#
# Elastic Compliance Matrix: (Units=1/GPa)
#
#
# Indices 1 2 3 4 5 6 
#
# 1 0.014062 -0.003215 -0.001994 0.000965 0.005041 0.002879
# 2 -0.003215 0.009760 -0.002545 -0.000064 0.000850 0.001637
# 3 -0.001994 -0.002545 0.007295 0.000192 0.001992 0.001134
# 4 0.000965 -0.000064 0.000192 0.032011 -0.007507 0.003570
# 5 0.005041 0.000850 0.001992 -0.007507 0.031892 0.002902
# 6 0.002879 0.001637 0.001134 0.003570 0.002902 0.034156
#
#
# Mechanical properties :
#
#
# Convention : Reuss Voigt Hill
#
# Bulk Modulus (GPa) = 64.06645 85.16140 74.61392
# Shear Modulus (GPa) = 33.35842 37.75440 35.55641
#
# Velocity S-wave (km/s) = 3.79197 4.03410 3.91491
# Velocity P-wave (km/s) = 6.84016 7.64246 7.25241
#
# Compressibility (1/GPa) = 0.01560879
#
# Stress axis : x y z
#
# Youngs Moduli (GPa) = 71.11559 102.45430 137.08235
#
# Poissons Ratio (x) = 0.32938 0.27340
# Poissons Ratio (y) = 0.22863 0.34885
# Poissons Ratio (z) = 0.14183 0.26073
#
# Static dielectric constant tensor:
#      x y z
#    x 3.441070 0.160680 0.188670 
#    y 0.160680 4.132820 -0.189770 
#    z 0.188670 -0.189770 4.467090 
# 
# 
# High freq. dielectric constant tensor:
#      x y z
#    x 1.907860 -0.007900 -0.000770 
#    y -0.007900 1.924160 -0.001700 
#    z -0.000770 -0.001700 1.938140 
# 
# From -- ./inp_files/99936.got.cif
#   From: 2010.06.25/outbox.cif.g09.slc.cpg/sg2_50_cif.got.tgz:99936.got - 2010.06.27 13:26:56.
