data_PCOD8025616
_publ_section_title
;
Structure prediction by ZEFSAII (Michael W. Deem and Ramdas Pophale) SiO2 
 PCOD8025616
Probable space group: P -1
;
_chemical_formula_sum "Si O2"
_cell_formula_units_Z 16
_cell_length_a 12.988175
_cell_length_b 8.316244
_cell_length_c 18.695479
_cell_angle_alpha 39.626162
_cell_angle_beta 135.847375
_cell_angle_gamma 106.586392
_cell_volume 716.763969
_symmetry_space_group_name_H-M "P -1"
_symmetry_group_IT_number 2
_symmetry_cell_setting 'triclinic'
loop_
_space_group_symop_operation_xyz
x,y,z
-x,-y,-z
loop_
_atom_site_type_symbol
_atom_site_label
_atom_site_fract_x
_atom_site_fract_y
_atom_site_fract_z
Si Si1 0.451440 0.291571 0.470276
Si Si2 0.047073 0.662450 0.794438
Si Si3 0.858705 0.492025 0.860249
Si Si4 0.648302 0.066652 0.049472
Si Si5 0.797234 0.202967 0.712237
Si Si6 0.093492 0.170797 0.620138
Si Si7 0.995193 0.534267 0.313996
Si Si8 0.349235 0.368999 0.154444
O O1 0.345555 0.386196 0.309835
O O2 0.659562 0.185863 0.597704
O O3 0.324101 0.604230 0.345921
O O4 0.474484 0.995054 0.622862
O O5 0.041087 0.519560 0.765836
O O6 0.901314 0.700869 0.765401
O O7 0.988382 0.014003 0.634359
O O8 0.257474 0.429362 0.009647
O O9 0.822272 0.550165 0.907033
O O10 0.026866 0.127441 0.055991
O O11 0.706632 0.047865 0.167889
O O12 0.806006 0.812417 0.161304
O O13 0.584306 0.410806 0.873089
O O14 0.500000 0.000000 0.000000
O O15 0.865811 0.374303 0.645086
O O16 0.000000 0.500000 0.500000
O O17 0.096467 0.214200 0.521381
#
# Coordination Sequence:
#
# PCOD8025616 Si02
#       8
#     2   2   2   2   2   2   2   2
#     4  11  25  40  66 106 139 185 232 284 341 424
#     4  11  23  41  70  98 138 187 224 287 352 411
#     4  12  23  43  71 100 144 191 226 287 352 417
#     4  10  23  45  70  99 133 184 229 294 346 413
#     4  11  24  43  66 103 145 177 233 283 352 410
#     4   9  22  42  66  96 132 174 234 277 339 411
#     4  11  22  44  70  99 135 188 228 282 357 411
#     4  11  24  44  65 103 143 179 239 286 352 411
#
# _framework density 22.322548999999999
#
# number of rings (size 3 to 8) (size 9 to 14) (size 15 to 20)
#    0.000    1.250    3.750    1.500    0.000    3.000 
#    4.500    1.250    0.000    0.000    0.000    0.000 
#    0.000    0.000    0.000    0.000    0.000    0.000 
#
# Total GULP energy -198276.972351 kJ/mol
# GULP energy per Si atom -12392.310772 kJ/mol
# Density = 2.227174 g / cm^3
# Si number density = 22.322549 Si / 1000 Ang^3
#
#
#
# Elastic Constant Matrix: (Units=GPa)
#
#
# Indices 1 2 3 4 5 6 
#
# 1 113.0583 58.3178 43.8997 13.6579 -16.5653 27.7343
# 2 58.3178 113.2213 55.9663 8.9105 -12.2847 24.8843
# 3 43.8997 55.9663 130.7483 3.7895 -11.9024 13.3260
# 4 13.6579 8.9105 3.7895 37.3388 2.1850 -4.9287
# 5 -16.5653 -12.2847 -11.9024 2.1850 37.0104 -0.3184
# 6 27.7343 24.8843 13.3260 -4.9287 -0.3184 39.0456
#
#
#
# Elastic Compliance Matrix: (Units=1/GPa)
#
#
# Indices 1 2 3 4 5 6 
#
# 1 0.015114 -0.004052 -0.001875 -0.005751 0.005086 -0.008198
# 2 -0.004052 0.014455 -0.004065 -0.002349 0.001771 -0.005229
# 3 -0.001875 -0.004065 0.010030 0.000657 0.001003 0.000590
# 4 -0.005751 -0.002349 0.000657 0.030882 -0.004886 0.009216
# 5 0.005086 0.001771 0.001003 -0.004886 0.030448 -0.005452
# 6 -0.008198 -0.005229 0.000590 0.009216 -0.005452 0.035684
#
#
# Mechanical properties :
#
#
# Convention : Reuss Voigt Hill
#
# Bulk Modulus (GPa) = 50.98035 74.82172 62.90104
# Shear Modulus (GPa) = 30.64979 35.93524 33.29252
#
# Velocity S-wave (km/s) = 3.70948 4.01661 3.86609
# Velocity P-wave (km/s) = 6.42142 7.42308 6.94034
#
# Compressibility (1/GPa) = 0.01961540
#
# Stress axis : x y z
#
# Youngs Moduli (GPa) = 66.16378 69.18183 99.70265
#
# Poissons Ratio (x) = 0.28032 0.18695
# Poissons Ratio (y) = 0.26809 0.40525
# Poissons Ratio (z) = 0.12406 0.28120
#
# Static dielectric constant tensor:
#      x y z
#    x 3.737320 0.327760 -0.588730 
#    y 0.327760 4.189970 0.245150 
#    z -0.588730 0.245150 4.249620 
# 
# 
# High freq. dielectric constant tensor:
#      x y z
#    x 1.864450 0.013370 -0.018240 
#    y 0.013370 1.890910 0.003940 
#    z -0.018240 0.003940 1.884410 
# 
# From -- ./inp_files/566443.got.cif
#   From: 2010.06.25/outbox.cif.g09.slc.cpg/sg2_284_cif.got.tgz:566443.got - 2010.06.27 13:26:56.
