data_PCOD8025291
_publ_section_title
;
Structure prediction by ZEFSAII (Michael W. Deem and Ramdas Pophale) SiO2 
 PCOD8025291
Probable space group: P -1
;
_chemical_formula_sum "Si O2"
_cell_formula_units_Z 12
_cell_length_a 5.249830
_cell_length_b 18.188924
_cell_length_c 10.365590
_cell_angle_alpha 142.376908
_cell_angle_beta 126.740168
_cell_angle_gamma 54.983666
_cell_volume 473.979975
_symmetry_space_group_name_H-M "P -1"
_symmetry_group_IT_number 2
_symmetry_cell_setting 'triclinic'
loop_
_space_group_symop_operation_xyz
x,y,z
-x,-y,-z
loop_
_atom_site_type_symbol
_atom_site_label
_atom_site_fract_x
_atom_site_fract_y
_atom_site_fract_z
Si Si1 0.435421 0.506582 0.305499
Si Si2 0.258307 0.129498 0.088419
Si Si3 0.598482 0.120945 0.744866
Si Si4 0.701742 0.706739 0.903185
Si Si5 0.815140 0.647477 0.454373
Si Si6 0.414599 0.651792 0.095855
O O1 0.740102 0.572342 0.456538
O O2 0.137035 0.605264 0.408420
O O3 0.538005 0.392462 0.284683
O O4 0.340435 0.435141 0.049853
O O5 0.198762 0.209120 0.313413
O O6 0.388750 0.220463 0.155265
O O7 0.930433 0.095041 0.889900
O O8 0.500000 0.000000 0.000000
O O9 0.319583 0.191152 0.851096
O O10 0.617772 0.203561 0.740329
O O11 0.500000 0.000000 0.500000
O O12 0.062119 0.621377 0.910386
O O13 0.518537 0.629713 0.244793
#
# Coordination Sequence:
#
# PCOD8025291 Si02
#       6
#     2   2   2   2   2   2
#     4  11  24  46  74 113 152 194 250 299 373 449
#     4  11  29  49  69 110 152 193 252 313 374 441
#     4  10  25  46  76 101 147 205 251 305 368 451
#     4  10  24  47  72 105 149 194 253 301 369 449
#     4  12  27  42  79 110 153 196 241 314 373 432
#     4  10  23  44  72 114 146 194 252 301 366 450
#
# _framework density 25.317523999999999
#
# number of rings (size 3 to 8) (size 9 to 14) (size 15 to 20)
#    0.000    1.333    1.667    1.000   11.667    3.333 
#    0.000    0.000    0.000    0.000    0.000    0.000 
#    0.000    0.000    0.000    0.000    0.000    0.000 
#
# Total GULP energy -148689.758953 kJ/mol
# GULP energy per Si atom -12390.813246 kJ/mol
# Density = 2.525990 g / cm^3
# Si number density = 25.317524 Si / 1000 Ang^3
#
#
#
# Elastic Constant Matrix: (Units=GPa)
#
#
# Indices 1 2 3 4 5 6 
#
# 1 129.4075 43.0228 54.0821 16.3821 -11.2895 -0.3030
# 2 43.0228 123.6860 45.6966 4.9465 -21.6142 4.9580
# 3 54.0821 45.6966 189.7964 25.2082 -8.3120 -10.9066
# 4 16.3821 4.9465 25.2082 35.6420 -10.2434 -9.1652
# 5 -11.2895 -21.6142 -8.3120 -10.2434 29.6475 11.4164
# 6 -0.3030 4.9580 -10.9066 -9.1652 11.4164 22.1268
#
#
#
# Elastic Compliance Matrix: (Units=1/GPa)
#
#
# Indices 1 2 3 4 5 6 
#
# 1 0.009768 -0.002236 -0.001915 -0.003011 0.001387 -0.002272
# 2 -0.002236 0.012095 -0.002577 0.002142 0.011464 -0.009038
# 3 -0.001915 -0.002577 0.007010 -0.003629 -0.003569 0.004345
# 4 -0.003011 0.002142 -0.003629 0.036348 0.008796 0.008208
# 5 0.001387 0.011464 -0.003569 0.008796 0.056046 -0.029583
# 6 -0.002272 -0.009038 0.004345 0.008208 -0.029583 0.067993
#
#
# Mechanical properties :
#
#
# Convention : Reuss Voigt Hill
#
# Bulk Modulus (GPa) = 64.86262 80.94364 72.90313
# Shear Modulus (GPa) = 24.05523 37.48915 30.77219
#
# Velocity S-wave (km/s) = 3.08578 3.85224 3.49011
# Velocity P-wave (km/s) = 6.19446 7.19910 6.71560
#
# Compressibility (1/GPa) = 0.01541720
#
# Stress axis : x y z
#
# Youngs Moduli (GPa) = 102.37390 82.67950 142.65049
#
# Poissons Ratio (x) = 0.18491 0.27316
# Poissons Ratio (y) = 0.22896 0.36756
# Poissons Ratio (z) = 0.19603 0.21303
#
# Static dielectric constant tensor:
#      x y z
#    x 5.034890 0.077910 -0.178870 
#    y 0.077910 4.472200 0.045000 
#    z -0.178870 0.045000 4.619520 
# 
# 
# High freq. dielectric constant tensor:
#      x y z
#    x 2.018570 0.008430 -0.011640 
#    y 0.008430 1.994410 0.010310 
#    z -0.011640 0.010310 2.030000 
# 
# From -- ./inp_files/73581.got.cif
#   From: 2010.06.25/outbox.cif.g09.slc.cpg/sg2_37_cif.got.tgz:73581.got - 2010.06.27 13:26:56.
