data_PCOD8025407
_publ_section_title
;
Structure prediction by ZEFSAII (Michael W. Deem and Ramdas Pophale) SiO2 
 PCOD8025407
Probable space group: P -1
;
_chemical_formula_sum "Si O2"
_cell_formula_units_Z 14
_cell_length_a 16.279934
_cell_length_b 15.618028
_cell_length_c 9.247631
_cell_angle_alpha 35.532747
_cell_angle_beta 143.790036
_cell_angle_gamma 152.162825
_cell_volume 604.228826
_symmetry_space_group_name_H-M "P -1"
_symmetry_group_IT_number 2
_symmetry_cell_setting 'triclinic'
loop_
_space_group_symop_operation_xyz
x,y,z
-x,-y,-z
loop_
_atom_site_type_symbol
_atom_site_label
_atom_site_fract_x
_atom_site_fract_y
_atom_site_fract_z
Si Si1 0.786216 0.327697 0.452499
Si Si2 0.452539 0.288751 0.013405
Si Si3 0.706244 0.239085 0.771754
Si Si4 0.442933 0.292450 0.675530
Si Si5 0.267403 0.455141 0.472264
Si Si6 0.305959 0.984482 0.464541
Si Si7 0.864915 0.091110 0.385333
O O1 0.757695 0.219978 0.710127
O O2 0.000000 0.500000 0.500000
O O3 0.715999 0.186120 0.411329
O O4 0.668392 0.397889 0.200400
O O5 0.412368 0.197465 0.919695
O O6 0.415404 0.438527 0.766355
O O7 0.319548 0.118669 0.175734
O O8 0.794040 0.465158 0.608017
O O9 0.485177 0.098799 0.664666
O O10 0.780157 0.179517 0.077235
O O11 0.500000 0.500000 0.500000
O O12 0.625601 0.369244 0.739259
O O13 0.250839 0.130375 0.536495
O O14 0.084440 0.238913 0.452537
O O15 0.143046 0.909694 0.449253
#
# Coordination Sequence:
#
# PCOD8025407 Si02
#       7
#     2   2   2   2   2   2   2
#     4  11  24  41  66 100 132 177 227 274 335 401
#     4  10  24  45  66  92 142 170 223 278 336 396
#     4  11  23  43  69  97 137 177 225 279 329 400
#     4  10  23  45  65  99 136 177 218 276 339 395
#     4  11  25  43  69 104 131 180 226 273 343 391
#     4  11  23  43  68  96 132 180 222 277 340 388
#     4  12  24  42  73  99 136 177 229 276 327 407
#
# _framework density 23.170027999999999
#
# number of rings (size 3 to 8) (size 9 to 14) (size 15 to 20)
#    0.000    1.143    1.429    5.143    4.000    5.143 
#    5.143    0.000    0.000    0.000    0.000    0.000 
#    0.000    0.000    0.000    0.000    0.000    0.000 
#
# Total GULP energy -173475.013020 kJ/mol
# GULP energy per Si atom -12391.072359 kJ/mol
# Density = 2.311729 g / cm^3
# Si number density = 23.170028 Si / 1000 Ang^3
#
#
#
# Elastic Constant Matrix: (Units=GPa)
#
#
# Indices 1 2 3 4 5 6 
#
# 1 91.8990 36.4003 41.9650 -1.5238 -22.4627 -6.7105
# 2 36.4003 147.2603 29.9355 -1.7265 2.3373 -1.2173
# 3 41.9650 29.9355 114.8393 -8.2332 -9.5321 -0.8330
# 4 -1.5238 -1.7265 -8.2332 20.0545 -7.0552 3.1755
# 5 -22.4627 2.3373 -9.5321 -7.0552 37.9284 -6.7574
# 6 -6.7105 -1.2173 -0.8330 3.1755 -6.7574 35.4522
#
#
#
# Elastic Compliance Matrix: (Units=1/GPa)
#
#
# Indices 1 2 3 4 5 6 
#
# 1 0.017210 -0.003480 -0.004309 0.002198 0.010598 0.004860
# 2 -0.003480 0.007913 -0.001136 -0.001025 -0.003191 -0.000930
# 3 -0.004309 -0.001136 0.010981 0.004557 0.000980 -0.000818
# 4 0.002198 -0.001025 0.004557 0.056609 0.012653 -0.002171
# 5 0.010598 -0.003191 0.000980 0.012653 0.036830 0.007806
# 6 0.004860 -0.000930 -0.000818 -0.002171 0.007806 0.030758
#
#
# Mechanical properties :
#
#
# Convention : Reuss Voigt Hill
#
# Bulk Modulus (GPa) = 54.78679 63.40003 59.09341
# Shear Modulus (GPa) = 27.13936 35.06686 31.10311
#
# Velocity S-wave (km/s) = 3.42616 3.89454 3.66783
# Velocity P-wave (km/s) = 6.27282 6.90258 6.59522
#
# Compressibility (1/GPa) = 0.01825258
#
# Stress axis : x y z
#
# Youngs Moduli (GPa) = 58.10715 126.37745 91.06956
#
# Poissons Ratio (x) = 0.43982 0.39242
# Poissons Ratio (y) = 0.20223 0.10345
# Poissons Ratio (z) = 0.25039 0.14356
#
# Static dielectric constant tensor:
#      x y z
#    x 4.145310 0.400900 -0.452270 
#    y 0.400900 4.209270 -0.085570 
#    z -0.452270 -0.085570 4.023330 
# 
# 
# High freq. dielectric constant tensor:
#      x y z
#    x 1.932080 -0.001240 -0.017180 
#    y -0.001240 1.910610 -0.005890 
#    z -0.017180 -0.005890 1.897350 
# 
# From -- ./inp_files/261331.got.cif
#   From: 2010.06.25/outbox.cif.g09.slc.cpg/sg2_131_cif.got.tgz:261331.got - 2010.06.27 13:26:56.
