data_PCOD8025251
_publ_section_title
;
Structure prediction by ZEFSAII (Michael W. Deem and Ramdas Pophale) SiO2 
 PCOD8025251
Probable space group: P -1
;
_chemical_formula_sum "Si O2"
_cell_formula_units_Z 14
_cell_length_a 8.292575
_cell_length_b 11.130181
_cell_length_c 11.654691
_cell_angle_alpha 61.388614
_cell_angle_beta 72.101956
_cell_angle_gamma 40.741918
_cell_volume 613.433007
_symmetry_space_group_name_H-M "P -1"
_symmetry_group_IT_number 2
_symmetry_cell_setting 'triclinic'
loop_
_space_group_symop_operation_xyz
x,y,z
-x,-y,-z
loop_
_atom_site_type_symbol
_atom_site_label
_atom_site_fract_x
_atom_site_fract_y
_atom_site_fract_z
Si Si1 0.979408 0.237460 0.441999
Si Si2 0.876126 0.346929 0.018514
Si Si3 0.347293 0.912805 0.168743
Si Si4 0.613925 0.346553 0.884193
Si Si5 0.095707 0.414545 0.768575
Si Si6 0.651516 0.179798 0.540734
Si Si7 0.171232 0.571231 0.377253
O O1 0.922514 0.410388 0.306290
O O2 0.779789 0.243500 0.438872
O O3 0.974614 0.259029 0.570647
O O4 0.247886 0.017191 0.451982
O O5 0.679714 0.487527 0.098561
O O6 0.774370 0.281911 0.992384
O O7 0.143551 0.152921 0.102510
O O8 0.906462 0.466655 0.881363
O O9 0.307236 0.846943 0.093340
O O10 0.628578 0.804297 0.162224
O O11 0.303676 0.847281 0.320694
O O12 0.664810 0.429831 0.739380
O O13 0.024042 0.401895 0.664291
O O14 0.359634 0.356827 0.497953
#
# Coordination Sequence:
#
# PCOD8025251 Si02
#       7
#     2   2   2   2   2   2   2
#     4  11  23  43  65  99 132 166 219 267 323 386
#     4  10  25  45  65  98 126 172 222 261 325 381
#     4  12  23  42  67  96 132 169 220 265 315 391
#     4  10  23  44  71  91 128 173 218 272 312 380
#     4  11  25  44  65  96 138 174 206 270 329 380
#     4  11  25  39  69 101 124 175 219 263 324 383
#     4  11  22  44  66  97 136 168 214 267 327 383
#
# _framework density 22.822378
#
# number of rings (size 3 to 8) (size 9 to 14) (size 15 to 20)
#    0.000    1.143    2.857    2.571    6.000    1.143 
#    2.571    0.000    0.000    0.000    0.000    0.000 
#    0.000    0.000    0.000    0.000    0.000    0.000 
#
# Total GULP energy -173635.903742 kJ/mol
# GULP energy per Si atom -12402.564553 kJ/mol
# Density = 2.277043 g / cm^3
# Si number density = 22.822378 Si / 1000 Ang^3
#
#
#
# Elastic Constant Matrix: (Units=GPa)
#
#
# Indices 1 2 3 4 5 6 
#
# 1 83.8094 44.3638 32.0046 -4.5256 -9.1286 -11.9645
# 2 44.3638 128.7380 28.9520 11.4900 1.3208 -0.2313
# 3 32.0046 28.9520 77.3188 5.9687 -2.6480 -2.4301
# 4 -4.5256 11.4900 5.9687 36.2072 -5.7413 2.4580
# 5 -9.1286 1.3208 -2.6480 -5.7413 34.1313 0.4726
# 6 -11.9645 -0.2313 -2.4301 2.4580 0.4726 15.9073
#
#
#
# Elastic Compliance Matrix: (Units=1/GPa)
#
#
# Indices 1 2 3 4 5 6 
#
# 1 0.020302 -0.006202 -0.005887 0.005522 0.005958 0.013250
# 2 -0.006202 0.010585 -0.001302 -0.004093 -0.002803 -0.003994
# 3 -0.005887 -0.001302 0.016014 -0.002980 -0.000762 -0.001517
# 4 0.005522 -0.004093 -0.002980 0.031253 0.006680 -0.001390
# 5 0.005958 -0.002803 -0.000762 0.006680 0.032033 0.002341
# 6 0.013250 -0.003994 -0.001517 -0.001390 0.002341 0.072685
#
#
# Mechanical properties :
#
#
# Convention : Reuss Voigt Hill
#
# Bulk Modulus (GPa) = 49.70492 55.61189 52.65841
# Shear Modulus (GPa) = 23.10976 29.55223 26.33100
#
# Velocity S-wave (km/s) = 3.18558 3.60235 3.40035
# Velocity P-wave (km/s) = 5.94616 6.45931 6.20804
#
# Compressibility (1/GPa) = 0.02011873
#
# Stress axis : x y z
#
# Youngs Moduli (GPa) = 49.25705 94.47629 62.44587
#
# Poissons Ratio (x) = 0.58597 0.36760
# Poissons Ratio (y) = 0.30551 0.08128
# Poissons Ratio (z) = 0.28996 0.12298
#
# Static dielectric constant tensor:
#      x y z
#    x 4.034970 -0.080860 -0.008700 
#    y -0.080860 4.057690 0.212140 
#    z -0.008700 0.212140 4.036100 
# 
# 
# High freq. dielectric constant tensor:
#      x y z
#    x 1.899140 -0.006010 -0.000270 
#    y -0.006010 1.896560 0.015910 
#    z -0.000270 0.015910 1.905210 
# 
# From -- ./inp_files/261109.got.cif
#   From: 2010.06.25/outbox.cif.g09.slc.cpg/sg2_131_cif.got.tgz:261109.got - 2010.06.27 13:26:56.
