data_PCOD8025745
_publ_section_title
;
Structure prediction by ZEFSAII (Michael W. Deem and Ramdas Pophale) SiO2 
 PCOD8025745
Probable space group: P -1
;
_chemical_formula_sum "Si O2"
_cell_formula_units_Z 14
_cell_length_a 9.727025
_cell_length_b 22.744071
_cell_length_c 19.192831
_cell_angle_alpha 16.858564
_cell_angle_beta 45.406531
_cell_angle_gamma 36.020878
_cell_volume 656.524678
_symmetry_space_group_name_H-M "P -1"
_symmetry_group_IT_number 2
_symmetry_cell_setting 'triclinic'
loop_
_space_group_symop_operation_xyz
x,y,z
-x,-y,-z
loop_
_atom_site_type_symbol
_atom_site_label
_atom_site_fract_x
_atom_site_fract_y
_atom_site_fract_z
Si Si1 0.004017 0.156569 0.916219
Si Si2 0.555701 0.687614 0.245534
Si Si3 0.463362 0.550564 0.161571
Si Si4 0.350972 0.050141 0.565468
Si Si5 0.529324 0.097142 0.589126
Si Si6 0.976972 0.712860 0.386353
Si Si7 0.763611 0.553417 0.172460
O O1 0.305305 0.992309 0.012578
O O2 0.932746 0.338590 0.667344
O O3 0.958862 0.949355 0.156576
O O4 0.811490 0.351385 0.825885
O O5 0.500000 0.500000 0.500000
O O6 0.583896 0.678813 0.162273
O O7 0.816438 0.573385 0.321684
O O8 0.604077 0.277269 0.376035
O O9 0.643361 0.480374 0.242573
O O10 0.414587 0.775867 0.874171
O O11 0.444024 0.139151 0.491485
O O12 0.047663 0.284814 0.395632
O O13 0.500000 0.000000 0.500000
O O14 0.300704 0.190851 0.615519
O O15 0.766612 0.778429 0.882798
#
# Coordination Sequence:
#
# PCOD8025745 Si02
#       7
#     2   2   2   2   2   2   2
#     4  10  17  33  56  89 125 168 206 241 296 362
#     4  10  17  29  61  85 119 173 211 239 294 362
#     4  11  24  40  64  97 129 161 207 257 305 370
#     4  11  25  47  70  89 119 163 209 261 320 373
#     4  11  23  41  64  95 128 161 206 259 310 368
#     4  10  17  33  56  86 123 171 205 244 294 360
#     4  11  21  43  64  90 125 167 203 256 315 365
#
# _framework density 21.324407000000001
#
# number of rings (size 3 to 8) (size 9 to 14) (size 15 to 20)
#    0.000    1.429    5.714    2.571    0.000    4.571 
#    0.000    2.143    0.000    0.000    0.000    0.000 
#    0.000    0.000    0.000    0.000    0.000    0.000 
#
# Total GULP energy -173553.967575 kJ/mol
# GULP energy per Si atom -12396.711970 kJ/mol
# Density = 2.127587 g / cm^3
# Si number density = 21.324407 Si / 1000 Ang^3
#
#
#
# Elastic Constant Matrix: (Units=GPa)
#
#
# Indices 1 2 3 4 5 6 
#
# 1 72.5942 9.1001 66.8703 -3.8310 11.2415 17.9289
# 2 9.1001 71.7139 18.7622 18.6398 -2.8494 21.3998
# 3 66.8703 18.7622 99.2910 -2.2489 11.9623 20.0479
# 4 -3.8310 18.6398 -2.2489 23.5207 7.9841 6.9912
# 5 11.2415 -2.8494 11.9623 7.9841 33.2128 -7.1464
# 6 17.9289 21.3998 20.0479 6.9912 -7.1464 19.7046
#
#
#
# Elastic Compliance Matrix: (Units=1/GPa)
#
#
# Indices 1 2 3 4 5 6 
#
# 1 0.049259 0.006417 -0.021601 0.022800 -0.023839 -0.046548
# 2 0.006417 0.024343 -0.003932 -0.010680 -0.001485 -0.025025
# 3 -0.021601 -0.003932 0.028690 0.008214 -0.007694 -0.010970
# 4 0.022800 -0.010680 0.008214 0.091959 -0.048250 -0.067630
# 5 -0.023839 -0.001485 -0.007694 -0.048250 0.068119 0.072956
# 6 -0.046548 -0.025025 -0.010970 -0.067630 0.072956 0.181898
#
#
# Mechanical properties :
#
#
# Convention : Reuss Voigt Hill
#
# Bulk Modulus (GPa) = 15.60983 48.11825 31.86404
# Shear Modulus (GPa) = 9.92354 25.21206 17.56780
#
# Velocity S-wave (km/s) = 2.15956 3.44220 2.87337
# Velocity P-wave (km/s) = 3.68162 6.19776 5.09738
#
# Compressibility (1/GPa) = 0.06406220
#
# Stress axis : x y z
#
# Youngs Moduli (GPa) = 20.30074 41.07896 34.85540
#
# Poissons Ratio (x) = -0.26362 0.75290
# Poissons Ratio (y) = -0.13028 0.13705
# Poissons Ratio (z) = 0.43851 0.16153
#
# Static dielectric constant tensor:
#      x y z
#    x 3.464670 -0.098270 0.247060 
#    y -0.098270 3.835210 -0.224890 
#    z 0.247060 -0.224890 4.176700 
# 
# 
# High freq. dielectric constant tensor:
#      x y z
#    x 1.824670 0.005340 0.020630 
#    y 0.005340 1.819030 -0.001810 
#    z 0.020630 -0.001810 1.843320 
# 
# From -- ./inp_files/562494.got.cif
#   From: 2010.06.25/outbox.cif.g09.slc.cpg/sg2_282_cif.got.tgz:562494.got - 2010.06.27 13:26:56.
