data_PCOD8025198
_publ_section_title
;
Structure prediction by ZEFSAII (Michael W. Deem and Ramdas Pophale) SiO2 
 PCOD8025198
Probable space group: P -1
;
_chemical_formula_sum "Si O2"
_cell_formula_units_Z 14
_cell_length_a 16.318272
_cell_length_b 9.378910
_cell_length_c 12.704722
_cell_angle_alpha 125.638383
_cell_angle_beta 135.376631
_cell_angle_gamma 28.285947
_cell_volume 641.536760
_symmetry_space_group_name_H-M "P -1"
_symmetry_group_IT_number 2
_symmetry_cell_setting 'triclinic'
loop_
_space_group_symop_operation_xyz
x,y,z
-x,-y,-z
loop_
_atom_site_type_symbol
_atom_site_label
_atom_site_fract_x
_atom_site_fract_y
_atom_site_fract_z
Si Si1 0.801271 0.479888 0.536071
Si Si2 0.730357 0.262281 0.129940
Si Si3 0.154874 0.302305 0.153205
Si Si4 0.513401 0.844463 0.849314
Si Si5 0.238460 0.863452 0.664317
Si Si6 0.593385 0.792531 0.278913
Si Si7 0.025582 0.807440 0.017863
O O1 0.812672 0.558991 0.693304
O O2 0.703484 0.406047 0.434050
O O3 0.666329 0.757705 0.448729
O O4 0.022622 0.186214 0.558940
O O5 0.792370 0.090132 0.219070
O O6 0.745046 0.455093 0.233730
O O7 0.500000 0.500000 0.000000
O O8 0.900482 0.996715 0.090025
O O9 0.368430 0.987268 0.162073
O O10 0.000000 0.500000 0.000000
O O11 0.075717 0.250036 0.140955
O O12 0.413168 0.782818 0.758357
O O13 0.741573 0.518267 0.886517
O O14 0.400476 0.056768 0.734091
O O15 0.500000 0.000000 0.000000
O O16 0.000000 0.000000 0.000000
#
# Coordination Sequence:
#
# PCOD8025198 Si02
#       7
#     2   2   2   2   2   2   2
#     4  10  24  44  70  99 137 192 234 277 359 421
#     4  11  21  41  69  98 137 182 232 279 345 417
#     4  12  23  44  72 103 137 182 237 289 346 425
#     4  12  25  43  70 112 142 180 236 294 346 410
#     4  10  23  44  70  95 144 186 229 288 350 421
#     4  11  24  42  69 103 138 184 226 290 354 409
#     4  12  25  40  69 108 140 176 234 294 351 403
#
# _framework density 21.822600999999999
#
# number of rings (size 3 to 8) (size 9 to 14) (size 15 to 20)
#    0.000    0.857    2.857    4.714    2.000    0.571 
#    0.000    5.000    0.000    0.000    0.000    0.000 
#    0.000    0.000    0.000    0.000    0.000    0.000 
#
# Total GULP energy -173531.837801 kJ/mol
# GULP energy per Si atom -12395.131271 kJ/mol
# Density = 2.177293 g / cm^3
# Si number density = 21.822601 Si / 1000 Ang^3
#
#
#
# Elastic Constant Matrix: (Units=GPa)
#
#
# Indices 1 2 3 4 5 6 
#
# 1 159.9757 58.2515 64.1059 7.0465 8.4014 9.5619
# 2 58.2515 118.0151 54.6490 -8.7368 -5.2992 -7.4608
# 3 64.1059 54.6490 141.4222 2.1124 -4.2180 5.4806
# 4 7.0465 -8.7368 2.1124 32.7541 10.7449 -1.4764
# 5 8.4014 -5.2992 -4.2180 10.7449 39.0566 -7.2243
# 6 9.5619 -7.4608 5.4806 -1.4764 -7.2243 40.9001
#
#
#
# Elastic Compliance Matrix: (Units=1/GPa)
#
#
# Indices 1 2 3 4 5 6 
#
# 1 0.009065 -0.003732 -0.002602 -0.002015 -0.002739 -0.003008
# 2 -0.003732 0.012466 -0.003287 0.003930 0.001807 0.004048
# 3 -0.002602 -0.003287 0.009625 -0.001428 0.001343 -0.001095
# 4 -0.002015 0.003930 -0.001428 0.034977 -0.008603 0.001122
# 5 -0.002739 0.001807 0.001343 -0.008603 0.030019 0.005782
# 6 -0.003008 0.004048 -0.001095 0.001122 0.005782 0.027100
#
#
# Mechanical properties :
#
#
# Convention : Reuss Voigt Hill
#
# Bulk Modulus (GPa) = 83.94051 85.93620 84.93835
# Shear Modulus (GPa) = 34.13806 38.70260 36.42033
#
# Velocity S-wave (km/s) = 3.95947 4.21587 4.08968
# Velocity P-wave (km/s) = 7.71049 7.94752 7.82990
#
# Compressibility (1/GPa) = 0.01191320
#
# Stress axis : x y z
#
# Youngs Moduli (GPa) = 110.31601 80.22126 103.90064
#
# Poissons Ratio (x) = 0.29936 0.27036
# Poissons Ratio (y) = 0.41167 0.34153
# Poissons Ratio (z) = 0.28705 0.26369
#
# Static dielectric constant tensor:
#      x y z
#    x 4.056110 0.044400 0.115340 
#    y 0.044400 3.863720 -0.193310 
#    z 0.115340 -0.193310 4.078960 
# 
# 
# High freq. dielectric constant tensor:
#      x y z
#    x 1.847100 0.008780 0.005740 
#    y 0.008780 1.878850 -0.007080 
#    z 0.005740 -0.007080 1.855920 
# 
# From -- ./inp_files/185163.got.cif
#   From: 2010.06.25/outbox.cif.g09.slc.cpg/sg2_93_cif.got.tgz:185163.got - 2010.06.27 13:26:56.
