data_PCOD8025436
_publ_section_title
;
Structure prediction by ZEFSAII (Michael W. Deem and Ramdas Pophale) SiO2 
 PCOD8025436
Probable space group: P -1
;
_chemical_formula_sum "Si O2"
_cell_formula_units_Z 16
_cell_length_a 17.395298
_cell_length_b 7.279810
_cell_length_c 6.755434
_cell_angle_alpha 93.093430
_cell_angle_beta 84.615427
_cell_angle_gamma 51.676716
_cell_volume 661.251828
_symmetry_space_group_name_H-M "P -1"
_symmetry_group_IT_number 2
_symmetry_cell_setting 'triclinic'
loop_
_space_group_symop_operation_xyz
x,y,z
-x,-y,-z
loop_
_atom_site_type_symbol
_atom_site_label
_atom_site_fract_x
_atom_site_fract_y
_atom_site_fract_z
Si Si1 0.464645 0.207010 0.867445
Si Si2 0.307806 0.200063 0.716892
Si Si3 0.139432 0.476510 0.490203
Si Si4 0.408856 0.741445 0.436876
Si Si5 0.992318 0.309537 0.113788
Si Si6 0.693952 0.319497 0.862413
Si Si7 0.892305 0.221016 0.809706
Si Si8 0.190155 0.195034 0.073065
O O1 0.395449 0.214337 0.722161
O O2 0.557394 0.160832 0.731895
O O3 0.407192 0.457490 0.003602
O O4 0.500000 0.000000 0.000000
O O5 0.239347 0.389167 0.573442
O O6 0.349506 0.937739 0.632011
O O7 0.244562 0.270509 0.938234
O O8 0.065240 0.508096 0.678131
O O9 0.087586 0.729142 0.411811
O O10 0.170936 0.275948 0.310958
O O11 0.500000 0.500000 0.500000
O O12 0.333770 0.708199 0.352851
O O13 0.080104 0.313319 0.009497
O O14 0.918536 0.349074 0.961798
O O15 0.045397 0.052107 0.180216
O O16 0.774112 0.362971 0.848667
O O17 0.739945 0.087076 0.968344
#
# Coordination Sequence:
#
# PCOD8025436 Si02
#       8
#     2   2   2   2   2   2   2   2
#     4  12  26  45  76 101 143 187 238 300 360 432
#     4  12  27  45  70 105 139 186 235 292 359 422
#     4  12  23  41  69 102 139 184 237 290 350 421
#     4  12  26  46  71 108 140 181 241 295 360 432
#     4  10  23  45  67 103 136 191 239 283 352 412
#     4  11  23  46  69 100 141 183 226 295 359 412
#     4  10  24  43  69 100 144 183 234 290 350 425
#     4  11  24  45  69  98 146 183 235 292 348 425
#
# _framework density 24.196529000000002
#
# number of rings (size 3 to 8) (size 9 to 14) (size 15 to 20)
#    0.000    0.750    1.250    6.000    3.500    3.000 
#    6.750    0.000    0.000    0.000    0.000    0.000 
#    0.000    0.000    0.000    0.000    0.000    0.000 
#
# Total GULP energy -198445.769526 kJ/mol
# GULP energy per Si atom -12402.860595 kJ/mol
# Density = 2.414146 g / cm^3
# Si number density = 24.196529 Si / 1000 Ang^3
#
#
#
# Elastic Constant Matrix: (Units=GPa)
#
#
# Indices 1 2 3 4 5 6 
#
# 1 138.9775 25.4174 47.8373 -2.9808 14.2049 -4.4759
# 2 25.4174 90.1537 34.6844 2.1623 7.7046 -10.5935
# 3 47.8373 34.6844 123.1000 3.1773 0.5664 -2.7987
# 4 -2.9808 2.1623 3.1773 48.1876 1.7620 7.6113
# 5 14.2049 7.7046 0.5664 1.7620 42.8238 -2.2114
# 6 -4.4759 -10.5935 -2.7987 7.6113 -2.2114 37.2666
#
#
#
# Elastic Compliance Matrix: (Units=1/GPa)
#
#
# Indices 1 2 3 4 5 6 
#
# 1 0.008759 -0.001038 -0.003117 0.000863 -0.002703 0.000186
# 2 -0.001038 0.013199 -0.003205 -0.000929 -0.001771 0.003471
# 3 -0.003117 -0.003205 0.010243 -0.000735 0.001491 -0.000277
# 4 0.000863 -0.000929 -0.000735 0.021687 -0.001246 -0.004719
# 5 -0.002703 -0.001771 0.001491 -0.001246 0.024650 0.001001
# 6 0.000186 0.003471 -0.000277 -0.004719 0.001001 0.028845
#
#
# Mechanical properties :
#
#
# Convention : Reuss Voigt Hill
#
# Bulk Modulus (GPa) = 57.20001 63.12324 60.16162
# Shear Modulus (GPa) = 39.08393 41.94176 40.51284
#
# Velocity S-wave (km/s) = 4.02340 4.16790 4.09629
# Velocity P-wave (km/s) = 6.72865 7.02184 6.87681
#
# Compressibility (1/GPa) = 0.01748252
#
# Stress axis : x y z
#
# Youngs Moduli (GPa) = 114.16901 75.76218 97.62361
#
# Poissons Ratio (x) = 0.07865 0.30428
# Poissons Ratio (y) = 0.11852 0.31284
# Poissons Ratio (z) = 0.35585 0.24278
#
# Static dielectric constant tensor:
#      x y z
#    x 4.484930 -0.190030 0.113610 
#    y -0.190030 4.594650 -0.065450 
#    z 0.113610 -0.065450 4.270340 
# 
# 
# High freq. dielectric constant tensor:
#      x y z
#    x 1.964570 -0.008670 0.008380 
#    y -0.008670 1.992080 -0.005730 
#    z 0.008380 -0.005730 1.955800 
# 
# From -- ./inp_files/106885.got.cif
#   From: 2010.06.25/outbox.cif.g09.slc.cpg/sg2_54_cif.got.tgz:106885.got - 2010.06.27 13:26:56.
