data_PCOD8025783
_publ_section_title
;
Structure prediction by ZEFSAII (Michael W. Deem and Ramdas Pophale) SiO2 
 PCOD8025783
Probable space group: P -1
;
_chemical_formula_sum "Si O2"
_cell_formula_units_Z 14
_cell_length_a 10.836258
_cell_length_b 12.455766
_cell_length_c 9.524961
_cell_angle_alpha 39.640139
_cell_angle_beta 121.634549
_cell_angle_gamma 130.953328
_cell_volume 618.914071
_symmetry_space_group_name_H-M "P -1"
_symmetry_group_IT_number 2
_symmetry_cell_setting 'triclinic'
loop_
_space_group_symop_operation_xyz
x,y,z
-x,-y,-z
loop_
_atom_site_type_symbol
_atom_site_label
_atom_site_fract_x
_atom_site_fract_y
_atom_site_fract_z
Si Si1 0.980436 0.306852 0.998036
Si Si2 0.323414 0.837294 0.523566
Si Si3 0.541627 0.273151 0.516771
Si Si4 0.291144 0.436756 0.234867
Si Si5 0.043837 0.834062 0.187595
Si Si6 0.832893 0.549589 0.577298
Si Si7 0.303797 0.829567 0.827787
O O1 0.840073 0.175339 0.155588
O O2 0.155973 0.350302 0.119577
O O3 0.952259 0.213387 0.923676
O O4 0.968531 0.501349 0.776405
O O5 0.355448 0.680007 0.616171
O O6 0.220464 0.903054 0.293777
O O7 0.232777 0.774263 0.682142
O O8 0.500000 0.000000 0.500000
O O9 0.430466 0.379457 0.335640
O O10 0.669300 0.357212 0.635017
O O11 0.448576 0.044569 0.711970
O O12 0.215452 0.343504 0.436326
O O13 0.358608 0.666099 0.062221
O O14 0.903717 0.663465 0.362608
O O15 0.000000 0.000000 0.000000
#
# Coordination Sequence:
#
# PCOD8025783 Si02
#       7
#     2   2   2   2   2   2   2
#     4  11  24  45  72  99 135 185 226 291 342 402
#     4  10  23  46  67  99 138 179 221 282 344 405
#     4  11  25  43  72  99 144 184 223 289 341 405
#     4  11  25  43  71 106 135 184 233 280 345 412
#     4  12  27  43  73 104 135 179 235 283 345 415
#     4  11  24  48  68  97 143 180 231 285 341 409
#     4  10  24  45  72  98 142 178 236 277 349 404
#
# _framework density 22.620263999999999
#
# number of rings (size 3 to 8) (size 9 to 14) (size 15 to 20)
#    0.000    1.143    1.429    4.286    8.000    5.714 
#    0.000    0.000    0.000    0.000    0.000    0.000 
#    0.000    0.000    0.000    0.000    0.000    0.000 
#
# Total GULP energy -173472.976855 kJ/mol
# GULP energy per Si atom -12390.926918 kJ/mol
# Density = 2.256878 g / cm^3
# Si number density = 22.620264 Si / 1000 Ang^3
#
#
#
# Elastic Constant Matrix: (Units=GPa)
#
#
# Indices 1 2 3 4 5 6 
#
# 1 152.6017 64.9756 78.0303 22.1564 7.3832 -22.5077
# 2 64.9756 117.2511 55.5627 24.9712 -2.1871 5.2551
# 3 78.0303 55.5627 85.2824 10.8351 -8.0067 -5.5352
# 4 22.1564 24.9712 10.8351 39.3996 -9.0283 -10.6227
# 5 7.3832 -2.1871 -8.0067 -9.0283 47.1862 11.4226
# 6 -22.5077 5.2551 -5.5352 -10.6227 11.4226 41.8627
#
#
#
# Elastic Compliance Matrix: (Units=1/GPa)
#
#
# Indices 1 2 3 4 5 6 
#
# 1 0.016602 -0.002833 -0.013073 -0.003338 -0.007719 0.008812
# 2 -0.002833 0.015281 -0.006765 -0.007940 0.000023 -0.006357
# 3 -0.013073 -0.006765 0.028023 0.004886 0.008267 -0.003490
# 4 -0.003338 -0.007940 0.004886 0.034151 0.005843 0.006920
# 5 -0.007719 0.000023 0.008267 0.005843 0.027094 -0.008970
# 6 0.008812 -0.006357 -0.003490 0.006920 -0.008970 0.033166
#
#
# Mechanical properties :
#
#
# Convention : Reuss Voigt Hill
#
# Bulk Modulus (GPa) = 68.66348 83.58584 76.12466
# Shear Modulus (GPa) = 24.44823 36.12747 30.28785
#
# Velocity S-wave (km/s) = 3.29114 4.00074 3.66316
# Velocity P-wave (km/s) = 6.69797 7.64024 7.18457
#
# Compressibility (1/GPa) = 0.01456378
#
# Stress axis : x y z
#
# Youngs Moduli (GPa) = 60.23436 65.44130 35.68443
#
# Poissons Ratio (x) = 0.18540 0.46650
# Poissons Ratio (y) = 0.17065 0.24141
# Poissons Ratio (z) = 0.78744 0.44272
#
# Static dielectric constant tensor:
#      x y z
#    x 4.338320 -0.423590 -0.210930 
#    y -0.423590 0.400530 2.660340 
#    z -0.210930 2.660340 2.672170 
# 
# 
# High freq. dielectric constant tensor:
#      x y z
#    x 1.911210 -0.008450 -0.013620 
#    y -0.008450 1.905020 0.021730 
#    z -0.013620 0.021730 1.875470 
# 
# From -- ./inp_files/261333.got.cif
#   From: 2010.06.25/outbox.cif.g09.slc.cpg/sg2_131_cif.got.tgz:261333.got - 2010.06.27 13:26:56.
