data_PCOD8025365
_publ_section_title
;
Structure prediction by ZEFSAII (Michael W. Deem and Ramdas Pophale) SiO2 
 PCOD8025365
Probable space group: P -1
;
_chemical_formula_sum "Si O2"
_cell_formula_units_Z 14
_cell_length_a 8.865992
_cell_length_b 11.592140
_cell_length_c 8.141684
_cell_angle_alpha 62.724115
_cell_angle_beta 53.125490
_cell_angle_gamma 68.198201
_cell_volume 589.452633
_symmetry_space_group_name_H-M "P -1"
_symmetry_group_IT_number 2
_symmetry_cell_setting 'triclinic'
loop_
_space_group_symop_operation_xyz
x,y,z
-x,-y,-z
loop_
_atom_site_type_symbol
_atom_site_label
_atom_site_fract_x
_atom_site_fract_y
_atom_site_fract_z
Si Si1 0.121573 0.220453 0.976259
Si Si2 0.317095 0.002469 0.831659
Si Si3 0.981279 0.505838 0.310627
Si Si4 0.391188 0.385277 0.091814
Si Si5 0.537073 0.186398 0.868416
Si Si6 0.808393 0.287707 0.391885
Si Si7 0.547722 0.199489 0.369826
O O1 0.112573 0.087261 0.960263
O O2 0.062088 0.345789 0.818835
O O3 0.347803 0.199084 0.874890
O O4 0.007920 0.224626 0.219579
O O5 0.455883 0.098273 0.605030
O O6 0.292875 0.884881 0.797122
O O7 0.431927 0.943196 0.956567
O O8 0.824028 0.423682 0.388388
O O9 0.000000 0.500000 0.500000
O O10 0.177343 0.439905 0.143729
O O11 0.384429 0.283180 0.313652
O O12 0.500000 0.500000 0.000000
O O13 0.510394 0.317609 0.908618
O O14 0.730882 0.187849 0.635225
O O15 0.654441 0.303912 0.333402
#
# Coordination Sequence:
#
# PCOD8025365 Si02
#       7
#     2   2   2   2   2   2   2
#     4  12  25  46  72 101 147 180 234 294 343 426
#     4  10  23  48  70 101 145 188 237 281 361 410
#     4  12  27  46  70 110 143 181 234 296 353 423
#     4  11  23  45  73 102 147 185 230 290 360 416
#     4  11  25  45  71 103 141 189 229 295 347 417
#     4  12  26  44  74 111 134 183 244 284 360 408
#     4  10  23  44  77 102 137 194 233 290 348 426
#
# _framework density 23.750848000000001
#
# number of rings (size 3 to 8) (size 9 to 14) (size 15 to 20)
#    0.000    0.857    2.857    3.429    2.000    2.857 
#    0.000    0.000    0.000    0.000    0.000    0.000 
#    0.000    0.000    0.000    0.000    0.000    0.000 
#
# Total GULP energy -173492.201770 kJ/mol
# GULP energy per Si atom -12392.300126 kJ/mol
# Density = 2.369679 g / cm^3
# Si number density = 23.750848 Si / 1000 Ang^3
#
#
#
# Elastic Constant Matrix: (Units=GPa)
#
#
# Indices 1 2 3 4 5 6 
#
# 1 80.6793 38.7895 25.0828 -0.4536 18.3053 -1.0737
# 2 38.7895 136.1812 48.7952 5.1144 20.4196 -23.9372
# 3 25.0828 48.7952 142.3689 8.1799 16.4568 -22.0289
# 4 -0.4536 5.1144 8.1799 35.8957 0.7201 8.6109
# 5 18.3053 20.4196 16.4568 0.7201 34.0293 3.3317
# 6 -1.0737 -23.9372 -22.0289 8.6109 3.3317 40.4178
#
#
#
# Elastic Compliance Matrix: (Units=1/GPa)
#
#
# Indices 1 2 3 4 5 6 
#
# 1 0.015802 -0.003690 -0.001368 0.001730 -0.005423 -0.002433
# 2 -0.003690 0.010791 -0.001379 -0.002738 -0.004401 0.006488
# 3 -0.001368 -0.001379 0.009059 -0.003018 -0.003243 0.004995
# 4 0.001730 -0.002738 -0.003018 0.031331 0.002498 -0.010102
# 5 -0.005423 -0.004401 -0.003243 0.002498 0.037255 -0.008121
# 6 -0.002433 0.006488 0.004995 -0.010102 -0.008121 0.034063
#
#
# Mechanical properties :
#
#
# Convention : Reuss Voigt Hill
#
# Bulk Modulus (GPa) = 43.90211 64.95159 54.42685
# Shear Modulus (GPa) = 31.49240 38.50601 34.99921
#
# Velocity S-wave (km/s) = 3.64531 4.03084 3.84291
# Velocity P-wave (km/s) = 6.02015 7.00500 6.53117
#
# Compressibility (1/GPa) = 0.02277795
#
# Stress axis : x y z
#
# Youngs Moduli (GPa) = 63.28275 92.66665 110.39173
#
# Poissons Ratio (x) = 0.34197 0.15104
# Poissons Ratio (y) = 0.23353 0.15218
# Poissons Ratio (z) = 0.08659 0.12774
#
# Static dielectric constant tensor:
#      x y z
#    x 4.429220 0.129910 0.125600 
#    y 0.129910 5.634740 1.290520 
#    z 0.125600 1.290520 5.479770 
# 
# 
# High freq. dielectric constant tensor:
#      x y z
#    x 1.935970 0.018570 0.017080 
#    y 0.018570 1.958660 0.013010 
#    z 0.017080 0.013010 1.945530 
# 
# From -- ./inp_files/184638.got.cif
#   From: 2010.06.25/outbox.cif.g09.slc.cpg/sg2_93_cif.got.tgz:184638.got - 2010.06.27 13:26:56.
