data_PCOD8025793
_publ_section_title
;
Structure prediction by ZEFSAII (Michael W. Deem and Ramdas Pophale) SiO2 
 PCOD8025793
Probable space group: P -1
;
_chemical_formula_sum "Si O2"
_cell_formula_units_Z 16
_cell_length_a 11.733205
_cell_length_b 9.516520
_cell_length_c 18.728530
_cell_angle_alpha 112.699984
_cell_angle_beta 138.387732
_cell_angle_gamma 36.639656
_cell_volume 697.542528
_symmetry_space_group_name_H-M "P -1"
_symmetry_group_IT_number 2
_symmetry_cell_setting 'triclinic'
loop_
_space_group_symop_operation_xyz
x,y,z
-x,-y,-z
loop_
_atom_site_type_symbol
_atom_site_label
_atom_site_fract_x
_atom_site_fract_y
_atom_site_fract_z
Si Si1 0.398220 0.984717 0.288322
Si Si2 0.084710 0.416614 0.663098
Si Si3 0.203586 0.095295 0.457147
Si Si4 0.690448 0.494888 0.410715
Si Si5 0.288132 0.704904 0.375561
Si Si6 0.439406 0.957678 0.071436
Si Si7 0.956162 0.214994 0.014625
Si Si8 0.419496 0.835183 0.887094
O O1 0.055893 0.224359 0.138013
O O2 0.631740 0.844004 0.305781
O O3 0.464414 0.075680 0.392537
O O4 0.475233 0.766435 0.316905
O O5 0.214832 0.325564 0.786810
O O6 0.960009 0.672702 0.630433
O O7 0.823703 0.482406 0.540989
O O8 0.971040 0.223077 0.439057
O O9 0.270245 0.899905 0.403780
O O10 0.466318 0.531231 0.349182
O O11 0.500000 0.500000 0.500000
O O12 0.940364 0.895221 0.255785
O O13 0.400426 0.162438 0.068845
O O14 0.417998 0.861577 0.975909
O O15 0.161410 0.120545 0.026461
O O16 0.596818 0.541116 0.896629
O O17 0.000000 0.000000 0.000000
#
# Coordination Sequence:
#
# PCOD8025793 Si02
#       8
#     2   2   2   2   2   2   2   2
#     4   8  18  37  64  97 122 161 215 264 326 380
#     4   8  16  37  68  94 121 164 214 263 319 379
#     4   9  20  39  65  93 128 166 210 276 321 375
#     4   9  19  38  62  91 127 161 209 266 316 377
#     4  12  27  40  60  94 129 169 220 263 321 391
#     4  10  23  46  68  94 136 176 220 268 327 401
#     4  11  25  42  72 102 129 173 223 276 327 384
#     4  11  27  44  65  96 136 179 219 265 330 399
#
# _framework density 22.937670000000001
#
# number of rings (size 3 to 8) (size 9 to 14) (size 15 to 20)
#    0.000    2.250    0.000    2.625    7.000    7.000 
#    0.000    1.250    0.000    0.000    0.000    0.000 
#    0.000    0.000    0.000    0.000    0.000    0.000 
#
# Total GULP energy -198250.308943 kJ/mol
# GULP energy per Si atom -12390.644309 kJ/mol
# Density = 2.288546 g / cm^3
# Si number density = 22.937670 Si / 1000 Ang^3
#
#
#
# Elastic Constant Matrix: (Units=GPa)
#
#
# Indices 1 2 3 4 5 6 
#
# 1 104.4440 17.4287 35.8285 -9.5539 4.1274 -8.7187
# 2 17.4287 70.6908 25.0162 -4.7410 -0.5444 9.0457
# 3 35.8285 25.0162 122.6979 -14.4053 -12.6192 -6.7352
# 4 -9.5539 -4.7410 -14.4053 29.9498 -5.6658 0.6661
# 5 4.1274 -0.5444 -12.6192 -5.6658 37.5160 -0.3157
# 6 -8.7187 9.0457 -6.7352 0.6661 -0.3157 18.8964
#
#
#
# Elastic Compliance Matrix: (Units=1/GPa)
#
#
# Indices 1 2 3 4 5 6 
#
# 1 0.011563 -0.002567 -0.002557 0.001572 -0.001885 0.005566
# 2 -0.002567 0.017380 -0.003400 0.000415 -0.000637 -0.010741
# 3 -0.002557 -0.003400 0.010841 0.004640 0.004615 0.004226
# 4 0.001572 0.000415 0.004640 0.037503 0.007066 0.000976
# 5 -0.001885 -0.000637 0.004615 0.007066 0.029484 0.001323
# 6 0.005566 -0.010741 0.004226 0.000976 0.001323 0.062124
#
#
# Mechanical properties :
#
#
# Convention : Reuss Voigt Hill
#
# Bulk Modulus (GPa) = 43.98436 50.48663 47.23550
# Shear Modulus (GPa) = 25.83690 31.90975 28.87333
#
# Velocity S-wave (km/s) = 3.35982 3.73386 3.55177
# Velocity P-wave (km/s) = 5.85393 6.37551 6.12027
#
# Compressibility (1/GPa) = 0.02273535
#
# Stress axis : x y z
#
# Youngs Moduli (GPa) = 86.48336 57.53811 92.24034
#
# Poissons Ratio (x) = 0.14772 0.23584
# Poissons Ratio (y) = 0.22203 0.31363
# Poissons Ratio (z) = 0.22112 0.19564
#
# Static dielectric constant tensor:
#      x y z
#    x 3.936700 -0.509330 0.762270 
#    y -0.509330 3.029500 1.751260 
#    z 0.762270 1.751260 1.079420 
# 
# 
# High freq. dielectric constant tensor:
#      x y z
#    x 1.915660 -0.011790 -0.004230 
#    y -0.011790 1.879390 -0.004870 
#    z -0.004230 -0.004870 1.912020 
# 
# From -- ./inp_files/594152.got.cif
#   From: 2010.06.25/outbox.cif.g09.slc.cpg/sg2_298_cif.got.tgz:594152.got - 2010.06.27 13:26:56.
