data_PCOD8025157
_publ_section_title
;
Structure prediction by ZEFSAII (Michael W. Deem and Ramdas Pophale) SiO2 
 PCOD8025157
Probable space group: P -1
;
_chemical_formula_sum "Si O2"
_cell_formula_units_Z 14
_cell_length_a 11.713035
_cell_length_b 9.619906
_cell_length_c 21.553952
_cell_angle_alpha 36.668061
_cell_angle_beta 151.513417
_cell_angle_gamma 125.237953
_cell_volume 617.930690
_symmetry_space_group_name_H-M "P -1"
_symmetry_group_IT_number 2
_symmetry_cell_setting 'triclinic'
loop_
_space_group_symop_operation_xyz
x,y,z
-x,-y,-z
loop_
_atom_site_type_symbol
_atom_site_label
_atom_site_fract_x
_atom_site_fract_y
_atom_site_fract_z
Si Si1 0.269278 0.527780 0.106781
Si Si2 0.275235 0.289163 0.952532
Si Si3 0.201022 0.119429 0.699379
Si Si4 0.951013 0.069025 0.803575
Si Si5 0.046677 0.114956 0.419462
Si Si6 0.372112 0.141862 0.194044
Si Si7 0.251171 0.618385 0.520813
O O1 0.361528 0.406177 0.125502
O O2 0.511507 0.375193 0.326063
O O3 0.000000 0.500000 0.000000
O O4 0.193153 0.834920 0.965045
O O5 0.185310 0.594610 0.804735
O O6 0.042527 0.246016 0.824338
O O7 0.328856 0.172943 0.088927
O O8 0.534555 0.156726 0.079064
O O9 0.289407 0.324387 0.636298
O O10 0.059923 0.220547 0.662196
O O11 0.964742 0.081935 0.566497
O O12 0.732649 0.257698 0.582069
O O13 0.840536 0.932693 0.848767
O O14 0.000000 0.000000 0.500000
O O15 0.340697 0.099529 0.566771
#
# Coordination Sequence:
#
# PCOD8025157 Si02
#       7
#     2   2   2   2   2   2   2
#     4  10  23  44  70 100 135 178 228 284 337 407
#     4  12  26  45  71 103 140 183 228 286 342 411
#     4  11  24  45  68 103 136 183 226 290 336 407
#     4  11  26  45  72 101 138 186 230 283 343 410
#     4  12  25  43  68 101 140 182 228 278 348 407
#     4  11  26  44  70 103 140 180 230 286 346 407
#     4  11  24  46  73  99 141 177 236 286 341 403
#
# _framework density 22.656262000000002
#
# number of rings (size 3 to 8) (size 9 to 14) (size 15 to 20)
#    0.000    0.857    4.286    1.714    2.000    5.714 
#    0.000    0.000    0.000    0.000    0.000    0.000 
#    0.000    0.000    0.000    0.000    0.000    0.000 
#
# Total GULP energy -173481.231156 kJ/mol
# GULP energy per Si atom -12391.516511 kJ/mol
# Density = 2.260470 g / cm^3
# Si number density = 22.656262 Si / 1000 Ang^3
#
#
#
# Elastic Constant Matrix: (Units=GPa)
#
#
# Indices 1 2 3 4 5 6 
#
# 1 55.4764 22.3084 38.2780 1.0901 1.3188 1.9180
# 2 22.3084 112.9284 31.5301 9.8824 -5.4983 -11.2574
# 3 38.2780 31.5301 107.2888 11.6219 3.4702 -3.7741
# 4 1.0901 9.8824 11.6219 39.1417 -5.2308 -0.5519
# 5 1.3188 -5.4983 3.4702 -5.2308 35.4595 -1.9754
# 6 1.9180 -11.2574 -3.7741 -0.5519 -1.9754 28.5153
#
#
#
# Elastic Compliance Matrix: (Units=1/GPa)
#
#
# Indices 1 2 3 4 5 6 
#
# 1 0.025286 -0.003286 -0.008457 0.002514 -0.000480 -0.004102
# 2 -0.003286 0.010650 -0.001675 -0.001784 0.001914 0.004302
# 3 -0.008457 -0.001675 0.013316 -0.003499 -0.001682 0.001486
# 4 0.002514 -0.001784 -0.003499 0.027494 0.003999 -0.000527
# 5 -0.000480 0.001914 -0.001682 0.003999 0.029420 0.002681
# 6 -0.004102 0.004302 0.001486 -0.000527 0.002681 0.037415
#
#
# Mechanical properties :
#
#
# Convention : Reuss Voigt Hill
#
# Bulk Modulus (GPa) = 44.61071 51.10296 47.85683
# Shear Modulus (GPa) = 28.10743 32.86178 30.48461
#
# Velocity S-wave (km/s) = 3.52604 3.81261 3.67212
# Velocity P-wave (km/s) = 6.02580 6.47967 6.25685
#
# Compressibility (1/GPa) = 0.02241614
#
# Stress axis : x y z
#
# Youngs Moduli (GPa) = 39.54745 93.89602 75.09945
#
# Poissons Ratio (x) = 0.30857 0.63510
# Poissons Ratio (y) = 0.12996 0.12577
# Poissons Ratio (z) = 0.33445 0.15725
#
# Static dielectric constant tensor:
#      x y z
#    x 4.365970 -0.376440 1.741830 
#    y -0.376440 4.390020 -0.469190 
#    z 1.741830 -0.469190 8.382710 
# 
# 
# High freq. dielectric constant tensor:
#      x y z
#    x 1.876250 -0.013090 0.016450 
#    y -0.013090 1.912540 0.000990 
#    z 0.016450 0.000990 1.896670 
# 
# From -- ./inp_files/72162.got.cif
#   From: 2010.06.25/outbox.cif.g09.slc.cpg/sg2_37_cif.got.tgz:72162.got - 2010.06.27 13:26:56.
