data_PCOD8025734
_publ_section_title
;
Structure prediction by ZEFSAII (Michael W. Deem and Ramdas Pophale) SiO2 
 PCOD8025734
Probable space group: P -1
;
_chemical_formula_sum "Si O2"
_cell_formula_units_Z 16
_cell_length_a 19.862744
_cell_length_b 5.190702
_cell_length_c 6.578866
_cell_angle_alpha 83.929514
_cell_angle_beta 82.102872
_cell_angle_gamma 93.726024
_cell_volume 665.910810
_symmetry_space_group_name_H-M "P -1"
_symmetry_group_IT_number 2
_symmetry_cell_setting 'triclinic'
loop_
_space_group_symop_operation_xyz
x,y,z
-x,-y,-z
loop_
_atom_site_type_symbol
_atom_site_label
_atom_site_fract_x
_atom_site_fract_y
_atom_site_fract_z
Si Si1 0.139744 0.789621 0.810989
Si Si2 0.436754 0.288542 0.525222
Si Si3 0.730847 0.649016 0.747199
Si Si4 0.650300 0.442394 0.183895
Si Si5 0.482996 0.852258 0.819383
Si Si6 0.000160 0.732767 0.639513
Si Si7 0.139388 0.269109 0.075772
Si Si8 0.270364 0.837443 0.511405
O O1 0.065073 0.737185 0.755878
O O2 0.192263 0.871201 0.601925
O O3 0.163498 0.521374 0.912357
O O4 0.140934 0.009091 0.964616
O O5 0.500000 0.500000 0.500000
O O6 0.365682 0.384234 0.624862
O O7 0.443227 0.231156 0.284834
O O8 0.448730 0.027328 0.656704
O O9 0.809707 0.741747 0.753406
O O10 0.724285 0.390730 0.635884
O O11 0.699248 0.890424 0.624584
O O12 0.696178 0.599953 0.986123
O O13 0.577407 0.375798 0.105975
O O14 0.688291 0.208779 0.291940
O O15 0.500000 0.000000 0.000000
O O16 0.000000 0.500000 0.500000
O O17 0.935482 0.694354 0.814820
O O18 0.000000 0.000000 0.500000
#
# Coordination Sequence:
#
# PCOD8025734 Si02
#       8
#     2   2   2   2   2   2   2   2
#     4  12  24  45  73 101 150 197 248 317 373 430
#     4   9  22  44  68 101 141 180 229 295 360 433
#     4  12  28  47  75 108 147 202 249 307 376 448
#     4  11  27  47  72 106 149 187 250 299 370 452
#     4  10  23  45  76 104 143 184 238 298 374 430
#     4  12  24  42  68 107 146 194 259 306 371 448
#     4  12  24  45  72 103 147 193 258 306 378 442
#     4  12  28  48  73 107 150 198 249 308 376 442
#
# _framework density 24.027244
#
# number of rings (size 3 to 8) (size 9 to 14) (size 15 to 20)
#    0.000    0.750    1.250    5.250    3.500    6.000 
#    0.000    0.000    0.000    0.000    0.000    0.000 
#    0.000    0.000    0.000    0.000    0.000    0.000 
#
# Total GULP energy -198326.302130 kJ/mol
# GULP energy per Si atom -12395.393883 kJ/mol
# Density = 2.397256 g / cm^3
# Si number density = 24.027244 Si / 1000 Ang^3
#
#
#
# Elastic Constant Matrix: (Units=GPa)
#
#
# Indices 1 2 3 4 5 6 
#
# 1 93.3218 13.8263 50.5925 10.5655 -21.4116 1.7500
# 2 13.8263 134.8943 48.8765 8.4996 -2.4155 2.0315
# 3 50.5925 48.8765 133.7977 7.1143 -15.9265 -1.2750
# 4 10.5655 8.4996 7.1143 57.0976 -3.0390 5.7706
# 5 -21.4116 -2.4155 -15.9265 -3.0390 42.3902 8.4895
# 6 1.7500 2.0315 -1.2750 5.7706 8.4895 31.0255
#
#
#
# Elastic Compliance Matrix: (Units=1/GPa)
#
#
# Indices 1 2 3 4 5 6 
#
# 1 0.015024 0.000557 -0.005096 -0.001657 0.006077 -0.002448
# 2 0.000557 0.008637 -0.003376 -0.000950 -0.000477 -0.000428
# 3 -0.005096 -0.003376 0.010773 0.000103 0.001166 0.000613
# 4 -0.001657 -0.000950 0.000103 0.018374 0.001182 -0.003581
# 5 0.006077 -0.000477 0.001166 0.001182 0.028832 -0.008373
# 6 -0.002448 -0.000428 0.000613 -0.003581 -0.008373 0.035380
#
#
# Mechanical properties :
#
#
# Convention : Reuss Voigt Hill
#
# Bulk Modulus (GPa) = 53.75381 65.40048 59.57714
# Shear Modulus (GPa) = 35.95767 42.68389 39.32078
#
# Velocity S-wave (km/s) = 3.87271 4.21940 4.04977
# Velocity P-wave (km/s) = 6.51289 7.14256 6.83498
#
# Compressibility (1/GPa) = 0.01860333
#
# Stress axis : x y z
#
# Youngs Moduli (GPa) = 66.56162 115.77852 92.82182
#
# Poissons Ratio (x) = -0.06445 0.47302
# Poissons Ratio (y) = -0.03705 0.31337
# Poissons Ratio (z) = 0.33920 0.39087
#
# Static dielectric constant tensor:
#      x y z
#    x 4.710280 -0.066500 -0.352280 
#    y -0.066500 4.697650 0.078140 
#    z -0.352280 0.078140 4.578510 
# 
# 
# High freq. dielectric constant tensor:
#      x y z
#    x 1.964440 0.000740 -0.009010 
#    y 0.000740 1.967100 0.002500 
#    z -0.009010 0.002500 1.965060 
# 
# From -- ./inp_files/114509.got.cif
#   From: 2010.06.25/outbox.cif.g09.slc.cpg/sg2_58_cif.got.tgz:114509.got - 2010.06.27 13:26:56.
