data_PCOD8025234
_publ_section_title
;
Structure prediction by ZEFSAII (Michael W. Deem and Ramdas Pophale) SiO2 
 PCOD8025234
Probable space group: P -1
;
_chemical_formula_sum "Si O2"
_cell_formula_units_Z 16
_cell_length_a 9.599607
_cell_length_b 13.410912
_cell_length_c 9.302879
_cell_angle_alpha 44.321032
_cell_angle_beta 76.791715
_cell_angle_gamma 62.166387
_cell_volume 729.084223
_symmetry_space_group_name_H-M "P -1"
_symmetry_group_IT_number 2
_symmetry_cell_setting 'triclinic'
loop_
_space_group_symop_operation_xyz
x,y,z
-x,-y,-z
loop_
_atom_site_type_symbol
_atom_site_label
_atom_site_fract_x
_atom_site_fract_y
_atom_site_fract_z
Si Si1 0.837954 0.257031 0.846125
Si Si2 0.306661 0.769653 0.805304
Si Si3 0.443708 0.841946 0.290161
Si Si4 0.351464 0.463829 0.587795
Si Si5 0.820716 0.962317 0.036036
Si Si6 0.144325 0.126992 0.551794
Si Si7 0.568726 0.835578 0.573389
Si Si8 0.775598 0.313039 0.378148
O O1 0.789172 0.423910 0.604729
O O2 0.827027 0.132719 0.862254
O O3 0.714809 0.292663 0.970339
O O4 0.023670 0.175323 0.938854
O O5 0.494349 0.723586 0.775303
O O6 0.245161 0.681535 0.794403
O O7 0.206587 0.961345 0.619291
O O8 0.587823 0.720338 0.278566
O O9 0.338952 0.003243 0.055009
O O10 0.524231 0.875517 0.374984
O O11 0.321595 0.774835 0.441467
O O12 0.500000 0.500000 0.500000
O O13 0.288110 0.509169 0.720310
O O14 0.813738 0.910944 0.252044
O O15 0.239008 0.232159 0.380134
O O16 0.960316 0.222856 0.466408
O O17 0.500000 0.000000 0.500000
#
# Coordination Sequence:
#
# PCOD8025234 Si02
#       8
#     2   2   2   2   2   2   2   2
#     4  10  17  31  52  85 111 131 173 230 267 306
#     4   9  19  30  53  81 106 140 177 220 264 316
#     4  10  19  33  54  78 109 140 178 219 260 325
#     4  10  18  32  53  79 113 138 172 220 271 316
#     4  10  17  29  53  83 108 130 181 226 264 302
#     4  10  18  31  54  78 111 139 175 224 266 309
#     4   9  20  36  49  76 112 145 176 213 270 320
#     4  10  17  32  51  80 105 137 177 214 268 312
#
# _framework density 21.945339000000001
#
# number of rings (size 3 to 8) (size 9 to 14) (size 15 to 20)
#    0.000    2.250    3.750    1.875    0.000    2.500 
#    0.000    6.250    0.000    0.000    0.000    5.250 
#    0.000    0.000    0.000    0.000    0.000    0.000 
#
# Total GULP energy -198211.148602 kJ/mol
# GULP energy per Si atom -12388.196788 kJ/mol
# Density = 2.189539 g / cm^3
# Si number density = 21.945339 Si / 1000 Ang^3
#
#
#
# Elastic Constant Matrix: (Units=GPa)
#
#
# Indices 1 2 3 4 5 6 
#
# 1 88.6295 46.4602 18.5889 2.1711 19.9284 -8.8900
# 2 46.4602 103.9946 30.3373 20.2375 10.5081 -2.0774
# 3 18.5889 30.3373 49.0125 8.2238 11.0843 4.5299
# 4 2.1711 20.2375 8.2238 31.9997 -2.5105 11.6068
# 5 19.9284 10.5081 11.0843 -2.5105 20.5031 4.3603
# 6 -8.8900 -2.0774 4.5299 11.6068 4.3603 22.9849
#
#
#
# Elastic Compliance Matrix: (Units=1/GPa)
#
#
# Indices 1 2 3 4 5 6 
#
# 1 0.020339 -0.006066 -0.000025 -0.003822 -0.019885 0.013025
# 2 -0.006066 0.016592 -0.006302 -0.010870 -0.001858 0.006237
# 3 -0.000025 -0.006302 0.027696 -0.003253 -0.011653 -0.002184
# 4 -0.003822 -0.010870 -0.003253 0.053270 0.024670 -0.033400
# 5 -0.019885 -0.001858 -0.011653 0.024670 0.085661 -0.034270
# 6 0.013025 0.006237 -0.002184 -0.033400 -0.034270 0.072906
#
#
# Mechanical properties :
#
#
# Convention : Reuss Voigt Hill
#
# Bulk Modulus (GPa) = 25.09932 48.04549 36.57241
# Shear Modulus (GPa) = 15.89671 24.84756 20.37213
#
# Velocity S-wave (km/s) = 2.69435 3.36854 3.05013
# Velocity P-wave (km/s) = 4.59797 6.08853 5.39498
#
# Compressibility (1/GPa) = 0.03984171
#
# Stress axis : x y z
#
# Youngs Moduli (GPa) = 49.16560 60.26978 36.10653
#
# Poissons Ratio (x) = 0.36562 0.00090
# Poissons Ratio (y) = 0.29826 0.22753
# Poissons Ratio (z) = 0.00122 0.37980
#
# Static dielectric constant tensor:
#      x y z
#    x 4.272260 -0.312370 0.194630 
#    y -0.312370 4.629170 0.178980 
#    z 0.194630 0.178980 3.733650 
# 
# 
# High freq. dielectric constant tensor:
#      x y z
#    x 1.849470 -0.021140 0.022440 
#    y -0.021140 1.864230 0.024900 
#    z 0.022440 0.024900 1.827950 
# 
# From -- ./inp_files/200252.got.cif
#   From: 2010.06.25/outbox.cif.g09.slc.cpg/sg2_101_cif.got.tgz:200252.got - 2010.06.27 13:26:56.
