data_PCOD8025464
_publ_section_title
;
Structure prediction by ZEFSAII (Michael W. Deem and Ramdas Pophale) SiO2 
 PCOD8025464
Probable space group: P -1
;
_chemical_formula_sum "Si O2"
_cell_formula_units_Z 16
_cell_length_a 9.321941
_cell_length_b 15.259481
_cell_length_c 5.140886
_cell_angle_alpha 111.895157
_cell_angle_beta 102.835939
_cell_angle_gamma 67.025977
_cell_volume 622.194889
_symmetry_space_group_name_H-M "P -1"
_symmetry_group_IT_number 2
_symmetry_cell_setting 'triclinic'
loop_
_space_group_symop_operation_xyz
x,y,z
-x,-y,-z
loop_
_atom_site_type_symbol
_atom_site_label
_atom_site_fract_x
_atom_site_fract_y
_atom_site_fract_z
Si Si1 0.660262 0.147544 0.732919
Si Si2 0.673634 0.448306 0.612589
Si Si3 0.339292 0.977438 0.902658
Si Si4 0.686949 0.730425 0.280291
Si Si5 0.141545 0.757920 0.384151
Si Si6 0.805391 0.514154 0.246984
Si Si7 0.925677 0.665225 0.906220
Si Si8 0.877814 0.837369 0.706991
O O1 0.665532 0.106187 0.981311
O O2 0.498216 0.238825 0.736170
O O3 0.799554 0.191369 0.778981
O O4 0.679039 0.059013 0.434327
O O5 0.500000 0.500000 0.500000
O O6 0.710717 0.326765 0.514188
O O7 0.780706 0.468590 0.457780
O O8 0.697449 0.494741 0.952248
O O9 0.189122 0.075710 0.010452
O O10 0.500000 0.000000 0.000000
O O11 0.768515 0.634260 0.398940
O O12 0.748196 0.692054 0.971775
O O13 0.732479 0.830673 0.464708
O O14 0.028108 0.697496 0.197725
O O15 0.029310 0.847163 0.626413
O O16 0.992301 0.455474 0.214362
O O17 0.937673 0.726736 0.727857
#
# Coordination Sequence:
#
# PCOD8025464 Si02
#       8
#     2   2   2   2   2   2   2   2
#     4  12  28  46  74 106 136 178 240 291 339 427
#     4  11  23  43  67  99 149 187 223 284 344 410
#     4  12  27  48  74 103 140 178 233 292 360 402
#     4  11  25  42  70 105 136 187 234 288 344 411
#     4  10  25  45  68 104 141 184 231 282 352 409
#     4  11  24  41  68 105 136 186 236 278 338 414
#     4  10  23  45  68 100 146 186 226 286 346 414
#     4  11  24  45  73  94 146 186 226 294 350 410
#
# _framework density 25.715413999999999
#
# number of rings (size 3 to 8) (size 9 to 14) (size 15 to 20)
#    0.000    1.000    2.500    2.625    7.000    3.500 
#    0.000    0.000    0.000    0.000    0.000    0.000 
#    0.000    0.000    0.000    0.000    0.000    0.000 
#
# Total GULP energy -198307.340421 kJ/mol
# GULP energy per Si atom -12394.208776 kJ/mol
# Density = 2.565688 g / cm^3
# Si number density = 25.715414 Si / 1000 Ang^3
#
#
#
# Elastic Constant Matrix: (Units=GPa)
#
#
# Indices 1 2 3 4 5 6 
#
# 1 107.2801 37.6947 10.1387 10.4986 -39.8745 -6.8079
# 2 37.6947 103.2647 8.0729 8.9362 -11.7118 -3.5887
# 3 10.1387 8.0729 70.8610 8.4160 -18.4157 -0.6257
# 4 10.4986 8.9362 8.4160 47.4690 1.8102 -17.6729
# 5 -39.8745 -11.7118 -18.4157 1.8102 30.7888 -3.2449
# 6 -6.8079 -3.5887 -0.6257 -17.6729 -3.2449 45.1893
#
#
#
# Elastic Compliance Matrix: (Units=1/GPa)
#
#
# Indices 1 2 3 4 5 6 
#
# 1 0.023409 -0.004710 0.006453 -0.005389 0.033072 0.003509
# 2 -0.004710 0.011278 -0.001150 -0.000920 -0.002483 -0.000368
# 3 0.006453 -0.001150 0.019047 -0.005133 0.019672 0.000550
# 4 -0.005389 -0.000920 -0.005133 0.027050 -0.011060 0.008829
# 5 0.033072 -0.002483 0.019672 -0.011060 0.087523 0.007017
# 6 0.003509 -0.000368 0.000550 0.008829 0.007017 0.026593
#
#
# Mechanical properties :
#
#
# Convention : Reuss Voigt Hill
#
# Bulk Modulus (GPa) = 18.20836 43.69091 30.94963
# Shear Modulus (GPa) = 23.58256 39.72271 31.65264
#
# Velocity S-wave (km/s) = 3.03158 3.93454 3.51220
# Velocity P-wave (km/s) = 4.39887 6.13741 5.33938
#
# Compressibility (1/GPa) = 0.05491983
#
# Stress axis : x y z
#
# Youngs Moduli (GPa) = 42.71866 88.66509 52.50198
#
# Poissons Ratio (x) = 0.41764 -0.33881
# Poissons Ratio (y) = 0.20122 0.06039
# Poissons Ratio (z) = -0.27567 0.10198
#
# Static dielectric constant tensor:
#      x y z
#    x 4.718600 -0.064410 -0.183140 
#    y -0.064410 4.640210 0.190040 
#    z -0.183140 0.190040 4.979290 
# 
# 
# High freq. dielectric constant tensor:
#      x y z
#    x 2.027500 -0.005990 -0.017120 
#    y -0.005990 2.027400 0.001920 
#    z -0.017120 0.001920 2.036340 
# 
# From -- ./inp_files/39344.got.cif
#   From: 2010.06.25/outbox.cif.g09.slc.cpg/sg2_20_cif.got.tgz:39344.got - 2010.06.27 13:26:56.
