data_PCOD8025768
_publ_section_title
;
Structure prediction by ZEFSAII (Michael W. Deem and Ramdas Pophale) SiO2 
 PCOD8025768
Probable space group: P -1
;
_chemical_formula_sum "Si O2"
_cell_formula_units_Z 16
_cell_length_a 10.979496
_cell_length_b 5.603612
_cell_length_c 12.905413
_cell_angle_alpha 81.638444
_cell_angle_beta 76.365472
_cell_angle_gamma 62.140935
_cell_volume 681.620983
_symmetry_space_group_name_H-M "P -1"
_symmetry_group_IT_number 2
_symmetry_cell_setting 'triclinic'
loop_
_space_group_symop_operation_xyz
x,y,z
-x,-y,-z
loop_
_atom_site_type_symbol
_atom_site_label
_atom_site_fract_x
_atom_site_fract_y
_atom_site_fract_z
Si Si1 0.770992 0.780138 0.439851
Si Si2 0.632427 0.686076 0.893825
Si Si3 0.090596 0.302902 0.903404
Si Si4 0.726626 0.570266 0.666141
Si Si5 0.546513 0.336510 0.396067
Si Si6 0.679810 0.112205 0.995085
Si Si7 0.003051 0.853585 0.272025
Si Si8 0.794465 0.422301 0.275131
O O1 0.786159 0.712176 0.563229
O O2 0.891107 0.860217 0.379032
O O3 0.790896 0.519813 0.387342
O O4 0.615920 0.019134 0.430823
O O5 0.674501 0.747789 0.768627
O O6 0.696951 0.360116 0.921451
O O7 0.689398 0.856594 0.941702
O O8 0.466224 0.785654 0.922540
O O9 0.993169 0.301658 0.826669
O O10 0.210552 0.374276 0.826638
O O11 0.000000 0.500000 0.000000
O O12 0.184977 0.003802 0.948738
O O13 0.595261 0.546111 0.647315
O O14 0.847120 0.275648 0.694013
O O15 0.500000 0.500000 0.500000
O O16 0.657307 0.375432 0.296141
O O17 0.946985 0.168547 0.239146
#
# Coordination Sequence:
#
# PCOD8025768 Si02
#       8
#     2   2   2   2   2   2   2   2
#     4  10  23  46  66  99 139 180 230 282 355 426
#     4  10  25  43  70 105 140 181 241 292 372 419
#     4  11  25  43  75  95 136 189 238 292 352 424
#     4  12  24  42  72 101 138 181 230 299 345 430
#     4  11  24  43  68 103 136 183 232 285 353 427
#     4  10  24  47  66 102 144 184 233 305 356 429
#     4  10  25  45  65 103 136 182 235 280 364 423
#     4  10  24  44  67 100 138 177 237 282 350 435
#
# _framework density 23.473458000000001
#
# number of rings (size 3 to 8) (size 9 to 14) (size 15 to 20)
#    0.000    1.500    1.250    1.500    8.750    4.000 
#    4.500    0.000    0.000    0.000    0.000    0.000 
#    0.000    0.000    0.000    0.000    0.000    0.000 
#
# Total GULP energy -198269.095790 kJ/mol
# GULP energy per Si atom -12391.818487 kJ/mol
# Density = 2.342003 g / cm^3
# Si number density = 23.473458 Si / 1000 Ang^3
#
#
#
# Elastic Constant Matrix: (Units=GPa)
#
#
# Indices 1 2 3 4 5 6 
#
# 1 80.6364 45.7050 32.6584 -7.3745 22.1291 -28.9887
# 2 45.7050 137.1473 55.7911 3.4142 16.7628 -8.1164
# 3 32.6584 55.7911 162.2234 2.6645 -3.5047 -9.7819
# 4 -7.3745 3.4142 2.6645 25.1402 -7.6502 3.1482
# 5 22.1291 16.7628 -3.5047 -7.6502 32.1495 -9.5903
# 6 -28.9887 -8.1164 -9.7819 3.1482 -9.5903 40.0288
#
#
#
# Elastic Compliance Matrix: (Units=1/GPa)
#
#
# Indices 1 2 3 4 5 6 
#
# 1 0.023939 -0.005120 -0.002523 0.003499 -0.009321 0.013173
# 2 -0.005120 0.010535 -0.002798 -0.003479 -0.003977 -0.002935
# 3 -0.002523 -0.002798 0.007755 0.000033 0.004199 0.000504
# 4 0.003499 -0.003479 0.000033 0.044271 0.010180 0.000794
# 5 -0.009321 -0.003977 0.004199 0.010180 0.043388 0.003064
# 6 0.013173 -0.002935 0.000504 0.000794 0.003064 0.034722
#
#
# Mechanical properties :
#
#
# Convention : Reuss Voigt Hill
#
# Bulk Modulus (GPa) = 46.84471 72.03512 59.43992
# Shear Modulus (GPa) = 25.95953 35.85387 30.90670
#
# Velocity S-wave (km/s) = 3.32913 3.91246 3.63253
# Velocity P-wave (km/s) = 5.89722 7.15293 6.55521
#
# Compressibility (1/GPa) = 0.02134713
#
# Stress axis : x y z
#
# Youngs Moduli (GPa) = 41.77332 94.92264 128.94580
#
# Poissons Ratio (x) = 0.48596 0.32534
# Poissons Ratio (y) = 0.21386 0.36081
# Poissons Ratio (z) = 0.10540 0.26561
#
# Static dielectric constant tensor:
#      x y z
#    x 3.615390 0.021000 -0.713850 
#    y 0.021000 4.338510 0.194960 
#    z -0.713850 0.194960 3.847030 
# 
# 
# High freq. dielectric constant tensor:
#      x y z
#    x 1.923210 -0.015150 -0.015670 
#    y -0.015150 1.932420 0.004850 
#    z -0.015670 0.004850 1.940570 
# 
# From -- ./inp_files/364861.got.cif
#   From: 2010.06.25/outbox.cif.g09.slc.cpg/sg2_183_cif.got.tgz:364861.got - 2010.06.27 13:26:56.
