data_PCOD8025815
_publ_section_title
;
Structure prediction by ZEFSAII (Michael W. Deem and Ramdas Pophale) SiO2 
 PCOD8025815
Probable space group: P -1
;
_chemical_formula_sum "Si O2"
_cell_formula_units_Z 14
_cell_length_a 5.028202
_cell_length_b 8.275446
_cell_length_c 15.730392
_cell_angle_alpha 76.072149
_cell_angle_beta 101.466317
_cell_angle_gamma 121.626626
_cell_volume 538.863767
_symmetry_space_group_name_H-M "P -1"
_symmetry_group_IT_number 2
_symmetry_cell_setting 'triclinic'
loop_
_space_group_symop_operation_xyz
x,y,z
-x,-y,-z
loop_
_atom_site_type_symbol
_atom_site_label
_atom_site_fract_x
_atom_site_fract_y
_atom_site_fract_z
Si Si1 0.161607 0.969990 0.822674
Si Si2 0.511586 0.166432 0.536721
Si Si3 0.833341 0.333082 0.252849
Si Si4 0.779298 0.345564 0.875642
Si Si5 0.440371 0.383720 0.354646
Si Si6 0.897911 0.808554 0.353852
Si Si7 0.803778 0.642351 0.950044
O O1 0.468385 0.151275 0.857796
O O2 0.997322 0.038940 0.735093
O O3 0.273589 0.826592 0.808669
O O4 0.463698 0.713162 0.702199
O O5 0.530399 0.334663 0.457666
O O6 0.208236 0.103269 0.585832
O O7 0.824909 0.237344 0.603327
O O8 0.500000 0.000000 0.500000
O O9 0.102441 0.143636 0.105317
O O10 0.971119 0.554912 0.198398
O O11 0.073764 0.309182 0.332767
O O12 0.733109 0.526391 0.871369
O O13 0.904585 0.312482 0.977090
O O14 0.603339 0.612346 0.328627
O O15 0.500000 0.500000 0.000000
#
# Coordination Sequence:
#
# PCOD8025815 Si02
#       7
#     2   2   2   2   2   2   2
#     4  11  24  46  72 107 148 191 247 303 370 443
#     4  12  25  45  70 103 151 190 253 302 362 432
#     4  11  25  44  73 106 149 193 249 302 368 429
#     4  10  23  46  69 106 146 189 241 303 365 447
#     4  12  24  47  70 105 149 197 247 308 359 435
#     4  12  25  44  70 109 140 201 246 298 372 432
#     4  10  24  46  73 107 143 189 241 301 374 439
#
# _framework density 25.980592000000001
#
# number of rings (size 3 to 8) (size 9 to 14) (size 15 to 20)
#    0.000    0.857    1.429    5.143    4.000    0.571 
#    7.714    0.000    0.000    0.000    0.000    0.000 
#    0.000    0.000    0.000    0.000    0.000    0.000 
#
# Total GULP energy -173454.250070 kJ/mol
# GULP energy per Si atom -12389.589291 kJ/mol
# Density = 2.592146 g / cm^3
# Si number density = 25.980592 Si / 1000 Ang^3
#
#
#
# Elastic Constant Matrix: (Units=GPa)
#
#
# Indices 1 2 3 4 5 6 
#
# 1 70.8652 2.0976 42.7311 -16.9345 7.2826 -2.2890
# 2 2.0976 144.6282 67.2347 -15.9362 3.2199 9.6955
# 3 42.7311 67.2347 134.8709 -19.7291 -6.4030 11.6634
# 4 -16.9345 -15.9362 -19.7291 47.2174 9.0085 -7.9207
# 5 7.2826 3.2199 -6.4030 9.0085 22.9559 -2.7185
# 6 -2.2890 9.6955 11.6634 -7.9207 -2.7185 28.9763
#
#
#
# Elastic Compliance Matrix: (Units=1/GPa)
#
#
# Indices 1 2 3 4 5 6 
#
# 1 0.023977 0.005325 -0.009960 0.009895 -0.014366 0.005478
# 2 0.005325 0.010513 -0.006669 0.003931 -0.006561 0.000046
# 3 -0.009960 -0.006669 0.014339 -0.002133 0.008444 -0.004118
# 4 0.009895 0.003931 -0.002133 0.029166 -0.014914 0.006898
# 5 -0.014366 -0.006561 0.008444 -0.014914 0.057122 -0.001056
# 6 0.005478 0.000046 -0.004118 0.006898 -0.001056 0.038372
#
#
# Mechanical properties :
#
#
# Convention : Reuss Voigt Hill
#
# Bulk Modulus (GPa) = 38.13354 63.83233 50.98294
# Shear Modulus (GPa) = 24.40960 35.71664 30.06312
#
# Velocity S-wave (km/s) = 3.06850 3.71178 3.40536
# Velocity P-wave (km/s) = 5.22148 6.55685 5.92689
#
# Compressibility (1/GPa) = 0.02622363
#
# Stress axis : x y z
#
# Youngs Moduli (GPa) = 41.70656 95.11766 69.73828
#
# Poissons Ratio (x) = -0.50651 0.69456
# Poissons Ratio (y) = -0.22209 0.46505
# Poissons Ratio (z) = 0.41538 0.63430
#
# Static dielectric constant tensor:
#      x y z
#    x 4.772210 0.111890 -0.223830 
#    y 0.111890 4.927470 -0.473840 
#    z -0.223830 -0.473840 6.700940 
# 
# 
# High freq. dielectric constant tensor:
#      x y z
#    x 2.018860 0.008690 -0.001320 
#    y 0.008690 2.052200 -0.007380 
#    z -0.001320 -0.007380 2.061920 
# 
# From -- ./inp_files/548002.got.cif
#   From: 2010.06.25/outbox.cif.g09.slc.cpg/sg2_275_cif.got.tgz:548002.got - 2010.06.27 13:26:56.
