data_PCOD8025326
_publ_section_title
;
Structure prediction by ZEFSAII (Michael W. Deem and Ramdas Pophale) SiO2 
 PCOD8025326
Probable space group: P -1
;
_chemical_formula_sum "Si O2"
_cell_formula_units_Z 14
_cell_length_a 11.329193
_cell_length_b 12.189527
_cell_length_c 5.274232
_cell_angle_alpha 75.444136
_cell_angle_beta 58.480075
_cell_angle_gamma 57.888941
_cell_volume 525.553888
_symmetry_space_group_name_H-M "P -1"
_symmetry_group_IT_number 2
_symmetry_cell_setting 'triclinic'
loop_
_space_group_symop_operation_xyz
x,y,z
-x,-y,-z
loop_
_atom_site_type_symbol
_atom_site_label
_atom_site_fract_x
_atom_site_fract_y
_atom_site_fract_z
Si Si1 0.460538 0.860024 0.348346
Si Si2 0.212994 0.813943 0.801948
Si Si3 0.717618 0.862172 0.740027
Si Si4 0.946019 0.619387 0.310823
Si Si5 0.711029 0.461077 0.072421
Si Si6 0.101986 0.034436 0.178548
Si Si7 0.345035 0.386326 0.476928
O O1 0.310776 0.838232 0.446708
O O2 0.528114 0.768031 0.577810
O O3 0.392271 0.013390 0.386318
O O4 0.603522 0.809287 0.012751
O O5 0.032778 0.852637 0.912472
O O6 0.314410 0.663574 0.866506
O O7 0.215951 0.907905 0.963765
O O8 0.857963 0.753861 0.484905
O O9 0.793988 0.906633 0.853192
O O10 0.821831 0.609606 0.265529
O O11 0.000000 0.500000 0.500000
O O12 0.104093 0.604128 0.015306
O O13 0.659693 0.546561 0.824761
O O14 0.614149 0.544482 0.377203
O O15 0.000000 0.000000 0.500000
#
# Coordination Sequence:
#
# PCOD8025326 Si02
#       7
#     2   2   2   2   2   2   2
#     4  11  26  47  69 112 149 197 245 304 372 458
#     4  11  27  43  72 111 147 192 254 305 373 444
#     4  11  25  45  80 105 150 198 244 306 383 435
#     4  10  23  44  73 110 142 188 251 308 360 441
#     4  11  26  46  78 108 148 203 245 315 371 433
#     4  11  24  46  72 108 147 191 249 313 363 448
#     4  11  26  47  72 110 155 195 251 304 374 446
#
# _framework density 26.638563000000001
#
# number of rings (size 3 to 8) (size 9 to 14) (size 15 to 20)
#    0.000    1.143    1.429    3.000   10.000    5.714 
#    0.000    0.000    0.000    0.000    0.000    0.000 
#    0.000    0.000    0.000    0.000    0.000    0.000 
#
# Total GULP energy -173458.042494 kJ/mol
# GULP energy per Si atom -12389.860178 kJ/mol
# Density = 2.657793 g / cm^3
# Si number density = 26.638563 Si / 1000 Ang^3
#
#
#
# Elastic Constant Matrix: (Units=GPa)
#
#
# Indices 1 2 3 4 5 6 
#
# 1 89.0546 46.0538 41.6478 1.4544 0.3106 3.6978
# 2 46.0538 189.9078 54.7658 -3.5301 16.8349 -11.8374
# 3 41.6478 54.7658 91.1577 -1.2260 8.9572 7.8355
# 4 1.4544 -3.5301 -1.2260 38.1037 4.4182 -6.5822
# 5 0.3106 16.8349 8.9572 4.4182 44.5055 -0.6101
# 6 3.6978 -11.8374 7.8355 -6.5822 -0.6101 41.3762
#
#
#
# Elastic Compliance Matrix: (Units=1/GPa)
#
#
# Indices 1 2 3 4 5 6 
#
# 1 0.015129 -0.002320 -0.005639 -0.001407 0.002031 -0.001142
# 2 -0.002320 0.007186 -0.003293 0.001429 -0.002139 0.003083
# 3 -0.005639 -0.003293 0.016021 0.000053 -0.001993 -0.003493
# 4 -0.001407 0.001429 0.000053 0.027647 -0.003219 0.004875
# 5 0.002031 -0.002139 -0.001993 -0.003219 0.023977 -0.000575
# 6 -0.001142 0.003083 -0.003493 0.004875 -0.000575 0.026581
#
#
# Mechanical properties :
#
#
# Convention : Reuss Voigt Hill
#
# Bulk Modulus (GPa) = 63.15787 72.78389 67.97088
# Shear Modulus (GPa) = 34.64447 39.97392 37.30920
#
# Velocity S-wave (km/s) = 3.61021 3.87797 3.74648
# Velocity P-wave (km/s) = 6.41395 6.88720 6.65479
#
# Compressibility (1/GPa) = 0.01583334
#
# Stress axis : x y z
#
# Youngs Moduli (GPa) = 66.09729 139.15302 62.41721
#
# Poissons Ratio (x) = 0.32287 0.35194
# Poissons Ratio (y) = 0.15336 0.20554
# Poissons Ratio (z) = 0.37269 0.45822
#
# Static dielectric constant tensor:
#      x y z
#    x 6.089650 -0.338960 -1.070470 
#    y -0.338960 5.062080 0.028100 
#    z -1.070470 0.028100 4.906930 
# 
# 
# High freq. dielectric constant tensor:
#      x y z
#    x 2.071360 -0.013220 -0.033660 
#    y -0.013220 2.095630 -0.007140 
#    z -0.033660 -0.007140 2.051940 
# 
# From -- ./inp_files/69547.got.cif
#   From: 2010.06.25/outbox.cif.g09.slc.cpg/sg2_35_cif.got.tgz:69547.got - 2010.06.27 13:26:56.
