data_PCOD8025248
_publ_section_title
;
Structure prediction by ZEFSAII (Michael W. Deem and Ramdas Pophale) SiO2 
 PCOD8025248
Probable space group: P -1
;
_chemical_formula_sum "Si O2"
_cell_formula_units_Z 14
_cell_length_a 8.953811
_cell_length_b 13.905160
_cell_length_c 7.813472
_cell_angle_alpha 48.403571
_cell_angle_beta 87.180180
_cell_angle_gamma 60.155150
_cell_volume 568.650066
_symmetry_space_group_name_H-M "P -1"
_symmetry_group_IT_number 2
_symmetry_cell_setting 'triclinic'
loop_
_space_group_symop_operation_xyz
x,y,z
-x,-y,-z
loop_
_atom_site_type_symbol
_atom_site_label
_atom_site_fract_x
_atom_site_fract_y
_atom_site_fract_z
Si Si1 0.333617 0.538354 0.586489
Si Si2 0.158149 0.434809 0.212425
Si Si3 0.589048 0.768920 0.160254
Si Si4 0.974754 0.699045 0.191206
Si Si5 0.649410 0.929960 0.419408
Si Si6 0.460348 0.695338 0.596993
Si Si7 0.859873 0.970675 0.609606
O O1 0.500000 0.500000 0.500000
O O2 0.363618 0.369595 0.818789
O O3 0.350957 0.618089 0.661276
O O4 0.120285 0.666579 0.368900
O O5 0.278166 0.240786 0.463714
O O6 0.333824 0.441548 0.157321
O O7 0.060579 0.531814 0.279200
O O8 0.000000 0.500000 0.000000
O O9 0.774239 0.756676 0.208345
O O10 0.503915 0.744932 0.358051
O O11 0.431698 0.946368 0.880071
O O12 0.947988 0.838469 0.911235
O O13 0.832968 0.897591 0.530594
O O14 0.500000 0.000000 0.500000
O O15 0.335960 0.857369 0.526260
O O16 0.000000 0.000000 0.500000
#
# Coordination Sequence:
#
# PCOD8025248 Si02
#       7
#     2   2   2   2   2   2   2
#     4  10  23  44  71 109 148 187 237 303 362 425
#     4  12  23  43  77 106 145 189 239 298 362 435
#     4  11  24  47  79 105 147 192 246 307 356 434
#     4  12  24  47  74 110 146 188 250 300 360 439
#     4  12  24  48  72 108 150 190 245 302 361 433
#     4  11  26  50  75 109 147 195 245 298 370 430
#     4  12  29  49  70 107 150 196 242 303 369 434
#
# _framework density 24.619710999999999
#
# number of rings (size 3 to 8) (size 9 to 14) (size 15 to 20)
#    0.000    0.571    7.143    0.429    4.000    4.000 
#    2.571    1.429    0.000    0.000    0.000    0.000 
#    0.000    0.000    0.000    0.000    0.000    0.000 
#
# Total GULP energy -173507.136584 kJ/mol
# GULP energy per Si atom -12393.366899 kJ/mol
# Density = 2.456368 g / cm^3
# Si number density = 24.619711 Si / 1000 Ang^3
#
#
#
# Elastic Constant Matrix: (Units=GPa)
#
#
# Indices 1 2 3 4 5 6 
#
# 1 149.9851 18.1205 48.5779 7.8170 16.3717 24.2751
# 2 18.1205 82.7862 10.8704 -7.0343 2.3069 13.5171
# 3 48.5779 10.8704 104.3565 -14.6131 19.0635 0.0413
# 4 7.8170 -7.0343 -14.6131 29.2138 3.6321 0.5112
# 5 16.3717 2.3069 19.0635 3.6321 49.2379 14.1593
# 6 24.2751 13.5171 0.0413 0.5112 14.1593 43.6118
#
#
#
# Elastic Compliance Matrix: (Units=1/GPa)
#
#
# Indices 1 2 3 4 5 6 
#
# 1 0.009516 -0.001036 -0.005223 -0.005416 0.000791 -0.005164
# 2 -0.001036 0.013256 -0.000611 0.003127 0.000833 -0.003838
# 3 -0.005223 -0.000611 0.014430 0.009116 -0.005901 0.004892
# 4 -0.005416 0.003127 0.009116 0.041671 -0.005950 0.003480
# 5 0.000791 0.000833 -0.005901 -0.005950 0.025270 -0.008827
# 6 -0.005164 -0.003838 0.004892 0.003480 -0.008827 0.029814
#
#
# Mechanical properties :
#
#
# Convention : Reuss Voigt Hill
#
# Bulk Modulus (GPa) = 42.62362 54.69617 48.65990
# Shear Modulus (GPa) = 32.15092 41.71663 36.93378
#
# Velocity S-wave (km/s) = 3.61765 4.12082 3.87741
# Velocity P-wave (km/s) = 5.89917 6.70121 6.31294
#
# Compressibility (1/GPa) = 0.02346117
#
# Stress axis : x y z
#
# Youngs Moduli (GPa) = 105.08945 75.44015 69.30068
#
# Poissons Ratio (x) = 0.07817 0.36192
# Poissons Ratio (y) = 0.10889 0.04236
# Poissons Ratio (z) = 0.54883 0.04612
#
# Static dielectric constant tensor:
#      x y z
#    x 5.094660 0.120870 0.143360 
#    y 0.120870 5.246710 -0.784680 
#    z 0.143360 -0.784680 4.630420 
# 
# 
# High freq. dielectric constant tensor:
#      x y z
#    x 2.002430 0.015010 0.011630 
#    y 0.015010 1.982950 -0.012880 
#    z 0.011630 -0.012880 1.972020 
# 
# From -- ./inp_files/199545.got.cif
#   From: 2010.06.25/outbox.cif.g09.slc.cpg/sg2_100_cif.got.tgz:199545.got - 2010.06.27 13:26:56.
