data_PCOD8025257
_publ_section_title
;
Structure prediction by ZEFSAII (Michael W. Deem and Ramdas Pophale) SiO2 
 PCOD8025257
Probable space group: P -1
;
_chemical_formula_sum "Si O2"
_cell_formula_units_Z 16
_cell_length_a 15.625815
_cell_length_b 9.307666
_cell_length_c 9.661812
_cell_angle_alpha 134.627565
_cell_angle_beta 65.259455
_cell_angle_gamma 84.061598
_cell_volume 716.260795
_symmetry_space_group_name_H-M "P -1"
_symmetry_group_IT_number 2
_symmetry_cell_setting 'triclinic'
loop_
_space_group_symop_operation_xyz
x,y,z
-x,-y,-z
loop_
_atom_site_type_symbol
_atom_site_label
_atom_site_fract_x
_atom_site_fract_y
_atom_site_fract_z
Si Si1 0.463958 0.340956 0.485429
Si Si2 0.144276 0.157461 0.070487
Si Si3 0.865818 0.370130 0.909938
Si Si4 0.930249 0.853307 0.587868
Si Si5 0.330600 0.254000 0.063778
Si Si6 0.256359 0.593104 0.603046
Si Si7 0.390395 0.293899 0.769294
Si Si8 0.063777 0.559385 0.808978
O O1 0.500000 0.500000 0.500000
O O2 0.339773 0.429164 0.564739
O O3 0.437595 0.410357 0.715078
O O4 0.560751 0.042400 0.187279
O O5 0.062432 0.210631 0.296477
O O6 0.212284 0.277873 0.131522
O O7 0.066504 0.283874 0.068728
O O8 0.240820 0.854037 0.772213
O O9 0.937498 0.281603 0.656192
O O10 0.850058 0.157129 0.824930
O O11 0.733044 0.636866 0.163824
O O12 0.940895 0.397235 0.992790
O O13 0.870444 0.740586 0.472124
O O14 0.318145 0.418307 0.310301
O O15 0.357839 0.381842 0.009636
O O16 0.128473 0.661984 0.763086
O O17 0.500000 0.000000 0.500000
#
# Coordination Sequence:
#
# PCOD8025257 Si02
#       8
#     2   2   2   2   2   2   2   2
#     4  11  22  46  75  97 132 178 229 281 339 396
#     4  12  24  41  64 101 137 176 221 273 338 404
#     4  11  24  43  65  96 140 174 225 280 335 403
#     4  11  24  40  66  98 133 184 219 272 342 402
#     4  11  25  43  71  98 138 176 224 277 339 402
#     4  12  24  41  69  98 133 179 228 279 329 407
#     4  10  23  44  71  97 132 180 219 283 340 391
#     4  12  24  39  66  96 135 175 223 276 333 408
#
# _framework density 22.338234
#
# number of rings (size 3 to 8) (size 9 to 14) (size 15 to 20)
#    0.000    0.750    5.000    2.250    1.750    1.000 
#    0.000    0.625    2.750    0.000    0.000    0.000 
#    0.000    0.000    0.000    0.000    0.000    0.000 
#
# Total GULP energy -198258.604288 kJ/mol
# GULP energy per Si atom -12391.162768 kJ/mol
# Density = 2.228739 g / cm^3
# Si number density = 22.338234 Si / 1000 Ang^3
#
#
#
# Elastic Constant Matrix: (Units=GPa)
#
#
# Indices 1 2 3 4 5 6 
#
# 1 61.5386 39.4831 34.3619 14.3991 0.6782 -12.6872
# 2 39.4831 114.7846 52.6589 -6.5147 0.4535 -5.0978
# 3 34.3619 52.6589 111.3982 -4.2485 8.0178 -11.2776
# 4 14.3991 -6.5147 -4.2485 20.2501 4.1002 -6.7825
# 5 0.6782 0.4535 8.0178 4.1002 40.0592 7.2751
# 6 -12.6872 -5.0978 -11.2776 -6.7825 7.2751 41.3092
#
#
#
# Elastic Compliance Matrix: (Units=1/GPa)
#
#
# Indices 1 2 3 4 5 6 
#
# 1 0.033395 -0.009935 -0.006743 -0.028415 0.003457 0.001915
# 2 -0.009935 0.014227 -0.003246 0.010937 -0.000405 -0.000315
# 3 -0.006743 -0.003246 0.013545 0.008528 -0.004039 0.003338
# 4 -0.028415 0.010937 0.008528 0.080634 -0.011457 0.010208
# 5 0.003457 -0.000405 -0.004039 -0.011457 0.028149 -0.006929
# 6 0.001915 -0.000315 0.003338 0.010208 -0.006929 0.028565
#
#
# Mechanical properties :
#
#
# Convention : Reuss Voigt Hill
#
# Bulk Modulus (GPa) = 46.90822 60.08104 53.49463
# Shear Modulus (GPa) = 20.36912 31.07152 25.72032
#
# Velocity S-wave (km/s) = 3.02296 3.73360 3.39691
# Velocity P-wave (km/s) = 5.76447 6.74839 6.27574
#
# Compressibility (1/GPa) = 0.02131822
#
# Stress axis : x y z
#
# Youngs Moduli (GPa) = 29.94465 70.28932 73.82614
#
# Poissons Ratio (x) = 0.69831 0.49784
# Poissons Ratio (y) = 0.29749 0.23966
# Poissons Ratio (z) = 0.20193 0.22818
#
# Static dielectric constant tensor:
#      x y z
#    x 3.980470 -0.055730 -0.026620 
#    y -0.055730 4.650710 -0.183970 
#    z -0.026620 -0.183970 4.239790 
# 
# 
# High freq. dielectric constant tensor:
#      x y z
#    x 1.858400 -0.003650 -0.011800 
#    y -0.003650 1.901470 -0.011530 
#    z -0.011800 -0.011530 1.883360 
# 
# From -- ./inp_files/299618.got.cif
#   From: 2010.06.25/outbox.cif.g09.slc.cpg/sg2_150_cif.got.tgz:299618.got - 2010.06.27 13:26:56.
