data_PCOD8025023
_publ_section_title
;
Structure prediction by ZEFSAII (Michael W. Deem and Ramdas Pophale) SiO2 
 PCOD8025023
Probable space group: P -1
;
_chemical_formula_sum "Si O2"
_cell_formula_units_Z 16
_cell_length_a 14.368694
_cell_length_b 14.524915
_cell_length_c 8.216641
_cell_angle_alpha 66.805951
_cell_angle_beta 106.494526
_cell_angle_gamma 151.917366
_cell_volume 733.961425
_symmetry_space_group_name_H-M "P -1"
_symmetry_group_IT_number 2
_symmetry_cell_setting 'triclinic'
loop_
_space_group_symop_operation_xyz
x,y,z
-x,-y,-z
loop_
_atom_site_type_symbol
_atom_site_label
_atom_site_fract_x
_atom_site_fract_y
_atom_site_fract_z
Si Si1 0.472426 0.308638 0.234365
Si Si2 0.784906 0.287560 0.469314
Si Si3 0.833170 0.643393 0.933216
Si Si4 0.058291 0.470521 0.920680
Si Si5 0.270058 0.086739 0.973119
Si Si6 0.538574 0.501490 0.700329
Si Si7 0.589470 0.944934 0.437259
Si Si8 0.645308 0.036030 0.039417
O O1 0.452476 0.397084 0.246174
O O2 0.465341 0.218088 0.433430
O O3 0.679679 0.498544 0.107632
O O4 0.286261 0.118361 0.153387
O O5 0.616251 0.176963 0.582920
O O6 0.000000 0.500000 0.500000
O O7 0.779462 0.343143 0.256706
O O8 0.739993 0.130511 0.515510
O O9 0.749480 0.634744 0.748136
O O10 0.043066 0.872278 0.948839
O O11 0.855732 0.551605 0.936315
O O12 0.000000 0.500000 0.000000
O O13 0.843594 0.248356 0.889999
O O14 0.355166 0.263309 0.811344
O O15 0.413914 0.120230 0.974706
O O16 0.500000 0.500000 0.500000
O O17 0.690521 0.042179 0.242786
O O18 0.500000 0.000000 0.000000
#
# Coordination Sequence:
#
# PCOD8025023 Si02
#       8
#     2   2   2   2   2   2   2   2
#     4  11  24  43  69  97 132 174 229 283 340 399
#     4  11  24  41  61  93 135 179 222 271 333 400
#     4  10  23  44  67  98 135 173 228 277 335 408
#     4  11  22  41  63  95 136 177 219 271 330 397
#     4  10  24  43  69  97 131 177 223 278 342 401
#     4  11  25  46  71  98 133 174 227 286 343 400
#     4  11  24  40  63  93 134 173 226 283 329 396
#     4  11  24  39  65  96 134 182 224 271 336 399
#
# _framework density 21.799512
#
# number of rings (size 3 to 8) (size 9 to 14) (size 15 to 20)
#    0.000    1.250    2.500    3.000   10.500    2.500 
#    2.250    2.500    0.000    0.000    0.000    0.000 
#    0.000    0.000    0.000    0.000    0.000    0.000 
#
# Total GULP energy -198257.519427 kJ/mol
# GULP energy per Si atom -12391.094964 kJ/mol
# Density = 2.174989 g / cm^3
# Si number density = 21.799512 Si / 1000 Ang^3
#
#
#
# Elastic Constant Matrix: (Units=GPa)
#
#
# Indices 1 2 3 4 5 6 
#
# 1 147.7829 52.8245 36.7002 6.7186 19.5169 -23.9483
# 2 52.8245 135.9433 26.6436 3.8018 10.6091 -2.4540
# 3 36.7002 26.6436 81.6195 -1.3068 11.0949 -8.6822
# 4 6.7186 3.8018 -1.3068 32.7239 -1.8302 1.0156
# 5 19.5169 10.6091 11.0949 -1.8302 36.4712 -3.8196
# 6 -23.9483 -2.4540 -8.6822 1.0156 -3.8196 41.3804
#
#
#
# Elastic Compliance Matrix: (Units=1/GPa)
#
#
# Indices 1 2 3 4 5 6 
#
# 1 0.009696 -0.002881 -0.002521 -0.002080 -0.003199 0.004667
# 2 -0.002881 0.008844 -0.001667 -0.000494 -0.000710 -0.001546
# 3 -0.002521 -0.001667 0.014398 0.001116 -0.002362 0.001218
# 4 -0.002080 -0.000494 0.001116 0.031266 0.002324 -0.001552
# 5 -0.003199 -0.000710 -0.002362 0.002324 0.030209 0.000342
# 6 0.004667 -0.001546 0.001218 -0.001552 0.000342 0.027101
#
#
# Mechanical properties :
#
#
# Convention : Reuss Voigt Hill
#
# Bulk Modulus (GPa) = 53.19526 66.40915 59.80220
# Shear Modulus (GPa) = 35.23122 38.72690 36.97906
#
# Velocity S-wave (km/s) = 4.02449 4.21943 4.12311
# Velocity P-wave (km/s) = 6.78605 7.36667 7.08231
#
# Compressibility (1/GPa) = 0.01879867
#
# Stress axis : x y z
#
# Youngs Moduli (GPa) = 103.13293 113.07402 69.45221
#
# Poissons Ratio (x) = 0.32582 0.17510
# Poissons Ratio (y) = 0.29718 0.11579
# Poissons Ratio (z) = 0.26002 0.18851
#
# Static dielectric constant tensor:
#      x y z
#    x 4.134150 -0.237460 0.145080 
#    y -0.237460 3.322800 0.070010 
#    z 0.145080 0.070010 4.093420 
# 
# 
# High freq. dielectric constant tensor:
#      x y z
#    x 1.858580 -0.015330 0.007900 
#    y -0.015330 1.865540 -0.013370 
#    z 0.007900 -0.013370 1.855780 
# 
# From -- ./inp_files/314819.got.cif
#   From: 2010.06.25/outbox.cif.g09.slc.cpg/sg2_158_cif.got.tgz:314819.got - 2010.06.27 13:26:56.
