data_PCOD8025450
_publ_section_title
;
Structure prediction by ZEFSAII (Michael W. Deem and Ramdas Pophale) SiO2 
 PCOD8025450
Probable space group: P -1
;
_chemical_formula_sum "Si O2"
_cell_formula_units_Z 10
_cell_length_a 7.157207
_cell_length_b 14.088809
_cell_length_c 9.065719
_cell_angle_alpha 137.448160
_cell_angle_beta 85.819919
_cell_angle_gamma 64.692418
_cell_volume 432.043828
_symmetry_space_group_name_H-M "P -1"
_symmetry_group_IT_number 2
_symmetry_cell_setting 'triclinic'
loop_
_space_group_symop_operation_xyz
x,y,z
-x,-y,-z
loop_
_atom_site_type_symbol
_atom_site_label
_atom_site_fract_x
_atom_site_fract_y
_atom_site_fract_z
Si Si1 0.081102 0.965836 0.624159
Si Si2 0.011486 0.735101 0.524125
Si Si3 0.189556 0.681155 0.765434
Si Si4 0.369883 0.193385 0.573578
Si Si5 0.966385 0.583112 0.893340
O O1 0.166051 0.767696 0.453341
O O2 0.317040 0.951603 0.614982
O O3 0.000000 0.000000 0.500000
O O4 0.838725 0.160789 0.957294
O O5 0.005771 0.792886 0.757847
O O6 0.716142 0.876818 0.625735
O O7 0.153020 0.505633 0.252146
O O8 0.500000 0.500000 0.500000
O O9 0.076466 0.608815 0.777847
O O10 0.217828 0.421730 0.804321
O O11 0.266388 0.208754 0.763950
#
# Coordination Sequence:
#
# PCOD8025450 Si02
#       5
#     2   2   2   2   2
#     4  12  27  43  69  99 134 175 223 273 327 390
#     4  10  23  45  67  97 134 175 214 275 329 389
#     4  12  26  43  68 101 136 174 220 271 336 390
#     4   9  22  44  70  95 135 169 226 266 330 389
#     4   9  21  44  70  98 130 175 218 269 330 393
#
# _framework density 23.145800999999999
#
# number of rings (size 3 to 8) (size 9 to 14) (size 15 to 20)
#    1.200    0.400    0.000    3.600    2.800    4.800 
#    3.600    0.000    0.000    0.000    0.000    0.000 
#    0.000    0.000    0.000    0.000    0.000    0.000 
#
# Total GULP energy -123907.456947 kJ/mol
# GULP energy per Si atom -12390.745695 kJ/mol
# Density = 2.309312 g / cm^3
# Si number density = 23.145801 Si / 1000 Ang^3
#
#
#
# Elastic Constant Matrix: (Units=GPa)
#
#
# Indices 1 2 3 4 5 6 
#
# 1 136.3446 63.7267 62.3075 -21.1531 1.2687 -2.7582
# 2 63.7267 117.7714 44.8609 -46.0552 5.2956 28.2083
# 3 62.3075 44.8609 135.1307 -24.7646 3.3654 -4.3907
# 4 -21.1531 -46.0552 -24.7646 41.6389 -3.6664 9.2751
# 5 1.2687 5.2956 3.3654 -3.6664 43.0204 -4.9911
# 6 -2.7582 28.2083 -4.3907 9.2751 -4.9911 48.1791
#
#
#
# Elastic Compliance Matrix: (Units=1/GPa)
#
#
# Indices 1 2 3 4 5 6 
#
# 1 0.013696 -0.013694 -0.003791 -0.012759 0.001778 0.011097
# 2 -0.013694 0.044958 -0.000467 0.050366 -0.005138 -0.037378
# 3 -0.003791 -0.000467 0.009939 0.003380 -0.000287 0.000282
# 4 -0.012759 0.050366 0.003380 0.085297 -0.004245 -0.046771
# 5 0.001778 -0.005138 -0.000287 -0.004245 0.024229 0.006411
# 6 0.011097 -0.037378 0.000282 -0.046771 0.006411 0.052969
#
#
# Mechanical properties :
#
#
# Convention : Reuss Voigt Hill
#
# Bulk Modulus (GPa) = 30.59163 81.22631 55.90897
# Shear Modulus (GPa) = 17.99275 41.12445 29.55860
#
# Velocity S-wave (km/s) = 2.79115 4.21973 3.57748
# Velocity P-wave (km/s) = 4.86138 7.67535 6.42433
#
# Compressibility (1/GPa) = 0.03268868
#
# Stress axis : x y z
#
# Youngs Moduli (GPa) = 73.01565 22.24276 100.61262
#
# Poissons Ratio (x) = 0.30459 0.38139
# Poissons Ratio (y) = 0.99988 0.04703
# Poissons Ratio (z) = 0.27678 0.01040
#
# Static dielectric constant tensor:
#      x y z
#    x 3.989520 0.079870 0.162630 
#    y 0.079870 4.162690 -0.200920 
#    z 0.162630 -0.200920 3.935880 
# 
# 
# High freq. dielectric constant tensor:
#      x y z
#    x 1.904350 0.012290 0.014290 
#    y 0.012290 1.928490 -0.015590 
#    z 0.014290 -0.015590 1.897670 
# 
# From -- ./inp_files/17587.got.cif
#   From: 2010.06.25/outbox.cif.g09.slc.cpg/sg2_9_cif.got.tgz:17587.got - 2010.06.27 13:26:56.
