data_PCOD8025548
_publ_section_title
;
Structure prediction by ZEFSAII (Michael W. Deem and Ramdas Pophale) SiO2 
 PCOD8025548
Probable space group: P -1
;
_chemical_formula_sum "Si O2"
_cell_formula_units_Z 16
_cell_length_a 21.738535
_cell_length_b 6.923723
_cell_length_c 13.639599
_cell_angle_alpha 90.403375
_cell_angle_beta 159.747083
_cell_angle_gamma 91.222083
_cell_volume 708.312903
_symmetry_space_group_name_H-M "P -1"
_symmetry_group_IT_number 2
_symmetry_cell_setting 'triclinic'
loop_
_space_group_symop_operation_xyz
x,y,z
-x,-y,-z
loop_
_atom_site_type_symbol
_atom_site_label
_atom_site_fract_x
_atom_site_fract_y
_atom_site_fract_z
Si Si1 0.924678 0.616551 0.701336
Si Si2 0.820071 0.865427 0.723040
Si Si3 0.906959 0.165122 0.222143
Si Si4 0.347299 0.511632 0.153996
Si Si5 0.738605 0.585689 0.764174
Si Si6 0.478180 0.999328 0.121179
Si Si7 0.823784 0.819210 0.209423
Si Si8 0.618554 0.320884 0.178745
O O1 0.822369 0.708246 0.638079
O O2 0.819157 0.418044 0.501565
O O3 0.955248 0.774956 0.659801
O O4 0.116909 0.571571 0.029991
O O5 0.812978 0.778400 0.821107
O O6 0.642322 0.972804 0.439796
O O7 0.000000 0.000000 0.000000
O O8 0.997767 0.207734 0.463626
O O9 0.858364 0.932980 0.156594
O O10 0.727934 0.278143 0.945630
O O11 0.553930 0.517380 0.433681
O O12 0.309993 0.381846 0.195284
O O13 0.248156 0.400337 0.916757
O O14 0.550030 0.169743 0.157677
O O15 0.401836 0.798881 0.953628
O O16 0.313393 0.063320 0.935204
O O17 0.500000 0.500000 0.000000
#
# Coordination Sequence:
#
# PCOD8025548 Si02
#       8
#     2   2   2   2   2   2   2   2
#     4  11  24  43  70  93 137 182 215 278 334 392
#     4  12  26  41  65 101 140 175 225 274 323 401
#     4  10  24  43  63 104 124 171 226 267 341 395
#     4  10  23  45  69  91 134 175 221 280 323 394
#     4  10  24  44  64  96 128 180 231 262 331 391
#     4  11  26  42  68 106 129 175 225 270 337 394
#     4  11  24  40  72  95 135 169 216 284 332 396
#     4  11  23  45  68  97 138 173 217 275 335 397
#
# _framework density 22.588885000000001
#
# number of rings (size 3 to 8) (size 9 to 14) (size 15 to 20)
#    0.000    1.250    1.250    3.000    7.000    7.000 
#    0.000    2.500    0.000    0.000    0.000    0.000 
#    0.000    0.000    0.000    0.000    0.000    0.000 
#
# Total GULP energy -198310.827627 kJ/mol
# GULP energy per Si atom -12394.426727 kJ/mol
# Density = 2.253747 g / cm^3
# Si number density = 22.588885 Si / 1000 Ang^3
#
#
#
# Elastic Constant Matrix: (Units=GPa)
#
#
# Indices 1 2 3 4 5 6 
#
# 1 68.7191 23.1825 12.3229 -2.7606 7.1514 28.3338
# 2 23.1825 68.4406 18.9665 1.0902 -4.8674 15.7713
# 3 12.3229 18.9665 110.3075 -3.3680 5.4524 10.8998
# 4 -2.7606 1.0902 -3.3680 39.0981 3.2857 -5.7062
# 5 7.1514 -4.8674 5.4524 3.2857 31.5462 -2.5905
# 6 28.3338 15.7713 10.8998 -5.7062 -2.5905 38.7258
#
#
#
# Elastic Compliance Matrix: (Units=1/GPa)
#
#
# Indices 1 2 3 4 5 6 
#
# 1 0.023399 -0.004887 0.000141 0.000138 -0.007382 -0.015643
# 2 -0.004887 0.017996 -0.002516 -0.001865 0.004265 -0.003034
# 3 0.000141 -0.002516 0.009810 0.000850 -0.002358 -0.001872
# 4 0.000138 -0.001865 0.000850 0.026559 -0.002892 0.004139
# 5 -0.007382 0.004265 -0.002358 -0.002892 0.035254 0.006260
# 6 -0.015643 -0.003034 -0.001872 0.004139 0.006260 0.040059
#
#
# Mechanical properties :
#
#
# Convention : Reuss Voigt Hill
#
# Bulk Modulus (GPa) = 27.26274 39.60123 33.43198
# Shear Modulus (GPa) = 27.80430 34.74038 31.27234
#
# Velocity S-wave (km/s) = 3.51220 3.92591 3.72481
# Velocity P-wave (km/s) = 5.34254 6.17412 5.77332
#
# Compressibility (1/GPa) = 0.03668010
#
# Stress axis : x y z
#
# Youngs Moduli (GPa) = 42.73713 55.56710 101.93738
#
# Poissons Ratio (x) = 0.27158 -0.01439
# Poissons Ratio (y) = 0.20887 0.25650
# Poissons Ratio (z) = -0.00603 0.13982
#
# Static dielectric constant tensor:
#      x y z
#    x 4.136480 0.373710 0.017510 
#    y 0.373710 4.042920 0.071500 
#    z 0.017510 0.071500 4.310110 
# 
# 
# High freq. dielectric constant tensor:
#      x y z
#    x 1.889220 0.020900 0.003730 
#    y 0.020900 1.886060 -0.004170 
#    z 0.003730 -0.004170 1.908900 
# 
# From -- ./inp_files/486001.got.cif
#   From: 2010.06.25/outbox.cif.g09.slc.cpg/sg2_244_cif.got.tgz:486001.got - 2010.06.27 13:26:56.
