data_PCOD8025255
_publ_section_title
;
Structure prediction by ZEFSAII (Michael W. Deem and Ramdas Pophale) SiO2 
 PCOD8025255
Probable space group: P -1
;
_chemical_formula_sum "Si O2"
_cell_formula_units_Z 16
_cell_length_a 16.248585
_cell_length_b 8.423298
_cell_length_c 10.077672
_cell_angle_alpha 96.374548
_cell_angle_beta 145.847557
_cell_angle_gamma 76.819953
_cell_volume 746.287106
_symmetry_space_group_name_H-M "P -1"
_symmetry_group_IT_number 2
_symmetry_cell_setting 'triclinic'
loop_
_space_group_symop_operation_xyz
x,y,z
-x,-y,-z
loop_
_atom_site_type_symbol
_atom_site_label
_atom_site_fract_x
_atom_site_fract_y
_atom_site_fract_z
Si Si1 0.748101 0.758192 0.455643
Si Si2 0.091857 0.107304 0.798250
Si Si3 0.787264 0.019768 0.326688
Si Si4 0.326475 0.553434 0.119006
Si Si5 0.557466 0.335480 0.979885
Si Si6 0.711125 0.902648 0.688776
Si Si7 0.986670 0.512812 0.326588
Si Si8 0.509011 0.248246 0.461886
O O1 0.584333 0.728472 0.265076
O O2 0.802655 0.825775 0.672295
O O3 0.863003 0.589191 0.552947
O O4 0.730406 0.887242 0.324811
O O5 0.032459 0.301978 0.727873
O O6 0.952186 0.023179 0.600428
O O7 0.205911 0.036941 0.823373
O O8 0.177317 0.058398 0.046541
O O9 0.669455 0.195768 0.203175
O O10 0.343690 0.627153 0.006161
O O11 0.426827 0.364756 0.243471
O O12 0.372577 0.664815 0.304004
O O13 0.152031 0.559334 0.912122
O O14 0.500000 0.500000 0.000000
O O15 0.619262 0.774720 0.608690
O O16 0.596390 0.072361 0.504725
O O17 0.000000 0.500000 0.500000
#
# Coordination Sequence:
#
# PCOD8025255 Si02
#       8
#     2   2   2   2   2   2   2   2
#     4  12  27  44  69 106 142 176 230 291 343 400
#     4  11  24  46  73  97 136 188 231 279 340 418
#     4  11  26  45  71 101 137 183 235 277 344 415
#     4  11  23  44  71  98 130 187 227 273 336 423
#     4  12  26  43  70 103 141 175 228 290 339 408
#     4  11  24  44  70 103 138 179 227 293 338 407
#     4  12  24  45  69  99 138 185 226 276 346 412
#     4  10  23  44  71  95 136 182 227 273 349 407
#
# _framework density 21.43947
#
# number of rings (size 3 to 8) (size 9 to 14) (size 15 to 20)
#    0.000    0.750    3.750    3.375    7.000    1.000 
#    0.000    0.000    0.000    0.000    0.000    0.000 
#    0.000    0.000    0.000    0.000    0.000    0.000 
#
# Total GULP energy -198501.487153 kJ/mol
# GULP energy per Si atom -12406.342947 kJ/mol
# Density = 2.139067 g / cm^3
# Si number density = 21.439470 Si / 1000 Ang^3
#
#
#
# Elastic Constant Matrix: (Units=GPa)
#
#
# Indices 1 2 3 4 5 6 
#
# 1 62.9660 29.4032 12.0822 0.1289 -6.7761 -13.7935
# 2 29.4032 110.4164 19.4525 -18.2799 -1.4859 -2.6863
# 3 12.0822 19.4525 89.8100 3.2312 -5.3914 -6.6994
# 4 0.1289 -18.2799 3.2312 39.5002 -0.9075 -0.7060
# 5 -6.7761 -1.4859 -5.3914 -0.9075 24.5733 4.0057
# 6 -13.7935 -2.6863 -6.6994 -0.7060 4.0057 40.8433
#
#
#
# Elastic Compliance Matrix: (Units=1/GPa)
#
#
# Indices 1 2 3 4 5 6 
#
# 1 0.020323 -0.005461 -0.000781 -0.002331 0.004048 0.005939
# 2 -0.005461 0.011778 -0.002162 0.005603 -0.000858 -0.001243
# 3 -0.000781 -0.002162 0.011996 -0.001910 0.001998 0.001333
# 4 -0.002331 0.005603 -0.001910 0.028076 0.000360 -0.000282
# 5 0.004048 -0.000858 0.001998 0.000360 0.042624 -0.002536
# 6 0.005939 -0.001243 0.001333 -0.000282 -0.002536 0.026870
#
#
# Mechanical properties :
#
#
# Convention : Reuss Voigt Hill
#
# Bulk Modulus (GPa) = 36.64675 42.78536 39.71605
# Shear Modulus (GPa) = 29.83783 34.46699 32.15241
#
# Velocity S-wave (km/s) = 3.73463 4.01389 3.87678
# Velocity P-wave (km/s) = 5.97719 6.44061 6.21322
#
# Compressibility (1/GPa) = 0.02728755
#
# Stress axis : x y z
#
# Youngs Moduli (GPa) = 49.20512 84.90668 83.36035
#
# Poissons Ratio (x) = 0.46369 0.06513
# Poissons Ratio (y) = 0.26872 0.18024
# Poissons Ratio (z) = 0.03845 0.18358
#
# Static dielectric constant tensor:
#      x y z
#    x 3.519230 0.104120 0.519060 
#    y 0.104120 3.847820 0.110430 
#    z 0.519060 0.110430 3.109160 
# 
# 
# High freq. dielectric constant tensor:
#      x y z
#    x 1.829770 0.009550 0.004410 
#    y 0.009550 1.859630 -0.001590 
#    z 0.004410 -0.001590 1.848700 
# 
# From -- ./inp_files/223200.got.cif
#   From: 2010.06.25/outbox.cif.g09.slc.cpg/sg2_112_cif.got.tgz:223200.got - 2010.06.27 13:26:56.
