data_PCOD8025171
_publ_section_title
;
Structure prediction by ZEFSAII (Michael W. Deem and Ramdas Pophale) SiO2 
 PCOD8025171
Probable space group: P -1
;
_chemical_formula_sum "Si O2"
_cell_formula_units_Z 16
_cell_length_a 15.490174
_cell_length_b 11.592613
_cell_length_c 8.381992
_cell_angle_alpha 103.740970
_cell_angle_beta 82.009382
_cell_angle_gamma 150.764288
_cell_volume 706.658719
_symmetry_space_group_name_H-M "P -1"
_symmetry_group_IT_number 2
_symmetry_cell_setting 'triclinic'
loop_
_space_group_symop_operation_xyz
x,y,z
-x,-y,-z
loop_
_atom_site_type_symbol
_atom_site_label
_atom_site_fract_x
_atom_site_fract_y
_atom_site_fract_z
Si Si1 0.701272 0.468326 0.431330
Si Si2 0.619550 0.352253 0.774247
Si Si3 0.358766 0.242719 0.880577
Si Si4 0.013561 0.256731 0.050393
Si Si5 0.954681 0.205156 0.679039
Si Si6 0.966005 0.458590 0.179909
Si Si7 0.571320 0.086096 0.187660
Si Si8 0.314225 0.285893 0.558925
O O1 0.625847 0.397737 0.603716
O O2 0.571385 0.223651 0.289378
O O3 0.732285 0.630632 0.387030
O O4 0.897716 0.646184 0.444451
O O5 0.459838 0.236607 0.859456
O O6 0.814240 0.611387 0.887483
O O7 0.568556 0.153383 0.745381
O O8 0.302318 0.210668 0.707284
O O9 0.177782 0.031979 0.962098
O O10 0.500000 0.500000 0.000000
O O11 0.010804 0.377402 0.193042
O O12 0.037429 0.296150 0.866637
O O13 0.903052 0.283937 0.691950
O O14 0.800523 0.926983 0.606640
O O15 0.764068 0.254377 0.207324
O O16 0.000000 0.500000 0.000000
O O17 0.500000 0.000000 0.000000
O O18 0.500000 0.500000 0.500000
#
# Coordination Sequence:
#
# PCOD8025171 Si02
#       8
#     2   2   2   2   2   2   2   2
#     4  11  25  45  67 100 143 180 236 286 349 422
#     4  12  25  47  71 107 141 183 234 288 355 408
#     4  12  28  47  71 104 142 184 238 289 344 424
#     4  11  24  45  74 101 142 182 235 296 343 413
#     4  10  23  44  70 102 134 187 233 285 350 420
#     4   9  19  40  65 101 135 172 228 281 343 404
#     4  11  23  42  73 103 139 180 234 293 346 412
#     4  12  25  45  67  97 141 186 229 288 354 415
#
# _framework density 22.641763000000001
#
# number of rings (size 3 to 8) (size 9 to 14) (size 15 to 20)
#    0.000    1.000    2.500    4.500    3.500    3.500 
#    2.250    1.875    0.000    0.000    0.000    0.000 
#    0.000    0.000    0.000    0.000    0.000    0.000 
#
# Total GULP energy -198302.667989 kJ/mol
# GULP energy per Si atom -12393.916749 kJ/mol
# Density = 2.259023 g / cm^3
# Si number density = 22.641763 Si / 1000 Ang^3
#
#
#
# Elastic Constant Matrix: (Units=GPa)
#
#
# Indices 1 2 3 4 5 6 
#
# 1 86.9109 23.3030 25.7629 20.3778 -7.0269 -16.0657
# 2 23.3030 124.0795 19.9047 14.1703 -9.0400 -4.9016
# 3 25.7629 19.9047 78.9552 20.2075 -5.3370 -5.1142
# 4 20.3778 14.1703 20.2075 43.6349 -8.3535 -9.6744
# 5 -7.0269 -9.0400 -5.3370 -8.3535 33.9492 4.9775
# 6 -16.0657 -4.9016 -5.1142 -9.6744 4.9775 40.6870
#
#
#
# Elastic Compliance Matrix: (Units=1/GPa)
#
#
# Indices 1 2 3 4 5 6 
#
# 1 0.014559 -0.001601 -0.003059 -0.003828 0.000550 0.004194
# 2 -0.001601 0.008815 -0.001284 -0.001276 0.001533 -0.000223
# 3 -0.003059 -0.001284 0.015330 -0.005376 0.000221 -0.000741
# 4 -0.003828 -0.001276 -0.005376 0.029406 0.004660 0.004081
# 5 0.000550 0.001533 0.000221 0.004660 0.031499 -0.002316
# 6 0.004194 -0.000223 -0.000741 0.004081 -0.002316 0.027368
#
#
# Mechanical properties :
#
#
# Convention : Reuss Voigt Hill
#
# Bulk Modulus (GPa) = 37.28985 47.54297 42.41641
# Shear Modulus (GPa) = 33.82910 38.38589 36.10749
#
# Velocity S-wave (km/s) = 3.86955 4.12194 3.99774
# Velocity P-wave (km/s) = 6.03903 6.61040 6.33116
#
# Compressibility (1/GPa) = 0.02681695
#
# Stress axis : x y z
#
# Youngs Moduli (GPa) = 68.68553 113.44832 65.23171
#
# Poissons Ratio (x) = 0.18161 0.19951
# Poissons Ratio (y) = 0.10995 0.08376
# Poissons Ratio (z) = 0.21008 0.14567
#
# Static dielectric constant tensor:
#      x y z
#    x 3.975900 0.043790 -0.016770 
#    y 0.043790 4.160940 -0.021160 
#    z -0.016770 -0.021160 3.737000 
# 
# 
# High freq. dielectric constant tensor:
#      x y z
#    x 1.891880 -0.006740 -0.018940 
#    y -0.006740 1.912190 0.000180 
#    z -0.018940 0.000180 1.881590 
# 
# From -- ./inp_files/308011.got.cif
#   From: 2010.06.25/outbox.cif.g09.slc.cpg/sg2_155_cif.got.tgz:308011.got - 2010.06.27 13:26:56.
