data_PCOD8025648
_publ_section_title
;
Structure prediction by ZEFSAII (Michael W. Deem and Ramdas Pophale) SiO2 
 PCOD8025648
Probable space group: P -1
;
_chemical_formula_sum "Si O2"
_cell_formula_units_Z 16
_cell_length_a 16.248810
_cell_length_b 6.562233
_cell_length_c 9.196514
_cell_angle_alpha 93.420538
_cell_angle_beta 104.331610
_cell_angle_gamma 47.586565
_cell_volume 693.515843
_symmetry_space_group_name_H-M "P -1"
_symmetry_group_IT_number 2
_symmetry_cell_setting 'triclinic'
loop_
_space_group_symop_operation_xyz
x,y,z
-x,-y,-z
loop_
_atom_site_type_symbol
_atom_site_label
_atom_site_fract_x
_atom_site_fract_y
_atom_site_fract_z
Si Si1 0.806666 0.560181 0.167978
Si Si2 0.265319 0.864388 0.310091
Si Si3 0.123484 0.227746 0.990990
Si Si4 0.422002 0.319655 0.937171
Si Si5 0.507443 0.511284 0.770867
Si Si6 0.068334 0.007563 0.706533
Si Si7 0.816353 0.333016 0.533140
Si Si8 0.717310 0.888311 0.411447
O O1 0.808288 0.677356 0.021397
O O2 0.706500 0.554647 0.131116
O O3 0.795636 0.755929 0.294237
O O4 0.923273 0.237108 0.232885
O O5 0.400680 0.680346 0.325615
O O6 0.240910 0.679755 0.353164
O O7 0.226026 0.082352 0.429433
O O8 0.189673 0.011723 0.140172
O O9 0.115293 0.093026 0.844673
O O10 0.000000 0.500000 0.000000
O O11 0.460598 0.371542 0.807182
O O12 0.424226 0.482012 0.072576
O O13 0.500000 0.000000 0.000000
O O14 0.407521 0.816644 0.672987
O O15 0.932729 0.268099 0.624649
O O16 0.148029 0.884504 0.589474
O O17 0.715635 0.652878 0.449024
#
# Coordination Sequence:
#
# PCOD8025648 Si02
#       8
#     2   2   2   2   2   2   2   2
#     4  11  24  43  74  96 128 182 224 273 332 399
#     4  12  26  42  65 100 143 172 217 281 337 395
#     4  12  26  43  69 103 136 173 219 282 338 394
#     4  11  23  43  69  98 130 173 230 271 327 398
#     4  11  26  42  68 101 134 176 222 282 330 390
#     4  10  23  45  71  97 132 177 228 275 324 406
#     4  10  24  45  69  99 132 181 223 272 336 400
#     4  11  25  44  67  97 135 180 225 270 331 400
#
# _framework density 23.070848999999999
#
# number of rings (size 3 to 8) (size 9 to 14) (size 15 to 20)
#    0.000    1.000    1.250    4.125    7.000    6.500 
#    0.000    5.000    0.000    0.000    0.000    0.000 
#    0.000    0.000    0.000    0.000    0.000    0.000 
#
# Total GULP energy -198351.334054 kJ/mol
# GULP energy per Si atom -12396.958378 kJ/mol
# Density = 2.301834 g / cm^3
# Si number density = 23.070849 Si / 1000 Ang^3
#
#
#
# Elastic Constant Matrix: (Units=GPa)
#
#
# Indices 1 2 3 4 5 6 
#
# 1 121.8800 52.6435 64.6177 -9.3180 -28.3431 9.0109
# 2 52.6435 125.4270 45.4068 -23.2834 -13.1805 -3.9203
# 3 64.6177 45.4068 133.3970 -17.9240 -10.0366 11.1349
# 4 -9.3180 -23.2834 -17.9240 43.6754 15.3744 3.2346
# 5 -28.3431 -13.1805 -10.0366 15.3744 47.3075 -4.4124
# 6 9.0109 -3.9203 11.1349 3.2346 -4.4124 23.7941
#
#
#
# Elastic Compliance Matrix: (Units=1/GPa)
#
#
# Indices 1 2 3 4 5 6 
#
# 1 0.014377 -0.004061 -0.005392 -0.003794 0.007413 -0.001700
# 2 -0.004061 0.011081 -0.001547 0.004443 -0.000807 0.003334
# 3 -0.005392 -0.001547 0.011344 0.004085 -0.003015 -0.004636
# 4 -0.003794 0.004443 0.004085 0.030277 -0.010550 -0.005815
# 5 0.007413 -0.000807 -0.003015 -0.010550 0.028630 0.005214
# 6 -0.001700 0.003334 -0.004636 -0.005815 0.005214 0.047147
#
#
# Mechanical properties :
#
#
# Convention : Reuss Voigt Hill
#
# Bulk Modulus (GPa) = 67.55460 78.44888 73.00174
# Shear Modulus (GPa) = 29.44822 37.49113 33.46968
#
# Velocity S-wave (km/s) = 3.57659 4.03556 3.81298
# Velocity P-wave (km/s) = 6.81182 7.46938 7.14816
#
# Compressibility (1/GPa) = 0.01480284
#
# Stress axis : x y z
#
# Youngs Moduli (GPa) = 69.55601 90.24182 88.15258
#
# Poissons Ratio (x) = 0.36643 0.47533
# Poissons Ratio (y) = 0.28244 0.13637
# Poissons Ratio (z) = 0.37506 0.13960
#
# Static dielectric constant tensor:
#      x y z
#    x 4.123810 -0.210300 0.081420 
#    y -0.210300 4.809820 -0.433430 
#    z 0.081420 -0.433430 4.735380 
# 
# 
# High freq. dielectric constant tensor:
#      x y z
#    x 1.897040 0.003270 -0.004340 
#    y 0.003270 1.921070 -0.009430 
#    z -0.004340 -0.009430 1.928460 
# 
# From -- ./inp_files/323721.got.cif
#   From: 2010.06.25/outbox.cif.g09.slc.cpg/sg2_162_cif.got.tgz:323721.got - 2010.06.27 13:26:56.
