data_PCOD8025153
_publ_section_title
;
Structure prediction by ZEFSAII (Michael W. Deem and Ramdas Pophale) SiO2 
 PCOD8025153
Probable space group: P -1
;
_chemical_formula_sum "Si O2"
_cell_formula_units_Z 12
_cell_length_a 12.428716
_cell_length_b 9.014275
_cell_length_c 9.646181
_cell_angle_alpha 43.512545
_cell_angle_beta 130.352809
_cell_angle_gamma 104.294419
_cell_volume 513.453414
_symmetry_space_group_name_H-M "P -1"
_symmetry_group_IT_number 2
_symmetry_cell_setting 'triclinic'
loop_
_space_group_symop_operation_xyz
x,y,z
-x,-y,-z
loop_
_atom_site_type_symbol
_atom_site_label
_atom_site_fract_x
_atom_site_fract_y
_atom_site_fract_z
Si Si1 0.270576 0.381734 0.191131
Si Si2 0.058163 0.777098 0.386034
Si Si3 0.783407 0.195160 0.969786
Si Si4 0.515690 0.050269 0.818692
Si Si5 0.380380 0.386434 0.996952
Si Si6 0.984739 0.741223 0.058988
O O1 0.240006 0.655619 0.009263
O O2 0.104767 0.381325 0.019538
O O3 0.347974 0.211991 0.502701
O O4 0.392743 0.278568 0.234840
O O5 0.202935 0.584545 0.715804
O O6 0.111116 0.970295 0.227204
O O7 0.999285 0.662040 0.286900
O O8 0.916321 0.920363 0.279058
O O9 0.620843 0.194951 0.789786
O O10 0.841914 0.332996 0.810534
O O11 0.595975 0.801405 0.975463
O O12 0.500000 0.000000 0.000000
O O13 0.500000 0.500000 0.000000
#
# Coordination Sequence:
#
# PCOD8025153 Si02
#       6
#     2   2   2   2   2   2
#     4  12  25  44  71 101 136 176 227 280 334 397
#     4   9  22  42  69  97 138 172 227 267 344 390
#     4  10  23  44  69  99 135 175 222 281 332 397
#     4  12  28  45  70  98 137 183 225 276 339 399
#     4  12  27  44  69 102 139 177 226 278 336 404
#     4   9  21  42  69 101 131 178 219 277 331 397
#
# _framework density 23.371157
#
# number of rings (size 3 to 8) (size 9 to 14) (size 15 to 20)
#    1.000    0.333    0.000    4.500    4.667    3.333 
#    3.000    0.000    0.000    0.000    0.000    0.000 
#    0.000    0.000    0.000    0.000    0.000    0.000 
#
# Total GULP energy -148752.612178 kJ/mol
# GULP energy per Si atom -12396.051015 kJ/mol
# Density = 2.331796 g / cm^3
# Si number density = 23.371157 Si / 1000 Ang^3
#
#
#
# Elastic Constant Matrix: (Units=GPa)
#
#
# Indices 1 2 3 4 5 6 
#
# 1 121.9785 50.0528 27.0395 19.3083 -6.2714 -4.4073
# 2 50.0528 165.0429 36.7983 23.2512 8.1859 -9.5671
# 3 27.0395 36.7983 101.7532 15.4341 1.9579 -11.6410
# 4 19.3083 23.2512 15.4341 28.9105 -6.6340 11.8037
# 5 -6.2714 8.1859 1.9579 -6.6340 28.5292 7.0707
# 6 -4.4073 -9.5671 -11.6410 11.8037 7.0707 52.7561
#
#
#
# Elastic Compliance Matrix: (Units=1/GPa)
#
#
# Indices 1 2 3 4 5 6 
#
# 1 0.010191 -0.002248 -0.001159 -0.004367 0.001718 0.000935
# 2 -0.002248 0.008481 -0.000785 -0.007660 -0.005556 0.003635
# 3 -0.001159 -0.000785 0.012252 -0.007981 -0.003909 0.004774
# 4 -0.004367 -0.007660 -0.007981 0.060854 0.020875 -0.019928
# 5 0.001718 -0.005556 -0.003909 0.020875 0.045234 -0.012460
# 6 0.000935 0.003635 0.004774 -0.019928 -0.012460 0.026875
#
#
# Mechanical properties :
#
#
# Convention : Reuss Voigt Hill
#
# Bulk Modulus (GPa) = 44.36587 68.50620 56.43603
# Shear Modulus (GPa) = 27.81122 40.36477 34.08800
#
# Velocity S-wave (km/s) = 3.45335 4.16037 3.82324
# Velocity P-wave (km/s) = 5.90976 7.24252 6.60982
#
# Compressibility (1/GPa) = 0.02253985
#
# Stress axis : x y z
#
# Youngs Moduli (GPa) = 98.12717 117.90745 81.62201
#
# Poissons Ratio (x) = 0.26505 0.09458
# Poissons Ratio (y) = 0.22059 0.06409
# Poissons Ratio (z) = 0.11371 0.09258
#
# Static dielectric constant tensor:
#      x y z
#    x 4.078390 -0.070020 0.064530 
#    y -0.070020 4.420930 0.032920 
#    z 0.064530 0.032920 3.842660 
# 
# 
# High freq. dielectric constant tensor:
#      x y z
#    x 1.919390 -0.001860 0.004880 
#    y -0.001860 1.945850 0.004870 
#    z 0.004880 0.004870 1.901220 
# 
# From -- ./inp_files/242315.got.cif
#   From: 2010.06.25/outbox.cif.g09.slc.cpg/sg2_122_cif.got.tgz:242315.got - 2010.06.27 13:26:56.
