data_PCOD8025032
_publ_section_title
;
Structure prediction by ZEFSAII (Michael W. Deem and Ramdas Pophale) SiO2 
 PCOD8025032
Probable space group: P -1
;
_chemical_formula_sum "Si O2"
_cell_formula_units_Z 12
_cell_length_a 16.361464
_cell_length_b 13.990770
_cell_length_c 5.523308
_cell_angle_alpha 107.448987
_cell_angle_beta 81.061688
_cell_angle_gamma 157.737654
_cell_volume 430.068407
_symmetry_space_group_name_H-M "P -1"
_symmetry_group_IT_number 2
_symmetry_cell_setting 'triclinic'
loop_
_space_group_symop_operation_xyz
x,y,z
-x,-y,-z
loop_
_atom_site_type_symbol
_atom_site_label
_atom_site_fract_x
_atom_site_fract_y
_atom_site_fract_z
Si Si1 0.306142 0.752917 0.581522
Si Si2 0.886720 0.300102 0.091713
Si Si3 0.290249 0.435509 0.951980
Si Si4 0.208089 0.110040 0.727176
Si Si5 0.206680 0.026461 0.169767
Si Si6 0.318963 0.545123 0.519256
O O1 0.315076 0.857409 0.836056
O O2 0.360976 0.710588 0.656625
O O3 0.059540 0.462412 0.347709
O O4 0.500000 0.000000 0.500000
O O5 0.000000 0.500000 0.000000
O O6 0.784941 0.083687 0.860760
O O7 0.223389 0.245045 0.860273
O O8 0.425811 0.612921 0.766931
O O9 0.426686 0.625447 0.276795
O O10 0.057366 0.237456 0.915668
O O11 0.324379 0.210393 0.492838
O O12 0.327134 0.194281 0.978836
O O13 0.946849 0.782213 0.596195
#
# Coordination Sequence:
#
# PCOD8025032 Si02
#       6
#     2   2   2   2   2   2
#     4  11  25  42  63  93 130 173 215 263 325 383
#     4  11  23  41  65  90 130 169 217 272 314 380
#     4  10  17  29  53  86 121 155 203 261 314 373
#     4  10  17  29  52  88 120 155 203 260 314 376
#     4  10  18  30  52  83 123 152 201 260 308 372
#     4  10  18  33  51  83 124 153 206 259 303 380
#
# _framework density 27.902536999999999
#
# number of rings (size 3 to 8) (size 9 to 14) (size 15 to 20)
#    0.000    1.667    3.333    7.000    2.333    0.667 
#    0.000    0.000    0.000    0.000    0.000   12.833 
#    0.000    0.000    0.000    0.000    0.000    0.000 
#
# Total GULP energy -148817.011919 kJ/mol
# GULP energy per Si atom -12401.417660 kJ/mol
# Density = 2.783903 g / cm^3
# Si number density = 27.902537 Si / 1000 Ang^3
#
#
#
# Elastic Constant Matrix: (Units=GPa)
#
#
# Indices 1 2 3 4 5 6 
#
# 1 203.5985 66.6589 96.8667 -19.5247 -22.2285 -54.8254
# 2 66.6589 115.7071 39.9601 -34.7096 -11.8807 -22.0279
# 3 96.8667 39.9601 181.3288 -53.5287 -15.7953 -1.0239
# 4 -19.5247 -34.7096 -53.5287 60.9899 -0.5281 -3.1870
# 5 -22.2285 -11.8807 -15.7953 -0.5281 70.0902 -0.8764
# 6 -54.8254 -22.0279 -1.0239 -3.1870 -0.8764 49.7147
#
#
#
# Elastic Compliance Matrix: (Units=1/GPa)
#
#
# Indices 1 2 3 4 5 6 
#
# 1 0.012029 -0.003215 -0.006345 -0.002927 0.001962 0.011557
# 2 -0.003215 0.013048 0.001254 0.007656 0.001567 0.002781
# 3 -0.006345 0.001254 0.011041 0.008081 0.000678 -0.005684
# 4 -0.002927 0.007656 0.008081 0.027040 0.002421 0.002108
# 5 0.001962 0.001567 0.000678 0.002421 0.015368 0.003299
# 6 0.011557 0.002781 -0.005684 0.002108 0.003299 0.034168
#
#
# Mechanical properties :
#
#
# Convention : Reuss Voigt Hill
#
# Bulk Modulus (GPa) = 51.26467 100.84506 76.05487
# Shear Modulus (GPa) = 36.81688 55.96887 46.39287
#
# Velocity S-wave (km/s) = 3.63641 4.48355 4.08202
# Velocity P-wave (km/s) = 6.00366 7.93873 7.03801
#
# Compressibility (1/GPa) = 0.01950661
#
# Stress axis : x y z
#
# Youngs Moduli (GPa) = 83.13488 76.63761 90.57449
#
# Poissons Ratio (x) = 0.24636 0.57470
# Poissons Ratio (y) = 0.26725 -0.11360
# Poissons Ratio (z) = 0.52750 -0.09612
#
# Static dielectric constant tensor:
#      x y z
#    x 5.631450 0.216150 0.513450 
#    y 0.216150 5.412260 -0.859740 
#    z 0.513450 -0.859740 7.154170 
# 
# 
# High freq. dielectric constant tensor:
#      x y z
#    x 2.167840 0.018760 0.012340 
#    y 0.018760 2.136380 -0.008910 
#    z 0.012340 -0.008910 2.154340 
# 
# From -- ./inp_files/28578.got.cif
#   From: 2010.06.25/outbox.cif.g09.slc.cpg/sg2_15_cif.got.tgz:28578.got - 2010.06.27 13:26:56.
