data_PCOD8025957
_publ_section_title
;
Structure prediction by ZEFSAII (Michael W. Deem and Ramdas Pophale) SiO2 
 PCOD8025957
Probable space group: P -1
;
_chemical_formula_sum "Si O2"
_cell_formula_units_Z 16
_cell_length_a 15.433879
_cell_length_b 11.660912
_cell_length_c 9.093189
_cell_angle_alpha 86.285357
_cell_angle_beta 153.083861
_cell_angle_gamma 85.716518
_cell_volume 706.781186
_symmetry_space_group_name_H-M "P -1"
_symmetry_group_IT_number 2
_symmetry_cell_setting 'triclinic'
loop_
_space_group_symop_operation_xyz
x,y,z
-x,-y,-z
loop_
_atom_site_type_symbol
_atom_site_label
_atom_site_fract_x
_atom_site_fract_y
_atom_site_fract_z
Si Si1 0.196321 0.837491 0.651943
Si Si2 0.292925 0.595029 0.639687
Si Si3 0.794668 0.298285 0.819961
Si Si4 0.841936 0.915801 0.570813
Si Si5 0.943257 0.503187 0.083977
Si Si6 0.790263 0.843298 0.183183
Si Si7 0.621120 0.719776 0.709546
Si Si8 0.512224 0.912555 0.300976
O O1 0.260254 0.720203 0.659965
O O2 0.017070 0.834516 0.488343
O O3 0.125937 0.957870 0.437150
O O4 0.389442 0.834021 0.040275
O O5 0.281355 0.625000 0.447465
O O6 0.124420 0.532945 0.442204
O O7 0.500000 0.500000 0.000000
O O8 0.605927 0.281475 0.620816
O O9 0.908245 0.375661 0.084446
O O10 0.952006 0.168059 0.039823
O O11 0.773766 0.848860 0.334730
O O12 0.668915 0.943651 0.426329
O O13 0.738836 0.603308 0.806874
O O14 0.000000 0.500000 0.000000
O O15 0.722803 0.732428 0.020641
O O16 0.638872 0.964777 0.877819
O O17 0.631842 0.835278 0.622736
#
# Coordination Sequence:
#
# PCOD8025957 Si02
#       8
#     2   2   2   2   2   2   2   2
#     4  11  23  43  71 102 142 183 228 280 356 404
#     4  11  26  45  72 105 137 180 230 292 338 415
#     4  11  26  44  72 100 140 183 230 285 347 407
#     4  11  25  45  71 103 143 182 229 281 351 420
#     4  10  23  47  66  97 134 181 228 275 343 403
#     4  11  23  43  66 104 140 179 233 282 341 408
#     4  12  24  44  70 103 140 181 235 285 343 406
#     4  11  24  41  71 100 145 186 221 289 346 418
#
# _framework density 22.637839
#
# number of rings (size 3 to 8) (size 9 to 14) (size 15 to 20)
#    0.000    1.000    1.250    6.750    8.750    0.500 
#    2.250    1.250    0.000    0.000    0.000    0.000 
#    0.000    0.000    0.000    0.000    0.000    0.000 
#
# Total GULP energy -198414.537866 kJ/mol
# GULP energy per Si atom -12400.908617 kJ/mol
# Density = 2.258631 g / cm^3
# Si number density = 22.637839 Si / 1000 Ang^3
#
#
#
# Elastic Constant Matrix: (Units=GPa)
#
#
# Indices 1 2 3 4 5 6 
#
# 1 70.9792 28.2900 17.2727 1.5243 13.5135 -2.5452
# 2 28.2900 118.2317 40.0913 6.5982 5.3530 -14.1369
# 3 17.2727 40.0913 100.5660 -11.5732 17.3061 0.9005
# 4 1.5243 6.5982 -11.5732 46.3381 5.2443 5.6474
# 5 13.5135 5.3530 17.3061 5.2443 40.3343 -3.0379
# 6 -2.5452 -14.1369 0.9005 5.6474 -3.0379 35.6067
#
#
#
# Elastic Compliance Matrix: (Units=1/GPa)
#
#
# Indices 1 2 3 4 5 6 
#
# 1 0.016591 -0.003720 -0.000436 0.000539 -0.005008 -0.000793
# 2 -0.003720 0.011774 -0.005005 -0.003766 0.002725 0.005365
# 3 -0.000436 -0.005005 0.013693 0.005283 -0.006032 -0.003717
# 4 0.000539 -0.003766 0.005283 0.024786 -0.005622 -0.006001
# 5 -0.005008 0.002725 -0.006032 -0.005622 0.029752 0.004307
# 6 -0.000793 0.005365 -0.003717 -0.006001 0.004307 0.031571
#
#
# Mechanical properties :
#
#
# Convention : Reuss Voigt Hill
#
# Bulk Modulus (GPa) = 42.13085 51.23167 46.68126
# Shear Modulus (GPa) = 32.38324 38.06402 35.22363
#
# Velocity S-wave (km/s) = 3.78629 4.10498 3.94885
# Velocity P-wave (km/s) = 6.14539 6.71922 6.43870
#
# Compressibility (1/GPa) = 0.02373557
#
# Stress axis : x y z
#
# Youngs Moduli (GPa) = 60.27445 84.93574 73.02961
#
# Poissons Ratio (x) = 0.31597 0.03182
# Poissons Ratio (y) = 0.22423 0.36552
# Poissons Ratio (z) = 0.02626 0.42511
#
# Static dielectric constant tensor:
#      x y z
#    x 3.992180 -0.022500 0.129770 
#    y -0.022500 4.375870 0.160560 
#    z 0.129770 0.160560 4.234400 
# 
# 
# High freq. dielectric constant tensor:
#      x y z
#    x 1.890140 -0.006980 0.014850 
#    y -0.006980 1.902110 0.003540 
#    z 0.014850 0.003540 1.897550 
# 
# From -- ./inp_files/271392.got.cif
#   From: 2010.06.25/outbox.cif.g09.slc.cpg/sg2_136_cif.got.tgz:271392.got - 2010.06.27 13:26:56.
