data_PCOD8025399
_publ_section_title
;
Structure prediction by ZEFSAII (Michael W. Deem and Ramdas Pophale) SiO2 
 PCOD8025399
Probable space group: P -1
;
_chemical_formula_sum "Si O2"
_cell_formula_units_Z 14
_cell_length_a 24.254165
_cell_length_b 14.206392
_cell_length_c 7.068030
_cell_angle_alpha 54.328377
_cell_angle_beta 124.221148
_cell_angle_gamma 160.348565
_cell_volume 664.566192
_symmetry_space_group_name_H-M "P -1"
_symmetry_group_IT_number 2
_symmetry_cell_setting 'triclinic'
loop_
_space_group_symop_operation_xyz
x,y,z
-x,-y,-z
loop_
_atom_site_type_symbol
_atom_site_label
_atom_site_fract_x
_atom_site_fract_y
_atom_site_fract_z
Si Si1 0.732918 0.851030 0.068165
Si Si2 0.193457 0.584813 0.637126
Si Si3 0.257894 0.446480 0.003260
Si Si4 0.185548 0.767034 0.091803
Si Si5 0.378329 0.018844 0.789655
Si Si6 0.532548 0.609757 0.632317
Si Si7 0.953093 0.074082 0.986388
O O1 0.630986 0.678416 0.877665
O O2 0.740637 0.999072 0.955059
O O3 0.642487 0.640726 0.310832
O O4 0.904388 0.057340 0.112699
O O5 0.271514 0.582808 0.733329
O O6 0.197914 0.681893 0.363095
O O7 0.296351 0.787420 0.782498
O O8 0.004274 0.259609 0.720892
O O9 0.202543 0.246390 0.012904
O O10 0.429161 0.696407 0.141873
O O11 0.114167 0.247016 0.116569
O O12 0.000000 0.500000 0.000000
O O13 0.285382 0.885364 0.963912
O O14 0.361213 0.106650 0.527215
O O15 0.500000 0.500000 0.500000
#
# Coordination Sequence:
#
# PCOD8025399 Si02
#       7
#     2   2   2   2   2   2   2
#     4  11  23  42  65  98 132 170 218 269 335 394
#     4  10  23  45  65  95 136 174 214 283 322 389
#     4   9  22  43  69  95 128 180 226 269 330 381
#     4  12  27  40  65 104 131 174 219 268 345 398
#     4  12  23  41  70  96 134 174 221 274 330 395
#     4  11  23  39  66  98 132 169 215 272 331 394
#     4   9  21  42  70  91 132 173 222 275 322 393
#
# _framework density 21.066376000000002
#
# number of rings (size 3 to 8) (size 9 to 14) (size 15 to 20)
#    0.857    0.571    2.857    2.143    4.000    2.857 
#    0.000    2.143    0.000    0.000    0.000    0.000 
#    0.000    0.000    0.000    0.000    0.000    0.000 
#
# Total GULP energy -173464.486013 kJ/mol
# GULP energy per Si atom -12390.320429 kJ/mol
# Density = 2.101843 g / cm^3
# Si number density = 21.066376 Si / 1000 Ang^3
#
#
#
# Elastic Constant Matrix: (Units=GPa)
#
#
# Indices 1 2 3 4 5 6 
#
# 1 85.7388 57.4028 56.4026 -16.4491 -5.9213 0.5290
# 2 57.4028 111.5682 53.8634 -3.9468 -5.5988 -5.6523
# 3 56.4026 53.8634 100.9228 -11.8133 -18.0345 -3.5311
# 4 -16.4491 -3.9468 -11.8133 37.9827 3.0203 3.8402
# 5 -5.9213 -5.5988 -18.0345 3.0203 26.1181 -9.9990
# 6 0.5290 -5.6523 -3.5311 3.8402 -9.9990 46.9701
#
#
#
# Elastic Compliance Matrix: (Units=1/GPa)
#
#
# Indices 1 2 3 4 5 6 
#
# 1 0.024516 -0.008220 -0.009448 0.007593 -0.005008 -0.003663
# 2 -0.008220 0.014971 -0.003749 -0.003346 -0.000146 0.001855
# 3 -0.009448 -0.003749 0.019465 0.000264 0.011850 0.003620
# 4 0.007593 -0.003346 0.000264 0.030020 -0.003706 -0.003712
# 5 -0.005008 -0.000146 0.011850 -0.003706 0.050303 0.011941
# 6 -0.003663 0.001855 0.003620 -0.003712 0.011941 0.024672
#
#
# Mechanical properties :
#
#
# Convention : Reuss Voigt Hill
#
# Bulk Modulus (GPa) = 62.04789 70.39638 66.22214
# Shear Modulus (GPa) = 23.56782 30.91825 27.24304
#
# Velocity S-wave (km/s) = 3.34839 3.83516 3.60001
# Velocity P-wave (km/s) = 6.66831 7.28699 6.98451
#
# Compressibility (1/GPa) = 0.01611658
#
# Stress axis : x y z
#
# Youngs Moduli (GPa) = 40.79015 66.79706 51.37521
#
# Poissons Ratio (x) = 0.54910 0.48540
# Poissons Ratio (y) = 0.33531 0.19259
# Poissons Ratio (z) = 0.38539 0.25040
#
# Static dielectric constant tensor:
#      x y z
#    x 4.724220 -0.389260 0.683720 
#    y -0.389260 4.105570 -0.495590 
#    z 0.683720 -0.495590 4.088980 
# 
# 
# High freq. dielectric constant tensor:
#      x y z
#    x 1.834820 -0.008460 0.003750 
#    y -0.008460 1.837960 -0.014280 
#    z 0.003750 -0.014280 1.801140 
# 
# From -- ./inp_files/124146.got.cif
#   From: 2010.06.25/outbox.cif.g09.slc.cpg/sg2_63_cif.got.tgz:124146.got - 2010.06.27 13:26:56.
