data_PCOD8025258
_publ_section_title
;
Structure prediction by ZEFSAII (Michael W. Deem and Ramdas Pophale) SiO2 
 PCOD8025258
Probable space group: P -1
;
_chemical_formula_sum "Si O2"
_cell_formula_units_Z 16
_cell_length_a 19.190101
_cell_length_b 9.351276
_cell_length_c 6.390623
_cell_angle_alpha 129.889121
_cell_angle_beta 57.411289
_cell_angle_gamma 110.965807
_cell_volume 741.257837
_symmetry_space_group_name_H-M "P -1"
_symmetry_group_IT_number 2
_symmetry_cell_setting 'triclinic'
loop_
_space_group_symop_operation_xyz
x,y,z
-x,-y,-z
loop_
_atom_site_type_symbol
_atom_site_label
_atom_site_fract_x
_atom_site_fract_y
_atom_site_fract_z
Si Si1 0.844408 0.734443 0.633348
Si Si2 0.653006 0.561576 0.253820
Si Si3 0.365985 0.750186 0.681614
Si Si4 0.765190 0.378481 0.569408
Si Si5 0.676008 0.846160 0.833837
Si Si6 0.464315 0.309765 0.792240
Si Si7 0.112466 0.933977 0.829964
Si Si8 0.957679 0.894748 0.280215
O O1 0.838028 0.517096 0.500031
O O2 0.752345 0.809813 0.826831
O O3 0.897676 0.738455 0.335411
O O4 0.883924 0.864346 0.872502
O O5 0.615423 0.397237 0.304621
O O6 0.688447 0.732204 0.494351
O O7 0.583649 0.649733 0.305175
O O8 0.727999 0.474251 0.923418
O O9 0.306633 0.650971 0.513182
O O10 0.454686 0.813071 0.499265
O O11 0.324743 0.934490 0.014100
O O12 0.805066 0.182033 0.378073
O O13 0.592250 0.789369 0.036300
O O14 0.500000 0.500000 0.000000
O O15 0.100079 0.968748 0.635484
O O16 0.031540 0.819035 0.942286
O O17 0.000000 0.000000 0.500000
#
# Coordination Sequence:
#
# PCOD8025258 Si02
#       8
#     2   2   2   2   2   2   2   2
#     4  11  22  42  68  98 135 169 217 275 328 387
#     4  12  25  42  66  97 133 179 222 275 336 379
#     4  12  26  44  67  97 130 182 225 274 332 391
#     4  12  25  42  69 100 134 175 223 269 331 393
#     4  12  26  43  68  99 132 174 225 279 328 390
#     4  12  23  47  66  90 141 174 224 283 328 387
#     4  10  23  44  71  97 133 176 212 266 331 396
#     4   9  22  44  69  99 134 170 213 269 326 389
#
# _framework density 21.584931000000001
#
# number of rings (size 3 to 8) (size 9 to 14) (size 15 to 20)
#    0.000    0.750    6.250    0.750    3.500    2.000 
#    0.000    5.625    0.000    0.000    0.000    0.000 
#    0.000    0.000    0.000    0.000    0.000    0.000 
#
# Total GULP energy -198388.782286 kJ/mol
# GULP energy per Si atom -12399.298893 kJ/mol
# Density = 2.153580 g / cm^3
# Si number density = 21.584931 Si / 1000 Ang^3
#
#
#
# Elastic Constant Matrix: (Units=GPa)
#
#
# Indices 1 2 3 4 5 6 
#
# 1 96.5331 35.6810 28.9309 -8.5788 5.0453 -6.6019
# 2 35.6810 74.0385 37.5124 -7.7157 14.9199 6.0958
# 3 28.9309 37.5124 89.6426 -6.8020 13.3536 2.6035
# 4 -8.5788 -7.7157 -6.8020 40.1128 3.0122 -5.9614
# 5 5.0453 14.9199 13.3536 3.0122 31.9002 -6.1752
# 6 -6.6019 6.0958 2.6035 -5.9614 -6.1752 35.7533
#
#
#
# Elastic Compliance Matrix: (Units=1/GPa)
#
#
# Indices 1 2 3 4 5 6 
#
# 1 0.013607 -0.006087 -0.002172 0.001855 0.002283 0.004412
# 2 -0.006087 0.021488 -0.005552 0.001674 -0.007983 -0.005483
# 3 -0.002172 -0.005552 0.014821 0.001105 -0.003555 -0.000963
# 4 0.001855 0.001674 0.001105 0.026657 -0.003311 0.003849
# 5 0.002283 -0.007983 -0.003555 -0.003311 0.038082 0.008067
# 6 0.004412 -0.005483 -0.000963 0.003849 0.008067 0.031824
#
#
# Mechanical properties :
#
#
# Convention : Reuss Voigt Hill
#
# Bulk Modulus (GPa) = 44.85501 51.60700 48.23100
# Shear Modulus (GPa) = 27.54332 32.09258 29.81795
#
# Velocity S-wave (km/s) = 3.57605 3.86009 3.72078
# Velocity P-wave (km/s) = 6.15440 6.62026 6.39158
#
# Compressibility (1/GPa) = 0.02229405
#
# Stress axis : x y z
#
# Youngs Moduli (GPa) = 73.48959 46.53855 67.47244
#
# Poissons Ratio (x) = 0.28330 0.14653
# Poissons Ratio (y) = 0.44736 0.37459
# Poissons Ratio (z) = 0.15959 0.25837
#
# Static dielectric constant tensor:
#      x y z
#    x 3.330720 0.216100 0.132560 
#    y 0.216100 4.111150 -0.326790 
#    z 0.132560 -0.326790 3.937590 
# 
# 
# High freq. dielectric constant tensor:
#      x y z
#    x 1.858490 0.002740 -0.002860 
#    y 0.002740 1.845350 -0.013740 
#    z -0.002860 -0.013740 1.843730 
# 
# From -- ./inp_files/49159.got.cif
#   From: 2010.06.25/outbox.cif.g09.slc.cpg/sg2_25_cif.got.tgz:49159.got - 2010.06.27 13:26:56.
