data_PCOD8025009
_publ_section_title
;
Structure prediction by ZEFSAII (Michael W. Deem and Ramdas Pophale) SiO2 
 PCOD8025009
Probable space group: P -1
;
_chemical_formula_sum "Si O2"
_cell_formula_units_Z 12
_cell_length_a 8.114146
_cell_length_b 6.633675
_cell_length_c 13.880577
_cell_angle_alpha 54.544295
_cell_angle_beta 110.070988
_cell_angle_gamma 95.632914
_cell_volume 566.641325
_symmetry_space_group_name_H-M "P -1"
_symmetry_group_IT_number 2
_symmetry_cell_setting 'triclinic'
loop_
_space_group_symop_operation_xyz
x,y,z
-x,-y,-z
loop_
_atom_site_type_symbol
_atom_site_label
_atom_site_fract_x
_atom_site_fract_y
_atom_site_fract_z
Si Si1 0.091955 0.468904 0.923021
Si Si2 0.639346 0.992059 0.857953
Si Si3 0.436209 0.467460 0.722330
Si Si4 0.180688 0.353431 0.542005
Si Si5 0.696627 0.192923 0.234448
Si Si6 0.780643 0.467077 0.711145
O O1 0.213701 0.690597 0.872005
O O2 0.950364 0.482680 0.806221
O O3 0.215271 0.204879 0.007331
O O4 0.000000 0.500000 0.000000
O O5 0.508244 0.841134 0.812839
O O6 0.512521 0.180938 0.851850
O O7 0.746963 0.178016 0.764388
O O8 0.337433 0.451949 0.605152
O O9 0.305134 0.606145 0.735461
O O10 0.607895 0.607041 0.694572
O O11 0.200624 0.391170 0.422807
O O12 0.000000 0.500000 0.500000
O O13 0.181306 0.059340 0.641838
#
# Coordination Sequence:
#
# PCOD8025009 Si02
#       6
#     2   2   2   2   2   2
#     4  12  25  42  67  98 133 171 220 266 318 388
#     4   9  23  44  65  94 131 172 214 261 322 380
#     4   9  22  42  67  97 126 172 210 266 323 383
#     4  11  24  43  67  98 134 166 215 269 326 388
#     4  11  24  44  68  98 127 173 217 267 324 381
#     4  10  23  44  67  96 132 172 211 266 328 374
#
# _framework density 21.177417999999999
#
# number of rings (size 3 to 8) (size 9 to 14) (size 15 to 20)
#    1.000    0.667    0.000    3.500    2.333    4.000 
#    6.000    0.000    0.000    0.000    0.000    0.000 
#    0.000    0.000    0.000    0.000    0.000    0.000 
#
# Total GULP energy -148680.182243 kJ/mol
# GULP energy per Si atom -12390.015187 kJ/mol
# Density = 2.112922 g / cm^3
# Si number density = 21.177418 Si / 1000 Ang^3
#
#
#
# Elastic Constant Matrix: (Units=GPa)
#
#
# Indices 1 2 3 4 5 6 
#
# 1 98.7013 36.6128 45.4729 -8.0113 0.8447 -10.1152
# 2 36.6128 94.4850 38.2772 -9.9719 -1.5787 -18.2093
# 3 45.4729 38.2772 90.2079 -11.7735 -5.6730 -12.6871
# 4 -8.0113 -9.9719 -11.7735 39.0117 1.1227 4.6472
# 5 0.8447 -1.5787 -5.6730 1.1227 44.8337 -7.1059
# 6 -10.1152 -18.2093 -12.6871 4.6472 -7.1059 40.0691
#
#
#
# Elastic Compliance Matrix: (Units=1/GPa)
#
#
# Indices 1 2 3 4 5 6 
#
# 1 0.013959 -0.003041 -0.005755 0.000374 -0.001095 0.000082
# 2 -0.003041 0.014276 -0.003660 0.001357 0.000783 0.004543
# 3 -0.005755 -0.003660 0.016315 0.002481 0.002327 0.002175
# 4 0.000374 0.001357 0.002481 0.027031 -0.000599 -0.001745
# 5 -0.001095 0.000783 0.002327 -0.000599 0.023462 0.005046
# 6 0.000082 0.004543 0.002175 -0.001745 0.005046 0.028828
#
#
# Mechanical properties :
#
#
# Convention : Reuss Voigt Hill
#
# Bulk Modulus (GPa) = 50.91587 58.23556 54.57572
# Shear Modulus (GPa) = 32.18981 35.65166 33.92073
#
# Velocity S-wave (km/s) = 3.90296 4.10747 4.00652
# Velocity P-wave (km/s) = 6.66374 7.07486 6.87238
#
# Compressibility (1/GPa) = 0.01964024
#
# Stress axis : x y z
#
# Youngs Moduli (GPa) = 71.63849 70.04589 61.29226
#
# Poissons Ratio (x) = 0.21299 0.35272
# Poissons Ratio (y) = 0.21783 0.22431
# Poissons Ratio (z) = 0.41226 0.25635
#
# Static dielectric constant tensor:
#      x y z
#    x 4.366120 0.124710 -0.191250 
#    y 0.124710 3.712530 -0.271800 
#    z -0.191250 -0.271800 4.177310 
# 
# 
# High freq. dielectric constant tensor:
#      x y z
#    x 1.843460 0.004140 0.016280 
#    y 0.004140 1.820790 -0.010460 
#    z 0.016280 -0.010460 1.823400 
# 
# From -- ./inp_files/40948.got.cif
#   From: 2010.06.25/outbox.cif.g09.slc.cpg/sg2_21_cif.got.tgz:40948.got - 2010.06.27 13:26:56.
