data_PCOD8025191
_publ_section_title
;
Structure prediction by ZEFSAII (Michael W. Deem and Ramdas Pophale) SiO2 
 PCOD8025191
Probable space group: P -1
;
_chemical_formula_sum "Si O2"
_cell_formula_units_Z 14
_cell_length_a 20.711088
_cell_length_b 8.671283
_cell_length_c 9.338609
_cell_angle_alpha 132.091931
_cell_angle_beta 148.643811
_cell_angle_gamma 51.374197
_cell_volume 641.755814
_symmetry_space_group_name_H-M "P -1"
_symmetry_group_IT_number 2
_symmetry_cell_setting 'triclinic'
loop_
_space_group_symop_operation_xyz
x,y,z
-x,-y,-z
loop_
_atom_site_type_symbol
_atom_site_label
_atom_site_fract_x
_atom_site_fract_y
_atom_site_fract_z
Si Si1 0.885572 0.460151 0.160329
Si Si2 0.498448 0.028850 0.225990
Si Si3 0.246023 0.075504 0.215533
Si Si4 0.950912 0.612620 0.831698
Si Si5 0.676256 0.697650 0.752495
Si Si6 0.505782 0.639585 0.818404
Si Si7 0.767381 0.360270 0.150962
O O1 0.798348 0.344742 0.028569
O O2 0.000000 0.500000 0.500000
O O3 0.938720 0.340890 0.040593
O O4 0.798551 0.669503 0.069381
O O5 0.415925 0.092783 0.249479
O O6 0.462987 0.223902 0.173289
O O7 0.645203 0.008131 0.520386
O O8 0.464436 0.805787 0.969461
O O9 0.124810 0.161655 0.133533
O O10 0.282849 0.269014 0.312212
O O11 0.223377 0.886626 0.946832
O O12 0.865520 0.462870 0.495869
O O13 0.000000 0.500000 0.000000
O O14 0.608814 0.489473 0.505385
O O15 0.629591 0.482192 0.994841
#
# Coordination Sequence:
#
# PCOD8025191 Si02
#       7
#     2   2   2   2   2   2   2
#     4  10  23  44  70  91 131 178 217 273 320 387
#     4  11  23  40  64 100 130 170 219 265 337 390
#     4  12  25  40  69  97 133 176 218 270 335 393
#     4  11  24  47  66  94 136 173 223 275 322 389
#     4  12  23  42  64 100 134 169 217 273 332 387
#     4  11  23  39  69  96 133 170 213 277 328 393
#     4  11  23  44  69  98 132 175 219 272 331 387
#
# _framework density 21.815149999999999
#
# number of rings (size 3 to 8) (size 9 to 14) (size 15 to 20)
#    0.000    0.857    5.714    1.714    0.000    2.857 
#    0.000    0.000    0.000    0.000    0.000    0.000 
#    0.000    0.000    0.000    0.000    0.000    0.000 
#
# Total GULP energy -173541.017970 kJ/mol
# GULP energy per Si atom -12395.786998 kJ/mol
# Density = 2.176550 g / cm^3
# Si number density = 21.815150 Si / 1000 Ang^3
#
#
#
# Elastic Constant Matrix: (Units=GPa)
#
#
# Indices 1 2 3 4 5 6 
#
# 1 98.6246 41.7822 13.6384 1.7054 -4.4296 -14.7056
# 2 41.7822 123.9837 49.0008 3.7783 -1.3676 -30.0187
# 3 13.6384 49.0008 90.7345 -2.9360 -7.8547 -2.7613
# 4 1.7054 3.7783 -2.9360 41.6456 -3.0362 -0.2032
# 5 -4.4296 -1.3676 -7.8547 -3.0362 25.9708 -3.5257
# 6 -14.7056 -30.0187 -2.7613 -0.2032 -3.5257 27.2544
#
#
#
# Elastic Compliance Matrix: (Units=1/GPa)
#
#
# Indices 1 2 3 4 5 6 
#
# 1 0.012121 -0.003446 0.000343 0.000032 0.002413 0.003091
# 2 -0.003446 0.015920 -0.007710 -0.001794 -0.000276 0.014845
# 3 0.000343 -0.007710 0.015325 0.002003 0.003671 -0.006264
# 4 0.000032 -0.001794 0.002003 0.024545 0.003229 -0.001156
# 5 0.002413 -0.000276 0.003671 0.003229 0.041305 0.006738
# 6 0.003091 0.014845 -0.006264 -0.001156 0.006738 0.054938
#
#
# Mechanical properties :
#
#
# Convention : Reuss Voigt Hill
#
# Bulk Modulus (GPa) = 45.99698 58.02063 52.00880
# Shear Modulus (GPa) = 25.90339 32.90223 29.40281
#
# Velocity S-wave (km/s) = 3.44961 3.88781 3.67524
# Velocity P-wave (km/s) = 6.08252 6.84161 6.47320
#
# Compressibility (1/GPa) = 0.02174056
#
# Stress axis : x y z
#
# Youngs Moduli (GPa) = 82.50313 62.81507 65.25244
#
# Poissons Ratio (x) = 0.21647 -0.02239
# Poissons Ratio (y) = 0.28432 0.50307
# Poissons Ratio (z) = -0.02831 0.48428
#
# Static dielectric constant tensor:
#      x y z
#    x 4.280130 -0.209650 -0.006580 
#    y -0.209650 3.979310 -0.083220 
#    z -0.006580 -0.083220 3.866870 
# 
# 
# High freq. dielectric constant tensor:
#      x y z
#    x 1.866650 -0.013320 -0.002500 
#    y -0.013320 1.856490 -0.017350 
#    z -0.002500 -0.017350 1.851420 
# 
# From -- ./inp_files/171856.got.cif
#   From: 2010.06.25/outbox.cif.g09.slc.cpg/sg2_86_cif.got.tgz:171856.got - 2010.06.27 13:26:56.
