data_PCOD8025653
_publ_section_title
;
Structure prediction by ZEFSAII (Michael W. Deem and Ramdas Pophale) SiO2 
 PCOD8025653
Probable space group: P -1
;
_chemical_formula_sum "Si O2"
_cell_formula_units_Z 14
_cell_length_a 11.209196
_cell_length_b 8.844641
_cell_length_c 9.457890
_cell_angle_alpha 48.706079
_cell_angle_beta 124.013505
_cell_angle_gamma 118.957156
_cell_volume 573.922879
_symmetry_space_group_name_H-M "P -1"
_symmetry_group_IT_number 2
_symmetry_cell_setting 'triclinic'
loop_
_space_group_symop_operation_xyz
x,y,z
-x,-y,-z
loop_
_atom_site_type_symbol
_atom_site_label
_atom_site_fract_x
_atom_site_fract_y
_atom_site_fract_z
Si Si1 0.765102 0.161899 0.885595
Si Si2 0.254544 0.738473 0.880232
Si Si3 0.919198 0.173820 0.706736
Si Si4 0.412046 0.263200 0.908371
Si Si5 0.141400 0.068827 0.452173
Si Si6 0.666270 0.563728 0.527427
Si Si7 0.801842 0.511536 0.258488
O O1 0.882928 0.099545 0.891417
O O2 0.716215 0.351755 0.658181
O O3 0.823573 0.235913 0.036430
O O4 0.630928 0.971777 0.926105
O O5 0.165240 0.551978 0.842079
O O6 0.263359 0.941442 0.665995
O O7 0.416491 0.690867 0.040570
O O8 0.813177 0.324542 0.486728
O O9 0.085884 0.288821 0.740931
O O10 0.902704 0.979074 0.711072
O O11 0.320136 0.292005 0.689292
O O12 0.360219 0.426204 0.882152
O O13 0.220371 0.307456 0.363874
O O14 0.000000 0.000000 0.500000
O O15 0.500000 0.500000 0.500000
#
# Coordination Sequence:
#
# PCOD8025653 Si02
#       7
#     2   2   2   2   2   2   2
#     4  12  25  42  72 106 140 181 239 292 348 433
#     4  11  24  43  70 107 136 182 242 288 348 428
#     4  10  24  45  70 104 138 187 240 285 358 428
#     4  12  23  46  71 103 147 185 231 302 353 415
#     4  11  25  48  75 102 145 194 232 296 362 420
#     4  12  24  45  75 105 144 190 236 290 364 419
#     4  10  23  45  71  98 142 187 236 293 351 420
#
# _framework density 24.393521
#
# number of rings (size 3 to 8) (size 9 to 14) (size 15 to 20)
#    0.000    0.857    4.286    2.571    4.000    2.286 
#    2.571    2.143    0.000    0.000    0.000    0.000 
#    0.000    0.000    0.000    0.000    0.000    0.000 
#
# Total GULP energy -173519.139059 kJ/mol
# GULP energy per Si atom -12394.224218 kJ/mol
# Density = 2.433800 g / cm^3
# Si number density = 24.393521 Si / 1000 Ang^3
#
#
#
# Elastic Constant Matrix: (Units=GPa)
#
#
# Indices 1 2 3 4 5 6 
#
# 1 105.3527 50.4629 16.7116 16.3268 -27.8541 -18.7443
# 2 50.4629 121.6338 29.9354 6.6469 -22.2504 -2.5578
# 3 16.7116 29.9354 72.2067 12.3084 -18.6249 -9.3023
# 4 16.3268 6.6469 12.3084 40.2931 -12.8885 -10.9266
# 5 -27.8541 -22.2504 -18.6249 -12.8885 41.3812 6.5532
# 6 -18.7443 -2.5578 -9.3023 -10.9266 6.5532 39.9321
#
#
#
# Elastic Compliance Matrix: (Units=1/GPa)
#
#
# Indices 1 2 3 4 5 6 
#
# 1 0.014589 -0.005016 0.001345 -0.002072 0.006252 0.005247
# 2 -0.005016 0.011420 -0.003602 0.001194 0.001902 -0.002448
# 3 0.001345 -0.003602 0.017259 -0.002726 0.005447 0.002781
# 4 -0.002072 0.001194 -0.002726 0.029867 0.006438 0.005585
# 5 0.006252 0.001902 0.005447 0.006438 0.033767 0.000546
# 6 0.005247 -0.002448 0.002781 0.005585 0.000546 0.029435
#
#
# Mechanical properties :
#
#
# Convention : Reuss Voigt Hill
#
# Bulk Modulus (GPa) = 34.81650 54.82366 44.82008
# Shear Modulus (GPa) = 31.16071 37.79351 34.47711
#
# Velocity S-wave (km/s) = 3.57798 3.94042 3.76356
# Velocity P-wave (km/s) = 5.60116 6.57465 6.10733
#
# Compressibility (1/GPa) = 0.02872201
#
# Stress axis : x y z
#
# Youngs Moduli (GPa) = 68.54500 87.56330 57.94036
#
# Poissons Ratio (x) = 0.43925 -0.07793
# Poissons Ratio (y) = 0.34385 0.20869
# Poissons Ratio (z) = -0.09219 0.31538
#
# Static dielectric constant tensor:
#      x y z
#    x 4.398850 -0.437470 0.112280 
#    y -0.437470 4.367690 0.030990 
#    z 0.112280 0.030990 4.580900 
# 
# 
# High freq. dielectric constant tensor:
#      x y z
#    x 1.963970 -0.025850 0.006400 
#    y -0.025850 1.968810 -0.001940 
#    z 0.006400 -0.001940 1.974230 
# 
# From -- ./inp_files/242304.got.cif
#   From: 2010.06.25/outbox.cif.g09.slc.cpg/sg2_122_cif.got.tgz:242304.got - 2010.06.27 13:26:56.
