data_PCOD8025723
_publ_section_title
;
Structure prediction by ZEFSAII (Michael W. Deem and Ramdas Pophale) SiO2 
 PCOD8025723
Probable space group: P -1
;
_chemical_formula_sum "Si O2"
_cell_formula_units_Z 12
_cell_length_a 5.224536
_cell_length_b 6.475109
_cell_length_c 15.115273
_cell_angle_alpha 80.082723
_cell_angle_beta 95.511683
_cell_angle_gamma 82.453868
_cell_volume 495.637624
_symmetry_space_group_name_H-M "P -1"
_symmetry_group_IT_number 2
_symmetry_cell_setting 'triclinic'
loop_
_space_group_symop_operation_xyz
x,y,z
-x,-y,-z
loop_
_atom_site_type_symbol
_atom_site_label
_atom_site_fract_x
_atom_site_fract_y
_atom_site_fract_z
Si Si1 0.332299 0.778310 0.682403
Si Si2 0.772717 0.355349 0.502409
Si Si3 0.544326 0.329840 0.800791
Si Si4 0.811506 0.042989 0.688555
Si Si5 0.281544 0.031946 0.915709
Si Si6 0.846605 0.323954 0.977275
O O1 0.233598 0.771359 0.579554
O O2 0.394836 0.534290 0.732651
O O3 0.583144 0.897315 0.688689
O O4 0.090275 0.896374 0.723312
O O5 0.500000 0.500000 0.500000
O O6 0.824516 0.173217 0.590120
O O7 0.000000 0.500000 0.500000
O O8 0.776146 0.213723 0.755037
O O9 0.366068 0.142522 0.821886
O O10 0.611805 0.408983 0.895937
O O11 0.016937 0.160523 0.931652
O O12 0.500000 0.000000 0.000000
O O13 0.231644 0.786139 0.925361
O O14 0.000000 0.500000 0.000000
#
# Coordination Sequence:
#
# PCOD8025723 Si02
#       6
#     2   2   2   2   2   2
#     4  12  28  47  77 113 150 206 250 302 384 438
#     4  12  24  48  81 105 157 202 248 306 371 444
#     4  11  27  46  72 106 153 187 253 317 371 437
#     4  12  28  48  75 111 155 199 253 311 368 450
#     4   9  22  44  67  99 138 185 237 301 374 443
#     4  10  23  45  75 101 141 190 249 298 385 449
#
# _framework density 24.211238000000002
#
# number of rings (size 3 to 8) (size 9 to 14) (size 15 to 20)
#    0.000    1.000    1.667    3.000    4.667    8.000 
#    0.000    0.000    0.000    0.000    0.000    0.000 
#    0.000    0.000    0.000    0.000    0.000    0.000 
#
# Total GULP energy -148682.066982 kJ/mol
# GULP energy per Si atom -12390.172248 kJ/mol
# Density = 2.415613 g / cm^3
# Si number density = 24.211238 Si / 1000 Ang^3
#
#
#
# Elastic Constant Matrix: (Units=GPa)
#
#
# Indices 1 2 3 4 5 6 
#
# 1 150.6258 63.9049 26.4951 -17.8904 -13.4387 10.8644
# 2 63.9049 147.3444 70.4807 -23.5608 -11.0395 13.4878
# 3 26.4951 70.4807 121.7732 -30.7734 -15.9669 19.3562
# 4 -17.8904 -23.5608 -30.7734 38.5016 14.2647 -7.3167
# 5 -13.4387 -11.0395 -15.9669 14.2647 28.7937 4.1537
# 6 10.8644 13.4878 19.3562 -7.3167 4.1537 59.8917
#
#
#
# Elastic Compliance Matrix: (Units=1/GPa)
#
#
# Indices 1 2 3 4 5 6 
#
# 1 0.008496 -0.003727 0.001191 0.001430 0.002646 -0.001096
# 2 -0.003727 0.011122 -0.005519 0.001105 -0.001107 0.000167
# 3 0.001191 -0.005519 0.013622 0.006313 0.003275 -0.002832
# 4 0.001430 0.001105 0.006313 0.038502 -0.014943 0.003191
# 5 0.002646 -0.001107 0.003275 -0.014943 0.045665 -0.006282
# 6 -0.001096 0.000167 -0.002832 0.003191 -0.006282 0.018599
#
#
# Mechanical properties :
#
#
# Convention : Reuss Voigt Hill
#
# Bulk Modulus (GPa) = 58.37673 82.38943 70.38308
# Shear Modulus (GPa) = 31.68089 42.69492 37.18791
#
# Velocity S-wave (km/s) = 3.62127 4.20388 3.92341
# Velocity P-wave (km/s) = 6.45357 7.59386 7.04682
#
# Compressibility (1/GPa) = 0.01713011
#
# Stress axis : x y z
#
# Youngs Moduli (GPa) = 117.70552 89.91522 73.41310
#
# Poissons Ratio (x) = 0.33515 -0.08747
# Poissons Ratio (y) = 0.43873 0.40513
# Poissons Ratio (z) = -0.14024 0.49620
#
# Static dielectric constant tensor:
#      x y z
#    x 4.964990 0.189040 -0.168600 
#    y 0.189040 4.572560 -0.456400 
#    z -0.168600 -0.456400 4.887460 
# 
# 
# High freq. dielectric constant tensor:
#      x y z
#    x 1.975640 0.003660 -0.003280 
#    y 0.003660 1.972240 -0.013990 
#    z -0.003280 -0.013990 1.972000 
# 
# From -- ./inp_files/3162.got.cif
#   From: 2010.06.25/outbox.cif.g09.slc.cpg/sg2_2_cif.got.tgz:3162.got - 2010.06.27 13:26:56.
