data_PCOD8025789
_publ_section_title
;
Structure prediction by ZEFSAII (Michael W. Deem and Ramdas Pophale) SiO2 
 PCOD8025789
Probable space group: P -1
;
_chemical_formula_sum "Si O2"
_cell_formula_units_Z 14
_cell_length_a 5.158475
_cell_length_b 16.845298
_cell_length_c 23.091817
_cell_angle_alpha 160.690612
_cell_angle_beta 69.002529
_cell_angle_gamma 102.710965
_cell_volume 572.304689
_symmetry_space_group_name_H-M "P -1"
_symmetry_group_IT_number 2
_symmetry_cell_setting 'triclinic'
loop_
_space_group_symop_operation_xyz
x,y,z
-x,-y,-z
loop_
_atom_site_type_symbol
_atom_site_label
_atom_site_fract_x
_atom_site_fract_y
_atom_site_fract_z
Si Si1 0.711664 0.185975 0.685073
Si Si2 0.643221 0.714033 0.002411
Si Si3 0.089280 0.203334 0.772944
Si Si4 0.148722 0.590028 0.792490
Si Si5 0.534411 0.875363 0.998918
Si Si6 0.376590 0.867231 0.617894
Si Si7 0.330241 0.458404 0.428685
O O1 0.429679 0.095240 0.644409
O O2 0.830874 0.185611 0.740379
O O3 0.577639 0.472514 0.865420
O O4 0.000000 0.000000 0.500000
O O5 0.440968 0.844359 0.051890
O O6 0.555946 0.928884 0.206951
O O7 0.995342 0.608312 0.880938
O O8 0.099679 0.029264 0.709190
O O9 0.000000 0.500000 0.000000
O O10 0.338472 0.292083 0.555437
O O11 0.345143 0.768018 0.898002
O O12 0.888204 0.703690 0.843067
O O13 0.486821 0.170329 0.191822
O O14 0.303724 0.662382 0.521284
O O15 0.500000 0.500000 0.500000
O O16 0.000000 0.500000 0.500000
#
# Coordination Sequence:
#
# PCOD8025789 Si02
#       7
#     2   2   2   2   2   2   2
#     4  12  27  47  76 104 147 194 242 303 364 434
#     4  10  24  46  73 103 146 189 237 295 360 423
#     4  12  28  47  69 111 143 187 249 293 368 433
#     4  10  25  45  69 110 142 188 241 289 363 427
#     4  10  23  46  68 102 151 174 245 292 349 431
#     4  12  26  48  77 103 148 191 236 308 356 427
#     4  12  25  45  74 111 137 191 246 285 365 439
#
# _framework density 24.462496000000002
#
# number of rings (size 3 to 8) (size 9 to 14) (size 15 to 20)
#    0.857    0.000    2.857    3.429    4.000    4.571 
#    2.571    0.000    0.000    0.000    0.000    0.000 
#    0.000    0.000    0.000    0.000    0.000    0.000 
#
# Total GULP energy -173551.377386 kJ/mol
# GULP energy per Si atom -12396.526956 kJ/mol
# Density = 2.440682 g / cm^3
# Si number density = 24.462496 Si / 1000 Ang^3
#
#
#
# Elastic Constant Matrix: (Units=GPa)
#
#
# Indices 1 2 3 4 5 6 
#
# 1 101.7389 19.0688 -6.3753 0.5511 -5.1819 6.9210
# 2 19.0688 131.6826 24.7873 33.6121 -3.2942 -18.3862
# 3 -6.3753 24.7873 124.4919 4.5959 -0.0541 0.7394
# 4 0.5511 33.6121 4.5959 48.4418 -4.7134 -5.0961
# 5 -5.1819 -3.2942 -0.0541 -4.7134 33.0462 6.4298
# 6 6.9210 -18.3862 0.7394 -5.0961 6.4298 27.8709
#
#
#
# Elastic Compliance Matrix: (Units=1/GPa)
#
#
# Indices 1 2 3 4 5 6 
#
# 1 0.010870 -0.002759 0.001084 0.001426 0.002585 -0.004884
# 2 -0.002759 0.011120 -0.002145 -0.006889 -0.001714 0.007214
# 3 0.001084 -0.002145 0.008508 0.000508 0.000415 -0.001912
# 4 0.001426 -0.006889 0.000508 0.025581 0.003384 -0.001015
# 5 0.002585 -0.001714 0.000415 0.003384 0.032672 -0.008702
# 6 -0.004884 0.007214 -0.001912 -0.001015 -0.008702 0.043724
#
#
# Mechanical properties :
#
#
# Convention : Reuss Voigt Hill
#
# Bulk Modulus (GPa) = 43.74928 48.09722 45.92325
# Shear Modulus (GPa) = 33.84440 43.23396 38.53918
#
# Velocity S-wave (km/s) = 3.72361 4.20856 3.97349
# Velocity P-wave (km/s) = 6.03407 6.58181 6.31388
#
# Compressibility (1/GPa) = 0.02285752
#
# Stress axis : x y z
#
# Youngs Moduli (GPa) = 91.99350 89.92824 117.53711
#
# Poissons Ratio (x) = 0.24814 -0.12736
# Poissons Ratio (y) = 0.25384 0.25208
# Poissons Ratio (z) = -0.09968 0.19286
#
# Static dielectric constant tensor:
#      x y z
#    x 3.885130 -0.107690 -0.204720 
#    y -0.107690 4.106250 -0.232920 
#    z -0.204720 -0.232920 4.429300 
# 
# 
# High freq. dielectric constant tensor:
#      x y z
#    x 1.965690 -0.001900 -0.007420 
#    y -0.001900 1.977100 0.007790 
#    z -0.007420 0.007790 1.983180 
# 
# From -- ./inp_files/604900.got.cif
#   From: 2010.06.25/outbox.cif.g09.slc.cpg/sg2_303_cif.got.tgz:604900.got - 2010.06.27 13:26:56.
