data_PCOD8025145
_publ_section_title
;
Structure prediction by ZEFSAII (Michael W. Deem and Ramdas Pophale) SiO2 
 PCOD8025145
Probable space group: P -1
;
_chemical_formula_sum "Si O2"
_cell_formula_units_Z 16
_cell_length_a 17.383689
_cell_length_b 8.770716
_cell_length_c 5.675576
_cell_angle_alpha 103.755622
_cell_angle_beta 114.413082
_cell_angle_gamma 60.962739
_cell_volume 688.173998
_symmetry_space_group_name_H-M "P -1"
_symmetry_group_IT_number 2
_symmetry_cell_setting 'triclinic'
loop_
_space_group_symop_operation_xyz
x,y,z
-x,-y,-z
loop_
_atom_site_type_symbol
_atom_site_label
_atom_site_fract_x
_atom_site_fract_y
_atom_site_fract_z
Si Si1 0.247478 0.730966 0.395402
Si Si2 0.847765 0.032535 0.016691
Si Si3 0.374797 0.382467 0.272343
Si Si4 0.144140 0.640930 0.600872
Si Si5 0.679708 0.075198 0.122456
Si Si6 0.479505 0.333581 0.891612
Si Si7 0.037744 0.336844 0.817999
Si Si8 0.768037 0.701459 0.142880
O O1 0.318241 0.593518 0.248116
O O2 0.184810 0.643940 0.396150
O O3 0.313756 0.766855 0.673690
O O4 0.173991 0.915195 0.263424
O O5 0.866788 0.185483 0.214977
O O6 0.755645 0.018106 0.988345
O O7 0.937012 0.844931 0.077842
O O8 0.426423 0.340543 0.578343
O O9 0.433306 0.316903 0.077686
O O10 0.298733 0.302421 0.158555
O O11 0.221232 0.458200 0.734442
O O12 0.042607 0.640762 0.463543
O O13 0.710179 0.897037 0.250976
O O14 0.574006 0.152530 0.920682
O O15 0.500000 0.500000 0.000000
O O16 0.127786 0.331224 0.801884
O O17 0.000000 0.500000 0.000000
#
# Coordination Sequence:
#
# PCOD8025145 Si02
#       8
#     2   2   2   2   2   2   2   2
#     4  11  22  43  71 101 134 187 240 286 350 417
#     4  10  23  44  69  97 137 182 234 288 349 421
#     4  12  25  44  74 103 145 188 236 296 356 423
#     4  11  23  44  70  95 138 182 238 288 346 425
#     4  10  25  43  69 103 138 186 230 291 357 420
#     4  12  25  44  74 108 139 184 247 297 349 427
#     4  11  25  43  67 103 135 182 231 292 356 420
#     4  11  25  48  67 100 145 187 224 292 366 421
#
# _framework density 23.249935000000001
#
# number of rings (size 3 to 8) (size 9 to 14) (size 15 to 20)
#    0.000    1.000    2.500    3.375    3.500    1.500 
#    4.500    0.000    0.000    0.000    0.000    0.000 
#    0.000    0.000    0.000    0.000    0.000    0.000 
#
# Total GULP energy -198216.254462 kJ/mol
# GULP energy per Si atom -12388.515904 kJ/mol
# Density = 2.319702 g / cm^3
# Si number density = 23.249935 Si / 1000 Ang^3
#
#
#
# Elastic Constant Matrix: (Units=GPa)
#
#
# Indices 1 2 3 4 5 6 
#
# 1 81.4864 50.7716 64.4473 -0.9842 15.2324 -0.3224
# 2 50.7716 158.6852 31.9527 -21.6356 5.3728 -5.3541
# 3 64.4473 31.9527 127.6032 -14.7067 11.6536 -0.4983
# 4 -0.9842 -21.6356 -14.7067 31.6124 1.6265 2.0890
# 5 15.2324 5.3728 11.6536 1.6265 39.9063 -2.6788
# 6 -0.3224 -5.3541 -0.4983 2.0890 -2.6788 32.4381
#
#
#
# Elastic Compliance Matrix: (Units=1/GPa)
#
#
# Indices 1 2 3 4 5 6 
#
# 1 0.028221 -0.007624 -0.012992 -0.010029 -0.005610 -0.000995
# 2 -0.007624 0.009253 0.002278 0.007042 0.000786 0.001098
# 3 -0.012992 0.002278 0.014751 0.008019 0.000015 -0.000042
# 4 -0.010029 0.007042 0.008019 0.040031 -0.001193 -0.001491
# 5 -0.005610 0.000786 0.000015 -0.001193 0.027300 0.002406
# 6 -0.000995 0.001098 -0.000042 -0.001491 0.002406 0.031293
#
#
# Mechanical properties :
#
#
# Convention : Reuss Voigt Hill
#
# Bulk Modulus (GPa) = 64.31468 73.56869 68.94168
# Shear Modulus (GPa) = 25.94593 35.49823 30.72208
#
# Velocity S-wave (km/s) = 3.34422 3.91168 3.63903
# Velocity P-wave (km/s) = 6.52948 7.21893 6.88284
#
# Compressibility (1/GPa) = 0.01554855
#
# Stress axis : x y z
#
# Youngs Moduli (GPa) = 35.43434 108.07110 67.79377
#
# Poissons Ratio (x) = 0.82399 0.88075
# Poissons Ratio (y) = 0.27017 -0.15443
# Poissons Ratio (z) = 0.46035 -0.24618
#
# Static dielectric constant tensor:
#      x y z
#    x 4.656140 0.001730 0.294450 
#    y 0.001730 4.591330 -0.131020 
#    z 0.294450 -0.131020 4.217520 
# 
# 
# High freq. dielectric constant tensor:
#      x y z
#    x 1.912270 0.003850 0.021150 
#    y 0.003850 1.939060 -0.007910 
#    z 0.021150 -0.007910 1.914890 
# 
# From -- ./inp_files/107270.got.cif
#   From: 2010.06.25/outbox.cif.g09.slc.cpg/sg2_54_cif.got.tgz:107270.got - 2010.06.27 13:26:56.
