data_PCOD8025138
_publ_section_title
;
Structure prediction by ZEFSAII (Michael W. Deem and Ramdas Pophale) SiO2 
 PCOD8025138
Probable space group: P -1
;
_chemical_formula_sum "Si O2"
_cell_formula_units_Z 16
_cell_length_a 9.238610
_cell_length_b 17.047007
_cell_length_c 5.132075
_cell_angle_alpha 67.059731
_cell_angle_beta 111.355850
_cell_angle_gamma 118.368084
_cell_volume 638.773126
_symmetry_space_group_name_H-M "P -1"
_symmetry_group_IT_number 2
_symmetry_cell_setting 'triclinic'
loop_
_space_group_symop_operation_xyz
x,y,z
-x,-y,-z
loop_
_atom_site_type_symbol
_atom_site_label
_atom_site_fract_x
_atom_site_fract_y
_atom_site_fract_z
Si Si1 0.058293 0.107630 0.922331
Si Si2 0.333767 0.112234 0.443570
Si Si3 0.127583 0.898504 0.685982
Si Si4 0.661890 0.196198 0.302441
Si Si5 0.864203 0.555464 0.112131
Si Si6 0.678164 0.581680 0.462129
Si Si7 0.797747 0.360616 0.508806
Si Si8 0.465772 0.272508 0.706554
O O1 0.946673 0.131441 0.038391
O O2 0.252803 0.147264 0.096881
O O3 0.020664 0.143939 0.572927
O O4 0.000000 0.000000 0.000000
O O5 0.519494 0.117070 0.484188
O O6 0.345707 0.177572 0.612184
O O7 0.213217 0.009507 0.580539
O O8 0.264578 0.854073 0.791014
O O9 0.802990 0.271026 0.477252
O O10 0.566409 0.254121 0.034087
O O11 0.749231 0.573933 0.235423
O O12 0.843567 0.448925 0.235860
O O13 0.061897 0.618923 0.199520
O O14 0.812989 0.579657 0.766378
O O15 0.500000 0.500000 0.500000
O O16 0.655647 0.678391 0.336771
O O17 0.609881 0.338863 0.520798
#
# Coordination Sequence:
#
# PCOD8025138 Si02
#       8
#     2   2   2   2   2   2   2   2
#     4  10  23  44  69  96 130 173 229 283 331 392
#     4  10  24  43  66  98 133 181 225 277 341 392
#     4  11  25  44  72  96 134 182 230 275 331 407
#     4  11  26  43  67  98 141 177 226 280 336 397
#     4  11  26  45  77  98 134 181 224 274 336 410
#     4  12  25  45  71 102 133 175 226 272 337 404
#     4  10  25  46  66 103 136 177 222 280 339 392
#     4  11  26  42  68  96 144 174 222 287 332 399
#
# _framework density 25.048020000000001
#
# number of rings (size 3 to 8) (size 9 to 14) (size 15 to 20)
#    0.000    1.250    1.250    3.000   14.000    3.500 
#    0.000    0.000    0.000    0.000    0.000    0.000 
#    0.000    0.000    0.000    0.000    0.000    0.000 
#
# Total GULP energy -198428.615970 kJ/mol
# GULP energy per Si atom -12401.788498 kJ/mol
# Density = 2.499101 g / cm^3
# Si number density = 25.048020 Si / 1000 Ang^3
#
#
#
# Elastic Constant Matrix: (Units=GPa)
#
#
# Indices 1 2 3 4 5 6 
#
# 1 105.5207 37.7259 -14.0319 12.1458 6.6814 -17.1100
# 2 37.7259 101.2113 16.8157 22.4282 13.3852 1.4225
# 3 -14.0319 16.8157 76.5328 12.4182 13.2872 3.1675
# 4 12.1458 22.4282 12.4182 31.5093 -4.7704 4.5352
# 5 6.6814 13.3852 13.2872 -4.7704 40.9935 4.8144
# 6 -17.1100 1.4225 3.1675 4.5352 4.8144 35.8347
#
#
#
# Elastic Compliance Matrix: (Units=1/GPa)
#
#
# Indices 1 2 3 4 5 6 
#
# 1 0.013785 -0.004200 0.004791 -0.005915 -0.004011 0.007612
# 2 -0.004200 0.014145 -0.001767 -0.008279 -0.004231 -0.000794
# 3 0.004791 -0.001767 0.016844 -0.008710 -0.007019 0.002914
# 4 -0.005915 -0.008279 -0.008710 0.046664 0.013023 -0.009381
# 5 -0.004011 -0.004231 -0.007019 0.013023 0.031036 -0.006944
# 6 0.007612 -0.000794 0.002914 -0.009381 -0.006944 0.033435
#
#
# Mechanical properties :
#
#
# Convention : Reuss Voigt Hill
#
# Bulk Modulus (GPa) = 23.57259 40.47603 32.02431
# Shear Modulus (GPa) = 29.00217 37.85118 33.42668
#
# Velocity S-wave (km/s) = 3.40643 3.89156 3.65705
# Velocity P-wave (km/s) = 4.99030 6.03215 5.53579
#
# Compressibility (1/GPa) = 0.04242216
#
# Stress axis : x y z
#
# Youngs Moduli (GPa) = 72.54435 70.69714 59.36727
#
# Poissons Ratio (x) = 0.29693 -0.28444
# Poissons Ratio (y) = 0.30469 0.10490
# Poissons Ratio (z) = -0.34758 0.12493
#
# Static dielectric constant tensor:
#      x y z
#    x 4.746650 0.105690 0.198590 
#    y 0.105690 4.617060 0.337180 
#    z 0.198590 0.337180 4.720750 
# 
# 
# High freq. dielectric constant tensor:
#      x y z
#    x 2.011280 0.004110 0.000150 
#    y 0.004110 2.003150 0.016890 
#    z 0.000150 0.016890 1.994800 
# 
# From -- ./inp_files/38469.got.cif
#   From: 2010.06.25/outbox.cif.g09.slc.cpg/sg2_20_cif.got.tgz:38469.got - 2010.06.27 13:26:56.
