data_PCOD8025406
_publ_section_title
;
Structure prediction by ZEFSAII (Michael W. Deem and Ramdas Pophale) SiO2 
 PCOD8025406
Probable space group: P -1
;
_chemical_formula_sum "Si O2"
_cell_formula_units_Z 16
_cell_length_a 9.340695
_cell_length_b 19.821609
_cell_length_c 8.123409
_cell_angle_alpha 93.744250
_cell_angle_beta 86.599834
_cell_angle_gamma 153.629481
_cell_volume 666.624197
_symmetry_space_group_name_H-M "P -1"
_symmetry_group_IT_number 2
_symmetry_cell_setting 'triclinic'
loop_
_space_group_symop_operation_xyz
x,y,z
-x,-y,-z
loop_
_atom_site_type_symbol
_atom_site_label
_atom_site_fract_x
_atom_site_fract_y
_atom_site_fract_z
Si Si1 0.732619 0.327911 0.802794
Si Si2 0.387838 0.390714 0.709193
Si Si3 0.025900 0.003711 0.693555
Si Si4 0.717212 0.127593 0.369752
Si Si5 0.744355 0.478697 0.966792
Si Si6 0.876989 0.595504 0.432926
Si Si7 0.842120 0.067900 0.835711
Si Si8 0.855218 0.793905 0.819313
O O1 0.390037 0.150230 0.759555
O O2 0.701157 0.394882 0.837880
O O3 0.972287 0.409550 0.650308
O O4 0.889737 0.362440 0.965684
O O5 0.646396 0.500569 0.860819
O O6 0.565122 0.444419 0.536933
O O7 0.229230 0.397939 0.705894
O O8 0.113891 0.219844 0.733168
O O9 0.852612 0.992971 0.788916
O O10 0.000000 0.000000 0.500000
O O11 0.838266 0.858154 0.739540
O O12 0.850309 0.254003 0.450560
O O13 0.026423 0.212413 0.318744
O O14 0.500000 0.000000 0.500000
O O15 0.508131 0.052711 0.209027
O O16 0.506623 0.374305 0.123481
O O17 0.895242 0.101772 0.029896
#
# Coordination Sequence:
#
# PCOD8025406 Si02
#       8
#     2   2   2   2   2   2   2   2
#     4  11  24  46  68 101 133 181 228 278 335 411
#     4  10  23  45  65  99 134 179 223 281 336 398
#     4  12  25  44  70 102 137 181 225 285 341 409
#     4  12  24  44  68 103 136 181 229 280 343 404
#     4  10  25  48  69  98 138 180 226 286 337 400
#     4  11  25  41  69 100 136 180 228 274 342 405
#     4  11  23  46  65  98 139 178 229 282 342 396
#     4  11  25  45  71  97 137 182 228 285 342 406
#
# _framework density 24.001528
#
# number of rings (size 3 to 8) (size 9 to 14) (size 15 to 20)
#    0.000    1.000    3.750    3.000    3.500    2.000 
#    9.000    0.000    0.000    0.000    0.000    0.000 
#    0.000    0.000    0.000    0.000    0.000    0.000 
#
# Total GULP energy -198441.490192 kJ/mol
# GULP energy per Si atom -12402.593137 kJ/mol
# Density = 2.394690 g / cm^3
# Si number density = 24.001528 Si / 1000 Ang^3
#
#
#
# Elastic Constant Matrix: (Units=GPa)
#
#
# Indices 1 2 3 4 5 6 
#
# 1 99.4002 27.2496 28.0201 -14.4006 -7.9438 13.8530
# 2 27.2496 61.5548 25.5585 10.2573 11.8955 8.2795
# 3 28.0201 25.5585 80.9567 -4.7736 10.0352 3.4198
# 4 -14.4006 10.2573 -4.7736 43.9588 11.6156 9.1074
# 5 -7.9438 11.8955 10.0352 11.6156 67.5591 5.8646
# 6 13.8530 8.2795 3.4198 9.1074 5.8646 26.1402
#
#
#
# Elastic Compliance Matrix: (Units=1/GPa)
#
#
# Indices 1 2 3 4 5 6 
#
# 1 0.014970 -0.005981 -0.002851 0.007069 0.002781 -0.008753
# 2 -0.005981 0.022790 -0.005193 -0.007064 -0.002704 -0.000301
# 3 -0.002851 -0.005193 0.015353 0.002351 -0.002176 0.000817
# 4 0.007069 -0.007064 0.002351 0.030039 -0.002420 -0.011739
# 5 0.002781 -0.002704 -0.002176 -0.002420 0.016624 -0.003219
# 6 -0.008753 -0.000301 0.000817 -0.011739 -0.003219 0.047695
#
#
# Mechanical properties :
#
#
# Convention : Reuss Voigt Hill
#
# Bulk Modulus (GPa) = 39.90284 44.84091 42.37187
# Shear Modulus (GPa) = 27.19226 38.27049 32.73138
#
# Velocity S-wave (km/s) = 3.36957 3.99745 3.69686
# Velocity P-wave (km/s) = 5.63914 6.32687 5.99288
#
# Compressibility (1/GPa) = 0.02506088
#
# Stress axis : x y z
#
# Youngs Moduli (GPa) = 66.80069 43.87861 65.13541
#
# Poissons Ratio (x) = 0.26245 0.18571
# Poissons Ratio (y) = 0.39955 0.33828
# Poissons Ratio (z) = 0.19046 0.22788
#
# Static dielectric constant tensor:
#      x y z
#    x 4.485910 0.212350 0.165570 
#    y 0.212350 4.266930 0.258530 
#    z 0.165570 0.258530 4.498610 
# 
# 
# High freq. dielectric constant tensor:
#      x y z
#    x 1.960340 0.014080 0.003370 
#    y 0.014080 1.943550 0.016180 
#    z 0.003370 0.016180 1.960190 
# 
# From -- ./inp_files/217696.got.cif
#   From: 2010.06.25/outbox.cif.g09.slc.cpg/sg2_109_cif.got.tgz:217696.got - 2010.06.27 13:26:56.
