data_PCOD8025031
_publ_section_title
;
Structure prediction by ZEFSAII (Michael W. Deem and Ramdas Pophale) SiO2 
 PCOD8025031
Probable space group: P -1
;
_chemical_formula_sum "Si O2"
_cell_formula_units_Z 14
_cell_length_a 8.377577
_cell_length_b 15.866104
_cell_length_c 5.993144
_cell_angle_alpha 53.975102
_cell_angle_beta 93.276240
_cell_angle_gamma 75.087917
_cell_volume 600.002111
_symmetry_space_group_name_H-M "P -1"
_symmetry_group_IT_number 2
_symmetry_cell_setting 'triclinic'
loop_
_space_group_symop_operation_xyz
x,y,z
-x,-y,-z
loop_
_atom_site_type_symbol
_atom_site_label
_atom_site_fract_x
_atom_site_fract_y
_atom_site_fract_z
Si Si1 0.238447 0.660126 0.858765
Si Si2 0.863566 0.150187 0.102044
Si Si3 0.434975 0.714784 0.434073
Si Si4 0.774738 0.958351 0.580054
Si Si5 0.262796 0.456252 0.502271
Si Si6 0.958493 0.431567 0.298061
Si Si7 0.519682 0.909872 0.330709
O O1 0.198710 0.777054 0.794237
O O2 0.409796 0.641183 0.753795
O O3 0.081263 0.670239 0.659954
O O4 0.259169 0.559859 0.187086
O O5 0.067032 0.127471 0.131358
O O6 0.842131 0.031107 0.303551
O O7 0.754451 0.214003 0.782913
O O8 0.547213 0.636587 0.365316
O O9 0.536596 0.792773 0.403547
O O10 0.685326 0.889610 0.532294
O O11 0.647012 0.045695 0.599670
O O12 0.215692 0.497950 0.686869
O O13 0.125607 0.396908 0.521994
O O14 0.000000 0.500000 0.000000
O O15 0.500000 0.000000 0.000000
#
# Coordination Sequence:
#
# PCOD8025031 Si02
#       7
#     2   2   2   2   2   2   2
#     4  11  23  42  66 100 139 181 225 278 342 404
#     4  11  24  42  67  99 134 177 227 280 343 405
#     4  12  25  41  69 105 135 181 228 280 343 404
#     4  10  24  46  66  94 138 176 227 287 333 410
#     4  10  23  44  67  99 140 177 232 280 330 415
#     4   9  21  44  65  92 136 181 223 278 341 393
#     4  11  23  46  68  99 133 179 230 282 344 401
#
# _framework density 23.33325
#
# number of rings (size 3 to 8) (size 9 to 14) (size 15 to 20)
#    0.000    1.429    2.857    1.286    2.000    6.286 
#    7.714    0.000    0.000    0.000    0.000    0.000 
#    0.000    0.000    0.000    0.000    0.000    0.000 
#
# Total GULP energy -173520.558269 kJ/mol
# GULP energy per Si atom -12394.325591 kJ/mol
# Density = 2.328014 g / cm^3
# Si number density = 23.333250 Si / 1000 Ang^3
#
#
#
# Elastic Constant Matrix: (Units=GPa)
#
#
# Indices 1 2 3 4 5 6 
#
# 1 126.9408 47.4292 46.3583 -2.8041 4.6493 -4.2816
# 2 47.4292 96.1192 27.6895 8.9859 3.2574 8.9173
# 3 46.3583 27.6895 78.5647 3.0399 -7.3612 -3.3056
# 4 -2.8041 8.9859 3.0399 29.1095 -4.6307 -1.2709
# 5 4.6493 3.2574 -7.3612 -4.6307 45.7620 0.0522
# 6 -4.2816 8.9173 -3.3056 -1.2709 0.0522 43.9520
#
#
#
# Elastic Compliance Matrix: (Units=1/GPa)
#
#
# Indices 1 2 3 4 5 6 
#
# 1 0.011797 -0.004628 -0.005508 0.002986 -0.001455 0.001762
# 2 -0.004628 0.014225 -0.002378 -0.004975 -0.001424 -0.003658
# 3 -0.005508 -0.002378 0.017224 -0.001002 0.003397 0.001208
# 4 0.002986 -0.004975 -0.001002 0.036958 0.003627 0.002289
# 5 -0.001455 -0.001424 0.003397 0.003627 0.023014 0.000480
# 6 0.001762 -0.003658 0.001208 0.002289 0.000480 0.023822
#
#
# Mechanical properties :
#
#
# Convention : Reuss Voigt Hill
#
# Bulk Modulus (GPa) = 54.88520 60.50876 57.69698
# Shear Modulus (GPa) = 31.61772 35.77455 33.69614
#
# Velocity S-wave (km/s) = 3.68509 3.91986 3.80429
# Velocity P-wave (km/s) = 6.45600 6.81731 6.63912
#
# Compressibility (1/GPa) = 0.01821985
#
# Stress axis : x y z
#
# Youngs Moduli (GPa) = 84.76913 70.29944 58.05841
#
# Poissons Ratio (x) = 0.32532 0.31976
# Poissons Ratio (y) = 0.39228 0.13804
# Poissons Ratio (z) = 0.46687 0.16715
#
# Static dielectric constant tensor:
#      x y z
#    x 5.701150 -0.733070 -1.000320 
#    y -0.733070 5.565760 1.390180 
#    z -1.000320 1.390180 5.004750 
# 
# 
# High freq. dielectric constant tensor:
#      x y z
#    x 1.940750 0.016250 -0.010820 
#    y 0.016250 1.922650 0.016960 
#    z -0.010820 0.016960 1.901860 
# 
# From -- ./inp_files/36904.got.cif
#   From: 2010.06.25/outbox.cif.g09.slc.cpg/sg2_19_cif.got.tgz:36904.got - 2010.06.27 13:26:56.
