data_PCOD8025278
_publ_section_title
;
Structure prediction by ZEFSAII (Michael W. Deem and Ramdas Pophale) SiO2 
 PCOD8025278
Probable space group: P -1
;
_chemical_formula_sum "Si O2"
_cell_formula_units_Z 16
_cell_length_a 11.160002
_cell_length_b 9.280619
_cell_length_c 8.893805
_cell_angle_alpha 48.238241
_cell_angle_beta 90.221871
_cell_angle_gamma 78.544019
_cell_volume 661.631084
_symmetry_space_group_name_H-M "P -1"
_symmetry_group_IT_number 2
_symmetry_cell_setting 'triclinic'
loop_
_space_group_symop_operation_xyz
x,y,z
-x,-y,-z
loop_
_atom_site_type_symbol
_atom_site_label
_atom_site_fract_x
_atom_site_fract_y
_atom_site_fract_z
Si Si1 0.813653 0.981189 0.798353
Si Si2 0.935185 0.291180 0.510406
Si Si3 0.411367 0.888476 0.493357
Si Si4 0.425914 0.203116 0.691337
Si Si5 0.513048 0.725865 0.032851
Si Si6 0.675472 0.387666 0.083530
Si Si7 0.838967 0.746894 0.261030
Si Si8 0.958945 0.301511 0.161871
O O1 0.950226 0.866330 0.820772
O O2 0.821942 0.212360 0.633352
O O3 0.699916 0.960258 0.707861
O O4 0.791328 0.910287 0.015306
O O5 0.894247 0.530683 0.338559
O O6 0.967530 0.223339 0.386907
O O7 0.057415 0.197795 0.675261
O O8 0.502659 0.723810 0.497329
O O9 0.345780 0.776600 0.686713
O O10 0.500000 0.000000 0.500000
O O11 0.453519 0.312233 0.765687
O O12 0.277986 0.250984 0.634227
O O13 0.485351 0.962877 0.845625
O O14 0.627320 0.608134 0.006785
O O15 0.397428 0.635524 0.053640
O O16 0.818860 0.342814 0.071458
O O17 0.000000 0.500000 0.000000
#
# Coordination Sequence:
#
# PCOD8025278 Si02
#       8
#     2   2   2   2   2   2   2   2
#     4  12  26  46  75 104 148 194 244 301 371 438
#     4  11  25  49  69 112 143 192 246 303 362 445
#     4  12  27  45  72 107 145 193 241 309 368 438
#     4  11  24  45  71 103 144 196 236 298 379 428
#     4  10  23  44  72 101 148 189 239 303 359 439
#     4  11  25  47  69 111 146 185 255 300 363 446
#     4  11  26  48  73 103 152 188 244 308 363 439
#     4  12  26  45  77 104 146 194 239 305 371 434
#
# _framework density 24.182663000000002
#
# number of rings (size 3 to 8) (size 9 to 14) (size 15 to 20)
#    0.000    0.750    3.750    3.000    5.250    0.500 
#    4.500    0.000    0.000    0.000    0.000    0.000 
#    0.000    0.000    0.000    0.000    0.000    0.000 
#
# Total GULP energy -198381.562488 kJ/mol
# GULP energy per Si atom -12398.847655 kJ/mol
# Density = 2.412762 g / cm^3
# Si number density = 24.182663 Si / 1000 Ang^3
#
#
#
# Elastic Constant Matrix: (Units=GPa)
#
#
# Indices 1 2 3 4 5 6 
#
# 1 186.9944 37.2172 29.1861 12.6178 13.2691 0.0427
# 2 37.2172 91.9817 -3.3895 6.8844 8.9448 9.3768
# 3 29.1861 -3.3895 72.5351 4.9051 5.1116 18.7220
# 4 12.6178 6.8844 4.9051 26.8306 3.9757 0.3128
# 5 13.2691 8.9448 5.1116 3.9757 41.7038 6.9529
# 6 0.0427 9.3768 18.7220 0.3128 6.9529 42.2109
#
#
#
# Elastic Compliance Matrix: (Units=1/GPa)
#
#
# Indices 1 2 3 4 5 6 
#
# 1 0.006595 -0.002760 -0.003155 -0.001645 -0.001336 0.002238
# 2 -0.002760 0.012800 0.002970 -0.002282 -0.001361 -0.003917
# 3 -0.003155 0.002970 0.017531 -0.002362 -0.000158 -0.008388
# 4 -0.001645 -0.002282 -0.002362 0.039448 -0.002744 0.001716
# 5 -0.001336 -0.001361 -0.000158 -0.002744 0.025614 -0.003825
# 6 0.002238 -0.003917 -0.008388 0.001716 -0.003825 0.028896
#
#
# Mechanical properties :
#
#
# Convention : Reuss Voigt Hill
#
# Bulk Modulus (GPa) = 32.22051 53.05989 42.64020
# Shear Modulus (GPa) = 33.98608 41.38220 37.68414
#
# Velocity S-wave (km/s) = 3.75292 4.14119 3.95183
# Velocity P-wave (km/s) = 5.66850 6.69738 6.20431
#
# Compressibility (1/GPa) = 0.03103614
#
# Stress axis : x y z
#
# Youngs Moduli (GPa) = 151.63787 78.12380 57.04324
#
# Poissons Ratio (x) = 0.21560 0.17996
# Poissons Ratio (y) = 0.41847 -0.16940
# Poissons Ratio (z) = 0.47837 -0.23201
#
# Static dielectric constant tensor:
#      x y z
#    x 4.077470 0.497300 -0.450040 
#    y 0.497300 4.404400 0.278420 
#    z -0.450040 0.278420 4.249080 
# 
# 
# High freq. dielectric constant tensor:
#      x y z
#    x 1.975900 0.007440 0.000300 
#    y 0.007440 1.958340 0.000700 
#    z 0.000300 0.000700 1.958270 
# 
# From -- ./inp_files/242063.got.cif
#   From: 2010.06.25/outbox.cif.g09.slc.cpg/sg2_122_cif.got.tgz:242063.got - 2010.06.27 13:26:56.
