data_PCOD8025658
_publ_section_title
;
Structure prediction by ZEFSAII (Michael W. Deem and Ramdas Pophale) SiO2 
 PCOD8025658
Probable space group: P -1
;
_chemical_formula_sum "Si O2"
_cell_formula_units_Z 14
_cell_length_a 19.841906
_cell_length_b 9.133898
_cell_length_c 6.528974
_cell_angle_alpha 61.038878
_cell_angle_beta 125.460941
_cell_angle_gamma 143.511205
_cell_volume 572.744752
_symmetry_space_group_name_H-M "P -1"
_symmetry_group_IT_number 2
_symmetry_cell_setting 'triclinic'
loop_
_space_group_symop_operation_xyz
x,y,z
-x,-y,-z
loop_
_atom_site_type_symbol
_atom_site_label
_atom_site_fract_x
_atom_site_fract_y
_atom_site_fract_z
Si Si1 0.971893 0.769797 0.567828
Si Si2 0.415276 0.815522 0.695780
Si Si3 0.697472 0.803115 0.664478
Si Si4 0.793544 0.409576 0.826001
Si Si5 0.492748 0.713337 0.550119
Si Si6 0.871928 0.240955 0.366898
Si Si7 0.767692 0.570960 0.052205
O O1 0.920754 0.607401 0.793009
O O2 0.872706 0.619474 0.312725
O O3 0.095845 0.866124 0.650746
O O4 0.000000 0.000000 0.500000
O O5 0.315608 0.756811 0.413728
O O6 0.474622 0.740371 0.739015
O O7 0.361059 0.674153 0.909565
O O8 0.508351 0.109395 0.697213
O O9 0.619158 0.800635 0.682651
O O10 0.614300 0.566421 0.527555
O O11 0.785991 0.057839 0.525001
O O12 0.778892 0.790205 0.946524
O O13 0.794641 0.254002 0.085101
O O14 0.773924 0.544666 0.838948
O O15 0.000000 0.500000 0.500000
#
# Coordination Sequence:
#
# PCOD8025658 Si02
#       7
#     2   2   2   2   2   2   2
#     4  11  26  42  70 102 133 179 230 279 339 399
#     4  10  23  45  72 101 132 179 232 271 347 401
#     4  11  25  44  70 101 141 177 227 281 344 392
#     4  11  23  45  69 101 136 180 225 277 338 407
#     4  10  23  47  66 103 138 176 230 281 332 411
#     4  12  26  45  70 100 139 182 225 277 339 407
#     4  11  23  43  72 100 139 175 224 286 336 404
#
# _framework density 24.443698999999999
#
# number of rings (size 3 to 8) (size 9 to 14) (size 15 to 20)
#    0.000    1.143    2.857    2.143    6.000    3.429 
#   10.286    0.000    0.000    0.000    0.000    0.000 
#    0.000    0.000    0.000    0.000    0.000    0.000 
#
# Total GULP energy -173551.248642 kJ/mol
# GULP energy per Si atom -12396.517760 kJ/mol
# Density = 2.438806 g / cm^3
# Si number density = 24.443699 Si / 1000 Ang^3
#
#
#
# Elastic Constant Matrix: (Units=GPa)
#
#
# Indices 1 2 3 4 5 6 
#
# 1 158.3091 13.4418 25.6428 0.7781 10.0952 -3.0572
# 2 13.4418 89.8620 15.3831 -9.4775 -2.8628 2.0354
# 3 25.6428 15.3831 101.5057 -16.7113 3.2125 7.1316
# 4 0.7781 -9.4775 -16.7113 31.0537 -7.3567 -7.0117
# 5 10.0952 -2.8628 3.2125 -7.3567 30.8528 -9.4908
# 6 -3.0572 2.0354 7.1316 -7.0117 -9.4908 43.2835
#
#
#
# Elastic Compliance Matrix: (Units=1/GPa)
#
#
# Indices 1 2 3 4 5 6 
#
# 1 0.006883 -0.001023 -0.001843 -0.002138 -0.002695 -0.000099
# 2 -0.001023 0.011944 -0.001045 0.003929 0.002726 0.000773
# 3 -0.001843 -0.001045 0.011482 0.005787 0.000399 -0.000948
# 4 -0.002138 0.003929 0.005787 0.041489 0.012895 0.008259
# 5 -0.002695 0.002726 0.000399 0.012895 0.039788 0.010429
# 6 -0.000099 0.000773 -0.000948 0.008259 0.010429 0.026841
#
#
# Mechanical properties :
#
#
# Convention : Reuss Voigt Hill
#
# Bulk Modulus (GPa) = 44.47333 50.95692 47.71512
# Shear Modulus (GPa) = 32.52128 40.71860 36.61994
#
# Velocity S-wave (km/s) = 3.65150 4.08586 3.87477
# Velocity P-wave (km/s) = 6.00097 6.56894 6.29137
#
# Compressibility (1/GPa) = 0.02248539
#
# Stress axis : x y z
#
# Youngs Moduli (GPa) = 145.29256 83.72504 87.08950
#
# Poissons Ratio (x) = 0.08565 0.16053
# Poissons Ratio (y) = 0.14864 0.09105
# Poissons Ratio (z) = 0.26782 0.08753
#
# Static dielectric constant tensor:
#      x y z
#    x 5.744290 0.391850 -0.634760 
#    y 0.391850 5.136930 1.123300 
#    z -0.634760 1.123300 8.664620 
# 
# 
# High freq. dielectric constant tensor:
#      x y z
#    x 1.998140 -0.003390 0.000660 
#    y -0.003390 1.969810 -0.007090 
#    z 0.000660 -0.007090 1.956070 
# 
# From -- ./inp_files/55701.got.cif
#   From: 2010.06.25/outbox.cif.g09.slc.cpg/sg2_28_cif.got.tgz:55701.got - 2010.06.27 13:26:56.
