data_PCOD8025279
_publ_section_title
;
Structure prediction by ZEFSAII (Michael W. Deem and Ramdas Pophale) SiO2 
 PCOD8025279
Probable space group: P -1
;
_chemical_formula_sum "Si O2"
_cell_formula_units_Z 14
_cell_length_a 9.618661
_cell_length_b 8.926216
_cell_length_c 14.134918
_cell_angle_alpha 139.907602
_cell_angle_beta 62.966363
_cell_angle_gamma 92.979593
_cell_volume 596.552528
_symmetry_space_group_name_H-M "P -1"
_symmetry_group_IT_number 2
_symmetry_cell_setting 'triclinic'
loop_
_space_group_symop_operation_xyz
x,y,z
-x,-y,-z
loop_
_atom_site_type_symbol
_atom_site_label
_atom_site_fract_x
_atom_site_fract_y
_atom_site_fract_z
Si Si1 0.812706 0.159921 0.190810
Si Si2 0.979208 0.753271 0.356870
Si Si3 0.461285 0.651015 0.799317
Si Si4 0.428999 0.877615 0.389028
Si Si5 0.705123 0.732340 0.063826
Si Si6 0.095079 0.453775 0.549030
Si Si7 0.399002 0.995334 0.147210
O O1 0.657294 0.345402 0.251505
O O2 0.825797 0.348934 0.358523
O O3 0.764285 0.957569 0.162276
O O4 0.000000 0.000000 0.000000
O O5 0.031942 0.532938 0.318886
O O6 0.770159 0.874425 0.453789
O O7 0.000000 0.000000 0.500000
O O8 0.117244 0.573242 0.142349
O O9 0.582659 0.358717 0.667805
O O10 0.600384 0.747256 0.774564
O O11 0.332458 0.861366 0.023889
O O12 0.573420 0.753983 0.199155
O O13 0.500000 0.000000 0.500000
O O14 0.595724 0.774131 0.020238
O O15 0.255874 0.134327 0.343998
O O16 0.000000 0.500000 0.500000
#
# Coordination Sequence:
#
# PCOD8025279 Si02
#       7
#     2   2   2   2   2   2   2
#     4  11  23  46  73 103 143 183 244 304 355 425
#     4  12  28  48  71 107 151 193 244 299 364 442
#     4  10  24  42  72 100 139 188 236 296 359 430
#     4  12  28  48  71 107 151 191 242 295 371 444
#     4  11  26  47  75 102 147 197 237 304 366 428
#     4  12  26  43  72 107 141 186 248 299 360 428
#     4  10  23  44  72 102 136 186 244 295 360 419
#
# _framework density 23.468177000000001
#
# number of rings (size 3 to 8) (size 9 to 14) (size 15 to 20)
#    0.000    0.857    2.857    2.571   10.000    2.857 
#    0.000    0.000    0.000    0.000    0.000    0.000 
#    0.000    0.000    0.000    0.000    0.000    0.000 
#
# Total GULP energy -173541.694043 kJ/mol
# GULP energy per Si atom -12395.835289 kJ/mol
# Density = 2.341476 g / cm^3
# Si number density = 23.468177 Si / 1000 Ang^3
#
#
#
# Elastic Constant Matrix: (Units=GPa)
#
#
# Indices 1 2 3 4 5 6 
#
# 1 143.3690 34.4357 54.0274 3.7084 20.8832 -9.4914
# 2 34.4357 97.4136 17.8771 13.9027 -3.5887 -10.1114
# 3 54.0274 17.8771 141.6693 -1.7647 -1.8412 -12.6236
# 4 3.7084 13.9027 -1.7647 28.6449 8.5154 4.3409
# 5 20.8832 -3.5887 -1.8412 8.5154 51.7284 -0.0045
# 6 -9.4914 -10.1114 -12.6236 4.3409 -0.0045 24.9553
#
#
#
# Elastic Compliance Matrix: (Units=1/GPa)
#
#
# Indices 1 2 3 4 5 6 
#
# 1 0.009589 -0.003083 -0.003263 0.001286 -0.004413 0.000523
# 2 -0.003083 0.013187 -0.000050 -0.007866 0.003453 0.005514
# 3 -0.003263 -0.000050 0.008606 0.000029 0.001616 0.003087
# 4 0.001286 -0.007866 0.000029 0.042486 -0.008059 -0.010075
# 5 -0.004413 0.003453 0.001616 -0.008059 0.022737 0.001944
# 6 0.000523 0.005514 0.003087 -0.010075 0.001944 0.045819
#
#
# Mechanical properties :
#
#
# Convention : Reuss Voigt Hill
#
# Bulk Modulus (GPa) = 53.79143 66.12581 59.95862
# Shear Modulus (GPa) = 30.97667 39.47317 35.22492
#
# Velocity S-wave (km/s) = 3.63704 4.10565 3.87843
# Velocity P-wave (km/s) = 6.37246 7.12132 6.75727
#
# Compressibility (1/GPa) = 0.01859032
#
# Stress axis : x y z
#
# Youngs Moduli (GPa) = 104.28496 75.83385 116.20203
#
# Poissons Ratio (x) = 0.23379 0.37912
# Poissons Ratio (y) = 0.32150 0.00582
# Poissons Ratio (z) = 0.34024 0.00380
#
# Static dielectric constant tensor:
#      x y z
#    x 4.296810 0.021490 0.061850 
#    y 0.021490 4.038970 -0.069860 
#    z 0.061850 -0.069860 4.420000 
# 
# 
# High freq. dielectric constant tensor:
#      x y z
#    x 1.929740 0.002060 0.005530 
#    y 0.002060 1.926320 -0.002240 
#    z 0.005530 -0.002240 1.943390 
# 
# From -- ./inp_files/319151.got.cif
#   From: 2010.06.25/outbox.cif.g09.slc.cpg/sg2_160_cif.got.tgz:319151.got - 2010.06.27 13:26:56.
