data_PCOD8025194
_publ_section_title
;
Structure prediction by ZEFSAII (Michael W. Deem and Ramdas Pophale) SiO2 
 PCOD8025194
Probable space group: P -1
;
_chemical_formula_sum "Si O2"
_cell_formula_units_Z 16
_cell_length_a 14.046586
_cell_length_b 8.968245
_cell_length_c 8.482734
_cell_angle_alpha 133.738003
_cell_angle_beta 109.315143
_cell_angle_gamma 68.075588
_cell_volume 712.016165
_symmetry_space_group_name_H-M "P -1"
_symmetry_group_IT_number 2
_symmetry_cell_setting 'triclinic'
loop_
_space_group_symop_operation_xyz
x,y,z
-x,-y,-z
loop_
_atom_site_type_symbol
_atom_site_label
_atom_site_fract_x
_atom_site_fract_y
_atom_site_fract_z
Si Si1 0.893158 0.954817 0.352521
Si Si2 0.650071 0.497815 0.535001
Si Si3 0.212614 0.321539 0.472970
Si Si4 0.102534 0.497173 0.839013
Si Si5 0.386796 0.006551 0.505151
Si Si6 0.073277 0.124917 0.036199
Si Si7 0.255436 0.707281 0.269526
Si Si8 0.537072 0.147225 0.249872
O O1 0.892915 0.711743 0.210225
O O2 0.803863 0.107975 0.511763
O O3 0.880492 0.996679 0.187339
O O4 0.000000 0.000000 0.500000
O O5 0.749695 0.509803 0.494884
O O6 0.684038 0.482113 0.725974
O O7 0.605403 0.294394 0.310658
O O8 0.562359 0.708139 0.614338
O O9 0.125285 0.447325 0.631424
O O10 0.308678 0.213450 0.554611
O O11 0.167096 0.152413 0.221395
O O12 0.988976 0.645125 0.886988
O O13 0.181628 0.628133 0.049091
O O14 0.500000 0.000000 0.500000
O O15 0.339802 0.801478 0.283544
O O16 0.393551 0.005536 0.697911
O O17 0.000000 0.000000 0.000000
O O18 0.500000 0.000000 0.000000
#
# Coordination Sequence:
#
# PCOD8025194 Si02
#       8
#     2   2   2   2   2   2   2   2
#     4  12  25  46  74 101 142 188 234 288 350 413
#     4  10  24  42  65 102 133 176 232 285 339 416
#     4  12  25  43  70 102 141 180 232 285 350 414
#     4  12  26  47  71 103 142 186 233 288 350 423
#     4  11  23  47  68  98 143 180 230 291 340 420
#     4  12  27  46  72 104 144 183 234 290 352 422
#     4  11  25  45  72 102 140 185 238 281 349 423
#     4  10  23  44  70  94 134 180 232 286 347 404
#
# _framework density 22.471399999999999
#
# number of rings (size 3 to 8) (size 9 to 14) (size 15 to 20)
#    0.000    0.750    3.750    3.000    5.250    3.000 
#    0.000    1.250    0.000    0.000    0.000    0.000 
#    0.000    0.000    0.000    0.000    0.000    0.000 
#
# Total GULP energy -198415.741692 kJ/mol
# GULP energy per Si atom -12400.983856 kJ/mol
# Density = 2.242025 g / cm^3
# Si number density = 22.471400 Si / 1000 Ang^3
#
#
#
# Elastic Constant Matrix: (Units=GPa)
#
#
# Indices 1 2 3 4 5 6 
#
# 1 116.8938 25.7562 46.0040 -1.4506 19.4862 19.0540
# 2 25.7562 80.8636 33.0473 0.4806 9.2268 3.4478
# 3 46.0040 33.0473 141.1338 -15.3642 19.6211 8.9584
# 4 -1.4506 0.4806 -15.3642 27.6536 0.5489 7.0944
# 5 19.4862 9.2268 19.6211 0.5489 29.8979 -4.1472
# 6 19.0540 3.4478 8.9584 7.0944 -4.1472 50.1762
#
#
#
# Elastic Compliance Matrix: (Units=1/GPa)
#
#
# Indices 1 2 3 4 5 6 
#
# 1 0.011587 -0.001939 -0.002088 0.000764 -0.006224 -0.004516
# 2 -0.001939 0.014252 -0.002779 -0.001981 -0.001214 0.000433
# 3 -0.002088 -0.002779 0.009842 0.006014 -0.004630 -0.002006
# 4 0.000764 -0.001981 0.006014 0.041634 -0.005649 -0.007581
# 5 -0.006224 -0.001214 -0.004630 -0.005649 0.042067 0.007549
# 6 -0.004516 0.000433 -0.002006 -0.007581 0.007549 0.023669
#
#
# Mechanical properties :
#
#
# Convention : Reuss Voigt Hill
#
# Bulk Modulus (GPa) = 45.31318 60.94512 53.12915
# Shear Modulus (GPa) = 30.48391 37.15112 33.81751
#
# Velocity S-wave (km/s) = 3.68715 4.07044 3.88353
# Velocity P-wave (km/s) = 6.19156 7.01936 6.61841
#
# Compressibility (1/GPa) = 0.02206864
#
# Stress axis : x y z
#
# Youngs Moduli (GPa) = 86.30474 70.16623 101.60057
#
# Poissons Ratio (x) = 0.13607 0.21211
# Poissons Ratio (y) = 0.16736 0.28239
# Poissons Ratio (z) = 0.18018 0.19502
#
# Static dielectric constant tensor:
#      x y z
#    x 4.341690 0.028920 0.111510 
#    y 0.028920 4.334600 -0.019680 
#    z 0.111510 -0.019680 3.945800 
# 
# 
# High freq. dielectric constant tensor:
#      x y z
#    x 1.896770 0.001800 0.020370 
#    y 0.001800 1.900440 -0.004700 
#    z 0.020370 -0.004700 1.872120 
# 
# From -- ./inp_files/208580.got.cif
#   From: 2010.06.25/outbox.cif.g09.slc.cpg/sg2_105_cif.got.tgz:208580.got - 2010.06.27 13:26:56.
