data_PCOD8025428
_publ_section_title
;
Structure prediction by ZEFSAII (Michael W. Deem and Ramdas Pophale) SiO2 
 PCOD8025428
Probable space group: P -1
;
_chemical_formula_sum "Si O2"
_cell_formula_units_Z 12
_cell_length_a 8.842477
_cell_length_b 8.838986
_cell_length_c 9.622342
_cell_angle_alpha 115.378595
_cell_angle_beta 73.429712
_cell_angle_gamma 123.126527
_cell_volume 567.757308
_symmetry_space_group_name_H-M "P -1"
_symmetry_group_IT_number 2
_symmetry_cell_setting 'triclinic'
loop_
_space_group_symop_operation_xyz
x,y,z
-x,-y,-z
loop_
_atom_site_type_symbol
_atom_site_label
_atom_site_fract_x
_atom_site_fract_y
_atom_site_fract_z
Si Si1 0.344164 0.795522 0.418512
Si Si2 0.655374 0.448099 0.915408
Si Si3 0.517092 0.203376 0.099812
Si Si4 0.869362 0.827320 0.865939
Si Si5 0.652261 0.441380 0.422847
Si Si6 0.989635 0.824662 0.519621
O O1 0.409993 0.732895 0.240341
O O2 0.305955 0.633043 0.476492
O O3 0.169646 0.814903 0.442708
O O4 0.500000 0.000000 0.500000
O O5 0.834017 0.632847 0.880354
O O6 0.500000 0.500000 0.000000
O O7 0.675780 0.366649 0.026510
O O8 0.320943 0.181137 0.113986
O O9 0.586671 0.270398 0.262794
O O10 0.500000 0.000000 0.000000
O O11 0.962170 0.842621 0.698696
O O12 0.000000 0.000000 0.000000
O O13 0.500000 0.500000 0.500000
O O14 0.833503 0.634552 0.413008
O O15 0.000000 0.000000 0.500000
#
# Coordination Sequence:
#
# PCOD8025428 Si02
#       6
#     2   2   2   2   2   2
#     4  12  26  44  74 101 140 188 234 287 353 414
#     4  10  23  45  66  99 136 182 226 276 352 413
#     4  11  25  43  71 103 138 181 228 285 350 413
#     4  11  26  45  69 100 143 180 231 288 351 412
#     4  12  23  47  71 101 142 180 232 290 345 420
#     4  12  28  45  71 106 140 186 240 291 347 413
#
# _framework density 21.135791000000001
#
# number of rings (size 3 to 8) (size 9 to 14) (size 15 to 20)
#    0.000    0.667    3.333    3.500   11.667    0.000 
#    0.000    1.667    0.000    0.000    0.000    0.000 
#    0.000    0.000    0.000    0.000    0.000    0.000 
#
# Total GULP energy -148776.969288 kJ/mol
# GULP energy per Si atom -12398.080774 kJ/mol
# Density = 2.108769 g / cm^3
# Si number density = 21.135791 Si / 1000 Ang^3
#
#
#
# Elastic Constant Matrix: (Units=GPa)
#
#
# Indices 1 2 3 4 5 6 
#
# 1 123.7931 43.4527 33.8593 7.8755 -10.9241 -1.8248
# 2 43.4527 114.8467 23.7230 4.5766 -15.8229 -0.3783
# 3 33.8593 23.7230 135.5290 14.9814 -16.0995 1.8297
# 4 7.8755 4.5766 14.9814 49.7790 -3.9301 12.1512
# 5 -10.9241 -15.8229 -16.0995 -3.9301 29.9557 5.6987
# 6 -1.8248 -0.3783 1.8297 12.1512 5.6987 46.2404
#
#
#
# Elastic Compliance Matrix: (Units=1/GPa)
#
#
# Indices 1 2 3 4 5 6 
#
# 1 0.009802 -0.003218 -0.001715 -0.000815 0.000741 0.000551
# 2 -0.003218 0.010620 -0.000560 0.000183 0.004272 -0.000593
# 3 -0.001715 -0.000560 0.008532 -0.001886 0.003482 -0.000343
# 4 -0.000815 0.000183 -0.001886 0.022522 0.002927 -0.006235
# 5 0.000741 0.004272 0.003482 0.002927 0.039245 -0.005679
# 6 0.000551 -0.000593 -0.000343 -0.006235 -0.005679 0.023995
#
#
# Mechanical properties :
#
#
# Convention : Reuss Voigt Hill
#
# Bulk Modulus (GPa) = 55.65364 64.02652 59.84008
# Shear Modulus (GPa) = 37.96806 43.40395 40.68600
#
# Velocity S-wave (km/s) = 4.24298 4.53656 4.39222
# Velocity P-wave (km/s) = 7.09876 7.60258 7.35498
#
# Compressibility (1/GPa) = 0.01796828
#
# Stress axis : x y z
#
# Youngs Moduli (GPa) = 102.02052 94.16465 117.21036
#
# Poissons Ratio (x) = 0.30302 0.20100
# Poissons Ratio (y) = 0.32830 0.06560
# Poissons Ratio (z) = 0.17495 0.05271
#
# Static dielectric constant tensor:
#      x y z
#    x 3.525540 -0.114420 -0.243150 
#    y -0.114420 4.382310 -0.102740 
#    z -0.243150 -0.102740 3.884960 
# 
# 
# High freq. dielectric constant tensor:
#      x y z
#    x 1.821090 -0.011180 -0.002470 
#    y -0.011180 1.852680 0.001960 
#    z -0.002470 0.001960 1.844930 
# 
# From -- ./inp_files/148230.got.cif
#   From: 2010.06.25/outbox.cif.g09.slc.cpg/sg2_75_cif.got.tgz:148230.got - 2010.06.27 13:26:56.
