data_PCOD8025038
_publ_section_title
;
Structure prediction by ZEFSAII (Michael W. Deem and Ramdas Pophale) SiO2 
 PCOD8025038
Probable space group: P -1
;
_chemical_formula_sum "Si O2"
_cell_formula_units_Z 12
_cell_length_a 13.838970
_cell_length_b 11.247203
_cell_length_c 7.085845
_cell_angle_alpha 57.200540
_cell_angle_beta 119.836193
_cell_angle_gamma 149.287862
_cell_volume 472.179640
_symmetry_space_group_name_H-M "P -1"
_symmetry_group_IT_number 2
_symmetry_cell_setting 'triclinic'
loop_
_space_group_symop_operation_xyz
x,y,z
-x,-y,-z
loop_
_atom_site_type_symbol
_atom_site_label
_atom_site_fract_x
_atom_site_fract_y
_atom_site_fract_z
Si Si1 0.651313 0.222594 0.231457
Si Si2 0.685780 0.308315 0.599142
Si Si3 0.707436 0.734045 0.417806
Si Si4 0.864875 0.977947 0.983940
Si Si5 0.693971 0.955584 0.482156
Si Si6 0.861564 0.614880 0.824755
O O1 0.739229 0.381825 0.369541
O O2 0.423850 0.956166 0.256976
O O3 0.763829 0.190253 0.333432
O O4 0.675863 0.359481 0.970050
O O5 0.538859 0.283832 0.538477
O O6 0.873103 0.524001 0.727185
O O7 0.500000 0.500000 0.500000
O O8 0.779907 0.958441 0.385015
O O9 0.845023 0.758720 0.618719
O O10 0.721836 0.754214 0.186720
O O11 0.971917 0.211354 0.008527
O O12 0.749288 0.939749 0.745821
O O13 0.000000 0.000000 0.000000
#
# Coordination Sequence:
#
# PCOD8025038 Si02
#       6
#     2   2   2   2   2   2
#     4   9  22  42  72 101 140 181 232 287 341 416
#     4   9  21  41  72 102 140 178 239 276 343 420
#     4  12  26  44  75 102 135 187 245 284 340 417
#     4  12  29  45  68 103 152 181 225 295 356 408
#     4  10  23  44  68 100 141 182 236 282 343 419
#     4  12  24  41  72 101 137 184 227 290 351 400
#
# _framework density 25.414057
#
# number of rings (size 3 to 8) (size 9 to 14) (size 15 to 20)
#    1.000    0.333    3.333    1.000    4.667    2.667 
#    0.000    1.667    0.000    0.000    0.000    0.000 
#    0.000    0.000    0.000    0.000    0.000    0.000 
#
# Total GULP energy -148665.593115 kJ/mol
# GULP energy per Si atom -12388.799426 kJ/mol
# Density = 2.535621 g / cm^3
# Si number density = 25.414057 Si / 1000 Ang^3
#
#
#
# Elastic Constant Matrix: (Units=GPa)
#
#
# Indices 1 2 3 4 5 6 
#
# 1 67.4180 3.8067 41.7935 -3.0320 -20.5970 -19.7343
# 2 3.8067 85.6533 30.7956 17.0994 -12.3536 -20.0402
# 3 41.7935 30.7956 147.3845 4.7077 -10.9911 -18.4040
# 4 -3.0320 17.0994 4.7077 43.4356 -12.0096 -5.0652
# 5 -20.5970 -12.3536 -10.9911 -12.0096 38.7391 10.2805
# 6 -19.7343 -20.0402 -18.4040 -5.0652 10.2805 33.1795
#
#
#
# Elastic Compliance Matrix: (Units=1/GPa)
#
#
# Indices 1 2 3 4 5 6 
#
# 1 0.025592 0.004399 -0.006003 0.005348 0.011862 0.011690
# 2 0.004399 0.015872 -0.003100 -0.003734 0.002977 0.008991
# 3 -0.006003 -0.003100 0.009023 -0.000682 -0.001839 0.000028
# 4 0.005348 -0.003734 -0.000682 0.027805 0.009597 0.001819
# 5 0.011862 0.002977 -0.001839 0.009597 0.036018 -0.001861
# 6 0.011690 0.008991 0.000028 0.001819 -0.001861 0.043392
#
#
# Mechanical properties :
#
#
# Convention : Reuss Voigt Hill
#
# Bulk Modulus (GPa) = 24.34248 50.36083 37.35165
# Shear Modulus (GPa) = 27.65436 38.00819 32.83127
#
# Velocity S-wave (km/s) = 3.30229 3.87144 3.59814
# Velocity P-wave (km/s) = 4.91318 6.31215 5.65608
#
# Compressibility (1/GPa) = 0.04108045
#
# Stress axis : x y z
#
# Youngs Moduli (GPa) = 39.07461 63.00210 110.82791
#
# Poissons Ratio (x) = -0.27715 0.66527
# Poissons Ratio (y) = -0.17189 0.34355
# Poissons Ratio (z) = 0.23455 0.19530
#
# Static dielectric constant tensor:
#      x y z
#    x 4.436890 -0.447570 -0.184790 
#    y -0.447570 4.602670 0.114330 
#    z -0.184790 0.114330 4.582940 
# 
# 
# High freq. dielectric constant tensor:
#      x y z
#    x 1.990450 -0.024140 -0.016660 
#    y -0.024140 2.013560 0.005140 
#    z -0.016660 0.005140 2.027100 
# 
# From -- ./inp_files/92212.got.cif
#   From: 2010.06.25/outbox.cif.g09.slc.cpg/sg2_47_cif.got.tgz:92212.got - 2010.06.27 13:26:56.
