data_PCOD8025839
_publ_section_title
;
Structure prediction by ZEFSAII (Michael W. Deem and Ramdas Pophale) SiO2 
 PCOD8025839
Probable space group: P -1
;
_chemical_formula_sum "Si O2"
_cell_formula_units_Z 14
_cell_length_a 19.449996
_cell_length_b 6.032698
_cell_length_c 9.180360
_cell_angle_alpha 101.625549
_cell_angle_beta 137.651366
_cell_angle_gamma 58.379460
_cell_volume 584.534453
_symmetry_space_group_name_H-M "P -1"
_symmetry_group_IT_number 2
_symmetry_cell_setting 'triclinic'
loop_
_space_group_symop_operation_xyz
x,y,z
-x,-y,-z
loop_
_atom_site_type_symbol
_atom_site_label
_atom_site_fract_x
_atom_site_fract_y
_atom_site_fract_z
Si Si1 0.543810 0.159908 0.175742
Si Si2 0.191516 0.713209 0.167647
Si Si3 0.565865 0.853686 0.433846
Si Si4 0.060251 0.580820 0.485363
Si Si5 0.626694 0.225243 0.031465
Si Si6 0.046483 0.280261 0.169743
Si Si7 0.828474 0.157004 0.161526
O O1 0.423404 0.465679 0.050550
O O2 0.599428 0.028189 0.405647
O O3 0.639400 0.175613 0.220274
O O4 0.500000 0.000000 0.000000
O O5 0.307135 0.443086 0.387336
O O6 0.151127 0.972778 0.240678
O O7 0.237466 0.740614 0.085198
O O8 0.074835 0.694714 0.955089
O O9 0.464458 0.844636 0.185124
O O10 0.500000 0.000000 0.500000
O O11 0.108944 0.358627 0.402308
O O12 0.170382 0.595566 0.727368
O O13 0.000000 0.500000 0.500000
O O14 0.964740 0.885139 0.309820
O O15 0.761088 0.052996 0.143236
O O16 0.000000 0.500000 0.000000
#
# Coordination Sequence:
#
# PCOD8025839 Si02
#       7
#     2   2   2   2   2   2   2
#     4   9  21  46  65  98 139 177 231 278 345 414
#     4  11  25  44  70 109 139 183 243 286 353 431
#     4  11  25  43  74 106 141 188 233 280 352 422
#     4  11  24  46  70 101 133 182 242 289 354 414
#     4  10  23  46  70 100 142 179 230 293 339 422
#     4  11  24  48  71  96 145 184 231 302 352 408
#     4  11  24  43  72 104 136 181 240 290 352 428
#
# _framework density 23.950682
#
# number of rings (size 3 to 8) (size 9 to 14) (size 15 to 20)
#    0.000    1.429    2.857    0.857    2.000    5.714 
#   20.571    0.000    0.000    0.000    0.000    0.000 
#    0.000    0.000    0.000    0.000    0.000    0.000 
#
# Total GULP energy -173567.210466 kJ/mol
# GULP energy per Si atom -12397.657890 kJ/mol
# Density = 2.389617 g / cm^3
# Si number density = 23.950682 Si / 1000 Ang^3
#
#
#
# Elastic Constant Matrix: (Units=GPa)
#
#
# Indices 1 2 3 4 5 6 
#
# 1 159.5315 42.3093 56.1325 -8.9811 -30.6081 -2.8805
# 2 42.3093 137.9767 51.6212 -0.0602 -17.4368 -12.4387
# 3 56.1325 51.6212 96.3097 0.6487 -21.9482 -8.6847
# 4 -8.9811 -0.0602 0.6487 46.6411 5.3468 -7.7707
# 5 -30.6081 -17.4368 -21.9482 5.3468 47.6378 -2.5625
# 6 -2.8805 -12.4387 -8.6847 -7.7707 -2.5625 37.8176
#
#
#
# Elastic Compliance Matrix: (Units=1/GPa)
#
#
# Indices 1 2 3 4 5 6 
#
# 1 0.008519 -0.000769 -0.003811 0.001318 0.003289 0.000014
# 2 -0.000769 0.009364 -0.004116 0.000155 0.001137 0.002185
# 3 -0.003811 -0.004116 0.015808 -0.001030 0.003553 0.002015
# 4 0.001318 0.000155 -0.001030 0.022664 -0.001876 0.004445
# 5 0.003289 0.001137 0.003553 -0.001876 0.025518 0.002784
# 6 0.000014 0.002185 0.002015 0.004445 0.002784 0.028727
#
#
# Mechanical properties :
#
#
# Convention : Reuss Voigt Hill
#
# Bulk Modulus (GPa) = 61.34862 77.10485 69.22674
# Shear Modulus (GPa) = 37.47417 42.66961 40.07189
#
# Velocity S-wave (km/s) = 3.95984 4.22543 4.09479
# Velocity P-wave (km/s) = 6.82476 7.48791 7.16401
#
# Compressibility (1/GPa) = 0.01630028
#
# Stress axis : x y z
#
# Youngs Moduli (GPa) = 117.38965 106.79238 63.25714
#
# Poissons Ratio (x) = 0.08211 0.24106
# Poissons Ratio (y) = 0.09026 0.26035
# Poissons Ratio (z) = 0.44736 0.43952
#
# Static dielectric constant tensor:
#      x y z
#    x 4.900500 0.222110 -0.600870 
#    y 0.222110 4.812900 0.152020 
#    z -0.600870 0.152020 4.451360 
# 
# 
# High freq. dielectric constant tensor:
#      x y z
#    x 1.959670 0.007530 -0.019370 
#    y 0.007530 1.961970 0.000270 
#    z -0.019370 0.000270 1.937360 
# 
# From -- ./inp_files/47530.got.cif
#   From: 2010.06.25/outbox.cif.g09.slc.cpg/sg2_24_cif.got.tgz:47530.got - 2010.06.27 13:26:56.
