data_PCOD8025334
_publ_section_title
;
Structure prediction by ZEFSAII (Michael W. Deem and Ramdas Pophale) SiO2 
 PCOD8025334
Probable space group: P -1
;
_chemical_formula_sum "Si O2"
_cell_formula_units_Z 16
_cell_length_a 8.760550
_cell_length_b 8.779662
_cell_length_c 15.823215
_cell_angle_alpha 103.235230
_cell_angle_beta 142.239261
_cell_angle_gamma 69.206453
_cell_volume 693.881235
_symmetry_space_group_name_H-M "P -1"
_symmetry_group_IT_number 2
_symmetry_cell_setting 'triclinic'
loop_
_space_group_symop_operation_xyz
x,y,z
-x,-y,-z
loop_
_atom_site_type_symbol
_atom_site_label
_atom_site_fract_x
_atom_site_fract_y
_atom_site_fract_z
Si Si1 0.795803 0.442451 0.097702
Si Si2 0.052756 0.731789 0.510860
Si Si3 0.052685 0.683349 0.157582
Si Si4 0.231865 0.005195 0.835200
Si Si5 0.585191 0.565101 0.459245
Si Si6 0.984922 0.720932 0.669824
Si Si7 0.649777 0.020015 0.311948
Si Si8 0.942371 0.831828 0.944187
O O1 0.871330 0.570865 0.086746
O O2 0.933473 0.428326 0.247037
O O3 0.869816 0.271153 0.058336
O O4 0.500000 0.500000 0.000000
O O5 0.155340 0.569253 0.479802
O O6 0.205119 0.860494 0.566417
O O7 0.107929 0.679292 0.625748
O O8 0.747557 0.837830 0.374806
O O9 0.357019 0.589308 0.292903
O O10 0.988238 0.834137 0.212631
O O11 0.987948 0.733050 0.039059
O O12 0.292331 0.009568 0.764754
O O13 0.090479 0.864396 0.773967
O O14 0.500000 0.000000 0.000000
O O15 0.500000 0.500000 0.500000
O O16 0.673266 0.733371 0.529024
O O17 0.352561 0.119669 0.211134
O O18 0.000000 0.000000 0.000000
#
# Coordination Sequence:
#
# PCOD8025334 Si02
#       8
#     2   2   2   2   2   2   2   2
#     4  12  28  46  74 107 147 193 245 305 375 437
#     4  10  24  46  73 102 137 197 236 300 359 437
#     4  12  26  46  75 104 147 194 238 311 367 433
#     4  11  22  46  72 105 143 191 243 300 365 428
#     4  12  25  46  69 106 148 185 242 299 369 435
#     4  11  26  46  70 105 139 193 242 295 362 444
#     4  10  23  44  74 100 144 187 246 293 362 431
#     4  12  28  46  72 110 145 193 246 306 361 438
#
# _framework density 23.058703000000001
#
# number of rings (size 3 to 8) (size 9 to 14) (size 15 to 20)
#    0.000    0.750    2.500    3.750    7.000    0.500 
#    0.000    0.000    0.000    0.000    0.000    0.000 
#    0.000    0.000    0.000    0.000    0.000    0.000 
#
# Total GULP energy -198269.372244 kJ/mol
# GULP energy per Si atom -12391.835765 kJ/mol
# Density = 2.300622 g / cm^3
# Si number density = 23.058703 Si / 1000 Ang^3
#
#
#
# Elastic Constant Matrix: (Units=GPa)
#
#
# Indices 1 2 3 4 5 6 
#
# 1 114.9797 68.6968 46.5708 -1.6011 3.1596 -0.7664
# 2 68.6968 115.8017 56.6212 1.3235 4.5070 -1.9508
# 3 46.5708 56.6212 125.2705 -6.7288 9.6017 4.8368
# 4 -1.6011 1.3235 -6.7288 42.5071 5.7093 5.2959
# 5 3.1596 4.5070 9.6017 5.7093 48.1894 0.4692
# 6 -0.7664 -1.9508 4.8368 5.2959 0.4692 49.4613
#
#
#
# Elastic Compliance Matrix: (Units=1/GPa)
#
#
# Indices 1 2 3 4 5 6 
#
# 1 0.013803 -0.007309 -0.001813 0.000442 0.000087 0.000055
# 2 -0.007309 0.015070 -0.004225 -0.001557 0.000086 0.001060
# 3 -0.001813 -0.004225 0.010889 0.002227 -0.001905 -0.001480
# 4 0.000442 -0.001557 0.002227 0.024737 -0.003230 -0.002890
# 5 0.000087 0.000086 -0.001905 -0.003230 0.021497 0.000333
# 6 0.000055 0.001060 -0.001480 -0.002890 0.000333 0.020712
#
#
# Mechanical properties :
#
#
# Convention : Reuss Voigt Hill
#
# Bulk Modulus (GPa) = 76.52703 77.75883 77.14293
# Shear Modulus (GPa) = 36.29584 40.30910 38.30247
#
# Velocity S-wave (km/s) = 3.97175 4.18557 4.08006
# Velocity P-wave (km/s) = 7.36838 7.56003 7.46482
#
# Compressibility (1/GPa) = 0.01306728
#
# Stress axis : x y z
#
# Youngs Moduli (GPa) = 72.45029 66.35788 91.83473
#
# Poissons Ratio (x) = 0.48503 0.16645
# Poissons Ratio (y) = 0.52956 0.38802
# Poissons Ratio (z) = 0.13132 0.28038
#
# Static dielectric constant tensor:
#      x y z
#    x 3.974980 0.240100 0.156960 
#    y 0.240100 4.415360 0.047140 
#    z 0.156960 0.047140 5.343260 
# 
# 
# High freq. dielectric constant tensor:
#      x y z
#    x 1.915600 0.009590 -0.005470 
#    y 0.009590 1.912080 0.004920 
#    z -0.005470 0.004920 1.927060 
# 
# From -- ./inp_files/495328.got.cif
#   From: 2010.06.25/outbox.cif.g09.slc.cpg/sg2_248_cif.got.tgz:495328.got - 2010.06.27 13:26:56.
