data_PCOD8025770
_publ_section_title
;
Structure prediction by ZEFSAII (Michael W. Deem and Ramdas Pophale) SiO2 
 PCOD8025770
Probable space group: P -1
;
_chemical_formula_sum "Si O2"
_cell_formula_units_Z 14
_cell_length_a 14.591994
_cell_length_b 8.810121
_cell_length_c 9.209182
_cell_angle_alpha 58.099439
_cell_angle_beta 76.387665
_cell_angle_gamma 38.591122
_cell_volume 590.589200
_symmetry_space_group_name_H-M "P -1"
_symmetry_group_IT_number 2
_symmetry_cell_setting 'triclinic'
loop_
_space_group_symop_operation_xyz
x,y,z
-x,-y,-z
loop_
_atom_site_type_symbol
_atom_site_label
_atom_site_fract_x
_atom_site_fract_y
_atom_site_fract_z
Si Si1 0.169539 0.173754 0.498405
Si Si2 0.103089 0.627456 0.436100
Si Si3 0.951516 0.637137 0.104596
Si Si4 0.608356 0.641465 0.023335
Si Si5 0.290604 0.289285 0.797376
Si Si6 0.494770 0.528696 0.659446
Si Si7 0.776694 0.257453 0.865812
O O1 0.150788 0.346209 0.545907
O O2 0.084212 0.110210 0.597819
O O3 0.100906 0.363898 0.282722
O O4 0.352136 0.873516 0.570657
O O5 0.203251 0.544946 0.579309
O O6 0.138013 0.693393 0.249409
O O7 0.794847 0.770728 0.136216
O O8 0.000000 0.500000 0.000000
O O9 0.912737 0.904852 0.003323
O O10 0.725263 0.584479 0.106056
O O11 0.527035 0.623742 0.170902
O O12 0.698937 0.412068 0.972919
O O13 0.471031 0.979021 0.844036
O O14 0.500000 0.500000 0.500000
O O15 0.650205 0.388230 0.729113
#
# Coordination Sequence:
#
# PCOD8025770 Si02
#       7
#     2   2   2   2   2   2   2
#     4  10  25  44  72  97 147 180 234 286 362 411
#     4  10  24  46  71 103 137 190 228 292 349 426
#     4  11  25  45  69 102 142 187 227 291 353 421
#     4  11  25  41  74 106 142 180 237 298 346 411
#     4  10  23  46  67 100 145 182 229 286 358 411
#     4  12  25  44  72 106 141 185 235 294 348 419
#     4  12  26  44  78 105 140 180 250 287 346 416
#
# _framework density 23.705141999999999
#
# number of rings (size 3 to 8) (size 9 to 14) (size 15 to 20)
#    0.000    1.143    1.429    3.000    8.000    5.143 
#    0.000    3.571    0.000    0.000    0.000    0.000 
#    0.000    0.000    0.000    0.000    0.000    0.000 
#
# Total GULP energy -173582.149629 kJ/mol
# GULP energy per Si atom -12398.724974 kJ/mol
# Density = 2.365119 g / cm^3
# Si number density = 23.705142 Si / 1000 Ang^3
#
#
#
# Elastic Constant Matrix: (Units=GPa)
#
#
# Indices 1 2 3 4 5 6 
#
# 1 78.5930 -4.9411 38.0109 1.4057 -6.6717 5.4304
# 2 -4.9411 78.8248 16.6715 15.1850 -7.1464 14.5313
# 3 38.0109 16.6715 88.9696 21.2411 -7.5201 -3.2367
# 4 1.4057 15.1850 21.2411 43.9263 0.6204 6.6217
# 5 -6.6717 -7.1464 -7.5201 0.6204 42.4754 7.2632
# 6 5.4304 14.5313 -3.2367 6.6217 7.2632 34.6709
#
#
#
# Elastic Compliance Matrix: (Units=1/GPa)
#
#
# Indices 1 2 3 4 5 6 
#
# 1 0.018117 0.003915 -0.009309 0.003527 0.002940 -0.006637
# 2 0.003915 0.016145 -0.004033 -0.002591 0.004042 -0.008108
# 3 -0.009309 -0.004033 0.018130 -0.008035 0.000100 0.006354
# 4 0.003527 -0.002591 -0.008035 0.028266 -0.000785 -0.005450
# 5 0.002940 0.004042 0.000100 -0.000785 0.025986 -0.007439
# 6 -0.006637 -0.008108 0.006354 -0.005450 -0.007439 0.036473
#
#
# Mechanical properties :
#
#
# Convention : Reuss Voigt Hill
#
# Bulk Modulus (GPa) = 29.81564 38.43000 34.12282
# Shear Modulus (GPa) = 28.87650 37.32424 33.10037
#
# Velocity S-wave (km/s) = 3.49399 3.97233 3.74081
# Velocity P-wave (km/s) = 5.37423 6.10623 5.75189
#
# Compressibility (1/GPa) = 0.03353944
#
# Stress axis : x y z
#
# Youngs Moduli (GPa) = 55.19608 61.93845 55.15584
#
# Poissons Ratio (x) = -0.24250 0.51345
# Poissons Ratio (y) = -0.21610 0.22243
# Poissons Ratio (z) = 0.51382 0.24978
#
# Static dielectric constant tensor:
#      x y z
#    x 4.677630 -0.139450 0.139300 
#    y -0.139450 4.446350 0.427740 
#    z 0.139300 0.427740 4.935360 
# 
# 
# High freq. dielectric constant tensor:
#      x y z
#    x 1.947380 -0.000950 0.016530 
#    y -0.000950 1.932600 0.002690 
#    z 0.016530 0.002690 1.952730 
# 
# From -- ./inp_files/157472.got.cif
#   From: 2010.06.25/outbox.cif.g09.slc.cpg/sg2_79_cif.got.tgz:157472.got - 2010.06.27 13:26:56.
