data_PCOD8025705
_publ_section_title
;
Structure prediction by ZEFSAII (Michael W. Deem and Ramdas Pophale) SiO2 
 PCOD8025705
Probable space group: P -1
;
_chemical_formula_sum "Si O2"
_cell_formula_units_Z 14
_cell_length_a 9.672069
_cell_length_b 15.297717
_cell_length_c 7.949683
_cell_angle_alpha 109.057645
_cell_angle_beta 114.579485
_cell_angle_gamma 33.665676
_cell_volume 592.507035
_symmetry_space_group_name_H-M "P -1"
_symmetry_group_IT_number 2
_symmetry_cell_setting 'triclinic'
loop_
_space_group_symop_operation_xyz
x,y,z
-x,-y,-z
loop_
_atom_site_type_symbol
_atom_site_label
_atom_site_fract_x
_atom_site_fract_y
_atom_site_fract_z
Si Si1 0.167218 0.870039 0.142399
Si Si2 0.989842 0.226935 0.153870
Si Si3 0.165465 0.409351 0.190295
Si Si4 0.954499 0.905481 0.554968
Si Si5 0.499301 0.392920 0.470829
Si Si6 0.718981 0.544549 0.239431
Si Si7 0.482213 0.075101 0.197629
O O1 0.143106 0.943478 0.345970
O O2 0.464698 0.714475 0.129460
O O3 0.047652 0.824652 0.057317
O O4 0.000000 0.000000 0.000000
O O5 0.953369 0.198149 0.299914
O O6 0.782646 0.409735 0.123594
O O7 0.275249 0.129017 0.248900
O O8 0.315847 0.432366 0.270495
O O9 0.382431 0.222984 0.174772
O O10 0.966927 0.489162 0.296917
O O11 0.000000 0.500000 0.000000
O O12 0.208261 0.789894 0.494486
O O13 0.740495 0.959150 0.367216
O O14 0.500000 0.500000 0.500000
O O15 0.362492 0.425437 0.590686
O O16 0.500000 0.000000 0.000000
#
# Coordination Sequence:
#
# PCOD8025705 Si02
#       7
#     2   2   2   2   2   2   2
#     4  10  24  42  72 106 143 188 242 304 353 430
#     4  10  23  45  74 103 144 191 243 293 366 436
#     4  11  29  47  73 105 147 195 244 294 362 439
#     4  11  25  47  72 108 145 188 243 301 368 427
#     4  12  27  47  78 107 145 192 244 302 361 440
#     4  11  24  47  73 104 149 190 243 290 370 430
#     4  11  27  46  71 108 147 192 238 303 367 430
#
# _framework density 23.628413999999999
#
# number of rings (size 3 to 8) (size 9 to 14) (size 15 to 20)
#    0.000    1.143    1.429    2.143   10.000    4.571 
#    0.000    0.000    0.000    0.000    0.000    0.000 
#    0.000    0.000    0.000    0.000    0.000    0.000 
#
# Total GULP energy -173465.011434 kJ/mol
# GULP energy per Si atom -12390.357960 kJ/mol
# Density = 2.357464 g / cm^3
# Si number density = 23.628414 Si / 1000 Ang^3
#
#
#
# Elastic Constant Matrix: (Units=GPa)
#
#
# Indices 1 2 3 4 5 6 
#
# 1 135.2139 68.3931 42.2884 8.3410 29.0169 -2.9285
# 2 68.3931 174.4078 58.5595 3.0461 24.0677 -6.5092
# 3 42.2884 58.5595 112.2855 9.5659 33.8047 -7.4522
# 4 8.3410 3.0461 9.5659 37.4204 2.0997 3.3506
# 5 29.0169 24.0677 33.8047 2.0997 51.9308 -3.2925
# 6 -2.9285 -6.5092 -7.4522 3.3506 -3.2925 34.4199
#
#
#
# Elastic Compliance Matrix: (Units=1/GPa)
#
#
# Indices 1 2 3 4 5 6 
#
# 1 0.010139 -0.003132 -0.001008 -0.001539 -0.003504 -0.000133
# 2 -0.003132 0.007979 -0.003019 0.000773 0.000019 0.000515
# 3 -0.001008 -0.003019 0.013125 -0.002693 -0.006356 0.001839
# 4 -0.001539 0.000773 -0.002693 0.027926 0.000923 -0.003198
# 5 -0.003504 0.000019 -0.006356 0.000923 0.025348 0.000664
# 6 -0.000133 0.000515 0.001839 -0.003198 0.000664 0.029912
#
#
# Mechanical properties :
#
#
# Convention : Reuss Voigt Hill
#
# Bulk Modulus (GPa) = 59.08465 84.48769 71.78617
# Shear Modulus (GPa) = 37.20560 41.59863 39.40212
#
# Velocity S-wave (km/s) = 3.97244 4.20042 4.08802
# Velocity P-wave (km/s) = 6.78973 7.70449 7.26153
#
# Compressibility (1/GPa) = 0.01692487
#
# Stress axis : x y z
#
# Youngs Moduli (GPa) = 98.62719 125.33415 76.19147
#
# Poissons Ratio (x) = 0.39257 0.07680
# Poissons Ratio (y) = 0.30892 0.23001
# Poissons Ratio (z) = 0.09941 0.37836
#
# Static dielectric constant tensor:
#      x y z
#    x 4.611630 0.162100 0.431720 
#    y 0.162100 4.813160 0.181090 
#    z 0.431720 0.181090 4.461030 
# 
# 
# High freq. dielectric constant tensor:
#      x y z
#    x 1.946390 0.000000 0.009330 
#    y 0.000000 1.953080 -0.002350 
#    z 0.009330 -0.002350 1.934360 
# 
# From -- ./inp_files/207869.got.cif
#   From: 2010.06.25/outbox.cif.g09.slc.cpg/sg2_104_cif.got.tgz:207869.got - 2010.06.27 13:26:56.
