data_PCOD8025507
_publ_section_title
;
Structure prediction by ZEFSAII (Michael W. Deem and Ramdas Pophale) SiO2 
 PCOD8025507
Probable space group: P -1
;
_chemical_formula_sum "Si O2"
_cell_formula_units_Z 14
_cell_length_a 15.125004
_cell_length_b 9.217390
_cell_length_c 15.626218
_cell_angle_alpha 36.428198
_cell_angle_beta 27.153492
_cell_angle_gamma 41.398901
_cell_volume 585.659337
_symmetry_space_group_name_H-M "P -1"
_symmetry_group_IT_number 2
_symmetry_cell_setting 'triclinic'
loop_
_space_group_symop_operation_xyz
x,y,z
-x,-y,-z
loop_
_atom_site_type_symbol
_atom_site_label
_atom_site_fract_x
_atom_site_fract_y
_atom_site_fract_z
Si Si1 0.824301 0.852822 0.240846
Si Si2 0.221955 0.484073 0.792215
Si Si3 0.264610 0.975457 0.579132
Si Si4 0.729297 0.030334 0.793465
Si Si5 0.623422 0.022199 0.162066
Si Si6 0.094249 0.669064 0.638341
Si Si7 0.887215 0.259592 0.710865
O O1 0.718876 0.921483 0.388884
O O2 0.911386 0.566368 0.306280
O O3 0.675576 0.920902 0.260087
O O4 0.000000 0.000000 0.000000
O O5 0.230773 0.584094 0.640928
O O6 0.323522 0.676746 0.672214
O O7 0.332370 0.204963 0.836301
O O8 0.000000 0.500000 0.000000
O O9 0.393713 0.106249 0.335868
O O10 0.045820 0.025786 0.706184
O O11 0.795432 0.126891 0.599803
O O12 0.774345 0.224101 0.736512
O O13 0.869620 0.771890 0.809832
O O14 0.500000 0.000000 0.000000
O O15 0.728151 0.252596 0.928602
O O16 0.000000 0.500000 0.500000
#
# Coordination Sequence:
#
# PCOD8025507 Si02
#       7
#     2   2   2   2   2   2   2
#     4  11  22  45  67 102 143 182 218 290 357 412
#     4  11  20  44  71 100 134 180 222 291 350 413
#     4  12  23  43  70 103 140 177 234 290 351 415
#     4  11  25  46  73 101 134 186 240 285 340 413
#     4  11  25  42  72 102 136 182 233 285 353 421
#     4  10  23  45  68  98 138 178 231 282 344 409
#     4  12  26  47  69 101 142 187 233 291 352 410
#
# _framework density 23.904679999999999
#
# number of rings (size 3 to 8) (size 9 to 14) (size 15 to 20)
#    0.000    0.857    4.286    2.571    2.000    0.571 
#   15.429    0.000    0.000    0.000    0.000    0.000 
#    0.000    0.000    0.000    0.000    0.000    0.000 
#
# Total GULP energy -173511.061681 kJ/mol
# GULP energy per Si atom -12393.647263 kJ/mol
# Density = 2.385027 g / cm^3
# Si number density = 23.904680 Si / 1000 Ang^3
#
#
#
# Elastic Constant Matrix: (Units=GPa)
#
#
# Indices 1 2 3 4 5 6 
#
# 1 77.9359 25.6913 14.3363 1.7294 -5.5290 23.5865
# 2 25.6913 87.4613 34.1239 -6.4439 1.5538 37.8586
# 3 14.3363 34.1239 161.0127 12.3528 -2.8900 24.2293
# 4 1.7294 -6.4439 12.3528 42.5063 3.5846 1.1962
# 5 -5.5290 1.5538 -2.8900 3.5846 32.4028 -2.6914
# 6 23.5865 37.8586 24.2293 1.1962 -2.6914 36.0189
#
#
#
# Elastic Compliance Matrix: (Units=1/GPa)
#
#
# Indices 1 2 3 4 5 6 
#
# 1 0.016155 -0.000667 0.000285 -0.000738 0.002074 -0.009891
# 2 -0.000667 0.022447 -0.001768 0.004891 -0.003750 -0.022410
# 3 0.000285 -0.001768 0.007213 -0.002356 0.000785 -0.003043
# 4 -0.000738 0.004891 -0.002356 0.025415 -0.003731 -0.004195
# 5 0.002074 -0.003750 0.000785 -0.003731 0.032259 0.004590
# 6 -0.009891 -0.022410 -0.003043 -0.004195 0.004590 0.060324
#
#
# Mechanical properties :
#
#
# Convention : Reuss Voigt Hill
#
# Bulk Modulus (GPa) = 24.08763 52.74587 38.41675
# Shear Modulus (GPa) = 27.48002 39.00282 33.24142
#
# Velocity S-wave (km/s) = 3.39420 4.04369 3.73310
# Velocity P-wave (km/s) = 5.04571 6.62683 5.88957
#
# Compressibility (1/GPa) = 0.04151508
#
# Stress axis : x y z
#
# Youngs Moduli (GPa) = 61.89965 44.55018 138.64149
#
# Poissons Ratio (x) = 0.02970 -0.03952
# Poissons Ratio (y) = 0.04127 0.24513
# Poissons Ratio (z) = -0.01764 0.07877
#
# Static dielectric constant tensor:
#      x y z
#    x 3.242070 0.252470 0.462320 
#    y 0.252470 4.415050 0.053990 
#    z 0.462320 0.053990 4.278870 
# 
# 
# High freq. dielectric constant tensor:
#      x y z
#    x 1.935680 0.010740 0.004650 
#    y 0.010740 1.939290 0.006450 
#    z 0.004650 0.006450 1.967000 
# 
# From -- ./inp_files/529249.got.cif
#   From: 2010.06.25/outbox.cif.g09.slc.cpg/sg2_265_cif.got.tgz:529249.got - 2010.06.27 13:26:56.
