data_PCOD8025463
_publ_section_title
;
Structure prediction by ZEFSAII (Michael W. Deem and Ramdas Pophale) SiO2 
 PCOD8025463
Probable space group: P -1
;
_chemical_formula_sum "Si O2"
_cell_formula_units_Z 14
_cell_length_a 8.577452
_cell_length_b 14.164261
_cell_length_c 12.218856
_cell_angle_alpha 50.743095
_cell_angle_beta 32.814230
_cell_angle_gamma 64.735379
_cell_volume 603.095648
_symmetry_space_group_name_H-M "P -1"
_symmetry_group_IT_number 2
_symmetry_cell_setting 'triclinic'
loop_
_space_group_symop_operation_xyz
x,y,z
-x,-y,-z
loop_
_atom_site_type_symbol
_atom_site_label
_atom_site_fract_x
_atom_site_fract_y
_atom_site_fract_z
Si Si1 0.335240 0.010782 0.198626
Si Si2 0.891727 0.334595 0.923642
Si Si3 0.452446 0.136034 0.455124
Si Si4 0.131016 0.558551 0.490989
Si Si5 0.195894 0.406448 0.914483
Si Si6 0.879351 0.205701 0.798260
Si Si7 0.110451 0.834576 0.636045
O O1 0.035584 0.054045 0.318529
O O2 0.245544 0.872785 0.408272
O O3 0.556746 0.109665 0.075606
O O4 0.500000 0.000000 0.000000
O O5 0.989209 0.275479 0.797449
O O6 0.911432 0.482439 0.772649
O O7 0.111280 0.341852 0.892459
O O8 0.572615 0.244885 0.212370
O O9 0.627056 0.183421 0.428193
O O10 0.107289 0.124632 0.687194
O O11 0.500000 0.000000 0.500000
O O12 0.453784 0.530357 0.340734
O O13 0.142520 0.705453 0.359907
O O14 0.000000 0.500000 0.500000
O O15 0.000000 0.500000 0.000000
O O16 0.139153 0.297036 0.120771
#
# Coordination Sequence:
#
# PCOD8025463 Si02
#       7
#     2   2   2   2   2   2   2
#     4  11  23  43  69 100 132 182 219 278 338 395
#     4  10  25  43  72  97 136 181 228 271 347 398
#     4  11  24  44  67 101 135 179 226 277 336 402
#     4  10  23  45  68 100 136 173 230 279 339 406
#     4  11  24  46  70 101 136 179 226 283 338 405
#     4  11  24  45  69  98 142 175 226 285 332 397
#     4  10  24  42  65  97 139 167 227 273 333 408
#
# _framework density 23.213564000000002
#
# number of rings (size 3 to 8) (size 9 to 14) (size 15 to 20)
#    0.000    1.429    1.429    2.143    8.000    7.429 
#    2.571    0.000    0.000    0.000    0.000    0.000 
#    0.000    0.000    0.000    0.000    0.000    0.000 
#
# Total GULP energy -173460.923690 kJ/mol
# GULP energy per Si atom -12390.065978 kJ/mol
# Density = 2.316073 g / cm^3
# Si number density = 23.213564 Si / 1000 Ang^3
#
#
#
# Elastic Constant Matrix: (Units=GPa)
#
#
# Indices 1 2 3 4 5 6 
#
# 1 88.9573 27.1294 41.9897 2.7207 3.7170 -0.8145
# 2 27.1294 75.9702 35.8127 0.1366 14.9923 -11.2971
# 3 41.9897 35.8127 139.2979 -23.2848 28.5450 -14.3737
# 4 2.7207 0.1366 -23.2848 47.4185 -9.9483 0.9990
# 5 3.7170 14.9923 28.5450 -9.9483 44.9948 -3.2139
# 6 -0.8145 -11.2971 -14.3737 0.9990 -3.2139 36.6877
#
#
#
# Elastic Compliance Matrix: (Units=1/GPa)
#
#
# Indices 1 2 3 4 5 6 
#
# 1 0.014500 -0.003839 -0.004502 -0.002518 0.002212 -0.002362
# 2 -0.003839 0.017002 -0.002296 -0.001884 -0.004026 0.003949
# 3 -0.004502 -0.002296 0.011191 0.004709 -0.004704 0.003037
# 4 -0.002518 -0.001884 0.004709 0.024218 0.003262 0.000835
# 5 0.002212 -0.004026 -0.004704 0.003262 0.027035 -0.000754
# 6 -0.002362 0.003949 0.003037 0.000835 -0.000754 0.029522
#
#
# Mechanical properties :
#
#
# Convention : Reuss Voigt Hill
#
# Bulk Modulus (GPa) = 46.68915 57.12099 51.90507
# Shear Modulus (GPa) = 32.92057 39.10644 36.01350
#
# Velocity S-wave (km/s) = 3.76993 4.10889 3.94305
# Velocity P-wave (km/s) = 6.25351 6.86810 6.56800
#
# Compressibility (1/GPa) = 0.02141825
#
# Stress axis : x y z
#
# Youngs Moduli (GPa) = 68.96564 58.81820 89.35949
#
# Poissons Ratio (x) = 0.22581 0.40226
# Poissons Ratio (y) = 0.26477 0.20520
# Poissons Ratio (z) = 0.31046 0.13506
#
# Static dielectric constant tensor:
#      x y z
#    x 4.459800 -0.247910 0.209610 
#    y -0.247910 4.364240 -0.895220 
#    z 0.209610 -0.895220 5.190660 
# 
# 
# High freq. dielectric constant tensor:
#      x y z
#    x 1.919110 -0.005190 0.001930 
#    y -0.005190 1.896940 -0.027530 
#    z 0.001930 -0.027530 1.933760 
# 
# From -- ./inp_files/272284.got.cif
#   From: 2010.06.25/outbox.cif.g09.slc.cpg/sg2_137_cif.got.tgz:272284.got - 2010.06.27 13:26:56.
