data_PCOD8025181
_publ_section_title
;
Structure prediction by ZEFSAII (Michael W. Deem and Ramdas Pophale) SiO2 
 PCOD8025181
Probable space group: P -1
;
_chemical_formula_sum "Si O2"
_cell_formula_units_Z 14
_cell_length_a 15.188223
_cell_length_b 11.127328
_cell_length_c 4.853300
_cell_angle_alpha 69.164858
_cell_angle_beta 89.382897
_cell_angle_gamma 46.048552
_cell_volume 516.802464
_symmetry_space_group_name_H-M "P -1"
_symmetry_group_IT_number 2
_symmetry_cell_setting 'triclinic'
loop_
_space_group_symop_operation_xyz
x,y,z
-x,-y,-z
loop_
_atom_site_type_symbol
_atom_site_label
_atom_site_fract_x
_atom_site_fract_y
_atom_site_fract_z
Si Si1 0.270780 0.933894 0.091208
Si Si2 0.505113 0.603552 0.648630
Si Si3 0.998625 0.797305 0.858624
Si Si4 0.238662 0.369216 0.139238
Si Si5 0.648820 0.881974 0.138980
Si Si6 0.843263 0.139760 0.214243
Si Si7 0.344682 0.500149 0.755026
O O1 0.119583 0.123196 0.013221
O O2 0.358466 0.821430 0.457231
O O3 0.335225 0.985052 0.881767
O O4 0.270861 0.801253 0.016959
O O5 0.500000 0.500000 0.500000
O O6 0.544348 0.545105 0.018946
O O7 0.616128 0.570156 0.508446
O O8 0.083544 0.821101 0.980441
O O9 0.087908 0.576982 0.972938
O O10 0.943054 0.919557 0.478298
O O11 0.284361 0.283943 0.509929
O O12 0.330980 0.378956 0.000660
O O13 0.264406 0.220446 0.059860
O O14 0.500000 0.000000 0.000000
O O15 0.781495 0.271438 0.387562
#
# Coordination Sequence:
#
# PCOD8025181 Si02
#       7
#     2   2   2   2   2   2   2
#     4  12  26  41  73  99 145 181 232 291 347 413
#     4  12  24  40  67 108 142 176 228 286 358 421
#     4  10  25  45  71 102 140 183 234 284 352 416
#     4  11  26  49  73  99 138 189 235 285 338 412
#     4  12  28  50  73 104 139 184 237 289 344 409
#     4  10  23  44  70 104 140 181 229 293 352 416
#     4  11  23  44  70 101 141 182 232 289 353 412
#
# _framework density 27.089658
#
# number of rings (size 3 to 8) (size 9 to 14) (size 15 to 20)
#    0.000    0.857    1.429    4.714    6.000    1.143 
#    0.000    0.000    0.000    0.000    0.000    0.000 
#    0.000    0.000    0.000    0.000    0.000    0.000 
#
# Total GULP energy -173456.358063 kJ/mol
# GULP energy per Si atom -12389.739862 kJ/mol
# Density = 2.702800 g / cm^3
# Si number density = 27.089658 Si / 1000 Ang^3
#
#
#
# Elastic Constant Matrix: (Units=GPa)
#
#
# Indices 1 2 3 4 5 6 
#
# 1 124.7323 20.0455 -7.1486 -1.6081 3.0124 -8.6420
# 2 20.0455 108.8015 39.9388 -2.3213 16.8279 -12.2494
# 3 -7.1486 39.9388 112.0548 -9.6461 15.0095 -9.9963
# 4 -1.6081 -2.3213 -9.6461 45.9842 -6.9217 -0.6487
# 5 3.0124 16.8279 15.0095 -6.9217 33.3933 -5.7472
# 6 -8.6420 -12.2494 -9.9963 -0.6487 -5.7472 37.8456
#
#
#
# Elastic Compliance Matrix: (Units=1/GPa)
#
#
# Indices 1 2 3 4 5 6 
#
# 1 0.008527 -0.001879 0.001419 0.000516 -0.000058 0.001714
# 2 -0.001879 0.011672 -0.003666 -0.000812 -0.003928 0.001770
# 3 0.001419 -0.003666 0.010968 0.001806 -0.002547 0.001678
# 4 0.000516 -0.000812 0.001806 0.022803 0.004520 0.001409
# 5 -0.000058 -0.003928 -0.002547 0.004520 0.034593 0.003373
# 6 0.001714 0.001770 0.001678 0.001409 0.003373 0.028367
#
#
# Mechanical properties :
#
#
# Convention : Reuss Voigt Hill
#
# Bulk Modulus (GPa) = 43.63892 50.13999 46.88946
# Shear Modulus (GPa) = 37.64457 42.96148 40.30302
#
# Velocity S-wave (km/s) = 3.73182 3.98666 3.86134
# Velocity P-wave (km/s) = 5.89174 6.30399 6.10135
#
# Compressibility (1/GPa) = 0.02291532
#
# Stress axis : x y z
#
# Youngs Moduli (GPa) = 117.27125 85.67156 91.17682
#
# Poissons Ratio (x) = 0.16097 -0.12936
# Poissons Ratio (y) = 0.22034 0.33425
# Poissons Ratio (z) = -0.16639 0.31407
#
# Static dielectric constant tensor:
#      x y z
#    x 3.177530 2.875760 1.832220 
#    y 2.875760 0.933550 -2.540610 
#    z 1.832220 -2.540610 3.145860 
# 
# 
# High freq. dielectric constant tensor:
#      x y z
#    x 2.102290 -0.012400 -0.002500 
#    y -0.012400 2.088420 -0.006770 
#    z -0.002500 -0.006770 2.086830 
# 
# From -- ./inp_files/68454.got.cif
#   From: 2010.06.25/outbox.cif.g09.slc.cpg/sg2_35_cif.got.tgz:68454.got - 2010.06.27 13:26:56.
