data_PCOD8025977
_publ_section_title
;
Structure prediction by ZEFSAII (Michael W. Deem and Ramdas Pophale) SiO2 
 PCOD8025977
Probable space group: P -1
;
_chemical_formula_sum "Si O2"
_cell_formula_units_Z 16
_cell_length_a 12.341855
_cell_length_b 11.354156
_cell_length_c 11.212064
_cell_angle_alpha 114.145435
_cell_angle_beta 56.815457
_cell_angle_gamma 149.757280
_cell_volume 654.652569
_symmetry_space_group_name_H-M "P -1"
_symmetry_group_IT_number 2
_symmetry_cell_setting 'triclinic'
loop_
_space_group_symop_operation_xyz
x,y,z
-x,-y,-z
loop_
_atom_site_type_symbol
_atom_site_label
_atom_site_fract_x
_atom_site_fract_y
_atom_site_fract_z
Si Si1 0.250315 0.802282 0.216583
Si Si2 0.148738 0.360484 0.701494
Si Si3 0.297271 0.877934 0.482998
Si Si4 0.807761 0.561585 0.691069
Si Si5 0.435306 0.302110 0.988164
Si Si6 0.014908 0.017870 0.777657
Si Si7 0.489797 0.305466 0.563321
Si Si8 0.375108 0.694669 0.917344
O O1 0.294273 0.797088 0.326499
O O2 0.004148 0.673284 0.303565
O O3 0.458926 0.070622 0.158868
O O4 0.231440 0.659490 0.086588
O O5 0.388445 0.523590 0.552490
O O6 0.196447 0.472849 0.844528
O O7 0.009869 0.111249 0.706921
O O8 0.037826 0.662060 0.614654
O O9 0.500000 0.000000 0.500000
O O10 0.349237 0.068374 0.493786
O O11 0.600109 0.353097 0.824875
O O12 0.878801 0.771610 0.727973
O O13 0.693703 0.426466 0.578687
O O14 0.500000 0.500000 0.000000
O O15 0.143583 0.048253 0.046813
O O16 0.484360 0.300349 0.094360
O O17 0.296378 0.231263 0.723062
#
# Coordination Sequence:
#
# PCOD8025977 Si02
#       8
#     2   2   2   2   2   2   2   2
#     4  11  24  47  71 100 143 182 238 293 345 419
#     4  12  23  44  72 103 141 183 234 288 354 419
#     4  11  25  47  72 106 139 182 233 290 355 423
#     4  10  24  46  68 102 142 183 234 286 354 419
#     4  10  23  47  68  98 143 185 234 293 347 413
#     4  10  24  42  68 105 137 185 229 291 349 418
#     4  11  24  42  69 106 138 181 235 283 355 426
#     4  11  25  45  69 102 137 189 239 288 350 412
#
# _framework density 24.440442999999998
#
# number of rings (size 3 to 8) (size 9 to 14) (size 15 to 20)
#    0.000    1.250    3.750    0.750    5.250    2.500 
#    9.000    0.000    0.000    0.000    0.000    0.000 
#    0.000    0.000    0.000    0.000    0.000    0.000 
#
# Total GULP energy -198213.223755 kJ/mol
# GULP energy per Si atom -12388.326485 kJ/mol
# Density = 2.438482 g / cm^3
# Si number density = 24.440443 Si / 1000 Ang^3
#
#
#
# Elastic Constant Matrix: (Units=GPa)
#
#
# Indices 1 2 3 4 5 6 
#
# 1 97.7060 20.1568 49.3301 -13.4987 -10.9454 29.8561
# 2 20.1568 77.9590 62.9619 -20.5460 -9.1421 14.8664
# 3 49.3301 62.9619 177.7675 -43.5323 -6.8103 25.2713
# 4 -13.4987 -20.5460 -43.5323 50.7830 11.3544 2.8094
# 5 -10.9454 -9.1421 -6.8103 11.3544 33.9545 -3.7334
# 6 29.8561 14.8664 25.2713 2.8094 -3.7334 37.4570
#
#
#
# Elastic Compliance Matrix: (Units=1/GPa)
#
#
# Indices 1 2 3 4 5 6 
#
# 1 0.015140 0.000967 -0.002307 0.002438 0.002674 -0.010811
# 2 0.000967 0.019000 -0.005574 0.002766 0.002893 -0.004470
# 3 -0.002307 -0.005574 0.010332 0.006835 -0.002867 -0.003718
# 4 0.002438 0.002766 0.006835 0.029749 -0.008223 -0.010704
# 5 0.002674 0.002893 -0.002867 -0.008223 0.033555 0.002616
# 6 -0.010811 -0.004470 -0.003718 -0.010704 0.002616 0.040661
#
#
# Mechanical properties :
#
#
# Convention : Reuss Voigt Hill
#
# Bulk Modulus (GPa) = 32.63392 68.70332 50.66862
# Shear Modulus (GPa) = 28.98885 39.17115 34.08000
#
# Velocity S-wave (km/s) = 3.44772 4.00774 3.73823
# Velocity P-wave (km/s) = 5.40652 7.04184 6.27766
#
# Compressibility (1/GPa) = 0.03064297
#
# Stress axis : x y z
#
# Youngs Moduli (GPa) = 66.04892 52.63266 96.78328
#
# Poissons Ratio (x) = -0.05088 0.22332
# Poissons Ratio (y) = -0.06384 0.53945
# Poissons Ratio (z) = 0.15240 0.29337
#
# Static dielectric constant tensor:
#      x y z
#    x 4.368750 -0.108570 -0.288810 
#    y -0.108570 4.389170 -0.413800 
#    z -0.288810 -0.413800 4.885270 
# 
# 
# High freq. dielectric constant tensor:
#      x y z
#    x 1.975940 -0.012840 -0.012570 
#    y -0.012840 1.963590 -0.027200 
#    z -0.012570 -0.027200 1.978830 
# 
# From -- ./inp_files/410621.got.cif
#   From: 2010.06.25/outbox.cif.g09.slc.cpg/sg2_206_cif.got.tgz:410621.got - 2010.06.27 13:26:56.
