data_PCOD8025468
_publ_section_title
;
Structure prediction by ZEFSAII (Michael W. Deem and Ramdas Pophale) SiO2 
 PCOD8025468
Probable space group: P -1
;
_chemical_formula_sum "Si O2"
_cell_formula_units_Z 14
_cell_length_a 10.486074
_cell_length_b 8.480007
_cell_length_c 8.896986
_cell_angle_alpha 109.927456
_cell_angle_beta 59.226250
_cell_angle_gamma 91.606307
_cell_volume 628.464467
_symmetry_space_group_name_H-M "P -1"
_symmetry_group_IT_number 2
_symmetry_cell_setting 'triclinic'
loop_
_space_group_symop_operation_xyz
x,y,z
-x,-y,-z
loop_
_atom_site_type_symbol
_atom_site_label
_atom_site_fract_x
_atom_site_fract_y
_atom_site_fract_z
Si Si1 0.709410 0.244072 0.577740
Si Si2 0.359525 0.442349 0.482309
Si Si3 0.924150 0.942229 0.175073
Si Si4 0.137817 0.918273 0.294269
Si Si5 0.588288 0.632307 0.069740
Si Si6 0.632362 0.846866 0.839967
Si Si7 0.167856 0.400070 0.863936
O O1 0.721778 0.420072 0.545071
O O2 0.803304 0.092334 0.373322
O O3 0.769506 0.236692 0.712957
O O4 0.530054 0.242299 0.708623
O O5 0.500000 0.500000 0.500000
O O6 0.416420 0.265786 0.303228
O O7 0.229734 0.413851 0.664525
O O8 0.829264 0.795273 0.152267
O O9 0.068904 0.858864 0.162881
O O10 0.000000 0.000000 0.000000
O O11 0.223178 0.074479 0.263018
O O12 0.000000 0.000000 0.500000
O O13 0.721832 0.530532 0.060799
O O14 0.500000 0.500000 0.000000
O O15 0.664652 0.736388 0.935193
O O16 0.500000 0.000000 0.000000
O O17 0.000000 0.500000 0.000000
#
# Coordination Sequence:
#
# PCOD8025468 Si02
#       7
#     2   2   2   2   2   2   2
#     4  11  23  45  71  99 143 185 233 295 351 427
#     4  12  25  46  70 107 144 190 241 300 363 424
#     4  11  25  47  72 106 143 187 234 297 367 421
#     4  10  23  45  68 101 142 182 233 291 352 422
#     4  12  25  48  71 108 140 190 241 294 363 433
#     4  12  25  42  73 107 138 190 243 294 355 438
#     4  12  28  46  73 107 145 188 239 302 364 428
#
# _framework density 22.276516000000001
#
# number of rings (size 3 to 8) (size 9 to 14) (size 15 to 20)
#    0.000    0.571    4.286    3.429    2.000    5.143 
#    0.000    4.286    0.000    0.000    0.000    0.000 
#    0.000    0.000    0.000    0.000    0.000    0.000 
#
# Total GULP energy -173525.598460 kJ/mol
# GULP energy per Si atom -12394.685604 kJ/mol
# Density = 2.222581 g / cm^3
# Si number density = 22.276516 Si / 1000 Ang^3
#
#
#
# Elastic Constant Matrix: (Units=GPa)
#
#
# Indices 1 2 3 4 5 6 
#
# 1 145.6109 52.6897 61.6676 1.1616 0.8003 -14.2014
# 2 52.6897 124.1864 61.6429 -21.3204 2.1229 -4.7999
# 3 61.6676 61.6429 167.6433 -14.9070 -10.4481 -2.9311
# 4 1.1616 -21.3204 -14.9070 58.2677 -1.8438 2.5473
# 5 0.8003 2.1229 -10.4481 -1.8438 41.2803 -3.7835
# 6 -14.2014 -4.7999 -2.9311 2.5473 -3.7835 44.0957
#
#
#
# Elastic Compliance Matrix: (Units=1/GPa)
#
#
# Indices 1 2 3 4 5 6 
#
# 1 0.009252 -0.002927 -0.002494 -0.002022 -0.000515 0.002568
# 2 -0.002927 0.011310 -0.002849 0.003441 -0.001110 -0.000195
# 3 -0.002494 -0.002849 0.008170 0.001189 0.002275 -0.000444
# 4 -0.002022 0.003441 0.001189 0.018847 0.000894 -0.001210
# 5 -0.000515 -0.001110 0.002275 0.000894 0.025088 0.001965
# 6 0.002568 -0.000195 -0.000444 -0.001210 0.001965 0.023693
#
#
# Mechanical properties :
#
#
# Convention : Reuss Voigt Hill
#
# Bulk Modulus (GPa) = 82.01392 87.71567 84.86479
# Shear Modulus (GPa) = 42.74802 46.15809 44.45306
#
# Velocity S-wave (km/s) = 4.38536 4.55692 4.47196
# Velocity P-wave (km/s) = 7.90810 8.19443 8.05254
#
# Compressibility (1/GPa) = 0.01219305
#
# Stress axis : x y z
#
# Youngs Moduli (GPa) = 108.07982 88.41348 122.39997
#
# Poissons Ratio (x) = 0.25874 0.30532
# Poissons Ratio (y) = 0.31630 0.34871
# Poissons Ratio (z) = 0.26960 0.25189
#
# Static dielectric constant tensor:
#      x y z
#    x 3.168350 0.570920 -0.348620 
#    y 0.570920 3.677560 0.002310 
#    z -0.348620 0.002310 4.162000 
# 
# 
# High freq. dielectric constant tensor:
#      x y z
#    x 1.877280 -0.009930 -0.002860 
#    y -0.009930 1.880290 -0.015860 
#    z -0.002860 -0.015860 1.900580 
# 
# From -- ./inp_files/159071.got.cif
#   From: 2010.06.25/outbox.cif.g09.slc.cpg/sg2_80_cif.got.tgz:159071.got - 2010.06.27 13:26:56.
