data_PCOD8025083
_publ_section_title
;
Structure prediction by ZEFSAII (Michael W. Deem and Ramdas Pophale) SiO2 
 PCOD8025083
Probable space group: P -1
;
_chemical_formula_sum "Si O2"
_cell_formula_units_Z 14
_cell_length_a 10.101840
_cell_length_b 15.895357
_cell_length_c 10.725434
_cell_angle_alpha 143.460399
_cell_angle_beta 63.900656
_cell_angle_gamma 89.486849
_cell_volume 676.997432
_symmetry_space_group_name_H-M "P -1"
_symmetry_group_IT_number 2
_symmetry_cell_setting 'triclinic'
loop_
_space_group_symop_operation_xyz
x,y,z
-x,-y,-z
loop_
_atom_site_type_symbol
_atom_site_label
_atom_site_fract_x
_atom_site_fract_y
_atom_site_fract_z
Si Si1 0.739737 0.554128 0.730997
Si Si2 0.718090 0.559537 0.343361
Si Si3 0.985865 0.136658 0.763440
Si Si4 0.684916 0.312366 0.317384
Si Si5 0.168468 0.288165 0.321321
Si Si6 0.389442 0.869098 0.687708
Si Si7 0.406501 0.906625 0.437930
O O1 0.690660 0.469528 0.547240
O O2 0.772185 0.681560 0.799234
O O3 0.938461 0.385466 0.525737
O O4 0.554828 0.691553 0.065550
O O5 0.538632 0.586706 0.519778
O O6 0.810213 0.617705 0.462666
O O7 0.625653 0.693882 0.417836
O O8 0.890916 0.335068 0.969749
O O9 0.850771 0.176097 0.982335
O O10 0.000000 0.000000 0.500000
O O11 0.203914 0.039770 0.602517
O O12 0.735272 0.179945 0.258782
O O13 0.313449 0.061760 0.013768
O O14 0.358204 0.893072 0.582364
O O15 0.500000 0.000000 0.500000
#
# Coordination Sequence:
#
# PCOD8025083 Si02
#       7
#     2   2   2   2   2   2   2
#     4  11  23  40  71  95 131 180 228 262 330 399
#     4  10  23  44  68  98 131 173 226 272 327 397
#     4  12  25  43  70 100 132 177 222 271 336 393
#     4  10  24  44  70  93 136 174 223 272 326 401
#     4  11  21  42  70  96 129 181 222 269 327 404
#     4  10  25  43  70  99 136 172 223 276 335 384
#     4  12  25  43  67  97 138 175 220 274 329 395
#
# _framework density 20.679545999999998
#
# number of rings (size 3 to 8) (size 9 to 14) (size 15 to 20)
#    0.857    0.286    2.857    3.429    2.000    2.857 
#    2.571    1.429    0.000    0.000    0.000    0.000 
#    0.000    0.000    0.000    0.000    0.000    0.000 
#
# Total GULP energy -173600.784569 kJ/mol
# GULP energy per Si atom -12400.056041 kJ/mol
# Density = 2.063248 g / cm^3
# Si number density = 20.679546 Si / 1000 Ang^3
#
#
#
# Elastic Constant Matrix: (Units=GPa)
#
#
# Indices 1 2 3 4 5 6 
#
# 1 142.2297 25.3061 68.5967 5.4452 -7.5026 -13.9236
# 2 25.3061 68.0088 50.4482 12.8812 -1.7844 -5.1190
# 3 68.5967 50.4482 171.0312 12.5369 8.7530 -8.0420
# 4 5.4452 12.8812 12.5369 38.2295 -7.4005 -7.7118
# 5 -7.5026 -1.7844 8.7530 -7.4005 33.3003 1.4828
# 6 -13.9236 -5.1190 -8.0420 -7.7118 1.4828 26.3028
#
#
#
# Elastic Compliance Matrix: (Units=1/GPa)
#
#
# Indices 1 2 3 4 5 6 
#
# 1 0.009423 -0.000692 -0.003663 0.001520 0.003208 0.003998
# 2 -0.000692 0.019795 -0.005274 -0.004499 0.001270 0.000483
# 3 -0.003663 -0.005274 0.009161 -0.001529 -0.003838 -0.000396
# 4 0.001520 -0.004499 -0.001529 0.030960 0.007021 0.008143
# 5 0.003208 0.001270 -0.003838 0.007021 0.033347 0.000951
# 6 0.003998 0.000483 -0.000396 0.008143 0.000951 0.042442
#
#
# Mechanical properties :
#
#
# Convention : Reuss Voigt Hill
#
# Bulk Modulus (GPa) = 52.29486 74.44129 63.36807
# Shear Modulus (GPa) = 29.28064 35.36110 32.32087
#
# Velocity S-wave (km/s) = 3.76696 4.13965 3.95769
# Velocity P-wave (km/s) = 6.65305 7.67624 7.18288
#
# Compressibility (1/GPa) = 0.01912234
#
# Stress axis : x y z
#
# Youngs Moduli (GPa) = 106.12266 50.51690 109.15313
#
# Poissons Ratio (x) = 0.03496 0.39981
# Poissons Ratio (y) = 0.07343 0.57566
# Poissons Ratio (z) = 0.38871 0.26642
#
# Static dielectric constant tensor:
#      x y z
#    x 4.001530 -0.105470 -0.113100 
#    y -0.105470 3.743170 0.145110 
#    z -0.113100 0.145110 3.851080 
# 
# 
# High freq. dielectric constant tensor:
#      x y z
#    x 1.817690 -0.005920 0.000260 
#    y -0.005920 1.797230 0.015620 
#    z 0.000260 0.015620 1.816470 
# 
# From -- ./inp_files/402460.got.cif
#   From: 2010.06.25/outbox.cif.g09.slc.cpg/sg2_202_cif.got.tgz:402460.got - 2010.06.27 13:26:56.
