data_PCOD8025683
_publ_section_title
;
Structure prediction by ZEFSAII (Michael W. Deem and Ramdas Pophale) SiO2 
 PCOD8025683
Probable space group: P -1
;
_chemical_formula_sum "Si O2"
_cell_formula_units_Z 16
_cell_length_a 11.244240
_cell_length_b 5.144908
_cell_length_c 23.615176
_cell_angle_alpha 71.016347
_cell_angle_beta 30.017394
_cell_angle_gamma 60.927118
_cell_volume 582.917020
_symmetry_space_group_name_H-M "P -1"
_symmetry_group_IT_number 2
_symmetry_cell_setting 'triclinic'
loop_
_space_group_symop_operation_xyz
x,y,z
-x,-y,-z
loop_
_atom_site_type_symbol
_atom_site_label
_atom_site_fract_x
_atom_site_fract_y
_atom_site_fract_z
Si Si1 0.334797 0.658898 0.835167
Si Si2 0.840677 0.149016 0.800412
Si Si3 0.568156 0.866705 0.861529
Si Si4 0.229770 0.179315 0.338628
Si Si5 0.659755 0.138306 0.459313
Si Si6 0.130498 0.658937 0.797042
Si Si7 0.892383 0.276461 0.964342
Si Si8 0.676440 0.250495 0.564421
O O1 0.645565 0.587730 0.710591
O O2 0.227240 0.594556 0.826261
O O3 0.269859 0.511828 0.929185
O O4 0.175511 0.023799 0.886707
O O5 0.601973 0.063002 0.885931
O O6 0.050269 0.980045 0.677039
O O7 0.957111 0.005292 0.824160
O O8 0.762948 0.504616 0.811390
O O9 0.635223 0.980293 0.765394
O O10 0.272395 0.892268 0.984122
O O11 0.911814 0.359390 0.452944
O O12 0.302744 0.915741 0.373301
O O13 0.500000 0.500000 0.500000
O O14 0.692319 0.035157 0.519537
O O15 0.500000 0.000000 0.500000
O O16 0.390516 0.538127 0.658987
O O17 0.949283 0.477325 0.878665
#
# Coordination Sequence:
#
# PCOD8025683 Si02
#       8
#     2   2   2   2   2   2   2   2
#     4  10  23  45  73 103 141 191 244 307 372 434
#     4  12  28  47  75 107 153 192 251 292 374 435
#     4  11  27  50  72 108 145 201 240 309 363 436
#     4  10  23  46  70 106 146 187 244 305 364 437
#     4  12  26  47  76 107 152 198 240 296 365 442
#     4  12  26  42  75 107 144 191 249 303 364 447
#     4  10  24  47  73 100 147 186 251 302 376 424
#     4  11  24  45  72 113 145 192 243 304 366 440
#
# _framework density 27.448160999999999
#
# number of rings (size 3 to 8) (size 9 to 14) (size 15 to 20)
#    0.000    1.000    3.750    1.125    5.250    3.500 
#    0.000    0.000    0.000    0.000    0.000    0.000 
#    0.000    0.000    0.000    0.000    0.000    0.000 
#
# Total GULP energy -198341.756205 kJ/mol
# GULP energy per Si atom -12396.359763 kJ/mol
# Density = 2.738569 g / cm^3
# Si number density = 27.448161 Si / 1000 Ang^3
#
#
#
# Elastic Constant Matrix: (Units=GPa)
#
#
# Indices 1 2 3 4 5 6 
#
# 1 128.0909 24.2322 38.4709 -13.5565 -15.7112 3.2785
# 2 24.2322 36.3018 14.8293 -12.5135 1.2711 1.8385
# 3 38.4709 14.8293 140.4885 -19.3041 -19.4828 -0.2393
# 4 -13.5565 -12.5135 -19.3041 29.7330 4.4491 -3.2357
# 5 -15.7112 1.2711 -19.4828 4.4491 38.5540 -2.0043
# 6 3.2785 1.8385 -0.2393 -3.2357 -2.0043 38.2065
#
#
#
# Elastic Compliance Matrix: (Units=1/GPa)
#
#
# Indices 1 2 3 4 5 6 
#
# 1 0.009855 -0.005883 -0.001548 0.000471 0.003355 -0.000356
# 2 -0.005883 0.036607 -0.001309 0.012681 -0.005755 -0.000493
# 3 -0.001548 -0.001309 0.008696 0.003965 0.003389 0.000764
# 4 0.000471 0.012681 0.003965 0.042512 -0.002982 0.002818
# 5 0.003355 -0.005755 0.003389 -0.002982 0.029619 0.001312
# 6 -0.000356 -0.000493 0.000764 0.002818 0.001312 0.026540
#
#
# Mechanical properties :
#
#
# Convention : Reuss Voigt Hill
#
# Bulk Modulus (GPa) = 26.54165 51.10510 38.82337
# Shear Modulus (GPa) = 27.19303 36.45526 31.82414
#
# Velocity S-wave (km/s) = 3.15096 3.64833 3.40873
# Velocity P-wave (km/s) = 4.78840 6.03376 5.44679
#
# Compressibility (1/GPa) = 0.03767664
#
# Stress axis : x y z
#
# Youngs Moduli (GPa) = 101.46646 27.31743 114.99076
#
# Poissons Ratio (x) = 0.16071 0.17805
# Poissons Ratio (y) = 0.59694 0.15057
# Poissons Ratio (z) = 0.15711 0.03577
#
# Static dielectric constant tensor:
#      x y z
#    x 5.088730 -0.286060 -0.178120 
#    y -0.286060 4.586030 0.015650 
#    z -0.178120 0.015650 5.523740 
# 
# 
# High freq. dielectric constant tensor:
#      x y z
#    x 2.115620 -0.015780 -0.006520 
#    y -0.015780 2.088670 -0.001320 
#    z -0.006520 -0.001320 2.123860 
# 
# From -- ./inp_files/410271.got.cif
#   From: 2010.06.25/outbox.cif.g09.slc.cpg/sg2_206_cif.got.tgz:410271.got - 2010.06.27 13:26:56.
