data_PCOD8025584
_publ_section_title
;
Structure prediction by ZEFSAII (Michael W. Deem and Ramdas Pophale) SiO2 
 PCOD8025584
Probable space group: P -1
;
_chemical_formula_sum "Si O2"
_cell_formula_units_Z 14
_cell_length_a 5.535686
_cell_length_b 11.121723
_cell_length_c 16.944847
_cell_angle_alpha 138.755671
_cell_angle_beta 66.714368
_cell_angle_gamma 123.911728
_cell_volume 570.224017
_symmetry_space_group_name_H-M "P -1"
_symmetry_group_IT_number 2
_symmetry_cell_setting 'triclinic'
loop_
_space_group_symop_operation_xyz
x,y,z
-x,-y,-z
loop_
_atom_site_type_symbol
_atom_site_label
_atom_site_fract_x
_atom_site_fract_y
_atom_site_fract_z
Si Si1 0.922008 0.253805 0.086988
Si Si2 0.057245 0.719166 0.131069
Si Si3 0.253342 0.658546 0.595681
Si Si4 0.121125 0.709268 0.290948
Si Si5 0.164735 0.291241 0.516296
Si Si6 0.426981 0.106297 0.944610
Si Si7 0.245175 0.017194 0.711299
O O1 0.085490 0.485775 0.204859
O O2 0.725336 0.125656 0.122388
O O3 0.706747 0.225338 0.026234
O O4 0.188045 0.192512 0.009581
O O5 0.961933 0.709195 0.229317
O O6 0.406660 0.860820 0.145380
O O7 0.878951 0.826514 0.162914
O O8 0.000000 0.500000 0.000000
O O9 0.255309 0.533763 0.612250
O O10 0.539360 0.732686 0.540267
O O11 0.225452 0.869872 0.716666
O O12 0.000000 0.500000 0.500000
O O13 0.971326 0.778737 0.414228
O O14 0.454770 0.860905 0.312348
O O15 0.952110 0.142703 0.406444
#
# Coordination Sequence:
#
# PCOD8025584 Si02
#       7
#     2   2   2   2   2   2   2
#     4  10  23  45  70 102 137 191 248 306 363 429
#     4  12  26  44  68  99 144 188 238 294 364 434
#     4   9  21  45  73  99 135 182 232 294 356 431
#     4  12  26  41  69 101 142 188 232 298 362 438
#     4  10  23  47  70 104 139 178 239 292 361 434
#     4  10  23  46  70  99 142 188 249 305 364 436
#     4  11  25  43  69 104 136 189 233 292 365 430
#
# _framework density 24.551755
#
# number of rings (size 3 to 8) (size 9 to 14) (size 15 to 20)
#    0.000    1.429    1.429    2.143    2.000   10.286 
#    5.143    0.000    0.000    0.000    0.000    0.000 
#    0.000    0.000    0.000    0.000    0.000    0.000 
#
# Total GULP energy -173441.707322 kJ/mol
# GULP energy per Si atom -12388.693380 kJ/mol
# Density = 2.449587 g / cm^3
# Si number density = 24.551755 Si / 1000 Ang^3
#
#
#
# Elastic Constant Matrix: (Units=GPa)
#
#
# Indices 1 2 3 4 5 6 
#
# 1 108.3367 39.8896 24.7774 18.1756 -16.8069 5.5963
# 2 39.8896 158.6283 45.3926 8.6814 -16.5783 6.7953
# 3 24.7774 45.3926 69.4825 23.0329 -13.4203 -15.3446
# 4 18.1756 8.6814 23.0329 55.3567 -6.2272 -2.2166
# 5 -16.8069 -16.5783 -13.4203 -6.2272 40.1160 10.4087
# 6 5.5963 6.7953 -15.3446 -2.2166 10.4087 43.0657
#
#
#
# Elastic Compliance Matrix: (Units=1/GPa)
#
#
# Indices 1 2 3 4 5 6 
#
# 1 0.011463 -0.001584 -0.002237 -0.002275 0.003847 -0.003083
# 2 -0.001584 0.008761 -0.006183 0.001809 0.002157 -0.003808
# 3 -0.002237 -0.006183 0.024036 -0.007822 0.000948 0.009199
# 4 -0.002275 0.001809 -0.007822 0.021826 0.001061 -0.001910
# 5 0.003847 0.002157 0.000948 0.001061 0.029904 -0.007676
# 6 -0.003083 -0.003808 0.009199 -0.001910 -0.007676 0.029256
#
#
# Mechanical properties :
#
#
# Convention : Reuss Voigt Hill
#
# Bulk Modulus (GPa) = 41.23009 61.84075 51.53542
# Shear Modulus (GPa) = 32.60781 42.80019 37.70400
#
# Velocity S-wave (km/s) = 3.64830 4.17977 3.92305
# Velocity P-wave (km/s) = 5.88017 6.96682 6.44643
#
# Compressibility (1/GPa) = 0.02425413
#
# Stress axis : x y z
#
# Youngs Moduli (GPa) = 87.23742 114.14032 41.60373
#
# Poissons Ratio (x) = 0.18079 0.09305
# Poissons Ratio (y) = 0.13818 0.25722
# Poissons Ratio (z) = 0.19512 0.70568
#
# Static dielectric constant tensor:
#      x y z
#    x 4.510020 -0.307060 -0.196150 
#    y -0.307060 5.276040 0.303480 
#    z -0.196150 0.303480 4.191480 
# 
# 
# High freq. dielectric constant tensor:
#      x y z
#    x 1.981800 -0.000080 0.000880 
#    y -0.000080 2.009000 0.020030 
#    z 0.000880 0.020030 1.965250 
# 
# From -- ./inp_files/481808.got.cif
#   From: 2010.06.25/outbox.cif.g09.slc.cpg/sg2_241_cif.got.tgz:481808.got - 2010.06.27 13:26:56.
