data_PCOD8025174
_publ_section_title
;
Structure prediction by ZEFSAII (Michael W. Deem and Ramdas Pophale) SiO2 
 PCOD8025174
Probable space group: P -1
;
_chemical_formula_sum "Si O2"
_cell_formula_units_Z 16
_cell_length_a 9.589135
_cell_length_b 14.061575
_cell_length_c 8.864648
_cell_angle_alpha 38.534591
_cell_angle_beta 83.218556
_cell_angle_gamma 70.640680
_cell_volume 681.968758
_symmetry_space_group_name_H-M "P -1"
_symmetry_group_IT_number 2
_symmetry_cell_setting 'triclinic'
loop_
_space_group_symop_operation_xyz
x,y,z
-x,-y,-z
loop_
_atom_site_type_symbol
_atom_site_label
_atom_site_fract_x
_atom_site_fract_y
_atom_site_fract_z
Si Si1 0.758770 0.785153 0.610360
Si Si2 0.581508 0.056574 0.057194
Si Si3 0.006201 0.922005 0.435549
Si Si4 0.843339 0.485199 0.508071
Si Si5 0.333819 0.455252 0.234683
Si Si6 0.346370 0.321499 0.959094
Si Si7 0.332136 0.651595 0.717116
Si Si8 0.139950 0.866280 0.073173
O O1 0.782919 0.606235 0.762748
O O2 0.922198 0.794141 0.599044
O O3 0.649634 0.908904 0.349347
O O4 0.680194 0.802249 0.763078
O O5 0.488303 0.216902 0.968254
O O6 0.712479 0.110698 0.907142
O O7 0.500000 0.000000 0.000000
O O8 0.181185 0.814685 0.490347
O O9 0.000000 0.000000 0.500000
O O10 0.900299 0.087769 0.153776
O O11 0.724411 0.514335 0.624715
O O12 0.788284 0.619061 0.217733
O O13 0.861337 0.308296 0.661375
O O14 0.000000 0.500000 0.500000
O O15 0.511172 0.320817 0.372447
O O16 0.323611 0.619724 0.938880
O O17 0.359211 0.482766 0.831919
O O18 0.000000 0.000000 0.000000
#
# Coordination Sequence:
#
# PCOD8025174 Si02
#       8
#     2   2   2   2   2   2   2   2
#     4  10  25  43  70 105 139 183 238 296 351 441
#     4  11  25  46  73 104 144 188 237 302 368 425
#     4  11  25  43  71 100 140 183 235 294 367 416
#     4  12  28  43  71 102 148 191 242 295 362 434
#     4  10  23  44  70 102 144 182 247 293 359 429
#     4  11  25  42  70 101 141 188 238 287 362 422
#     4  10  23  44  72 102 136 191 235 304 363 423
#     4  11  27  46  68 102 143 183 242 295 355 435
#
# _framework density 23.461486000000001
#
# number of rings (size 3 to 8) (size 9 to 14) (size 15 to 20)
#    0.000    1.250    0.000    3.375   10.500   12.000 
#    0.000    0.000    0.000    0.000    0.000    0.000 
#    0.000    0.000    0.000    0.000    0.000    0.000 
#
# Total GULP energy -198217.818035 kJ/mol
# GULP energy per Si atom -12388.613627 kJ/mol
# Density = 2.340809 g / cm^3
# Si number density = 23.461486 Si / 1000 Ang^3
#
#
#
# Elastic Constant Matrix: (Units=GPa)
#
#
# Indices 1 2 3 4 5 6 
#
# 1 149.7076 36.5794 37.5267 5.4266 -3.7315 -4.0192
# 2 36.5794 114.5675 15.0913 10.8303 -3.8130 -9.2380
# 3 37.5267 15.0913 78.9770 14.8516 -2.5464 -2.4569
# 4 5.4266 10.8303 14.8516 33.4954 3.3319 8.3516
# 5 -3.7315 -3.8130 -2.5464 3.3319 36.3262 0.6259
# 6 -4.0192 -9.2380 -2.4569 8.3516 0.6259 32.7075
#
#
#
# Elastic Compliance Matrix: (Units=1/GPa)
#
#
# Indices 1 2 3 4 5 6 
#
# 1 0.008089 -0.002209 -0.003611 0.001021 0.000255 -0.000166
# 2 -0.002209 0.010130 -0.000002 -0.003919 0.001134 0.003569
# 3 -0.003611 -0.000002 0.015859 -0.007221 0.001359 0.002565
# 4 0.001021 -0.003919 -0.007221 0.037296 -0.004045 -0.010970
# 5 0.000255 0.001134 0.001359 -0.004045 0.028124 0.000948
# 6 -0.000166 0.003569 0.002565 -0.010970 0.000948 0.034537
#
#
# Mechanical properties :
#
#
# Convention : Reuss Voigt Hill
#
# Bulk Modulus (GPa) = 44.56905 57.96074 51.26490
# Shear Modulus (GPa) = 32.64651 37.44279 35.04465
#
# Velocity S-wave (km/s) = 3.73432 3.99924 3.86905
# Velocity P-wave (km/s) = 6.13445 6.78848 6.46973
#
# Compressibility (1/GPa) = 0.02243709
#
# Stress axis : x y z
#
# Youngs Moduli (GPa) = 123.62056 98.71796 63.05431
#
# Poissons Ratio (x) = 0.21803 0.22766
# Poissons Ratio (y) = 0.27302 0.00010
# Poissons Ratio (z) = 0.44634 0.00016
#
# Static dielectric constant tensor:
#      x y z
#    x 4.333530 0.045490 -0.041080 
#    y 0.045490 4.228700 0.159650 
#    z -0.041080 0.159650 4.335670 
# 
# 
# High freq. dielectric constant tensor:
#      x y z
#    x 1.938090 0.002680 0.006220 
#    y 0.002680 1.929610 0.015310 
#    z 0.006220 0.015310 1.938220 
# 
# From -- ./inp_files/205156.got.cif
#   From: 2010.06.25/outbox.cif.g09.slc.cpg/sg2_103_cif.got.tgz:205156.got - 2010.06.27 13:26:56.
