data_PCOD8025779
_publ_section_title
;
Structure prediction by ZEFSAII (Michael W. Deem and Ramdas Pophale) SiO2 
 PCOD8025779
Probable space group: P -1
;
_chemical_formula_sum "Si O2"
_cell_formula_units_Z 16
_cell_length_a 9.152864
_cell_length_b 15.573228
_cell_length_c 9.148219
_cell_angle_alpha 49.935680
_cell_angle_beta 66.836160
_cell_angle_gamma 99.510724
_cell_volume 737.660961
_symmetry_space_group_name_H-M "P -1"
_symmetry_group_IT_number 2
_symmetry_cell_setting 'triclinic'
loop_
_space_group_symop_operation_xyz
x,y,z
-x,-y,-z
loop_
_atom_site_type_symbol
_atom_site_label
_atom_site_fract_x
_atom_site_fract_y
_atom_site_fract_z
Si Si1 0.965891 0.347923 0.339775
Si Si2 0.663293 0.644646 0.851768
Si Si3 0.577944 0.141086 0.893384
Si Si4 0.225271 0.140892 0.930639
Si Si5 0.056499 0.632412 0.999515
Si Si6 0.672359 0.096443 0.216247
Si Si7 0.801669 0.898939 0.344720
Si Si8 0.314923 0.388124 0.792121
O O1 0.796885 0.260514 0.621224
O O2 0.868038 0.311456 0.256589
O O3 0.121481 0.312353 0.322617
O O4 0.082604 0.511634 0.153231
O O5 0.664509 0.773831 0.650496
O O6 0.500000 0.500000 0.000000
O O7 0.617348 0.630892 0.056701
O O8 0.425132 0.176116 0.882654
O O9 0.584646 0.122894 0.082560
O O10 0.500000 0.000000 0.000000
O O11 0.251415 0.175144 0.710715
O O12 0.186854 0.241691 0.917614
O O13 0.034212 0.980390 0.204361
O O14 0.172481 0.754656 0.935671
O O15 0.822953 0.562015 0.180358
O O16 0.500000 0.000000 0.500000
O O17 0.766308 0.017080 0.223259
O O18 0.500000 0.500000 0.500000
#
# Coordination Sequence:
#
# PCOD8025779 Si02
#       8
#     2   2   2   2   2   2   2   2
#     4  10  24  44  70  97 135 177 227 272 338 401
#     4  11  26  42  69  99 135 181 225 280 333 399
#     4  12  24  43  68 101 133 178 223 273 335 396
#     4  11  24  43  70  98 135 178 221 276 331 404
#     4  10  23  46  67  97 135 177 219 281 333 395
#     4  12  27  43  69 101 138 175 223 279 335 400
#     4  11  25  46  68  98 138 179 221 276 338 400
#     4  11  23  42  67 101 134 175 225 273 335 396
#
# _framework density 21.690180999999999
#
# number of rings (size 3 to 8) (size 9 to 14) (size 15 to 20)
#    0.000    1.000    2.500    3.000    5.250    4.000 
#    0.000    0.000    0.000    0.000    0.000    0.000 
#    0.000    0.000    0.000    0.000    0.000    0.000 
#
# Total GULP energy -198458.000717 kJ/mol
# GULP energy per Si atom -12403.625045 kJ/mol
# Density = 2.164081 g / cm^3
# Si number density = 21.690181 Si / 1000 Ang^3
#
#
#
# Elastic Constant Matrix: (Units=GPa)
#
#
# Indices 1 2 3 4 5 6 
#
# 1 75.1016 25.3613 39.5062 5.3772 2.9390 12.7573
# 2 25.3613 135.6827 37.9855 2.2392 15.1518 22.3732
# 3 39.5062 37.9855 140.7396 18.1200 6.2519 22.4437
# 4 5.3772 2.2392 18.1200 40.0024 -3.3948 1.4270
# 5 2.9390 15.1518 6.2519 -3.3948 30.1528 2.5617
# 6 12.7573 22.3732 22.4437 1.4270 2.5617 38.8765
#
#
#
# Elastic Compliance Matrix: (Units=1/GPa)
#
#
# Indices 1 2 3 4 5 6 
#
# 1 0.016221 -0.001635 -0.003724 -0.000308 0.000168 -0.002232
# 2 -0.001635 0.009058 -0.001234 0.000081 -0.003812 -0.003716
# 3 -0.003724 -0.001234 0.009552 -0.003733 -0.001131 -0.003371
# 4 -0.000308 0.000081 -0.003733 0.027007 0.003721 0.000973
# 5 0.000168 -0.003812 -0.001131 0.003721 0.035691 0.000303
# 6 -0.002232 -0.003716 -0.003371 0.000973 0.000303 0.030483
#
#
# Mechanical properties :
#
#
# Convention : Reuss Voigt Hill
#
# Bulk Modulus (GPa) = 46.20043 61.91442 54.05742
# Shear Modulus (GPa) = 33.68931 38.38442 36.03686
#
# Velocity S-wave (km/s) = 3.94535 4.21131 4.08049
# Velocity P-wave (km/s) = 6.48851 7.22867 6.86857
#
# Compressibility (1/GPa) = 0.02164482
#
# Stress axis : x y z
#
# Youngs Moduli (GPa) = 61.64867 110.39536 104.68836
#
# Poissons Ratio (x) = 0.18050 0.38984
# Poissons Ratio (y) = 0.10080 0.12923
# Poissons Ratio (z) = 0.22957 0.13628
#
# Static dielectric constant tensor:
#      x y z
#    x -14.817140 5.087470 -14.854790 
#    y 5.087470 2.948940 4.402500 
#    z -14.854790 4.402500 -7.701470 
# 
# 
# High freq. dielectric constant tensor:
#      x y z
#    x 1.852110 -0.001360 -0.001510 
#    y -0.001360 1.866920 0.000150 
#    z -0.001510 0.000150 1.855110 
# 
# From -- ./inp_files/205546.got.cif
#   From: 2010.06.25/outbox.cif.g09.slc.cpg/sg2_103_cif.got.tgz:205546.got - 2010.06.27 13:26:56.
