data_PCOD8025166
_publ_section_title
;
Structure prediction by ZEFSAII (Michael W. Deem and Ramdas Pophale) SiO2 
 PCOD8025166
Probable space group: P -1
;
_chemical_formula_sum "Si O2"
_cell_formula_units_Z 16
_cell_length_a 23.940994
_cell_length_b 9.438597
_cell_length_c 9.185207
_cell_angle_alpha 134.812791
_cell_angle_beta 150.165136
_cell_angle_gamma 54.632974
_cell_volume 729.416483
_symmetry_space_group_name_H-M "P -1"
_symmetry_group_IT_number 2
_symmetry_cell_setting 'triclinic'
loop_
_space_group_symop_operation_xyz
x,y,z
-x,-y,-z
loop_
_atom_site_type_symbol
_atom_site_label
_atom_site_fract_x
_atom_site_fract_y
_atom_site_fract_z
Si Si1 0.208174 0.995310 0.716986
Si Si2 0.597644 0.128415 0.731821
Si Si3 0.499314 0.474872 0.149539
Si Si4 0.241023 0.453594 0.169757
Si Si5 0.189790 0.850669 0.245198
Si Si6 0.962366 0.041265 0.259902
Si Si7 0.599266 0.946350 0.289131
Si Si8 0.941132 0.656115 0.084773
O O1 0.085684 0.963721 0.485594
O O2 0.202743 0.892224 0.474299
O O3 0.242360 0.232453 0.946004
O O4 0.289529 0.885372 0.928686
O O5 0.560615 0.348189 0.784619
O O6 0.500000 0.000000 0.500000
O O7 0.609683 0.057746 0.545455
O O8 0.629717 0.457772 0.464757
O O9 0.500000 0.500000 0.000000
O O10 0.419887 0.287172 0.890778
O O11 0.192238 0.609761 0.058985
O O12 0.167550 0.451759 0.152699
O O13 0.284375 0.993193 0.482540
O O14 0.074235 0.904297 0.946493
O O15 0.966263 0.241188 0.515099
O O16 0.890945 0.841175 0.016874
O O17 0.500000 0.000000 0.000000
O O18 0.000000 0.500000 0.000000
#
# Coordination Sequence:
#
# PCOD8025166 Si02
#       8
#     2   2   2   2   2   2   2   2
#     4  11  24  46  72 101 139 184 233 283 345 416
#     4  12  24  43  75  98 136 185 231 281 346 410
#     4  12  24  43  70 100 133 183 233 276 346 412
#     4  11  24  42  71  98 136 184 231 278 343 422
#     4  12  26  45  69 101 144 183 225 291 352 400
#     4  10  25  43  69 102 142 178 232 290 338 411
#     4  12  27  45  67 105 144 176 233 294 342 408
#     4  10  23  44  70 101 137 178 235 282 344 405
#
# _framework density 21.935343
#
# number of rings (size 3 to 8) (size 9 to 14) (size 15 to 20)
#    0.000    0.750    3.750    2.625    7.000    4.500 
#    0.000    0.000    0.000    0.000    0.000    0.000 
#    0.000    0.000    0.000    0.000    0.000    0.000 
#
# Total GULP energy -198273.485263 kJ/mol
# GULP energy per Si atom -12392.092829 kJ/mol
# Density = 2.188542 g / cm^3
# Si number density = 21.935343 Si / 1000 Ang^3
#
#
#
# Elastic Constant Matrix: (Units=GPa)
#
#
# Indices 1 2 3 4 5 6 
#
# 1 77.6425 43.0540 52.7125 0.9434 -7.8625 -1.9257
# 2 43.0540 144.0544 48.2464 3.5023 -1.7124 6.8368
# 3 52.7125 48.2464 89.4230 -12.7959 -10.7775 1.1932
# 4 0.9434 3.5023 -12.7959 53.7825 9.8586 -1.8967
# 5 -7.8625 -1.7124 -10.7775 9.8586 50.0721 2.1211
# 6 -1.9257 6.8368 1.1932 -1.8967 2.1211 40.7008
#
#
#
# Elastic Compliance Matrix: (Units=1/GPa)
#
#
# Indices 1 2 3 4 5 6 
#
# 1 0.023081 -0.002696 -0.012487 -0.003406 0.001444 0.001677
# 2 -0.002696 0.009026 -0.003516 -0.001333 -0.000542 -0.001574
# 3 -0.012487 -0.003516 0.021378 0.005242 0.001508 -0.000461
# 4 -0.003406 -0.001333 0.005242 0.020678 -0.003568 0.001059
# 5 0.001444 -0.000542 0.001508 -0.003568 0.021256 -0.001159
# 6 0.001677 -0.001574 -0.000461 0.001059 -0.001159 0.025037
#
#
# Mechanical properties :
#
#
# Convention : Reuss Voigt Hill
#
# Bulk Modulus (GPa) = 62.15682 66.57171 64.36427
# Shear Modulus (GPa) = 30.63437 40.05154 35.34296
#
# Velocity S-wave (km/s) = 3.74113 4.27768 4.01837
# Velocity P-wave (km/s) = 6.85998 7.40358 7.13696
#
# Compressibility (1/GPa) = 0.01608834
#
# Stress axis : x y z
#
# Youngs Moduli (GPa) = 43.32529 110.79527 46.77656
#
# Poissons Ratio (x) = 0.29869 0.58410
# Poissons Ratio (y) = 0.11680 0.16445
# Poissons Ratio (z) = 0.54100 0.38951
#
# Static dielectric constant tensor:
#      x y z
#    x 3.904700 -0.061580 0.069610 
#    y -0.061580 4.030280 0.050080 
#    z 0.069610 0.050080 4.154850 
# 
# 
# High freq. dielectric constant tensor:
#      x y z
#    x 1.865650 0.005670 0.004810 
#    y 0.005670 1.879470 0.007320 
#    z 0.004810 0.007320 1.866420 
# 
# From -- ./inp_files/352467.got.cif
#   From: 2010.06.25/outbox.cif.g09.slc.cpg/sg2_177_cif.got.tgz:352467.got - 2010.06.27 13:26:56.
