data_PCOD8025930
_publ_section_title
;
Structure prediction by ZEFSAII (Michael W. Deem and Ramdas Pophale) SiO2 
 PCOD8025930
Probable space group: P -1
;
_chemical_formula_sum "Si O2"
_cell_formula_units_Z 14
_cell_length_a 14.446508
_cell_length_b 12.540336
_cell_length_c 5.510299
_cell_angle_alpha 100.794994
_cell_angle_beta 107.609114
_cell_angle_gamma 39.888136
_cell_volume 608.539709
_symmetry_space_group_name_H-M "P -1"
_symmetry_group_IT_number 2
_symmetry_cell_setting 'triclinic'
loop_
_space_group_symop_operation_xyz
x,y,z
-x,-y,-z
loop_
_atom_site_type_symbol
_atom_site_label
_atom_site_fract_x
_atom_site_fract_y
_atom_site_fract_z
Si Si1 0.054511 0.268805 0.968040
Si Si2 0.880387 0.575234 0.638458
Si Si3 0.653335 0.003217 0.162406
Si Si4 0.417765 0.142903 0.691250
Si Si5 0.661576 0.310685 0.069041
Si Si6 0.032640 0.858379 0.839296
Si Si7 0.278065 0.863636 0.462193
O O1 0.139385 0.293627 0.185993
O O2 0.973931 0.244748 0.048797
O O3 0.928194 0.431860 0.773939
O O4 0.185482 0.097958 0.854189
O O5 0.719996 0.673877 0.451515
O O6 0.000000 0.500000 0.500000
O O7 0.633796 0.095564 0.426108
O O8 0.653834 0.876315 0.172761
O O9 0.526822 0.133701 0.913631
O O10 0.500000 0.000000 0.500000
O O11 0.797306 0.282845 0.184069
O O12 0.665385 0.247437 0.302800
O O13 0.500000 0.500000 0.000000
O O14 0.682757 0.219550 0.804174
O O15 0.901088 0.963063 0.579478
O O16 0.000000 0.000000 0.000000
#
# Coordination Sequence:
#
# PCOD8025930 Si02
#       7
#     2   2   2   2   2   2   2
#     4  11  23  42  70 101 142 189 241 305 362 430
#     4  11  23  44  67 100 146 187 239 296 370 432
#     4  11  23  40  68  99 136 187 244 295 356 430
#     4  11  23  41  66  98 141 186 238 297 358 433
#     4  11  25  49  73 107 150 181 233 311 372 430
#     4  10  23  46  75 104 136 190 246 293 357 441
#     4  11  24  46  76 102 141 193 245 293 361 442
#
# _framework density 23.005894999999999
#
# number of rings (size 3 to 8) (size 9 to 14) (size 15 to 20)
#    0.000    1.143    2.857    3.429    2.000    1.143 
#    5.143    0.000    0.000    0.000    0.000    0.000 
#    0.000    0.000    0.000    0.000    0.000    0.000 
#
# Total GULP energy -173466.079861 kJ/mol
# GULP energy per Si atom -12390.434276 kJ/mol
# Density = 2.295353 g / cm^3
# Si number density = 23.005895 Si / 1000 Ang^3
#
#
#
# Elastic Constant Matrix: (Units=GPa)
#
#
# Indices 1 2 3 4 5 6 
#
# 1 74.3420 50.7459 27.4670 -12.8210 10.7773 7.3976
# 2 50.7459 116.3118 56.5710 -34.7894 14.2496 -9.4029
# 3 27.4670 56.5710 143.5087 -13.7437 20.2179 3.9679
# 4 -12.8210 -34.7894 -13.7437 37.7873 -2.7758 -7.3371
# 5 10.7773 14.2496 20.2179 -2.7758 46.3380 -9.0850
# 6 7.3976 -9.4029 3.9679 -7.3371 -9.0850 41.2869
#
#
#
# Elastic Compliance Matrix: (Units=1/GPa)
#
#
# Indices 1 2 3 4 5 6 
#
# 1 0.021446 -0.011287 0.000633 -0.004731 -0.003669 -0.008122
# 2 -0.011287 0.021710 -0.005312 0.016400 0.001344 0.010688
# 3 0.000633 -0.005312 0.009297 -0.002191 -0.003357 -0.003345
# 4 -0.004731 0.016400 -0.002191 0.041765 0.001996 0.012654
# 5 -0.003669 0.001344 -0.003357 0.001996 0.025005 0.007143
# 6 -0.008122 0.010688 -0.003345 0.012654 0.007143 0.032252
#
#
# Mechanical properties :
#
#
# Convention : Reuss Voigt Hill
#
# Bulk Modulus (GPa) = 48.73074 67.08116 57.90595
# Shear Modulus (GPa) = 26.28153 38.37436 32.32794
#
# Velocity S-wave (km/s) = 3.38358 4.08857 3.75267
# Velocity P-wave (km/s) = 6.04092 7.17706 6.63336
#
# Compressibility (1/GPa) = 0.02052093
#
# Stress axis : x y z
#
# Youngs Moduli (GPa) = 46.62855 46.06098 107.56437
#
# Poissons Ratio (x) = 0.51988 -0.06808
# Poissons Ratio (y) = 0.52629 0.57141
# Poissons Ratio (z) = -0.02951 0.24469
#
# Static dielectric constant tensor:
#      x y z
#    x 4.612950 0.936800 0.487610 
#    y 0.936800 8.858640 0.505910 
#    z 0.487610 0.505910 4.678500 
# 
# 
# High freq. dielectric constant tensor:
#      x y z
#    x 1.909450 -0.005280 0.008810 
#    y -0.005280 1.897270 -0.013730 
#    z 0.008810 -0.013730 1.926450 
# 
# From -- ./inp_files/95186.got.cif
#   From: 2010.06.25/outbox.cif.g09.slc.cpg/sg2_48_cif.got.tgz:95186.got - 2010.06.27 13:26:56.
