data_PCOD8025239
_publ_section_title
;
Structure prediction by ZEFSAII (Michael W. Deem and Ramdas Pophale) SiO2 
 PCOD8025239
Probable space group: P -1
;
_chemical_formula_sum "Si O2"
_cell_formula_units_Z 16
_cell_length_a 13.205298
_cell_length_b 22.032489
_cell_length_c 18.298414
_cell_angle_alpha 161.982144
_cell_angle_beta 143.846310
_cell_angle_gamma 27.047692
_cell_volume 718.666204
_symmetry_space_group_name_H-M "P -1"
_symmetry_group_IT_number 2
_symmetry_cell_setting 'triclinic'
loop_
_space_group_symop_operation_xyz
x,y,z
-x,-y,-z
loop_
_atom_site_type_symbol
_atom_site_label
_atom_site_fract_x
_atom_site_fract_y
_atom_site_fract_z
Si Si1 0.714321 0.495398 0.331666
Si Si2 0.897332 0.729509 0.421366
Si Si3 0.225180 0.121654 0.157647
Si Si4 0.940549 0.116454 0.430279
Si Si5 0.232545 0.160327 0.037672
Si Si6 0.500841 0.078995 0.691630
Si Si7 0.472150 0.383279 0.158947
Si Si8 0.459589 0.673845 0.243439
O O1 0.657179 0.770015 0.619419
O O2 0.614204 0.464508 0.309153
O O3 0.593733 0.495946 0.189816
O O4 0.990088 0.253638 0.215217
O O5 0.731859 0.723099 0.265979
O O6 0.031744 0.792454 0.526265
O O7 0.084820 0.449377 0.248508
O O8 0.730792 0.972708 0.660293
O O9 0.163575 0.191709 0.117479
O O10 0.401474 0.807570 0.915328
O O11 0.787768 0.361826 0.677835
O O12 0.188815 0.893844 0.357794
O O13 0.817773 0.003644 0.219512
O O14 0.500000 0.000000 0.000000
O O15 0.557009 0.810172 0.434650
O O16 0.461974 0.231319 0.915666
O O17 0.500000 0.500000 0.000000
#
# Coordination Sequence:
#
# PCOD8025239 Si02
#       8
#     2   2   2   2   2   2   2   2
#     4  11  25  43  69 102 139 184 231 283 344 412
#     4  10  24  44  72 101 134 180 234 283 345 405
#     4  11  25  46  67  99 142 186 231 282 339 415
#     4  11  27  45  70 105 139 182 229 290 348 411
#     4  12  26  46  71  98 139 184 234 283 343 416
#     4  10  23  44  71 106 139 175 230 290 345 411
#     4  12  26  44  67 106 142 183 225 286 356 407
#     4  11  23  45  74 104 137 180 241 287 340 407
#
# _framework density 22.263465
#
# number of rings (size 3 to 8) (size 9 to 14) (size 15 to 20)
#    0.000    1.000    1.250    4.125   10.500    5.500 
#    2.250    0.000    0.000    0.000    0.000    0.000 
#    0.000    0.000    0.000    0.000    0.000    0.000 
#
# Total GULP energy -198493.653040 kJ/mol
# GULP energy per Si atom -12405.853315 kJ/mol
# Density = 2.221279 g / cm^3
# Si number density = 22.263465 Si / 1000 Ang^3
#
#
#
# Elastic Constant Matrix: (Units=GPa)
#
#
# Indices 1 2 3 4 5 6 
#
# 1 79.3740 11.5221 27.4592 4.4719 6.3657 -16.6065
# 2 11.5221 87.0476 32.9371 15.1225 14.6093 1.0604
# 3 27.4592 32.9371 99.2639 4.1501 -6.6647 -8.8898
# 4 4.4719 15.1225 4.1501 36.8134 2.1210 -1.0405
# 5 6.3657 14.6093 -6.6647 2.1210 33.7464 2.0043
# 6 -16.6065 1.0604 -8.8898 -1.0405 2.0043 44.1508
#
#
#
# Elastic Compliance Matrix: (Units=1/GPa)
#
#
# Indices 1 2 3 4 5 6 
#
# 1 0.015456 0.000365 -0.004165 -0.001175 -0.004127 0.005126
# 2 0.000365 0.015876 -0.005759 -0.005509 -0.007663 -0.001186
# 3 -0.004165 -0.005759 0.013581 0.001035 0.005833 0.001066
# 4 -0.001175 -0.005509 0.001035 0.029415 0.000929 0.000550
# 5 -0.004127 -0.007663 0.005833 0.000929 0.034926 -0.001757
# 6 0.005126 -0.001186 0.001066 0.000550 -0.001757 0.024913
#
#
# Mechanical properties :
#
#
# Convention : Reuss Voigt Hill
#
# Bulk Modulus (GPa) = 38.76928 45.50244 42.13586
# Shear Modulus (GPa) = 30.88575 35.85993 33.37284
#
# Velocity S-wave (km/s) = 3.72867 4.01772 3.87589
# Velocity P-wave (km/s) = 5.99908 6.48115 6.24477
#
# Compressibility (1/GPa) = 0.02579362
#
# Stress axis : x y z
#
# Youngs Moduli (GPa) = 64.69869 62.98651 73.63098
#
# Poissons Ratio (x) = -0.02296 0.30671
# Poissons Ratio (y) = -0.02359 0.42406
# Poissons Ratio (z) = 0.26950 0.36275
#
# Static dielectric constant tensor:
#      x y z
#    x 4.147660 -0.010220 0.111440 
#    y -0.010220 4.047850 0.033710 
#    z 0.111440 0.033710 4.026250 
# 
# 
# High freq. dielectric constant tensor:
#      x y z
#    x 1.886700 -0.002500 0.007530 
#    y -0.002500 1.879590 0.003700 
#    z 0.007530 0.003700 1.880700 
# 
# From -- ./inp_files/570805.got.cif
#   From: 2010.06.25/outbox.cif.g09.slc.cpg/sg2_286_cif.got.tgz:570805.got - 2010.06.27 13:26:56.
