data_PCOD8025316
_publ_section_title
;
Structure prediction by ZEFSAII (Michael W. Deem and Ramdas Pophale) SiO2 
 PCOD8025316
Probable space group: P -1
;
_chemical_formula_sum "Si O2"
_cell_formula_units_Z 16
_cell_length_a 9.909463
_cell_length_b 5.207306
_cell_length_c 15.018552
_cell_angle_alpha 102.102400
_cell_angle_beta 102.190682
_cell_angle_gamma 108.624590
_cell_volume 684.961986
_symmetry_space_group_name_H-M "P -1"
_symmetry_group_IT_number 2
_symmetry_cell_setting 'triclinic'
loop_
_space_group_symop_operation_xyz
x,y,z
-x,-y,-z
loop_
_atom_site_type_symbol
_atom_site_label
_atom_site_fract_x
_atom_site_fract_y
_atom_site_fract_z
Si Si1 0.938878 0.658354 0.611622
Si Si2 0.682440 0.330022 0.670342
Si Si3 0.077207 0.567511 0.153983
Si Si4 0.175745 0.396160 0.589238
Si Si5 0.495373 0.338372 0.396574
Si Si6 0.172072 0.850491 0.012362
Si Si7 0.322281 0.399123 0.965899
Si Si8 0.880143 0.808904 0.241298
O O1 0.793594 0.395326 0.605730
O O2 0.887266 0.785751 0.524320
O O3 0.078479 0.583069 0.601519
O O4 0.990921 0.875775 0.718353
O O5 0.771251 0.422657 0.781335
O O6 0.584622 0.522927 0.673025
O O7 0.588606 0.996467 0.627899
O O8 0.985119 0.267912 0.071755
O O9 0.965803 0.603249 0.215652
O O10 0.125429 0.824494 0.107375
O O11 0.343374 0.615362 0.614741
O O12 0.174671 0.219574 0.665359
O O13 0.500000 0.500000 0.500000
O O14 0.271785 0.662095 0.992590
O O15 0.261247 0.175034 0.021361
O O16 0.255619 0.242418 0.850752
O O17 0.500000 0.500000 0.000000
#
# Coordination Sequence:
#
# PCOD8025316 Si02
#       8
#     2   2   2   2   2   2   2   2
#     4  11  24  44  74  98 141 189 248 287 346 420
#     4  12  25  45  72 102 137 189 235 286 351 417
#     4  10  23  44  73 105 135 179 241 297 347 412
#     4  11  26  43  69 105 141 193 238 292 355 416
#     4  12  28  46  68 100 149 185 230 295 357 413
#     4  10  24  45  71 105 138 177 232 296 349 413
#     4  11  25  45  72 100 145 185 225 285 363 430
#     4  11  24  43  72 103 139 183 245 293 344 422
#
# _framework density 23.35896
#
# number of rings (size 3 to 8) (size 9 to 14) (size 15 to 20)
#    0.000    1.000    2.500    2.625    3.500   10.500 
#    0.000    0.000    0.000    0.000    0.000    0.000 
#    0.000    0.000    0.000    0.000    0.000    0.000 
#
# Total GULP energy -198336.915620 kJ/mol
# GULP energy per Si atom -12396.057226 kJ/mol
# Density = 2.330579 g / cm^3
# Si number density = 23.358960 Si / 1000 Ang^3
#
#
#
# Elastic Constant Matrix: (Units=GPa)
#
#
# Indices 1 2 3 4 5 6 
#
# 1 118.0826 32.0579 25.4768 -1.3476 20.8577 16.1811
# 2 32.0579 103.0712 11.3045 -4.2373 7.9141 11.4640
# 3 25.4768 11.3045 111.3194 -4.0349 16.6205 9.0834
# 4 -1.3476 -4.2373 -4.0349 22.9707 2.2845 4.2347
# 5 20.8577 7.9141 16.6205 2.2845 35.0039 -1.0246
# 6 16.1811 11.4640 9.0834 4.2347 -1.0246 30.5035
#
#
#
# Elastic Compliance Matrix: (Units=1/GPa)
#
#
# Indices 1 2 3 4 5 6 
#
# 1 0.011044 -0.002241 -0.000943 0.001605 -0.005882 -0.005156
# 2 -0.002241 0.010991 -0.000023 0.002650 -0.001410 -0.003351
# 3 -0.000943 -0.000023 0.010233 0.002758 -0.004562 -0.003074
# 4 0.001605 0.002650 0.002758 0.046950 -0.006204 -0.009395
# 5 -0.005882 -0.001410 -0.004562 -0.006204 0.035169 0.007051
# 6 -0.005156 -0.003351 -0.003074 -0.009395 0.007051 0.039234
#
#
# Mechanical properties :
#
#
# Convention : Reuss Voigt Hill
#
# Bulk Modulus (GPa) = 38.67727 52.23904 45.45816
# Shear Modulus (GPa) = 29.64640 35.27122 32.45881
#
# Velocity S-wave (km/s) = 3.56640 3.89004 3.73173
# Velocity P-wave (km/s) = 5.79247 6.52600 6.17015
#
# Compressibility (1/GPa) = 0.02585498
#
# Stress axis : x y z
#
# Youngs Moduli (GPa) = 90.54475 90.98084 97.72034
#
# Poissons Ratio (x) = 0.20385 0.09215
# Poissons Ratio (y) = 0.20287 0.00229
# Poissons Ratio (z) = 0.08538 0.00213
#
# Static dielectric constant tensor:
#      x y z
#    x 4.399020 0.242310 0.140590 
#    y 0.242310 4.258460 -0.361850 
#    z 0.140590 -0.361850 4.837300 
# 
# 
# High freq. dielectric constant tensor:
#      x y z
#    x 1.923940 0.008340 0.011190 
#    y 0.008340 1.920120 -0.011260 
#    z 0.011190 -0.011260 1.938170 
# 
# From -- ./inp_files/488580.got.cif
#   From: 2010.06.25/outbox.cif.g09.slc.cpg/sg2_245_cif.got.tgz:488580.got - 2010.06.27 13:26:56.
