data_PCOD8025719
_publ_section_title
;
Structure prediction by ZEFSAII (Michael W. Deem and Ramdas Pophale) SiO2 
 PCOD8025719
Probable space group: P -1
;
_chemical_formula_sum "Si O2"
_cell_formula_units_Z 16
_cell_length_a 9.282617
_cell_length_b 14.949345
_cell_length_c 12.034293
_cell_angle_alpha 50.133420
_cell_angle_beta 71.316861
_cell_angle_gamma 111.868952
_cell_volume 737.047379
_symmetry_space_group_name_H-M "P -1"
_symmetry_group_IT_number 2
_symmetry_cell_setting 'triclinic'
loop_
_space_group_symop_operation_xyz
x,y,z
-x,-y,-z
loop_
_atom_site_type_symbol
_atom_site_label
_atom_site_fract_x
_atom_site_fract_y
_atom_site_fract_z
Si Si1 0.976610 0.181522 0.087515
Si Si2 0.634749 0.773115 0.102449
Si Si3 0.725240 0.025691 0.041200
Si Si4 0.185191 0.548620 0.831347
Si Si5 0.193789 0.005306 0.330627
Si Si6 0.226152 0.770791 0.465668
Si Si7 0.930442 0.585888 0.482969
Si Si8 0.289091 0.151113 0.425373
O O1 0.790380 0.064649 0.123703
O O2 0.218419 0.255723 0.933838
O O3 0.050298 0.356587 0.962777
O O4 0.833885 0.039563 0.340675
O O5 0.353566 0.560565 0.362674
O O6 0.740522 0.906178 0.078035
O O7 0.647373 0.867370 0.919228
O O8 0.438367 0.895450 0.217051
O O9 0.905003 0.220298 0.776252
O O10 0.253327 0.677656 0.613268
O O11 0.436558 0.657761 0.744482
O O12 0.000000 0.500000 0.000000
O O13 0.233668 0.893734 0.437351
O O14 0.899283 0.855282 0.500797
O O15 0.309391 0.147895 0.290595
O O16 0.967776 0.617212 0.581995
O O17 0.000000 0.500000 0.500000
#
# Coordination Sequence:
#
# PCOD8025719 Si02
#       8
#     2   2   2   2   2   2   2   2
#     4  11  26  45  70 100 137 181 225 277 344 405
#     4  11  25  44  68 103 136 181 227 278 336 402
#     4  12  24  45  67 100 140 181 226 274 337 406
#     4  12  28  45  70 103 135 178 227 281 344 401
#     4  10  23  45  74  97 133 183 222 283 336 402
#     4  12  24  43  69  98 138 178 224 277 337 398
#     4  12  24  40  65  99 138 177 226 272 330 398
#     4  10  24  49  69  98 138 174 229 280 343 398
#
# _framework density 21.708235999999999
#
# number of rings (size 3 to 8) (size 9 to 14) (size 15 to 20)
#    0.000    0.750    3.750    3.000    5.250    1.500 
#    0.000    2.500    0.000    0.000    0.000    0.000 
#    0.000    0.000    0.000    0.000    0.000    0.000 
#
# Total GULP energy -198450.701509 kJ/mol
# GULP energy per Si atom -12403.168844 kJ/mol
# Density = 2.165883 g / cm^3
# Si number density = 21.708236 Si / 1000 Ang^3
#
#
#
# Elastic Constant Matrix: (Units=GPa)
#
#
# Indices 1 2 3 4 5 6 
#
# 1 77.3829 35.5657 31.7401 -3.8471 2.4780 -7.4324
# 2 35.5657 128.5197 48.7368 -0.0002 1.5233 -6.7421
# 3 31.7401 48.7368 98.6512 -5.8591 -11.8414 -4.9330
# 4 -3.8471 -0.0002 -5.8591 27.6247 0.7541 -0.2449
# 5 2.4780 1.5233 -11.8414 0.7541 27.9446 -0.3405
# 6 -7.4324 -6.7421 -4.9330 -0.2449 -0.3405 42.1221
#
#
#
# Elastic Compliance Matrix: (Units=1/GPa)
#
#
# Indices 1 2 3 4 5 6 
#
# 1 0.016220 -0.002839 -0.003989 0.001511 -0.002991 0.001925
# 2 -0.002839 0.010329 -0.004497 -0.001284 -0.002175 0.000601
# 3 -0.003989 -0.004497 0.014607 0.002362 0.006729 0.000355
# 4 0.001511 -0.001284 0.002362 0.036917 -0.000053 0.000552
# 5 -0.002991 -0.002175 0.006729 -0.000053 0.039025 0.000227
# 6 0.001925 0.000601 0.000355 0.000552 0.000227 0.024223
#
#
# Mechanical properties :
#
#
# Convention : Reuss Voigt Hill
#
# Bulk Modulus (GPa) = 54.03525 59.62655 56.83090
# Shear Modulus (GPa) = 29.38764 32.10568 30.74666
#
# Velocity S-wave (km/s) = 3.68333 3.84990 3.76754
# Velocity P-wave (km/s) = 6.56010 6.87671 6.72027
#
# Compressibility (1/GPa) = 0.01850644
#
# Stress axis : x y z
#
# Youngs Moduli (GPa) = 61.65358 96.81318 68.45879
#
# Poissons Ratio (x) = 0.27490 0.27306
# Poissons Ratio (y) = 0.17506 0.30783
# Poissons Ratio (z) = 0.24592 0.43533
#
# Static dielectric constant tensor:
#      x y z
#    x 4.070170 0.152210 -0.147540 
#    y 0.152210 4.050790 -0.034700 
#    z -0.147540 -0.034700 3.936720 
# 
# 
# High freq. dielectric constant tensor:
#      x y z
#    x 1.859370 0.002440 -0.005240 
#    y 0.002440 1.865440 0.004920 
#    z -0.005240 0.004920 1.852910 
# 
# From -- ./inp_files/70904.got.cif
#   From: 2010.06.25/outbox.cif.g09.slc.cpg/sg2_36_cif.got.tgz:70904.got - 2010.06.27 13:26:56.
