data_PCOD8025965
_publ_section_title
;
Structure prediction by ZEFSAII (Michael W. Deem and Ramdas Pophale) SiO2 
 PCOD8025965
Probable space group: P -1
;
_chemical_formula_sum "Si O2"
_cell_formula_units_Z 14
_cell_length_a 15.884666
_cell_length_b 8.936962
_cell_length_c 10.199763
_cell_angle_alpha 137.196217
_cell_angle_beta 40.717366
_cell_angle_gamma 122.835794
_cell_volume 641.497389
_symmetry_space_group_name_H-M "P -1"
_symmetry_group_IT_number 2
_symmetry_cell_setting 'triclinic'
loop_
_space_group_symop_operation_xyz
x,y,z
-x,-y,-z
loop_
_atom_site_type_symbol
_atom_site_label
_atom_site_fract_x
_atom_site_fract_y
_atom_site_fract_z
Si Si1 0.030249 0.671766 0.338894
Si Si2 0.636020 0.589483 0.856167
Si Si3 0.978848 0.135267 0.803523
Si Si4 0.153597 0.714739 0.691468
Si Si5 0.464382 0.845233 0.058965
Si Si6 0.288166 0.473968 0.994460
Si Si7 0.226513 0.070288 0.632719
O O1 0.037957 0.693291 0.186113
O O2 0.958777 0.450819 0.320134
O O3 0.170719 0.651093 0.225488
O O4 0.955205 0.886602 0.623054
O O5 0.709673 0.417727 0.561734
O O6 0.597593 0.812523 0.964818
O O7 0.500000 0.500000 0.000000
O O8 0.719228 0.626301 0.913439
O O9 0.123760 0.157913 0.703028
O O10 0.868644 0.192741 0.076855
O O11 0.149097 0.916175 0.724270
O O12 0.419008 0.608837 0.905624
O O13 0.500000 0.000000 0.000000
O O14 0.347929 0.939520 0.345159
O O15 0.284779 0.278222 0.769788
#
# Coordination Sequence:
#
# PCOD8025965 Si02
#       7
#     2   2   2   2   2   2   2
#     4  11  25  43  69 103 144 174 221 280 347 399
#     4  10  23  47  67  95 137 179 222 280 326 399
#     4  11  25  42  66 105 139 179 219 281 344 398
#     4  12  24  42  72 100 136 181 225 276 335 407
#     4  11  26  49  70  95 136 182 228 281 338 397
#     4  11  24  45  69  99 138 175 227 280 336 400
#     4  12  25  43  69 102 139 174 231 280 333 407
#
# _framework density 21.82394
#
# number of rings (size 3 to 8) (size 9 to 14) (size 15 to 20)
#    0.000    0.857    5.714    0.857    4.000    2.286 
#    0.000    0.000    0.000    0.000    0.000    0.000 
#    0.000    0.000    0.000    0.000    0.000    0.000 
#
# Total GULP energy -173617.205800 kJ/mol
# GULP energy per Si atom -12401.228986 kJ/mol
# Density = 2.177427 g / cm^3
# Si number density = 21.823940 Si / 1000 Ang^3
#
#
#
# Elastic Constant Matrix: (Units=GPa)
#
#
# Indices 1 2 3 4 5 6 
#
# 1 140.2047 55.0589 52.4724 -2.1500 -0.9389 -37.0440
# 2 55.0589 127.2609 20.7584 -0.3221 14.5286 -11.7933
# 3 52.4724 20.7584 111.8834 -8.3390 8.0225 -4.7911
# 4 -2.1500 -0.3221 -8.3390 28.9770 0.6053 3.5075
# 5 -0.9389 14.5286 8.0225 0.6053 36.8262 9.5523
# 6 -37.0440 -11.7933 -4.7911 3.5075 9.5523 39.6603
#
#
#
# Elastic Compliance Matrix: (Units=1/GPa)
#
#
# Indices 1 2 3 4 5 6 
#
# 1 0.013558 -0.004026 -0.005306 -0.001894 0.000287 0.010924
# 2 -0.004026 0.010053 0.000335 -0.000037 -0.004216 0.000288
# 3 -0.005306 0.000335 0.011621 0.003392 -0.002007 -0.003269
# 4 -0.001894 -0.000037 0.003392 0.035894 -0.000196 -0.004498
# 5 0.000287 -0.004216 -0.002007 -0.000196 0.031551 -0.008809
# 6 0.010924 0.000288 -0.003269 -0.004498 -0.008809 0.037628
#
#
# Mechanical properties :
#
#
# Convention : Reuss Voigt Hill
#
# Bulk Modulus (GPa) = 58.00998 70.65873 64.33436
# Shear Modulus (GPa) = 30.47966 37.82999 34.15482
#
# Velocity S-wave (km/s) = 3.74119 4.16795 3.96032
# Velocity P-wave (km/s) = 6.73057 7.45717 7.10317
#
# Compressibility (1/GPa) = 0.01723841
#
# Stress axis : x y z
#
# Youngs Moduli (GPa) = 73.75601 99.47383 86.05221
#
# Poissons Ratio (x) = 0.40045 0.45657
# Poissons Ratio (y) = 0.29692 -0.02880
# Poissons Ratio (z) = 0.39133 -0.03329
#
# Static dielectric constant tensor:
#      x y z
#    x 7.928560 0.902370 -2.041300 
#    y 0.902370 4.681340 -0.582500 
#    z -2.041300 -0.582500 5.142600 
# 
# 
# High freq. dielectric constant tensor:
#      x y z
#    x 1.861390 -0.013880 -0.001470 
#    y -0.013880 1.857670 0.007830 
#    z -0.001470 0.007830 1.863270 
# 
# From -- ./inp_files/296582.got.cif
#   From: 2010.06.25/outbox.cif.g09.slc.cpg/sg2_149_cif.got.tgz:296582.got - 2010.06.27 13:26:56.
