data_PCOD8025679
_publ_section_title
;
Structure prediction by ZEFSAII (Michael W. Deem and Ramdas Pophale) SiO2 
 PCOD8025679
Probable space group: P -1
;
_chemical_formula_sum "Si O2"
_cell_formula_units_Z 16
_cell_length_a 21.326045
_cell_length_b 12.564132
_cell_length_c 8.782854
_cell_angle_alpha 38.156006
_cell_angle_beta 132.247924
_cell_angle_gamma 153.239417
_cell_volume 650.870617
_symmetry_space_group_name_H-M "P -1"
_symmetry_group_IT_number 2
_symmetry_cell_setting 'triclinic'
loop_
_space_group_symop_operation_xyz
x,y,z
-x,-y,-z
loop_
_atom_site_type_symbol
_atom_site_label
_atom_site_fract_x
_atom_site_fract_y
_atom_site_fract_z
Si Si1 0.921018 0.170807 0.464135
Si Si2 0.494538 0.287172 0.758327
Si Si3 0.297983 0.310328 0.817396
Si Si4 0.230072 0.360923 0.347252
Si Si5 0.146742 0.153700 0.019345
Si Si6 0.218543 0.630375 0.579338
Si Si7 0.570541 0.821280 0.882665
Si Si8 0.784711 0.291181 0.172458
O O1 0.872363 0.288282 0.225053
O O2 0.085555 0.433775 0.471360
O O3 0.885347 0.978636 0.485363
O O4 0.823969 0.949767 0.696509
O O5 0.500000 0.500000 0.500000
O O6 0.643495 0.450025 0.777149
O O7 0.379815 0.012071 0.772838
O O8 0.458246 0.171071 0.000680
O O9 0.286247 0.436607 0.526370
O O10 0.156181 0.086577 0.940880
O O11 0.425290 0.542806 0.879447
O O12 0.320695 0.162116 0.945630
O O13 0.166650 0.447752 0.115142
O O14 0.254945 0.488414 0.829053
O O15 0.000000 0.000000 0.000000
O O16 0.184447 0.668122 0.641637
O O17 0.355218 0.914606 0.394938
#
# Coordination Sequence:
#
# PCOD8025679 Si02
#       8
#     2   2   2   2   2   2   2   2
#     4  11  23  49  74 100 149 191 245 304 359 435
#     4  12  24  46  74 106 153 187 238 309 375 428
#     4  11  24  45  74 108 147 186 250 302 366 439
#     4  12  25  46  74 112 145 195 244 305 367 439
#     4  10  23  45  73 101 147 189 238 305 358 429
#     4  11  25  44  72 108 142 193 251 293 364 439
#     4  11  25  44  76 109 142 195 242 301 370 433
#     4  12  25  43  75 108 142 197 244 298 373 435
#
# _framework density 24.582457000000002
#
# number of rings (size 3 to 8) (size 9 to 14) (size 15 to 20)
#    0.000    0.750    3.750    3.000    3.500    1.500 
#    0.000    7.500    0.000    0.000    0.000    0.000 
#    0.000    0.000    0.000    0.000    0.000    0.000 
#
# Total GULP energy -198368.189247 kJ/mol
# GULP energy per Si atom -12398.011828 kJ/mol
# Density = 2.452651 g / cm^3
# Si number density = 24.582457 Si / 1000 Ang^3
#
#
#
# Elastic Constant Matrix: (Units=GPa)
#
#
# Indices 1 2 3 4 5 6 
#
# 1 98.0379 9.9001 35.2772 9.8296 0.8353 3.3367
# 2 9.9001 76.4061 -2.9511 13.0692 9.1971 -11.3491
# 3 35.2772 -2.9511 119.5541 7.5001 5.4043 -2.6993
# 4 9.8296 13.0692 7.5001 30.3355 -5.9979 0.4588
# 5 0.8353 9.1971 5.4043 -5.9979 50.4776 -4.1564
# 6 3.3367 -11.3491 -2.6993 0.4588 -4.1564 26.5451
#
#
#
# Elastic Compliance Matrix: (Units=1/GPa)
#
#
# Indices 1 2 3 4 5 6 
#
# 1 0.011932 -0.001672 -0.003478 -0.002247 0.000004 -0.002529
# 2 -0.001672 0.016098 0.001676 -0.007588 -0.003422 0.006859
# 3 -0.003478 0.001676 0.009684 -0.002295 -0.001396 0.001960
# 4 -0.002247 -0.007588 -0.002295 0.038766 0.006031 -0.002921
# 5 0.000004 -0.003422 -0.001396 0.006031 0.021436 0.001647
# 6 -0.002529 0.006859 0.001960 -0.002921 0.001647 0.041430
#
#
# Mechanical properties :
#
#
# Convention : Reuss Voigt Hill
#
# Bulk Modulus (GPa) = 32.50472 42.05006 37.27739
# Shear Modulus (GPa) = 31.93901 38.25642 35.09772
#
# Velocity S-wave (km/s) = 3.60844 3.94921 3.78266
# Velocity P-wave (km/s) = 5.53286 6.15937 5.85450
#
# Compressibility (1/GPa) = 0.03076476
#
# Stress axis : x y z
#
# Youngs Moduli (GPa) = 83.80852 62.11959 103.26844
#
# Poissons Ratio (x) = 0.10388 0.35921
# Poissons Ratio (y) = 0.14015 -0.17312
# Poissons Ratio (z) = 0.29152 -0.10414
#
# Static dielectric constant tensor:
#      x y z
#    x 4.541550 -0.128700 0.124880 
#    y -0.128700 4.397830 -0.137480 
#    z 0.124880 -0.137480 4.777910 
# 
# 
# High freq. dielectric constant tensor:
#      x y z
#    x 1.976610 -0.003190 0.007170 
#    y -0.003190 1.975160 0.003750 
#    z 0.007170 0.003750 1.981820 
# 
# From -- ./inp_files/345888.got.cif
#   From: 2010.06.25/outbox.cif.g09.slc.cpg/sg2_173_cif.got.tgz:345888.got - 2010.06.27 13:26:56.
