data_PCOD8025312
_publ_section_title
;
Structure prediction by ZEFSAII (Michael W. Deem and Ramdas Pophale) SiO2 
 PCOD8025312
Probable space group: P -1
;
_chemical_formula_sum "Si O2"
_cell_formula_units_Z 14
_cell_length_a 5.261212
_cell_length_b 21.560332
_cell_length_c 8.812300
_cell_angle_alpha 126.517697
_cell_angle_beta 56.463193
_cell_angle_gamma 126.925338
_cell_volume 611.934861
_symmetry_space_group_name_H-M "P -1"
_symmetry_group_IT_number 2
_symmetry_cell_setting 'triclinic'
loop_
_space_group_symop_operation_xyz
x,y,z
-x,-y,-z
loop_
_atom_site_type_symbol
_atom_site_label
_atom_site_fract_x
_atom_site_fract_y
_atom_site_fract_z
Si Si1 0.827040 0.075636 0.055413
Si Si2 0.338113 0.402334 0.367126
Si Si3 0.379170 0.018166 0.727126
Si Si4 0.695046 0.689442 0.227385
Si Si5 0.813099 0.185132 0.980941
Si Si6 0.843563 0.403086 0.952191
Si Si7 0.422785 0.693868 0.626373
O O1 0.887838 0.169172 0.110024
O O2 0.800760 0.068010 0.237622
O O3 0.118930 0.059291 0.853003
O O4 0.500000 0.000000 0.000000
O O5 0.500000 0.500000 0.500000
O O6 0.375327 0.355594 0.437841
O O7 0.959739 0.369520 0.380865
O O8 0.549578 0.382302 0.139000
O O9 0.500000 0.000000 0.500000
O O10 0.683592 0.092068 0.817592
O O11 0.323405 0.638890 0.212124
O O12 0.636010 0.733724 0.462649
O O13 0.886339 0.629274 0.116559
O O14 0.880072 0.758917 0.141560
O O15 0.562416 0.231711 0.154039
O O16 0.000000 0.500000 0.000000
#
# Coordination Sequence:
#
# PCOD8025312 Si02
#       7
#     2   2   2   2   2   2   2
#     4   9  22  43  68  98 138 177 225 278 356 417
#     4  12  24  46  71 100 141 188 238 296 354 422
#     4  10  23  44  73 103 135 181 233 278 354 428
#     4  12  26  44  68 104 138 189 237 295 357 410
#     4  11  25  43  68 100 144 178 232 296 351 421
#     4  12  24  46  69 101 142 184 243 296 348 427
#     4  12  26  45  68 103 142 185 239 292 362 412
#
# _framework density 22.878252
#
# number of rings (size 3 to 8) (size 9 to 14) (size 15 to 20)
#    0.000    0.857    2.857    3.429    4.000    6.857 
#    0.000    0.000    0.000    0.000    0.000    0.000 
#    0.000    0.000    0.000    0.000    0.000    0.000 
#
# Total GULP energy -173433.262557 kJ/mol
# GULP energy per Si atom -12388.090183 kJ/mol
# Density = 2.282618 g / cm^3
# Si number density = 22.878252 Si / 1000 Ang^3
#
#
#
# Elastic Constant Matrix: (Units=GPa)
#
#
# Indices 1 2 3 4 5 6 
#
# 1 105.7997 29.6843 -2.8096 -1.2289 0.9962 -15.8896
# 2 29.6843 134.2066 38.0140 -15.7104 6.5293 -30.8264
# 3 -2.8096 38.0140 131.4771 -19.5972 16.9925 -9.4500
# 4 -1.2289 -15.7104 -19.5972 36.1696 1.3127 0.8589
# 5 0.9962 6.5293 16.9925 1.3127 27.6770 -2.7653
# 6 -15.8896 -30.8264 -9.4500 0.8589 -2.7653 32.0666
#
#
#
# Elastic Compliance Matrix: (Units=1/GPa)
#
#
# Indices 1 2 3 4 5 6 
#
# 1 0.010545 -0.001720 0.001044 0.000094 -0.000234 0.003857
# 2 -0.001720 0.010846 -0.001955 0.003404 -0.000573 0.008858
# 3 0.001044 -0.001955 0.009674 0.004612 -0.005647 0.000879
# 4 0.000094 0.003404 0.004612 0.031721 -0.004801 0.003414
# 5 -0.000234 -0.000573 -0.005647 -0.004801 0.040095 0.001255
# 6 0.003857 0.008858 0.000879 0.003414 0.001255 0.041887
#
#
# Mechanical properties :
#
#
# Convention : Reuss Voigt Hill
#
# Bulk Modulus (GPa) = 38.75399 55.69564 47.22482
# Shear Modulus (GPa) = 31.51999 39.62230 35.57115
#
# Velocity S-wave (km/s) = 3.71580 4.16610 3.94738
# Velocity P-wave (km/s) = 5.94858 6.89485 6.43912
#
# Compressibility (1/GPa) = 0.02580379
#
# Stress axis : x y z
#
# Youngs Moduli (GPa) = 94.83547 92.19832 103.37318
#
# Poissons Ratio (x) = 0.15856 -0.10792
# Poissons Ratio (y) = 0.16309 0.20205
# Poissons Ratio (z) = -0.09901 0.18021
#
# Static dielectric constant tensor:
#      x y z
#    x 4.621400 -0.529070 0.147820 
#    y -0.529070 4.926810 -0.683390 
#    z 0.147820 -0.683390 4.480210 
# 
# 
# High freq. dielectric constant tensor:
#      x y z
#    x 1.913250 -0.010110 0.001440 
#    y -0.010110 1.911270 -0.019440 
#    z 0.001440 -0.019440 1.904270 
# 
# From -- ./inp_files/44001.got.cif
#   From: 2010.06.25/outbox.cif.g09.slc.cpg/sg2_23_cif.got.tgz:44001.got - 2010.06.27 13:26:56.
