data_PCOD8025814
_publ_section_title
;
Structure prediction by ZEFSAII (Michael W. Deem and Ramdas Pophale) SiO2 
 PCOD8025814
Probable space group: P -1
;
_chemical_formula_sum "Si O2"
_cell_formula_units_Z 16
_cell_length_a 6.302367
_cell_length_b 28.174150
_cell_length_c 6.365289
_cell_angle_alpha 130.993055
_cell_angle_beta 107.342156
_cell_angle_gamma 53.650358
_cell_volume 679.402747
_symmetry_space_group_name_H-M "P -1"
_symmetry_group_IT_number 2
_symmetry_cell_setting 'triclinic'
loop_
_space_group_symop_operation_xyz
x,y,z
-x,-y,-z
loop_
_atom_site_type_symbol
_atom_site_label
_atom_site_fract_x
_atom_site_fract_y
_atom_site_fract_z
Si Si1 0.363639 0.515356 0.729551
Si Si2 0.897974 0.275527 0.394948
Si Si3 0.374037 0.417498 0.768018
Si Si4 0.666020 0.234552 0.840855
Si Si5 0.010968 0.968381 0.133249
Si Si6 0.101279 0.143582 0.377658
Si Si7 0.599962 0.114147 0.669959
Si Si8 0.138891 0.362628 0.845946
O O1 0.500000 0.500000 0.500000
O O2 0.325946 0.447533 0.596967
O O3 0.574687 0.522151 0.945355
O O4 0.073525 0.592853 0.899278
O O5 0.617363 0.330146 0.588782
O O6 0.085228 0.203037 0.382567
O O7 0.056102 0.316412 0.541968
O O8 0.849237 0.253551 0.086714
O O9 0.143358 0.419865 0.844695
O O10 0.564509 0.193264 0.836760
O O11 0.417791 0.311055 0.896225
O O12 0.834105 0.179699 0.540376
O O13 0.319300 0.906956 0.121016
O O14 0.864681 0.043660 0.444733
O O15 0.857204 0.925523 0.949169
O O16 0.000000 0.000000 0.000000
O O17 0.342560 0.115483 0.530097
#
# Coordination Sequence:
#
# PCOD8025814 Si02
#       8
#     2   2   2   2   2   2   2   2
#     4  10  24  46  73 106 143 188 240 290 354 426
#     4  11  25  43  68 103 142 182 234 296 349 427
#     4  10  23  46  69 104 145 183 237 295 353 422
#     4  12  25  43  69 104 136 186 241 282 358 430
#     4  11  24  45  70  99 139 180 236 293 347 427
#     4  12  24  43  68  99 144 179 235 295 353 420
#     4  11  25  44  69 101 133 186 234 286 360 417
#     4  11  24  47  75 103 144 189 238 297 357 419
#
# _framework density 23.550096
#
# number of rings (size 3 to 8) (size 9 to 14) (size 15 to 20)
#    0.000    1.000    5.000    0.750    1.750    4.000 
#    6.750    0.000    0.000    0.000    0.000    0.000 
#    0.000    0.000    0.000    0.000    0.000    0.000 
#
# Total GULP energy -198270.364389 kJ/mol
# GULP energy per Si atom -12391.897774 kJ/mol
# Density = 2.349649 g / cm^3
# Si number density = 23.550096 Si / 1000 Ang^3
#
#
#
# Elastic Constant Matrix: (Units=GPa)
#
#
# Indices 1 2 3 4 5 6 
#
# 1 76.9147 48.7067 20.5222 -9.0651 6.9401 4.0235
# 2 48.7067 139.6321 35.2501 -14.0068 7.9028 9.7951
# 3 20.5222 35.2501 80.4601 -5.7961 10.4216 7.4383
# 4 -9.0651 -14.0068 -5.7961 34.8871 1.4582 7.8545
# 5 6.9401 7.9028 10.4216 1.4582 48.8665 -5.8588
# 6 4.0235 9.7951 7.4383 7.8545 -5.8588 44.8295
#
#
#
# Elastic Compliance Matrix: (Units=1/GPa)
#
#
# Indices 1 2 3 4 5 6 
#
# 1 0.017185 -0.005207 -0.001689 0.002312 -0.001393 -0.000711
# 2 -0.005207 0.010081 -0.002641 0.002699 -0.000630 -0.001852
# 3 -0.001689 -0.002641 0.014712 0.001593 -0.002801 -0.002357
# 4 0.002312 0.002699 0.001593 0.032336 -0.002922 -0.007109
# 5 -0.001393 -0.000630 -0.002801 -0.002922 0.021940 0.004107
# 6 -0.000711 -0.001852 -0.002357 -0.007109 0.004107 0.024949
#
#
# Mechanical properties :
#
#
# Convention : Reuss Voigt Hill
#
# Bulk Modulus (GPa) = 43.66267 56.21832 49.94049
# Shear Modulus (GPa) = 33.80370 38.55182 36.17776
#
# Velocity S-wave (km/s) = 3.79277 4.05039 3.92370
# Velocity P-wave (km/s) = 6.14498 6.76741 6.46369
#
# Compressibility (1/GPa) = 0.02290286
#
# Stress axis : x y z
#
# Youngs Moduli (GPa) = 58.18969 99.19395 67.97221
#
# Poissons Ratio (x) = 0.51655 0.11481
# Poissons Ratio (y) = 0.30302 0.17953
# Poissons Ratio (z) = 0.09829 0.26199
#
# Static dielectric constant tensor:
#      x y z
#    x 4.159750 0.347640 -0.124140 
#    y 0.347640 4.931810 -0.122400 
#    z -0.124140 -0.122400 3.863170 
# 
# 
# High freq. dielectric constant tensor:
#      x y z
#    x 1.918870 0.002390 0.009910 
#    y 0.002390 1.952310 0.004070 
#    z 0.009910 0.004070 1.930920 
# 
# From -- ./inp_files/14725.got.cif
#   From: 2010.06.25/outbox.cif.g09.slc.cpg/sg2_8_cif.got.tgz:14725.got - 2010.06.27 13:26:56.
