data_PCOD8025893
_publ_section_title
;
Structure prediction by ZEFSAII (Michael W. Deem and Ramdas Pophale) SiO2 
 PCOD8025893
Probable space group: P -1
;
_chemical_formula_sum "Si O2"
_cell_formula_units_Z 16
_cell_length_a 9.377125
_cell_length_b 14.670556
_cell_length_c 15.257876
_cell_angle_alpha 151.574923
_cell_angle_beta 84.348410
_cell_angle_gamma 76.018650
_cell_volume 716.932998
_symmetry_space_group_name_H-M "P -1"
_symmetry_group_IT_number 2
_symmetry_cell_setting 'triclinic'
loop_
_space_group_symop_operation_xyz
x,y,z
-x,-y,-z
loop_
_atom_site_type_symbol
_atom_site_label
_atom_site_fract_x
_atom_site_fract_y
_atom_site_fract_z
Si Si1 0.148401 0.036842 0.536387
Si Si2 0.595046 0.533456 0.773297
Si Si3 0.448903 0.271047 0.238239
Si Si4 0.578073 0.715515 0.245701
Si Si5 0.175700 0.040917 0.735743
Si Si6 0.821503 0.539857 0.909807
Si Si7 0.765446 0.337511 0.079141
Si Si8 0.219097 0.717210 0.768392
O O1 0.126706 0.134216 0.717919
O O2 0.060527 0.286347 0.689217
O O3 0.380202 0.772783 0.280239
O O4 0.000000 0.000000 0.500000
O O5 0.647988 0.605866 0.746732
O O6 0.732714 0.467825 0.788274
O O7 0.359558 0.747472 0.993794
O O8 0.634483 0.270680 0.527866
O O9 0.286093 0.484131 0.501150
O O10 0.642702 0.223066 0.199501
O O11 0.500000 0.000000 0.000000
O O12 0.673158 0.571026 0.211370
O O13 0.500000 0.000000 0.500000
O O14 0.734041 0.564185 0.030217
O O15 0.221035 0.209769 0.915411
O O16 0.995314 0.094182 0.836900
O O17 0.761710 0.397450 0.233367
O O18 0.000000 0.000000 0.000000
#
# Coordination Sequence:
#
# PCOD8025893 Si02
#       8
#     2   2   2   2   2   2   2   2
#     4  12  23  39  61  89 131 175 218 264 317 374
#     4  11  25  43  65  97 125 174 217 269 332 394
#     4  10  24  46  72  99 135 168 223 283 343 411
#     4  12  23  39  59  92 132 174 217 262 310 383
#     4  12  23  42  63  92 134 170 223 267 317 389
#     4  12  25  40  63  92 132 178 218 263 321 380
#     4  11  23  40  66  93 130 171 217 269 327 394
#     4  10  23  46  72 101 132 174 218 282 352 399
#
# _framework density 22.317287
#
# number of rings (size 3 to 8) (size 9 to 14) (size 15 to 20)
#    0.000    0.750    5.000    1.875    1.750    6.500 
#    0.000    2.500    0.000    0.000    0.000    0.000 
#    0.000    0.000    0.000    0.000    0.000    0.000 
#
# Total GULP energy -198232.085426 kJ/mol
# GULP energy per Si atom -12389.505339 kJ/mol
# Density = 2.226649 g / cm^3
# Si number density = 22.317287 Si / 1000 Ang^3
#
#
#
# Elastic Constant Matrix: (Units=GPa)
#
#
# Indices 1 2 3 4 5 6 
#
# 1 79.5657 25.3942 38.2832 8.2965 -11.7241 2.3989
# 2 25.3942 153.8394 49.1415 0.4664 -4.5587 1.5981
# 3 38.2832 49.1415 111.5433 4.9643 -0.0577 3.1445
# 4 8.2965 0.4664 4.9643 26.9470 10.8664 0.5065
# 5 -11.7241 -4.5587 -0.0577 10.8664 41.7305 6.1919
# 6 2.3989 1.5981 3.1445 0.5065 6.1919 25.1305
#
#
#
# Elastic Compliance Matrix: (Units=1/GPa)
#
#
# Indices 1 2 3 4 5 6 
#
# 1 0.017148 -0.000957 -0.005075 -0.007071 0.006919 -0.002503
# 2 -0.000957 0.007649 -0.003062 0.000552 0.000438 -0.000131
# 3 -0.005075 -0.003062 0.012063 0.000089 -0.001706 -0.000412
# 4 -0.007071 0.000552 0.000089 0.044882 -0.014087 0.003195
# 5 0.006919 0.000438 -0.001706 -0.014087 0.030774 -0.007773
# 6 -0.002503 -0.000131 -0.000412 0.003195 -0.007773 0.041942
#
#
# Mechanical properties :
#
#
# Convention : Reuss Voigt Hill
#
# Bulk Modulus (GPa) = 53.55737 63.39847 58.47792
# Shear Modulus (GPa) = 27.95341 34.23688 31.09515
#
# Velocity S-wave (km/s) = 3.54297 3.92100 3.73677
# Velocity P-wave (km/s) = 6.38648 6.99775 6.69909
#
# Compressibility (1/GPa) = 0.01867157
#
# Stress axis : x y z
#
# Youngs Moduli (GPa) = 58.31680 130.73510 82.90021
#
# Poissons Ratio (x) = 0.12512 0.42071
# Poissons Ratio (y) = 0.05581 0.25385
# Poissons Ratio (z) = 0.29595 0.40032
#
# Static dielectric constant tensor:
#      x y z
#    x 4.749020 0.017460 -0.733800 
#    y 0.017460 4.167750 -0.050020 
#    z -0.733800 -0.050020 4.747980 
# 
# 
# High freq. dielectric constant tensor:
#      x y z
#    x 1.883110 -0.002700 -0.014550 
#    y -0.002700 1.882530 0.004680 
#    z -0.014550 0.004680 1.874320 
# 
# From -- ./inp_files/505812.got.cif
#   From: 2010.06.25/outbox.cif.g09.slc.cpg/sg2_253_cif.got.tgz:505812.got - 2010.06.27 13:26:56.
