data_PCOD8025592
_publ_section_title
;
Structure prediction by ZEFSAII (Michael W. Deem and Ramdas Pophale) SiO2 
 PCOD8025592
Probable space group: P -1
;
_chemical_formula_sum "Si O2"
_cell_formula_units_Z 16
_cell_length_a 11.541706
_cell_length_b 9.575752
_cell_length_c 10.730744
_cell_angle_alpha 91.117351
_cell_angle_beta 53.397983
_cell_angle_gamma 125.662925
_cell_volume 668.524085
_symmetry_space_group_name_H-M "P -1"
_symmetry_group_IT_number 2
_symmetry_cell_setting 'triclinic'
loop_
_space_group_symop_operation_xyz
x,y,z
-x,-y,-z
loop_
_atom_site_type_symbol
_atom_site_label
_atom_site_fract_x
_atom_site_fract_y
_atom_site_fract_z
Si Si1 0.034494 0.007442 0.735488
Si Si2 0.721665 0.750235 0.748229
Si Si3 0.413978 0.157122 0.381575
Si Si4 0.056350 0.337070 0.117842
Si Si5 0.964630 0.250791 0.900568
Si Si6 0.638916 0.399128 0.871603
Si Si7 0.523851 0.097422 0.749321
Si Si8 0.741953 0.334801 0.373677
O O1 0.254710 0.085324 0.590787
O O2 0.040935 0.149837 0.815039
O O3 0.945982 0.968381 0.649259
O O4 0.900246 0.796453 0.887038
O O5 0.612382 0.731700 0.694629
O O6 0.740292 0.594057 0.727403
O O7 0.589562 0.708829 0.951780
O O8 0.630182 0.295110 0.315051
O O9 0.375785 0.987223 0.326900
O O10 0.233993 0.544031 0.081650
O O11 0.834295 0.241626 0.305872
O O12 0.072100 0.373494 0.961680
O O13 0.062411 0.423616 0.737555
O O14 0.719023 0.082692 0.070841
O O15 0.633315 0.251180 0.796127
O O16 0.581218 0.225808 0.589966
#
# Coordination Sequence:
#
# PCOD8025592 Si02
#       8
#     2   2   2   2   2   2   2   2
#     4  11  24  46  71 112 144 194 244 299 364 436
#     4  10  23  45  70 104 150 190 243 302 362 431
#     4  12  25  46  74 105 152 191 240 307 364 429
#     4  11  23  47  73 106 151 188 238 305 366 427
#     4  12  26  46  79 108 145 194 247 296 364 438
#     4  10  24  45  73 106 145 194 243 298 367 429
#     4  12  26  49  76 107 148 195 244 300 361 437
#     4  12  27  47  72 112 150 188 246 303 364 429
#
# _framework density 23.933319000000001
#
# number of rings (size 3 to 8) (size 9 to 14) (size 15 to 20)
#    0.000    0.750    3.750    3.000    3.500    2.500 
#    2.250    0.000    0.000    0.000    0.000    0.000 
#    0.000    0.000    0.000    0.000    0.000    0.000 
#
# Total GULP energy -198274.057557 kJ/mol
# GULP energy per Si atom -12392.128597 kJ/mol
# Density = 2.387885 g / cm^3
# Si number density = 23.933319 Si / 1000 Ang^3
#
#
#
# Elastic Constant Matrix: (Units=GPa)
#
#
# Indices 1 2 3 4 5 6 
#
# 1 100.2004 36.2427 16.6747 -5.2914 -16.6557 12.3718
# 2 36.2427 136.3775 54.5943 9.8228 -8.9611 5.2434
# 3 16.6747 54.5943 91.3038 -2.6253 -13.3266 -4.0086
# 4 -5.2914 9.8228 -2.6253 36.9147 -11.5582 0.4369
# 5 -16.6557 -8.9611 -13.3266 -11.5582 29.1581 8.4486
# 6 12.3718 5.2434 -4.0086 0.4369 8.4486 36.5472
#
#
#
# Elastic Compliance Matrix: (Units=1/GPa)
#
#
# Indices 1 2 3 4 5 6 
#
# 1 0.014530 -0.003823 0.001383 0.007273 0.012741 -0.007251
# 2 -0.003823 0.011148 -0.006682 -0.005192 -0.003844 -0.000088
# 3 0.001383 -0.006682 0.016078 0.005705 0.008266 0.000275
# 4 0.007273 -0.005192 0.005705 0.036771 0.021635 -0.006532
# 5 0.012741 -0.003844 0.008266 0.021635 0.057500 -0.016406
# 6 -0.007251 -0.000088 0.000275 -0.006532 -0.016406 0.033730
#
#
# Mechanical properties :
#
#
# Convention : Reuss Voigt Hill
#
# Bulk Modulus (GPa) = 42.53205 60.32280 51.42743
# Shear Modulus (GPa) = 25.53133 35.21530 30.37332
#
# Velocity S-wave (km/s) = 3.26969 3.84003 3.56628
# Velocity P-wave (km/s) = 5.66252 6.70227 6.20421
#
# Compressibility (1/GPa) = 0.02351168
#
# Stress axis : x y z
#
# Youngs Moduli (GPa) = 68.82418 89.70070 62.19665
#
# Poissons Ratio (x) = 0.34290 -0.08600
# Poissons Ratio (y) = 0.26310 0.41560
# Poissons Ratio (z) = -0.09516 0.59939
#
# Static dielectric constant tensor:
#      x y z
#    x 4.189280 -0.035600 -0.141050 
#    y -0.035600 4.240170 -0.072270 
#    z -0.141050 -0.072270 4.346960 
# 
# 
# High freq. dielectric constant tensor:
#      x y z
#    x 1.950750 -0.004910 -0.007710 
#    y -0.004910 1.942240 -0.005170 
#    z -0.007710 -0.005170 1.950750 
# 
# From -- ./inp_files/419420.got.cif
#   From: 2010.06.25/outbox.cif.g09.slc.cpg/sg2_210_cif.got.tgz:419420.got - 2010.06.27 13:26:56.
