data_PCOD8025029
_publ_section_title
;
Structure prediction by ZEFSAII (Michael W. Deem and Ramdas Pophale) SiO2 
 PCOD8025029
Probable space group: P -1
;
_chemical_formula_sum "Si O2"
_cell_formula_units_Z 14
_cell_length_a 15.992183
_cell_length_b 12.186862
_cell_length_c 13.200238
_cell_angle_alpha 134.357305
_cell_angle_beta 24.863145
_cell_angle_gamma 144.444810
_cell_volume 620.919248
_symmetry_space_group_name_H-M "P -1"
_symmetry_group_IT_number 2
_symmetry_cell_setting 'triclinic'
loop_
_space_group_symop_operation_xyz
x,y,z
-x,-y,-z
loop_
_atom_site_type_symbol
_atom_site_label
_atom_site_fract_x
_atom_site_fract_y
_atom_site_fract_z
Si Si1 0.660566 0.293235 0.459441
Si Si2 0.479838 0.925780 0.333163
Si Si3 0.794214 0.117223 0.731791
Si Si4 0.198888 0.643307 0.291656
Si Si5 0.984494 0.756107 0.041786
Si Si6 0.849699 0.802819 0.431045
Si Si7 0.418861 0.487690 0.820483
O O1 0.683850 0.247704 0.520715
O O2 0.610860 0.448772 0.622069
O O3 0.449629 0.093508 0.503164
O O4 0.920867 0.376648 0.169336
O O5 0.395537 0.847703 0.261860
O O6 0.774576 0.020568 0.082111
O O7 0.893904 0.303570 0.670929
O O8 0.938358 0.177184 0.719200
O O9 0.879217 0.998559 0.506041
O O10 0.500000 0.000000 0.000000
O O11 0.000000 0.500000 0.500000
O O12 0.326011 0.543724 0.053184
O O13 0.849599 0.708383 0.266174
O O14 0.795633 0.704621 0.125642
O O15 0.572685 0.666871 0.692367
#
# Coordination Sequence:
#
# PCOD8025029 Si02
#       7
#     2   2   2   2   2   2   2
#     4   9  23  44  70  96 147 174 236 290 344 425
#     4   9  22  47  68  96 142 190 224 287 362 411
#     4  11  25  48  70 100 151 184 234 295 348 428
#     4  12  27  46  75 107 141 186 239 297 357 410
#     4  10  23  44  67  99 139 182 236 282 353 420
#     4  11  26  42  73 102 137 195 236 280 365 412
#     4  12  26  42  70 109 138 182 239 295 351 412
#
# _framework density 22.547215999999999
#
# number of rings (size 3 to 8) (size 9 to 14) (size 15 to 20)
#    0.857    0.571    1.429    2.143    8.000    2.857 
#    0.000    0.000    0.000    0.000    0.000    0.000 
#    0.000    0.000    0.000    0.000    0.000    0.000 
#
# Total GULP energy -173454.658366 kJ/mol
# GULP energy per Si atom -12389.618455 kJ/mol
# Density = 2.249590 g / cm^3
# Si number density = 22.547216 Si / 1000 Ang^3
#
#
#
# Elastic Constant Matrix: (Units=GPa)
#
#
# Indices 1 2 3 4 5 6 
#
# 1 72.7574 15.2670 37.4672 18.5622 6.7141 10.3439
# 2 15.2670 42.3555 23.1810 9.3183 4.6566 -12.4341
# 3 37.4672 23.1810 149.7546 11.3916 18.8343 -9.3025
# 4 18.5622 9.3183 11.3916 43.0813 2.2208 -0.6487
# 5 6.7141 4.6566 18.8343 2.2208 37.1767 2.1019
# 6 10.3439 -12.4341 -9.3025 -0.6487 2.1019 45.3832
#
#
#
# Elastic Compliance Matrix: (Units=1/GPa)
#
#
# Indices 1 2 3 4 5 6 
#
# 1 0.019524 -0.005487 -0.003976 -0.006274 -0.000062 -0.006855
# 2 -0.005487 0.030490 -0.002268 -0.003390 -0.001996 0.009183
# 3 -0.003976 -0.002268 0.008587 0.000146 -0.003482 0.002209
# 4 -0.006274 -0.003390 0.000146 0.026632 -0.000159 0.000919
# 5 -0.000062 -0.001996 -0.003482 -0.000159 0.029080 -0.002596
# 6 -0.006855 0.009183 0.002209 0.000919 -0.002596 0.026699
#
#
# Mechanical properties :
#
#
# Convention : Reuss Voigt Hill
#
# Bulk Modulus (GPa) = 28.45720 46.29976 37.37848
# Shear Modulus (GPa) = 28.37903 37.72506 33.05204
#
# Velocity S-wave (km/s) = 3.55159 4.09486 3.83287
# Velocity P-wave (km/s) = 5.42835 6.55258 6.01678
#
# Compressibility (1/GPa) = 0.03514049
#
# Stress axis : x y z
#
# Youngs Moduli (GPa) = 51.21849 32.79816 116.44922
#
# Poissons Ratio (x) = 0.17995 0.46303
# Poissons Ratio (y) = 0.28101 0.26405
# Poissons Ratio (z) = 0.20366 0.07437
#
# Static dielectric constant tensor:
#      x y z
#    x 3.847060 0.196750 0.071790 
#    y 0.196750 4.015050 0.020350 
#    z 0.071790 0.020350 4.033100 
# 
# 
# High freq. dielectric constant tensor:
#      x y z
#    x 1.874040 0.018710 0.007890 
#    y 0.018710 1.885230 0.001970 
#    z 0.007890 0.001970 1.895310 
# 
# From -- ./inp_files/451737.got.cif
#   From: 2010.06.25/outbox.cif.g09.slc.cpg/sg2_226_cif.got.tgz:451737.got - 2010.06.27 13:26:56.
