data_PCOD8025033
_publ_section_title
;
Structure prediction by ZEFSAII (Michael W. Deem and Ramdas Pophale) SiO2 
 PCOD8025033
Probable space group: P -1
;
_chemical_formula_sum "Si O2"
_cell_formula_units_Z 14
_cell_length_a 17.179247
_cell_length_b 8.445299
_cell_length_c 9.396687
_cell_angle_alpha 70.161293
_cell_angle_beta 148.773148
_cell_angle_gamma 117.009023
_cell_volume 626.143970
_symmetry_space_group_name_H-M "P -1"
_symmetry_group_IT_number 2
_symmetry_cell_setting 'triclinic'
loop_
_space_group_symop_operation_xyz
x,y,z
-x,-y,-z
loop_
_atom_site_type_symbol
_atom_site_label
_atom_site_fract_x
_atom_site_fract_y
_atom_site_fract_z
Si Si1 0.678156 0.974037 0.665459
Si Si2 0.503259 0.430613 0.869845
Si Si3 0.612808 0.302997 0.573833
Si Si4 0.972488 0.066600 0.281879
Si Si5 0.206078 0.683728 0.678125
Si Si6 0.923761 0.403706 0.192877
Si Si7 0.253726 0.051742 0.536739
O O1 0.512291 0.810451 0.469085
O O2 0.761589 0.952618 0.656064
O O3 0.644723 0.162765 0.555648
O O4 0.790536 0.965985 0.977060
O O5 0.456174 0.559665 0.650149
O O6 0.384889 0.229910 0.740491
O O7 0.500000 0.500000 0.000000
O O8 0.680111 0.435826 0.104525
O O9 0.775413 0.423515 0.867720
O O10 0.084877 0.031119 0.348779
O O11 0.002687 0.278203 0.269617
O O12 0.000000 0.000000 0.500000
O O13 0.136626 0.692244 0.722434
O O14 0.058024 0.596231 0.365287
O O15 0.302932 0.883443 0.716768
#
# Coordination Sequence:
#
# PCOD8025033 Si02
#       7
#     2   2   2   2   2   2   2
#     4  10  24  43  72 100 138 182 227 283 339 407
#     4  12  27  43  69 102 137 182 225 286 343 411
#     4  10  24  46  69  97 144 179 230 272 353 405
#     4  11  23  42  69 101 137 179 227 282 346 406
#     4  11  24  42  69  98 141 174 237 277 341 399
#     4  10  23  44  68 100 130 191 220 286 338 411
#     4  12  25  43  67 104 137 178 232 287 337 407
#
# _framework density 22.359074
#
# number of rings (size 3 to 8) (size 9 to 14) (size 15 to 20)
#    0.000    1.143    1.429    3.429    4.000    5.714 
#    0.000    3.571    0.000    0.000    0.000    0.000 
#    0.000    0.000    0.000    0.000    0.000    0.000 
#
# Total GULP energy -173664.576633 kJ/mol
# GULP energy per Si atom -12404.612617 kJ/mol
# Density = 2.230818 g / cm^3
# Si number density = 22.359074 Si / 1000 Ang^3
#
#
#
# Elastic Constant Matrix: (Units=GPa)
#
#
# Indices 1 2 3 4 5 6 
#
# 1 127.1164 39.3154 43.5833 -6.9720 5.1891 -15.7395
# 2 39.3154 139.2535 73.5687 1.9874 -4.3578 -0.8102
# 3 43.5833 73.5687 141.4046 -6.1721 7.1001 -10.1489
# 4 -6.9720 1.9874 -6.1721 31.3451 -1.6268 2.9498
# 5 5.1891 -4.3578 7.1001 -1.6268 34.2284 1.6332
# 6 -15.7395 -0.8102 -10.1489 2.9498 1.6332 26.4872
#
#
#
# Elastic Compliance Matrix: (Units=1/GPa)
#
#
# Indices 1 2 3 4 5 6 
#
# 1 0.009772 -0.002041 -0.001437 0.001453 -0.001619 0.005132
# 2 -0.002041 0.010686 -0.005359 -0.001765 0.002837 -0.002918
# 3 -0.001437 -0.005359 0.010737 0.001702 -0.002758 0.003077
# 4 0.001453 -0.001765 0.001702 0.032931 0.000875 -0.002260
# 5 -0.001619 0.002837 -0.002758 0.000875 0.030623 -0.003918
# 6 0.005132 -0.002918 0.003077 -0.002260 -0.003918 0.042386
#
#
# Mechanical properties :
#
#
# Convention : Reuss Voigt Hill
#
# Bulk Modulus (GPa) = 73.96703 80.07884 77.02293
# Shear Modulus (GPa) = 31.38414 35.16595 33.27504
#
# Velocity S-wave (km/s) = 3.75059 3.97013 3.86192
# Velocity P-wave (km/s) = 7.20480 7.54378 7.37624
#
# Compressibility (1/GPa) = 0.01351954
#
# Stress axis : x y z
#
# Youngs Moduli (GPa) = 102.33292 93.58182 93.13980
#
# Poissons Ratio (x) = 0.19104 0.13382
# Poissons Ratio (y) = 0.20891 0.49916
# Poissons Ratio (z) = 0.14703 0.50153
#
# Static dielectric constant tensor:
#      x y z
#    x 4.522410 -0.070010 -0.151040 
#    y -0.070010 4.089480 -0.038490 
#    z -0.151040 -0.038490 4.243140 
# 
# 
# High freq. dielectric constant tensor:
#      x y z
#    x 1.887960 -0.015050 0.006540 
#    y -0.015050 1.882420 0.006220 
#    z 0.006540 0.006220 1.887060 
# 
# From -- ./inp_files/155779.got.cif
#   From: 2010.06.25/outbox.cif.g09.slc.cpg/sg2_78_cif.got.tgz:155779.got - 2010.06.27 13:26:56.
