data_PCOD8025866
_publ_section_title
;
Structure prediction by ZEFSAII (Michael W. Deem and Ramdas Pophale) SiO2 
 PCOD8025866
Probable space group: P -1
;
_chemical_formula_sum "Si O2"
_cell_formula_units_Z 16
_cell_length_a 16.368084
_cell_length_b 11.485661
_cell_length_c 8.875776
_cell_angle_alpha 51.220470
_cell_angle_beta 48.483372
_cell_angle_gamma 34.595764
_cell_volume 696.498052
_symmetry_space_group_name_H-M "P -1"
_symmetry_group_IT_number 2
_symmetry_cell_setting 'triclinic'
loop_
_space_group_symop_operation_xyz
x,y,z
-x,-y,-z
loop_
_atom_site_type_symbol
_atom_site_label
_atom_site_fract_x
_atom_site_fract_y
_atom_site_fract_z
Si Si1 0.640487 0.051298 0.010417
Si Si2 0.892930 0.322302 0.592725
Si Si3 0.315044 0.265256 0.310812
Si Si4 0.175647 0.638998 0.695238
Si Si5 0.812796 0.919687 0.399079
Si Si6 0.668189 0.770318 0.013823
Si Si7 0.633175 0.267198 0.574512
Si Si8 0.886570 0.981979 0.952401
O O1 0.575958 0.223897 0.820073
O O2 0.735960 0.051186 0.013245
O O3 0.744136 0.824717 0.984343
O O4 0.497893 0.108696 0.221742
O O5 0.751072 0.536229 0.673410
O O6 0.880576 0.361222 0.398379
O O7 0.888076 0.153532 0.774086
O O8 0.048900 0.248768 0.519160
O O9 0.256518 0.161960 0.530166
O O10 0.251124 0.328775 0.165407
O O11 0.224147 0.766201 0.522461
O O12 0.316866 0.401115 0.775436
O O13 0.035875 0.757885 0.886030
O O14 0.677387 0.123228 0.495256
O O15 0.877912 0.969170 0.152923
O O16 0.500000 0.000000 0.000000
O O17 0.500000 0.500000 0.500000
#
# Coordination Sequence:
#
# PCOD8025866 Si02
#       8
#     2   2   2   2   2   2   2   2
#     4  11  25  48  70 104 147 189 239 297 354 430
#     4  12  26  48  73 106 147 186 245 298 357 429
#     4  11  26  46  70 103 149 188 238 295 359 425
#     4  12  26  46  76 105 142 190 242 299 359 422
#     4  12  27  46  72 105 146 194 235 298 360 424
#     4  10  23  46  71 100 141 188 231 289 353 428
#     4  12  25  44  76 105 138 190 243 293 364 427
#     4  12  27  47  74 106 145 190 240 301 359 423
#
# _framework density 22.972066000000002
#
# number of rings (size 3 to 8) (size 9 to 14) (size 15 to 20)
#    0.000    0.500    3.750    4.125    7.000    2.500 
#    0.000    0.000    0.000    0.000    0.000    0.000 
#    0.000    0.000    0.000    0.000    0.000    0.000 
#
# Total GULP energy -198413.522489 kJ/mol
# GULP energy per Si atom -12400.845156 kJ/mol
# Density = 2.291978 g / cm^3
# Si number density = 22.972066 Si / 1000 Ang^3
#
#
#
# Elastic Constant Matrix: (Units=GPa)
#
#
# Indices 1 2 3 4 5 6 
#
# 1 95.5503 36.3597 15.1242 4.4534 -10.3990 2.6907
# 2 36.3597 106.2319 31.4134 2.1880 4.9024 7.4884
# 3 15.1242 31.4134 92.5197 -4.0681 -1.9267 -6.0213
# 4 4.4534 2.1880 -4.0681 39.6035 4.6723 -2.1475
# 5 -10.3990 4.9024 -1.9267 4.6723 43.1725 5.0295
# 6 2.6907 7.4884 -6.0213 -2.1475 5.0295 28.9217
#
#
#
# Elastic Compliance Matrix: (Units=1/GPa)
#
#
# Indices 1 2 3 4 5 6 
#
# 1 0.012706 -0.004204 -0.000716 -0.001777 0.003819 -0.001039
# 2 -0.004204 0.012305 -0.003769 -0.000517 -0.002144 -0.003245
# 3 -0.000716 -0.003769 0.012531 0.001757 0.000188 0.003749
# 4 -0.001777 -0.000517 0.001757 0.026248 -0.003507 0.003224
# 5 0.003819 -0.002144 0.000188 -0.003507 0.025228 -0.004409
# 6 -0.001039 -0.003245 0.003749 0.003224 -0.004409 0.037300
#
#
# Mechanical properties :
#
#
# Convention : Reuss Voigt Hill
#
# Bulk Modulus (GPa) = 49.59373 51.12183 50.35778
# Shear Modulus (GPa) = 33.24094 36.43319 34.83707
#
# Velocity S-wave (km/s) = 3.80809 3.98675 3.89845
# Velocity P-wave (km/s) = 6.40086 6.59504 6.49867
#
# Compressibility (1/GPa) = 0.02016384
#
# Stress axis : x y z
#
# Youngs Moduli (GPa) = 78.70046 81.26684 79.80484
#
# Poissons Ratio (x) = 0.34162 0.05715
# Poissons Ratio (y) = 0.33083 0.30082
# Poissons Ratio (z) = 0.05635 0.30633
#
# Static dielectric constant tensor:
#      x y z
#    x 4.550250 0.313680 -0.090800 
#    y 0.313680 4.148870 -0.003960 
#    z -0.090800 -0.003960 4.200250 
# 
# 
# High freq. dielectric constant tensor:
#      x y z
#    x 1.921780 0.012860 -0.004950 
#    y 0.012860 1.901770 0.000080 
#    z -0.004950 0.000080 1.910000 
# 
# From -- ./inp_files/332851.got.cif
#   From: 2010.06.25/outbox.cif.g09.slc.cpg/sg2_167_cif.got.tgz:332851.got - 2010.06.27 13:26:56.
