data_PCOD8025640
_publ_section_title
;
Structure prediction by ZEFSAII (Michael W. Deem and Ramdas Pophale) SiO2 
 PCOD8025640
Probable space group: P -1
;
_chemical_formula_sum "Si O2"
_cell_formula_units_Z 16
_cell_length_a 10.630451
_cell_length_b 8.861967
_cell_length_c 13.963972
_cell_angle_alpha 65.421650
_cell_angle_beta 41.691904
_cell_angle_gamma 48.888827
_cell_volume 651.798449
_symmetry_space_group_name_H-M "P -1"
_symmetry_group_IT_number 2
_symmetry_cell_setting 'triclinic'
loop_
_space_group_symop_operation_xyz
x,y,z
-x,-y,-z
loop_
_atom_site_type_symbol
_atom_site_label
_atom_site_fract_x
_atom_site_fract_y
_atom_site_fract_z
Si Si1 0.731321 0.013559 0.115558
Si Si2 0.370899 0.940985 0.308090
Si Si3 0.413310 0.362644 0.561295
Si Si4 0.169128 0.796192 0.146502
Si Si5 0.522947 0.794346 0.063435
Si Si6 0.985752 0.766790 0.438363
Si Si7 0.965442 0.419937 0.845725
Si Si8 0.617672 0.673312 0.626342
O O1 0.519959 0.031123 0.174313
O O2 0.897156 0.789826 0.120893
O O3 0.612881 0.191845 0.214806
O O4 0.892955 0.045098 0.946129
O O5 0.470825 0.818269 0.381739
O O6 0.394417 0.816442 0.232507
O O7 0.102126 0.113228 0.441413
O O8 0.500000 0.500000 0.500000
O O9 0.483587 0.282602 0.434689
O O10 0.135625 0.478267 0.694858
O O11 0.420743 0.727265 0.057022
O O12 0.162792 0.608279 0.162894
O O13 0.001610 0.893479 0.309147
O O14 0.789875 0.604465 0.967190
O O15 0.500000 0.000000 0.000000
O O16 0.790463 0.738286 0.522858
O O17 0.240698 0.563066 0.363053
#
# Coordination Sequence:
#
# PCOD8025640 Si02
#       8
#     2   2   2   2   2   2   2   2
#     4  10  24  45  75 105 150 188 247 299 369 442
#     4  10  25  49  66 107 147 194 244 302 358 444
#     4  11  26  46  73 103 148 196 248 300 367 436
#     4  12  25  46  76 114 142 198 244 307 364 440
#     4  12  28  48  74 105 155 191 245 305 365 438
#     4  10  24  42  76 101 147 189 247 302 366 422
#     4  11  27  48  73 109 147 195 246 302 368 440
#     4  10  23  45  71 106 144 192 240 307 360 436
#
# _framework density 24.547469
#
# number of rings (size 3 to 8) (size 9 to 14) (size 15 to 20)
#    0.000    1.250    2.500    0.750    8.750    5.000 
#    2.250    0.000    0.000    0.000    0.000    0.000 
#    0.000    0.000    0.000    0.000    0.000    0.000 
#
# Total GULP energy -198308.455781 kJ/mol
# GULP energy per Si atom -12394.278486 kJ/mol
# Density = 2.449160 g / cm^3
# Si number density = 24.547469 Si / 1000 Ang^3
#
#
#
# Elastic Constant Matrix: (Units=GPa)
#
#
# Indices 1 2 3 4 5 6 
#
# 1 105.8373 48.0414 46.3162 0.8821 16.6866 10.1313
# 2 48.0414 114.4410 85.5798 20.0207 -3.4627 1.4841
# 3 46.3162 85.5798 168.6996 6.6884 14.9520 0.0923
# 4 0.8821 20.0207 6.6884 50.6303 4.6871 -4.6850
# 5 16.6866 -3.4627 14.9520 4.6871 39.9028 -5.6692
# 6 10.1313 1.4841 0.0923 -4.6850 -5.6692 29.9796
#
#
#
# Elastic Compliance Matrix: (Units=1/GPa)
#
#
# Indices 1 2 3 4 5 6 
#
# 1 0.014097 -0.006525 0.000011 0.002525 -0.007539 -0.005472
# 2 -0.006525 0.019290 -0.008485 -0.007027 0.008665 0.001817
# 3 0.000011 -0.008485 0.010578 0.002404 -0.005014 -0.000189
# 4 0.002525 -0.007027 0.002404 0.022822 -0.004946 0.002119
# 5 -0.007539 0.008665 -0.005014 -0.004946 0.032492 0.007506
# 6 -0.005472 0.001817 -0.000189 0.002119 0.007506 0.036866
#
#
# Mechanical properties :
#
#
# Convention : Reuss Voigt Hill
#
# Bulk Modulus (GPa) = 71.59308 83.20583 77.39946
# Shear Modulus (GPa) = 29.27428 38.03857 33.65643
#
# Velocity S-wave (km/s) = 3.45709 3.94076 3.70682
# Velocity P-wave (km/s) = 6.72040 7.39429 7.06538
#
# Compressibility (1/GPa) = 0.01396783
#
# Stress axis : x y z
#
# Youngs Moduli (GPa) = 70.93805 51.84014 94.53439
#
# Poissons Ratio (x) = 0.33823 -0.00101
# Poissons Ratio (y) = 0.46284 0.80210
# Poissons Ratio (z) = -0.00076 0.43985
#
# Static dielectric constant tensor:
#      x y z
#    x 4.570210 0.174950 0.001750 
#    y 0.174950 4.357580 -0.139410 
#    z 0.001750 -0.139410 4.856400 
# 
# 
# High freq. dielectric constant tensor:
#      x y z
#    x 1.981500 0.007190 0.000570 
#    y 0.007190 1.955820 -0.010130 
#    z 0.000570 -0.010130 1.992440 
# 
# From -- ./inp_files/515304.got.cif
#   From: 2010.06.25/outbox.cif.g09.slc.cpg/sg2_258_cif.got.tgz:515304.got - 2010.06.27 13:26:56.
