data_PCOD8025028
_publ_section_title
;
Structure prediction by ZEFSAII (Michael W. Deem and Ramdas Pophale) SiO2 
 PCOD8025028
Probable space group: P -1
;
_chemical_formula_sum "Si O2"
_cell_formula_units_Z 16
_cell_length_a 17.194192
_cell_length_b 13.764502
_cell_length_c 7.130134
_cell_angle_alpha 131.035333
_cell_angle_beta 133.951875
_cell_angle_gamma 36.527251
_cell_volume 703.606901
_symmetry_space_group_name_H-M "P -1"
_symmetry_group_IT_number 2
_symmetry_cell_setting 'triclinic'
loop_
_space_group_symop_operation_xyz
x,y,z
-x,-y,-z
loop_
_atom_site_type_symbol
_atom_site_label
_atom_site_fract_x
_atom_site_fract_y
_atom_site_fract_z
Si Si1 0.533163 0.727543 0.023767
Si Si2 0.707458 0.932010 0.756214
Si Si3 0.092189 0.053982 0.690881
Si Si4 0.832902 0.644914 0.894601
Si Si5 0.691277 0.270900 0.539738
Si Si6 0.188242 0.623472 0.413466
Si Si7 0.641286 0.428579 0.043485
Si Si8 0.646168 0.860502 0.170444
O O1 0.630149 0.586084 0.161830
O O2 0.637585 0.719136 0.045588
O O3 0.436350 0.913523 0.187544
O O4 0.455187 0.665785 0.715048
O O5 0.774548 0.753793 0.742750
O O6 0.676505 0.931955 0.486437
O O7 0.818492 0.965385 0.004076
O O8 0.983036 0.250839 0.707976
O O9 0.201597 0.931967 0.556154
O O10 0.000000 0.000000 0.500000
O O11 0.759604 0.561736 0.701541
O O12 0.776355 0.777316 0.138898
O O13 0.000000 0.500000 0.000000
O O14 0.748165 0.357991 0.644149
O O15 0.673522 0.306834 0.774863
O O16 0.233581 0.678633 0.733386
O O17 0.500000 0.500000 0.000000
O O18 0.500000 0.000000 0.000000
#
# Coordination Sequence:
#
# PCOD8025028 Si02
#       8
#     2   2   2   2   2   2   2   2
#     4  11  23  45  71  99 146 174 232 293 354 417
#     4  11  24  48  69 102 142 180 237 298 346 416
#     4   9  21  46  70  95 136 182 226 287 347 414
#     4  12  26  47  70 101 145 187 240 289 346 422
#     4  10  23  44  67  99 138 180 225 291 346 414
#     4  11  23  44  69  98 139 182 230 286 347 419
#     4  12  25  39  67 105 138 179 225 284 357 413
#     4  12  27  44  74 104 138 193 236 287 355 416
#
# _framework density 22.739972000000002
#
# number of rings (size 3 to 8) (size 9 to 14) (size 15 to 20)
#    0.000    1.000    3.750    2.250    3.500    1.000 
#    4.500    0.000    0.000    0.000    0.000    0.000 
#    0.000    0.000    0.000    0.000    0.000    0.000 
#
# Total GULP energy -198314.865531 kJ/mol
# GULP energy per Si atom -12394.679096 kJ/mol
# Density = 2.268821 g / cm^3
# Si number density = 22.739972 Si / 1000 Ang^3
#
#
#
# Elastic Constant Matrix: (Units=GPa)
#
#
# Indices 1 2 3 4 5 6 
#
# 1 80.1803 15.4858 42.6940 4.1087 -9.9704 -5.3329
# 2 15.4858 67.7469 32.2950 -2.0897 -9.5831 -7.1140
# 3 42.6940 32.2950 164.2676 1.0411 -21.0806 -16.0524
# 4 4.1087 -2.0897 1.0411 32.6061 5.2212 8.1029
# 5 -9.9704 -9.5831 -21.0806 5.2212 36.6115 6.9032
# 6 -5.3329 -7.1140 -16.0524 8.1029 6.9032 42.3979
#
#
#
# Elastic Compliance Matrix: (Units=1/GPa)
#
#
# Indices 1 2 3 4 5 6 
#
# 1 0.014908 -0.001598 -0.003239 -0.002324 0.002014 0.000497
# 2 -0.001598 0.016769 -0.002489 0.000711 0.002198 0.001177
# 3 -0.003239 -0.002489 0.007975 -0.000935 0.002831 0.001912
# 4 -0.002324 0.000711 -0.000935 0.033297 -0.004575 -0.006145
# 5 0.002014 0.002198 0.002831 -0.004575 0.031194 -0.002511
# 6 0.000497 0.001177 0.001912 -0.006145 -0.002511 0.026153
#
#
# Mechanical properties :
#
#
# Convention : Reuss Voigt Hill
#
# Bulk Modulus (GPa) = 40.00029 54.79381 47.39705
# Shear Modulus (GPa) = 32.62003 37.10442 34.86223
#
# Velocity S-wave (km/s) = 3.79156 4.04379 3.91971
# Velocity P-wave (km/s) = 6.06600 6.77873 6.43224
#
# Compressibility (1/GPa) = 0.02499982
#
# Stress axis : x y z
#
# Youngs Moduli (GPa) = 67.07965 59.63392 125.39590
#
# Poissons Ratio (x) = 0.09532 0.40610
# Poissons Ratio (y) = 0.10722 0.31209
# Poissons Ratio (z) = 0.21724 0.14842
#
# Static dielectric constant tensor:
#      x y z
#    x 3.930270 -0.132930 0.326980 
#    y -0.132930 4.762460 0.174920 
#    z 0.326980 0.174920 3.952610 
# 
# 
# High freq. dielectric constant tensor:
#      x y z
#    x 1.895300 0.002210 0.013040 
#    y 0.002210 1.908680 0.006520 
#    z 0.013040 0.006520 1.895720 
# 
# From -- ./inp_files/111083.got.cif
#   From: 2010.06.25/outbox.cif.g09.slc.cpg/sg2_56_cif.got.tgz:111083.got - 2010.06.27 13:26:56.
