data_PCOD8025395
_publ_section_title
;
Structure prediction by ZEFSAII (Michael W. Deem and Ramdas Pophale) SiO2 
 PCOD8025395
Probable space group: P -1
;
_chemical_formula_sum "Si O2"
_cell_formula_units_Z 14
_cell_length_a 12.716180
_cell_length_b 10.876761
_cell_length_c 12.816400
_cell_angle_alpha 132.636938
_cell_angle_beta 38.826809
_cell_angle_gamma 144.957222
_cell_volume 634.290305
_symmetry_space_group_name_H-M "P -1"
_symmetry_group_IT_number 2
_symmetry_cell_setting 'triclinic'
loop_
_space_group_symop_operation_xyz
x,y,z
-x,-y,-z
loop_
_atom_site_type_symbol
_atom_site_label
_atom_site_fract_x
_atom_site_fract_y
_atom_site_fract_z
Si Si1 0.894489 0.277129 0.390994
Si Si2 0.689105 0.515828 0.917013
Si Si3 0.771225 0.182454 0.642984
Si Si4 0.423743 0.496796 0.771416
Si Si5 0.242737 0.564563 0.565587
Si Si6 0.094617 0.406346 0.809502
Si Si7 0.331875 0.023124 0.189119
O O1 0.753014 0.097996 0.488907
O O2 0.746600 0.247133 0.391288
O O3 0.000000 0.500000 0.500000
O O4 0.087304 0.285908 0.198317
O O5 0.663031 0.299089 0.802052
O O6 0.500000 0.500000 0.000000
O O7 0.700204 0.566009 0.059340
O O8 0.653224 0.983778 0.700194
O O9 0.022276 0.339018 0.569915
O O10 0.547024 0.400025 0.615753
O O11 0.249046 0.393988 0.755681
O O12 0.605917 0.752948 0.764288
O O13 0.234372 0.571862 0.701576
O O14 0.906874 0.166408 0.776837
O O15 0.000000 0.500000 0.000000
O O16 0.500000 0.000000 0.000000
#
# Coordination Sequence:
#
# PCOD8025395 Si02
#       7
#     2   2   2   2   2   2   2
#     4   8  15  30  49  76 111 141 185 231 265 329
#     4  10  17  29  54  83 106 144 190 225 272 329
#     4   9  17  32  50  77 114 143 183 230 271 329
#     4  12  21  35  59  86 112 146 186 231 278 332
#     4   9  19  33  52  84 111 143 189 226 277 327
#     4  11  21  36  56  80 115 150 184 229 276 332
#     4  11  21  37  56  86 113 148 185 225 283 331
#
# _framework density 22.071914
#
# number of rings (size 3 to 8) (size 9 to 14) (size 15 to 20)
#    0.000    2.286    2.857    4.714    0.000    2.286 
#    0.000    0.000    0.000    1.714    0.000    0.000 
#    0.000    1.143    0.000    0.000    0.000    0.000 
#
# Total GULP energy -173489.022491 kJ/mol
# GULP energy per Si atom -12392.073035 kJ/mol
# Density = 2.202168 g / cm^3
# Si number density = 22.071914 Si / 1000 Ang^3
#
#
#
# Elastic Constant Matrix: (Units=GPa)
#
#
# Indices 1 2 3 4 5 6 
#
# 1 174.9561 22.2464 85.0064 -23.3735 8.7300 3.8285
# 2 22.2464 40.8673 16.9906 -4.0752 7.6094 7.7262
# 3 85.0064 16.9906 170.9477 -35.4743 13.7581 -10.2187
# 4 -23.3735 -4.0752 -35.4743 19.4539 -10.2362 5.4286
# 5 8.7300 7.6094 13.7581 -10.2362 59.8306 -15.0944
# 6 3.8285 7.7262 -10.2187 5.4286 -15.0944 20.3217
#
#
#
# Elastic Compliance Matrix: (Units=1/GPa)
#
#
# Indices 1 2 3 4 5 6 
#
# 1 0.008204 -0.001863 -0.003138 0.004618 -0.000454 -0.003986
# 2 -0.001863 0.031684 -0.002525 0.000997 -0.007808 -0.019031
# 3 -0.003138 -0.002525 0.010997 0.015589 0.002034 0.004428
# 4 0.004618 0.000997 0.015589 0.093449 0.008574 -0.012005
# 5 -0.000454 -0.007808 0.002034 0.008574 0.023656 0.019358
# 6 -0.003986 -0.019031 0.004428 -0.012005 0.019358 0.077007
#
#
# Mechanical properties :
#
#
# Convention : Reuss Voigt Hill
#
# Bulk Modulus (GPa) = 27.90657 70.58421 49.24539
# Shear Modulus (GPa) = 18.38282 37.42307 27.90294
#
# Velocity S-wave (km/s) = 2.88906 4.12212 3.55939
# Velocity P-wave (km/s) = 4.87851 7.39625 6.26515
#
# Compressibility (1/GPa) = 0.03583386
#
# Stress axis : x y z
#
# Youngs Moduli (GPa) = 121.89120 31.56137 90.93452
#
# Poissons Ratio (x) = 0.05879 0.28533
# Poissons Ratio (y) = 0.22704 0.22963
# Poissons Ratio (z) = 0.38247 0.07970
#
# Static dielectric constant tensor:
#      x y z
#    x 4.856360 -0.223740 0.575480 
#    y -0.223740 5.305580 -0.617860 
#    z 0.575480 -0.617860 4.415700 
# 
# 
# High freq. dielectric constant tensor:
#      x y z
#    x 1.890930 -0.006010 0.012840 
#    y -0.006010 1.815160 -0.032340 
#    z 0.012840 -0.032340 1.881250 
# 
# From -- ./inp_files/426622.got.cif
#   From: 2010.06.25/outbox.cif.g09.slc.cpg/sg2_214_cif.got.tgz:426622.got - 2010.06.27 13:26:56.
