data_PCOD8025561
_publ_section_title
;
Structure prediction by ZEFSAII (Michael W. Deem and Ramdas Pophale) SiO2 
 PCOD8025561
Probable space group: P -1
;
_chemical_formula_sum "Si O2"
_cell_formula_units_Z 16
_cell_length_a 9.052668
_cell_length_b 11.983451
_cell_length_c 14.662624
_cell_angle_alpha 72.610583
_cell_angle_beta 95.214917
_cell_angle_gamma 147.253903
_cell_volume 780.391278
_symmetry_space_group_name_H-M "P -1"
_symmetry_group_IT_number 2
_symmetry_cell_setting 'triclinic'
loop_
_space_group_symop_operation_xyz
x,y,z
-x,-y,-z
loop_
_atom_site_type_symbol
_atom_site_label
_atom_site_fract_x
_atom_site_fract_y
_atom_site_fract_z
Si Si1 0.230194 0.530557 0.785975
Si Si2 0.353306 0.189511 0.420995
Si Si3 0.784163 0.678541 0.530959
Si Si4 0.733770 0.383492 0.563941
Si Si5 0.399759 0.835614 0.208197
Si Si6 0.718327 0.658973 0.054606
Si Si7 0.296827 0.729204 0.912214
Si Si8 0.654616 0.871205 0.057074
O O1 0.401087 0.674427 0.669441
O O2 0.333341 0.477230 0.842858
O O3 0.307818 0.682665 0.824572
O O4 0.896434 0.300810 0.798978
O O5 0.271024 0.273477 0.396082
O O6 0.474255 0.231527 0.516263
O O7 0.073334 0.925579 0.440591
O O8 0.500000 0.500000 0.500000
O O9 0.834209 0.572967 0.573102
O O10 0.604946 0.213914 0.676878
O O11 0.000000 0.500000 0.500000
O O12 0.450999 0.766392 0.155801
O O13 0.656668 0.101439 0.141511
O O14 0.671409 0.743648 0.089027
O O15 0.500000 0.500000 0.000000
O O16 0.031045 0.861939 0.976690
O O17 0.544946 0.843758 0.960810
O O18 0.000000 0.500000 0.000000
#
# Coordination Sequence:
#
# PCOD8025561 Si02
#       8
#     2   2   2   2   2   2   2   2
#     4  12  24  41  71  97 130 178 218 272 342 392
#     4  10  23  45  69  97 134 174 222 274 329 397
#     4   9  22  46  67  89 134 176 216 276 327 378
#     4  11  24  43  67 100 137 170 222 277 327 396
#     4  12  26  43  68  98 133 181 221 270 340 393
#     4  11  24  44  65  97 133 171 218 277 325 391
#     4  12  24  42  68  97 133 175 222 272 332 399
#     4  11  24  44  65  93 134 171 216 276 324 394
#
# _framework density 20.502535000000002
#
# number of rings (size 3 to 8) (size 9 to 14) (size 15 to 20)
#    0.000    1.000    5.000    1.125    3.500    1.500 
#    6.750    0.000    0.000    0.000    0.000    0.000 
#    0.000    0.000    0.000    0.000    0.000    0.000 
#
# Total GULP energy -198371.277438 kJ/mol
# GULP energy per Si atom -12398.204840 kJ/mol
# Density = 2.045587 g / cm^3
# Si number density = 20.502535 Si / 1000 Ang^3
#
#
#
# Elastic Constant Matrix: (Units=GPa)
#
#
# Indices 1 2 3 4 5 6 
#
# 1 106.1754 38.3262 44.3117 -7.7422 -0.5641 -4.2985
# 2 38.3262 130.2619 47.7356 -11.7880 3.8707 6.3461
# 3 44.3117 47.7356 119.7591 1.9764 -4.2442 -0.1516
# 4 -7.7422 -11.7880 1.9764 31.9261 4.5989 0.6720
# 5 -0.5641 3.8707 -4.2442 4.5989 35.4693 0.0714
# 6 -4.2985 6.3461 -0.1516 0.6720 0.0714 32.9074
#
#
#
# Elastic Compliance Matrix: (Units=1/GPa)
#
#
# Indices 1 2 3 4 5 6 
#
# 1 0.011924 -0.002039 -0.003648 0.002374 -0.000336 0.001886
# 2 -0.002039 0.010026 -0.003378 0.003755 -0.002013 -0.002288
# 3 -0.003648 -0.003378 0.011171 -0.003125 0.002052 0.000286
# 4 0.002374 0.003755 -0.003125 0.034248 -0.005184 -0.001117
# 5 -0.000336 -0.002013 0.002052 -0.005184 0.029325 0.000396
# 6 0.001886 -0.002288 0.000286 -0.001117 0.000396 0.031099
#
#
# Mechanical properties :
#
#
# Convention : Reuss Voigt Hill
#
# Bulk Modulus (GPa) = 66.70531 68.54930 67.62731
# Shear Modulus (GPa) = 33.13018 35.11544 34.12281
#
# Velocity S-wave (km/s) = 4.02420 4.14301 4.08404
# Velocity P-wave (km/s) = 7.36193 7.50954 7.43610
#
# Compressibility (1/GPa) = 0.01499131
#
# Stress axis : x y z
#
# Youngs Moduli (GPa) = 83.86100 99.74453 89.51666
#
# Poissons Ratio (x) = 0.20335 0.32658
# Poissons Ratio (y) = 0.17096 0.30239
# Poissons Ratio (z) = 0.30594 0.33694
#
# Static dielectric constant tensor:
#      x y z
#    x 4.326250 -0.188510 0.122960 
#    y -0.188510 3.988610 -0.050450 
#    z 0.122960 -0.050450 3.346460 
# 
# 
# High freq. dielectric constant tensor:
#      x y z
#    x 1.819930 -0.001290 -0.004760 
#    y -0.001290 1.813360 -0.004540 
#    z -0.004760 -0.004540 1.785840 
# 
# From -- ./inp_files/90200.got.cif
#   From: 2010.06.25/outbox.cif.g09.slc.cpg/sg2_46_cif.got.tgz:90200.got - 2010.06.27 13:26:56.
