data_PCOD8025039
_publ_section_title
;
Structure prediction by ZEFSAII (Michael W. Deem and Ramdas Pophale) SiO2 
 PCOD8025039
Probable space group: P -1
;
_chemical_formula_sum "Si O2"
_cell_formula_units_Z 16
_cell_length_a 14.099338
_cell_length_b 8.853195
_cell_length_c 10.902917
_cell_angle_alpha 88.485206
_cell_angle_beta 40.309336
_cell_angle_gamma 111.167102
_cell_volume 710.898989
_symmetry_space_group_name_H-M "P -1"
_symmetry_group_IT_number 2
_symmetry_cell_setting 'triclinic'
loop_
_space_group_symop_operation_xyz
x,y,z
-x,-y,-z
loop_
_atom_site_type_symbol
_atom_site_label
_atom_site_fract_x
_atom_site_fract_y
_atom_site_fract_z
Si Si1 0.153643 0.706974 0.025303
Si Si2 0.851358 0.029183 0.813332
Si Si3 0.026257 0.933080 0.846179
Si Si4 0.229260 0.637952 0.494735
Si Si5 0.525438 0.613440 0.093800
Si Si6 0.691847 0.121917 0.373385
Si Si7 0.247442 0.445584 0.990652
Si Si8 0.985240 0.321866 0.465938
O O1 0.240688 0.897767 0.012447
O O2 0.283730 0.640667 0.915600
O O3 0.953931 0.555437 0.276695
O O4 0.151321 0.744222 0.883280
O O5 0.958909 0.174125 0.593523
O O6 0.993618 0.022981 0.759107
O O7 0.692763 0.832545 0.915159
O O8 0.230689 0.985848 0.639147
O O9 0.878839 0.708047 0.984985
O O10 0.000000 0.000000 0.000000
O O11 0.339403 0.587725 0.304344
O O12 0.336261 0.759712 0.505345
O O13 0.183972 0.762737 0.459263
O O14 0.500000 0.500000 0.000000
O O15 0.563201 0.528037 0.176919
O O16 0.500000 0.000000 0.500000
O O17 0.160008 0.380648 0.214572
O O18 0.000000 0.500000 0.500000
#
# Coordination Sequence:
#
# PCOD8025039 Si02
#       8
#     2   2   2   2   2   2   2   2
#     4  11  22  46  75  99 133 193 238 282 365 422
#     4  11  24  42  78  99 139 188 240 279 364 420
#     4  11  23  43  69 101 138 183 235 292 349 424
#     4  11  24  44  71 100 144 186 235 297 351 421
#     4  11  26  46  64 106 154 180 231 301 350 412
#     4  12  25  46  70 106 142 180 239 300 351 427
#     4  10  23  44  68 100 145 181 240 290 347 424
#     4  11  20  42  72 104 131 184 242 287 343 428
#
# _framework density 22.506713000000001
#
# number of rings (size 3 to 8) (size 9 to 14) (size 15 to 20)
#    0.000    1.000    6.250    1.875    1.750    2.500 
#    4.500    0.625    0.000    0.000    0.000    0.000 
#    0.000    0.000    0.000    0.000    0.000    0.000 
#
# Total GULP energy -198292.460311 kJ/mol
# GULP energy per Si atom -12393.278769 kJ/mol
# Density = 2.245549 g / cm^3
# Si number density = 22.506713 Si / 1000 Ang^3
#
#
#
# Elastic Constant Matrix: (Units=GPa)
#
#
# Indices 1 2 3 4 5 6 
#
# 1 138.2184 54.1765 43.6319 -9.2024 -3.1456 -5.0314
# 2 54.1765 146.7341 23.4447 10.3497 6.4746 10.2025
# 3 43.6319 23.4447 70.7171 9.7405 8.3157 -4.1986
# 4 -9.2024 10.3497 9.7405 30.2259 0.9400 7.0765
# 5 -3.1456 6.4746 8.3157 0.9400 42.9041 6.2494
# 6 -5.0314 10.2025 -4.1986 7.0765 6.2494 53.1056
#
#
#
# Elastic Compliance Matrix: (Units=1/GPa)
#
#
# Indices 1 2 3 4 5 6 
#
# 1 0.011451 -0.003699 -0.007107 0.006962 0.002623 -0.000003
# 2 -0.003699 0.008591 0.000018 -0.003717 -0.001293 -0.001352
# 3 -0.007107 0.000018 0.020511 -0.009273 -0.004694 0.002733
# 4 0.006962 -0.003717 -0.009273 0.040571 0.002721 -0.005086
# 5 0.002623 -0.001293 -0.004694 0.002721 0.025009 -0.003180
# 6 -0.000003 -0.001352 0.002733 -0.005086 -0.003180 0.020358
#
#
# Mechanical properties :
#
#
# Convention : Reuss Voigt Hill
#
# Bulk Modulus (GPa) = 52.69274 66.46396 59.57835
# Shear Modulus (GPa) = 32.38481 40.87488 36.62985
#
# Velocity S-wave (km/s) = 3.79739 4.26622 4.03861
# Velocity P-wave (km/s) = 6.53374 7.33910 6.94810
#
# Compressibility (1/GPa) = 0.01897795
#
# Stress axis : x y z
#
# Youngs Moduli (GPa) = 87.32572 116.39783 48.75377
#
# Poissons Ratio (x) = 0.43058 0.34647
# Poissons Ratio (y) = 0.32303 -0.00087
# Poissons Ratio (z) = 0.62059 -0.00208
#
# Static dielectric constant tensor:
#      x y z
#    x 4.645010 -0.060280 0.174160 
#    y -0.060280 4.449940 0.330980 
#    z 0.174160 0.330980 3.801920 
# 
# 
# High freq. dielectric constant tensor:
#      x y z
#    x 1.908370 0.001500 0.002020 
#    y 0.001500 1.904060 0.026600 
#    z 0.002020 0.026600 1.852780 
# 
# From -- ./inp_files/447490.got.cif
#   From: 2010.06.25/outbox.cif.g09.slc.cpg/sg2_224_cif.got.tgz:447490.got - 2010.06.27 13:26:56.
