data_PCOD8025331
_publ_section_title
;
Structure prediction by ZEFSAII (Michael W. Deem and Ramdas Pophale) SiO2 
 PCOD8025331
Probable space group: P -1
;
_chemical_formula_sum "Si O2"
_cell_formula_units_Z 16
_cell_length_a 8.490952
_cell_length_b 19.133712
_cell_length_c 5.204845
_cell_angle_alpha 105.975843
_cell_angle_beta 57.243110
_cell_angle_gamma 110.393860
_cell_volume 662.508781
_symmetry_space_group_name_H-M "P -1"
_symmetry_group_IT_number 2
_symmetry_cell_setting 'triclinic'
loop_
_space_group_symop_operation_xyz
x,y,z
-x,-y,-z
loop_
_atom_site_type_symbol
_atom_site_label
_atom_site_fract_x
_atom_site_fract_y
_atom_site_fract_z
Si Si1 0.376468 0.758523 0.183285
Si Si2 0.714496 0.333153 0.338022
Si Si3 0.043306 0.219444 0.413923
Si Si4 0.344828 0.958674 0.890617
Si Si5 0.133048 0.311718 0.933848
Si Si6 0.495319 0.450487 0.703908
Si Si7 0.356772 0.100404 0.740290
Si Si8 0.958460 0.912271 0.409254
O O1 0.401049 0.714254 0.374440
O O2 0.566311 0.828211 0.067498
O O3 0.183352 0.787383 0.406112
O O4 0.374922 0.705788 0.886390
O O5 0.681949 0.416354 0.476809
O O6 0.941959 0.341799 0.164626
O O7 0.154934 0.260031 0.107253
O O8 0.077948 0.134816 0.335872
O O9 0.132658 0.263620 0.632335
O O10 0.443848 0.912158 0.565827
O O11 0.259420 0.024466 0.903332
O O12 0.159353 0.897901 0.105499
O O13 0.500000 0.000000 0.000000
O O14 0.306232 0.383637 0.825847
O O15 0.500000 0.500000 0.500000
O O16 0.500000 0.500000 0.000000
O O17 0.216508 0.117476 0.661792
O O18 0.000000 0.000000 0.500000
#
# Coordination Sequence:
#
# PCOD8025331 Si02
#       8
#     2   2   2   2   2   2   2   2
#     4  10  23  44  73  98 141 189 243 291 362 415
#     4  10  24  46  71 108 142 185 235 284 339 440
#     4  10  24  45  72  98 144 192 238 303 354 419
#     4  11  24  45  65  88 139 179 246 300 367 440
#     4  10  24  48  71 106 142 189 236 287 352 419
#     4  12  26  46  76 113 150 185 226 286 352 432
#     4  11  26  42  66  98 130 193 236 314 366 424
#     4  12  26  44  65 103 137 190 248 305 371 428
#
# _framework density 24.150623
#
# number of rings (size 3 to 8) (size 9 to 14) (size 15 to 20)
#    0.000    1.250    1.250    2.625   10.500    2.000 
#    0.000    0.000    0.000    0.000    0.000    0.000 
#    0.000    0.000    0.000    0.000    0.000    0.000 
#
# Total GULP energy -198447.079539 kJ/mol
# GULP energy per Si atom -12402.942471 kJ/mol
# Density = 2.409566 g / cm^3
# Si number density = 24.150623 Si / 1000 Ang^3
#
#
#
# Elastic Constant Matrix: (Units=GPa)
#
#
# Indices 1 2 3 4 5 6 
#
# 1 94.9661 70.9468 41.4079 -11.8661 21.7446 -13.8600
# 2 70.9468 145.2546 54.4202 -10.4804 8.9648 -9.0389
# 3 41.4079 54.4202 92.2073 -6.3234 28.7232 -5.9145
# 4 -11.8661 -10.4804 -6.3234 46.6066 0.0088 -4.4986
# 5 21.7446 8.9648 28.7232 0.0088 46.0615 1.4328
# 6 -13.8600 -9.0389 -5.9145 -4.4986 1.4328 35.6044
#
#
#
# Elastic Compliance Matrix: (Units=1/GPa)
#
#
# Indices 1 2 3 4 5 6 
#
# 1 0.020454 -0.008395 -0.001241 0.003771 -0.007448 0.006401
# 2 -0.008395 0.012565 -0.005229 -0.000134 0.004814 -0.001157
# 3 -0.001241 -0.005229 0.017600 0.001055 -0.009422 0.001625
# 4 0.003771 -0.000134 0.001055 0.022975 -0.002560 0.004615
# 5 -0.007448 0.004814 -0.009422 -0.002560 0.030314 -0.004785
# 6 0.006401 -0.001157 0.001625 0.004615 -0.004785 0.031330
#
#
# Mechanical properties :
#
#
# Convention : Reuss Voigt Hill
#
# Bulk Modulus (GPa) = 47.87365 73.99752 60.93559
# Shear Modulus (GPa) = 29.08129 36.69804 32.88966
#
# Velocity S-wave (km/s) = 3.47387 3.90237 3.69434
# Velocity P-wave (km/s) = 5.99636 7.14221 6.59422
#
# Compressibility (1/GPa) = 0.02088832
#
# Stress axis : x y z
#
# Youngs Moduli (GPa) = 48.89086 79.58533 56.81682
#
# Poissons Ratio (x) = 0.66813 0.07053
# Poissons Ratio (y) = 0.41044 0.29709
# Poissons Ratio (z) = 0.06069 0.41615
#
# Static dielectric constant tensor:
#      x y z
#    x 4.524260 -0.028700 0.221840 
#    y -0.028700 4.945570 -0.012460 
#    z 0.221840 -0.012460 4.116710 
# 
# 
# High freq. dielectric constant tensor:
#      x y z
#    x 1.975700 -0.006760 -0.005610 
#    y -0.006760 1.950770 -0.003640 
#    z -0.005610 -0.003640 1.978940 
# 
# From -- ./inp_files/48508.got.cif
#   From: 2010.06.25/outbox.cif.g09.slc.cpg/sg2_25_cif.got.tgz:48508.got - 2010.06.27 13:26:56.
