data_PCOD8025034
_publ_section_title
;
Structure prediction by ZEFSAII (Michael W. Deem and Ramdas Pophale) SiO2 
 PCOD8025034
Probable space group: P -1
;
_chemical_formula_sum "Si O2"
_cell_formula_units_Z 14
_cell_length_a 16.192612
_cell_length_b 8.071691
_cell_length_c 22.739198
_cell_angle_alpha 41.119617
_cell_angle_beta 20.420617
_cell_angle_gamma 36.061042
_cell_volume 610.282514
_symmetry_space_group_name_H-M "P -1"
_symmetry_group_IT_number 2
_symmetry_cell_setting 'triclinic'
loop_
_space_group_symop_operation_xyz
x,y,z
-x,-y,-z
loop_
_atom_site_type_symbol
_atom_site_label
_atom_site_fract_x
_atom_site_fract_y
_atom_site_fract_z
Si Si1 0.239974 0.020853 0.513984
Si Si2 0.950126 0.084309 0.211685
Si Si3 0.587440 0.283257 0.212269
Si Si4 0.493166 0.337050 0.669687
Si Si5 0.027115 0.235103 0.310710
Si Si6 0.538518 0.867079 0.135672
Si Si7 0.986782 0.217656 0.866750
O O1 0.294050 0.295796 0.397564
O O2 0.495943 0.775226 0.374768
O O3 0.223433 0.962772 0.609129
O O4 0.982738 0.024890 0.651044
O O5 0.768932 0.376645 0.222441
O O6 0.037562 0.838992 0.170708
O O7 0.207690 0.095355 0.064336
O O8 0.561111 0.567889 0.181727
O O9 0.733281 0.228215 0.067086
O O10 0.746163 0.021626 0.220079
O O11 0.483985 0.116309 0.782806
O O12 0.763328 0.370705 0.491540
O O13 0.019431 0.475532 0.207051
O O14 0.286737 0.120908 0.207391
#
# Coordination Sequence:
#
# PCOD8025034 Si02
#       7
#     2   2   2   2   2   2   2
#     4  10  25  41  67  99 140 171 224 274 339 390
#     4  12  24  42  73 102 133 176 229 280 328 400
#     4  11  25  41  70 102 134 175 229 282 326 398
#     4  10  23  44  68 100 132 179 221 281 323 404
#     4  10  26  46  69  96 144 178 218 273 345 402
#     4  12  25  45  72  99 137 180 223 275 340 395
#     4  11  25  43  68 102 137 175 228 277 336 395
#
# _framework density 22.940196
#
# number of rings (size 3 to 8) (size 9 to 14) (size 15 to 20)
#    0.857    0.286    1.429    3.857    8.000    4.571 
#    0.000    0.000    0.000    0.000    0.000    0.000 
#    0.000    0.000    0.000    0.000    0.000    0.000 
#
# Total GULP energy -173518.211741 kJ/mol
# GULP energy per Si atom -12394.157982 kJ/mol
# Density = 2.288798 g / cm^3
# Si number density = 22.940196 Si / 1000 Ang^3
#
#
#
# Elastic Constant Matrix: (Units=GPa)
#
#
# Indices 1 2 3 4 5 6 
#
# 1 79.7234 23.1939 36.6629 5.5997 7.1263 19.6395
# 2 23.1939 51.7414 27.6401 -0.5164 -9.5943 8.8653
# 3 36.6629 27.6401 124.1179 -10.9656 -2.7472 12.9516
# 4 5.5997 -0.5164 -10.9656 30.7354 0.7966 -9.8488
# 5 7.1263 -9.5943 -2.7472 0.7966 47.5364 4.8565
# 6 19.6395 8.8653 12.9516 -9.8488 4.8565 36.5994
#
#
#
# Elastic Compliance Matrix: (Units=1/GPa)
#
#
# Indices 1 2 3 4 5 6 
#
# 1 0.019193 -0.005401 -0.004281 -0.007984 -0.003140 -0.009208
# 2 -0.005401 0.025345 -0.003692 -0.001029 0.006037 -0.003013
# 3 -0.004281 -0.003692 0.010492 0.004673 0.000354 0.000689
# 4 -0.007984 -0.001029 0.004673 0.040075 -0.000819 0.013773
# 5 -0.003140 0.006037 0.000354 -0.000819 0.023085 -0.003186
# 6 -0.009208 -0.003013 0.000689 0.013773 -0.003186 0.036879
#
#
# Mechanical properties :
#
#
# Convention : Reuss Voigt Hill
#
# Bulk Modulus (GPa) = 35.35619 47.84185 41.59902
# Shear Modulus (GPa) = 26.14449 34.17995 30.16222
#
# Velocity S-wave (km/s) = 3.37958 3.86419 3.62998
# Velocity P-wave (km/s) = 5.53846 6.38824 5.97846
#
# Compressibility (1/GPa) = 0.02828359
#
# Stress axis : x y z
#
# Youngs Moduli (GPa) = 52.10209 39.45474 95.30870
#
# Poissons Ratio (x) = 0.21310 0.40798
# Poissons Ratio (y) = 0.28142 0.35185
# Poissons Ratio (z) = 0.22303 0.14566
#
# Static dielectric constant tensor:
#      x y z
#    x 3.914630 0.142990 0.006510 
#    y 0.142990 3.725820 -0.114100 
#    z 0.006510 -0.114100 4.332040 
# 
# 
# High freq. dielectric constant tensor:
#      x y z
#    x 1.899000 0.012820 0.006170 
#    y 0.012820 1.874860 -0.009040 
#    z 0.006170 -0.009040 1.925000 
# 
# From -- ./inp_files/612807.got.cif
#   From: 2010.06.25/outbox.cif.g09.slc.cpg/sg2_307_cif.got.tgz:612807.got - 2010.06.27 13:26:56.
