data_PCOD8025330
_publ_section_title
;
Structure prediction by ZEFSAII (Michael W. Deem and Ramdas Pophale) SiO2 
 PCOD8025330
Probable space group: P -1
;
_chemical_formula_sum "Si O2"
_cell_formula_units_Z 14
_cell_length_a 8.411387
_cell_length_b 6.569952
_cell_length_c 19.625348
_cell_angle_alpha 135.270567
_cell_angle_beta 59.203930
_cell_angle_gamma 120.048307
_cell_volume 638.577833
_symmetry_space_group_name_H-M "P -1"
_symmetry_group_IT_number 2
_symmetry_cell_setting 'triclinic'
loop_
_space_group_symop_operation_xyz
x,y,z
-x,-y,-z
loop_
_atom_site_type_symbol
_atom_site_label
_atom_site_fract_x
_atom_site_fract_y
_atom_site_fract_z
Si Si1 0.637102 0.334166 0.970313
Si Si2 0.404193 0.311297 0.136949
Si Si3 0.839793 0.672419 0.306390
Si Si4 0.921541 0.705509 0.905604
Si Si5 0.428190 0.655530 0.342999
Si Si6 0.876301 0.738406 0.593007
Si Si7 0.684645 0.744088 0.498079
O O1 0.606081 0.398619 0.072748
O O2 0.500000 0.500000 0.000000
O O3 0.844128 0.463149 0.924111
O O4 0.592980 0.977629 0.886223
O O5 0.234841 0.247822 0.103881
O O6 0.382480 0.576580 0.254857
O O7 0.650980 0.695781 0.313960
O O8 0.797402 0.622086 0.384146
O O9 0.909537 0.390791 0.195183
O O10 0.001766 0.969917 0.327605
O O11 0.000000 0.000000 0.000000
O O12 0.312185 0.393983 0.353887
O O13 0.373000 0.961618 0.447032
O O14 0.821616 0.831826 0.552741
O O15 0.000000 0.500000 0.500000
O O16 0.500000 0.500000 0.500000
#
# Coordination Sequence:
#
# PCOD8025330 Si02
#       7
#     2   2   2   2   2   2   2
#     4   9  21  44  70  93 134 175 235 279 341 399
#     4  10  23  44  73  98 135 184 227 284 352 402
#     4  12  26  46  70 106 139 182 236 285 344 413
#     4  11  26  45  68 101 141 178 233 287 341 411
#     4  12  26  46  72 105 142 181 231 284 349 416
#     4  12  25  45  75  99 145 184 228 287 342 412
#     4  12  25  47  71 103 144 185 227 283 348 415
#
# _framework density 21.923718000000001
#
# number of rings (size 3 to 8) (size 9 to 14) (size 15 to 20)
#    0.000    0.857    2.857    3.429    8.000    2.857 
#    5.143    0.000    0.000    0.000    0.000    0.000 
#    0.000    0.000    0.000    0.000    0.000    0.000 
#
# Total GULP energy -173608.253649 kJ/mol
# GULP energy per Si atom -12400.589546 kJ/mol
# Density = 2.187382 g / cm^3
# Si number density = 21.923718 Si / 1000 Ang^3
#
#
#
# Elastic Constant Matrix: (Units=GPa)
#
#
# Indices 1 2 3 4 5 6 
#
# 1 120.6309 39.7438 47.4328 2.1221 4.9498 2.0912
# 2 39.7438 141.6928 55.3196 -9.2523 -0.1049 8.5527
# 3 47.4328 55.3196 170.2441 -6.9291 -2.6933 6.7810
# 4 2.1221 -9.2523 -6.9291 35.5937 0.6935 -1.8228
# 5 4.9498 -0.1049 -2.6933 0.6935 40.0580 2.9403
# 6 2.0912 8.5527 6.7810 -1.8228 2.9403 32.4675
#
#
#
# Elastic Compliance Matrix: (Units=1/GPa)
#
#
# Indices 1 2 3 4 5 6 
#
# 1 0.009902 -0.002044 -0.002193 -0.001501 -0.001380 0.000399
# 2 -0.002044 0.008674 -0.002104 0.001879 0.000221 -0.001628
# 3 -0.002193 -0.002104 0.007253 0.000937 0.000799 -0.000839
# 4 -0.001501 0.001879 0.000937 0.028916 -0.000325 0.001059
# 5 -0.001380 0.000221 0.000799 -0.000325 0.025374 -0.002452
# 6 0.000399 -0.001628 -0.000839 0.001059 -0.002452 0.031660
#
#
# Mechanical properties :
#
#
# Convention : Reuss Voigt Hill
#
# Bulk Modulus (GPa) = 76.07465 79.72891 77.90178
# Shear Modulus (GPa) = 38.80689 40.96196 39.88443
#
# Velocity S-wave (km/s) = 4.21180 4.32717 4.26988
# Velocity P-wave (km/s) = 7.64378 7.83654 7.74076
#
# Compressibility (1/GPa) = 0.01314498
#
# Stress axis : x y z
#
# Youngs Moduli (GPa) = 100.99173 115.29364 137.87553
#
# Poissons Ratio (x) = 0.23568 0.30242
# Poissons Ratio (y) = 0.20645 0.29009
# Poissons Ratio (z) = 0.22152 0.24258
#
# Static dielectric constant tensor:
#      x y z
#    x 4.129740 0.145610 -0.180230 
#    y 0.145610 4.398210 -0.312370 
#    z -0.180230 -0.312370 4.204920 
# 
# 
# High freq. dielectric constant tensor:
#      x y z
#    x 1.856190 0.001100 -0.007200 
#    y 0.001100 1.870000 -0.010240 
#    z -0.007200 -0.010240 1.875620 
# 
# From -- ./inp_files/107731.got.cif
#   From: 2010.06.25/outbox.cif.g09.slc.cpg/sg2_54_cif.got.tgz:107731.got - 2010.06.27 13:26:56.
