data_PCOD8025121
_publ_section_title
;
Structure prediction by ZEFSAII (Michael W. Deem and Ramdas Pophale) SiO2 
 PCOD8025121
Probable space group: P -1
;
_chemical_formula_sum "Si O2"
_cell_formula_units_Z 16
_cell_length_a 11.232767
_cell_length_b 13.170317
_cell_length_c 11.430832
_cell_angle_alpha 78.000477
_cell_angle_beta 123.971101
_cell_angle_gamma 146.727383
_cell_volume 632.262337
_symmetry_space_group_name_H-M "P -1"
_symmetry_group_IT_number 2
_symmetry_cell_setting 'triclinic'
loop_
_space_group_symop_operation_xyz
x,y,z
-x,-y,-z
loop_
_atom_site_type_symbol
_atom_site_label
_atom_site_fract_x
_atom_site_fract_y
_atom_site_fract_z
Si Si1 0.321475 0.085071 0.673891
Si Si2 0.112808 0.869376 0.074886
Si Si3 0.661509 0.283288 0.420917
Si Si4 0.623706 0.703193 0.815084
Si Si5 0.639312 0.427131 0.051328
Si Si6 0.111054 0.561905 0.244810
Si Si7 0.835226 0.169948 0.149135
Si Si8 0.737786 0.733486 0.306341
O O1 0.666161 0.264139 0.784794
O O2 0.349421 0.227436 0.665362
O O3 0.170558 0.931763 0.740896
O O4 0.086637 0.916229 0.475883
O O5 0.895842 0.675055 0.096782
O O6 0.457612 0.080998 0.268903
O O7 0.077843 0.803714 0.941333
O O8 0.994627 0.915332 0.991984
O O9 0.466380 0.265863 0.333789
O O10 0.710985 0.277309 0.582317
O O11 0.000000 0.500000 0.500000
O O12 0.416458 0.607290 0.834351
O O13 0.501369 0.514071 0.744377
O O14 0.771014 0.399433 0.085905
O O15 0.311091 0.248226 0.854161
O O16 0.065112 0.408240 0.265059
O O17 0.500000 0.000000 0.000000
#
# Coordination Sequence:
#
# PCOD8025121 Si02
#       8
#     2   2   2   2   2   2   2   2
#     4  11  26  45  76 105 144 189 240 306 360 427
#     4  11  26  45  73 106 140 197 241 292 367 429
#     4  12  26  46  68 110 148 185 239 303 362 429
#     4  11  24  45  73 101 145 190 239 295 357 440
#     4  11  24  45  73 101 146 191 241 292 358 440
#     4  12  26  46  75 108 145 191 241 297 369 432
#     4  12  26  48  75 106 150 189 244 299 360 438
#     4  10  23  44  69 104 140 183 241 294 353 420
#
# _framework density 25.305948999999998
#
# number of rings (size 3 to 8) (size 9 to 14) (size 15 to 20)
#    0.000    0.750    1.250    6.375    5.250    5.000 
#    0.000    6.250    0.000    0.000    0.000    0.000 
#    0.000    0.000    0.000    0.000    0.000    0.000 
#
# Total GULP energy -198259.534996 kJ/mol
# GULP energy per Si atom -12391.220937 kJ/mol
# Density = 2.524835 g / cm^3
# Si number density = 25.305949 Si / 1000 Ang^3
#
#
#
# Elastic Constant Matrix: (Units=GPa)
#
#
# Indices 1 2 3 4 5 6 
#
# 1 76.2866 2.6916 16.4953 2.4674 3.2569 5.3983
# 2 2.6916 57.5834 12.5605 -6.3561 -3.5092 9.3575
# 3 16.4953 12.5605 103.7279 9.6111 -4.6176 -2.0061
# 4 2.4674 -6.3561 9.6111 27.9899 1.1732 12.0720
# 5 3.2569 -3.5092 -4.6176 1.1732 41.3301 -0.4996
# 6 5.3983 9.3575 -2.0061 12.0720 -0.4996 35.2634
#
#
#
# Elastic Compliance Matrix: (Units=1/GPa)
#
#
# Indices 1 2 3 4 5 6 
#
# 1 0.013844 0.000335 -0.002440 0.000907 -0.001393 -0.002677
# 2 0.000335 0.020760 -0.003611 0.009815 0.000944 -0.009112
# 3 -0.002440 -0.003611 0.011190 -0.006290 0.001364 0.004141
# 4 0.000907 0.009815 -0.006290 0.048629 -0.001560 -0.019771
# 5 -0.001393 0.000944 0.001364 -0.001560 0.024593 0.000923
# 6 -0.002677 -0.009112 0.004141 -0.019771 0.000923 0.038203
#
#
# Mechanical properties :
#
#
# Convention : Reuss Voigt Hill
#
# Bulk Modulus (GPa) = 29.10160 33.45473 31.27817
# Shear Modulus (GPa) = 27.76197 34.64005 31.20101
#
# Velocity S-wave (km/s) = 3.31577 3.70381 3.51515
# Velocity P-wave (km/s) = 5.11703 5.61603 5.37233
#
# Compressibility (1/GPa) = 0.03436237
#
# Stress axis : x y z
#
# Youngs Moduli (GPa) = 72.23443 48.17014 89.36940
#
# Poissons Ratio (x) = -0.01615 0.21805
# Poissons Ratio (y) = -0.02422 0.32269
# Poissons Ratio (z) = 0.17625 0.17393
#
# Static dielectric constant tensor:
#      x y z
#    x 4.429030 -0.581180 0.154550 
#    y -0.581180 4.442690 0.075500 
#    z 0.154550 0.075500 5.079340 
# 
# 
# High freq. dielectric constant tensor:
#      x y z
#    x 2.015410 -0.009270 0.005460 
#    y -0.009270 1.999020 0.006610 
#    z 0.005460 0.006610 2.025110 
# 
# From -- ./inp_files/433957.got.cif
#   From: 2010.06.25/outbox.cif.g09.slc.cpg/sg2_217_cif.got.tgz:433957.got - 2010.06.27 13:26:56.
