data_PCOD8025523
_publ_section_title
;
Structure prediction by ZEFSAII (Michael W. Deem and Ramdas Pophale) SiO2 
 PCOD8025523
Probable space group: P -1
;
_chemical_formula_sum "Si O2"
_cell_formula_units_Z 16
_cell_length_a 14.538206
_cell_length_b 5.238659
_cell_length_c 9.707263
_cell_angle_alpha 91.957439
_cell_angle_beta 75.144214
_cell_angle_gamma 72.043147
_cell_volume 674.619583
_symmetry_space_group_name_H-M "P -1"
_symmetry_group_IT_number 2
_symmetry_cell_setting 'triclinic'
loop_
_space_group_symop_operation_xyz
x,y,z
-x,-y,-z
loop_
_atom_site_type_symbol
_atom_site_label
_atom_site_fract_x
_atom_site_fract_y
_atom_site_fract_z
Si Si1 0.656480 0.006566 0.211804
Si Si2 0.020391 0.090552 0.642570
Si Si3 0.547578 0.914982 0.832286
Si Si4 0.169535 0.526150 0.850545
Si Si5 0.238276 0.811637 0.591154
Si Si6 0.968658 0.625760 0.812795
Si Si7 0.676708 0.300974 0.740332
Si Si8 0.793606 0.092484 0.953505
O O1 0.732948 0.713057 0.145421
O O2 0.540229 0.030847 0.247676
O O3 0.676673 0.106623 0.356557
O O4 0.686264 0.170477 0.077500
O O5 0.957701 0.406879 0.701422
O O6 0.138130 0.068767 0.609250
O O7 0.988170 0.894661 0.754081
O O8 0.000000 0.000000 0.500000
O O9 0.608824 0.599531 0.813324
O O10 0.616217 0.089270 0.763083
O O11 0.500000 0.000000 0.000000
O O12 0.200952 0.605621 0.690209
O O13 0.063160 0.468066 0.872835
O O14 0.142685 0.754130 0.984093
O O15 0.283511 0.679112 0.427348
O O16 0.858672 0.766573 0.929118
O O17 0.771013 0.194443 0.806863
#
# Coordination Sequence:
#
# PCOD8025523 Si02
#       8
#     2   2   2   2   2   2   2   2
#     4  11  24  45  73  94 147 185 229 294 353 412
#     4  11  23  43  66  99 148 188 224 286 347 411
#     4  12  27  48  73 103 139 179 231 296 360 406
#     4  10  23  45  69 101 148 187 228 288 350 416
#     4  10  25  45  68 104 140 186 230 286 351 413
#     4  11  24  41  68 104 138 185 238 280 339 419
#     4  12  28  46  74 105 137 177 243 289 343 428
#     4  11  25  42  71 106 137 190 235 290 347 415
#
# _framework density 23.717072999999999
#
# number of rings (size 3 to 8) (size 9 to 14) (size 15 to 20)
#    0.000    1.000    2.500    2.625    7.000    2.500 
#    0.000    0.000    0.000    0.000    0.000    0.000 
#    0.000    0.000    0.000    0.000    0.000    0.000 
#
# Total GULP energy -198349.444229 kJ/mol
# GULP energy per Si atom -12396.840264 kJ/mol
# Density = 2.366309 g / cm^3
# Si number density = 23.717073 Si / 1000 Ang^3
#
#
#
# Elastic Constant Matrix: (Units=GPa)
#
#
# Indices 1 2 3 4 5 6 
#
# 1 108.0494 32.7393 38.3812 -0.8248 18.2660 -7.5056
# 2 32.7393 118.7871 26.2580 26.2226 9.5371 -11.7371
# 3 38.3812 26.2580 131.9247 12.1247 18.0708 -3.4976
# 4 -0.8248 26.2226 12.1247 35.9187 0.3153 0.3882
# 5 18.2660 9.5371 18.0708 0.3153 31.6364 1.2938
# 6 -7.5056 -11.7371 -3.4976 0.3882 1.2938 39.1109
#
#
#
# Elastic Compliance Matrix: (Units=1/GPa)
#
#
# Indices 1 2 3 4 5 6 
#
# 1 0.011951 -0.002968 -0.002520 0.003318 -0.004653 0.001299
# 2 -0.002968 0.011608 -0.000371 -0.008436 -0.001614 0.003018
# 3 -0.002520 -0.000371 0.009159 -0.002851 -0.003652 0.000373
# 4 0.003318 -0.008436 -0.002851 0.035048 0.002011 -0.002564
# 5 -0.004653 -0.001614 -0.003652 0.002011 0.036968 -0.002947
# 6 0.001299 0.003018 0.000373 -0.002564 -0.002947 0.026880
#
#
# Mechanical properties :
#
#
# Convention : Reuss Voigt Hill
#
# Bulk Modulus (GPa) = 47.61264 61.50201 54.55732
# Shear Modulus (GPa) = 33.25977 38.75872 36.00924
#
# Velocity S-wave (km/s) = 3.74887 4.04692 3.90074
# Velocity P-wave (km/s) = 6.23358 6.91554 6.58339
#
# Compressibility (1/GPa) = 0.02100283
#
# Stress axis : x y z
#
# Youngs Moduli (GPa) = 83.67266 86.14470 109.18149
#
# Poissons Ratio (x) = 0.25565 0.27509
# Poissons Ratio (y) = 0.24831 0.04048
# Poissons Ratio (z) = 0.21082 0.03194
#
# Static dielectric constant tensor:
#      x y z
#    x 4.771350 -0.161950 0.161380 
#    y -0.161950 4.363990 -0.159980 
#    z 0.161380 -0.159980 4.377430 
# 
# 
# High freq. dielectric constant tensor:
#      x y z
#    x 1.945840 -0.000600 0.004180 
#    y -0.000600 1.940150 0.001790 
#    z 0.004180 0.001790 1.946730 
# 
# From -- ./inp_files/126961.got.cif
#   From: 2010.06.25/outbox.cif.g09.slc.cpg/sg2_64_cif.got.tgz:126961.got - 2010.06.27 13:26:56.
