data_PCOD8025542
_publ_section_title
;
Structure prediction by ZEFSAII (Michael W. Deem and Ramdas Pophale) SiO2 
 PCOD8025542
Probable space group: P -1
;
_chemical_formula_sum "Si O2"
_cell_formula_units_Z 14
_cell_length_a 21.500393
_cell_length_b 4.998945
_cell_length_c 5.497705
_cell_angle_alpha 92.464580
_cell_angle_beta 81.932926
_cell_angle_gamma 120.507300
_cell_volume 503.775363
_symmetry_space_group_name_H-M "P -1"
_symmetry_group_IT_number 2
_symmetry_cell_setting 'triclinic'
loop_
_space_group_symop_operation_xyz
x,y,z
-x,-y,-z
loop_
_atom_site_type_symbol
_atom_site_label
_atom_site_fract_x
_atom_site_fract_y
_atom_site_fract_z
Si Si1 0.436811 0.299848 0.840262
Si Si2 0.183706 0.615561 0.092116
Si Si3 0.885973 0.213670 0.477907
Si Si4 0.262801 0.128066 0.690253
Si Si5 0.604242 0.296610 0.409005
Si Si6 0.930430 0.811362 0.195420
Si Si7 0.325872 0.882061 0.265862
O O1 0.361459 0.119368 0.029106
O O2 0.500000 0.500000 0.000000
O O3 0.435780 0.511380 0.626567
O O4 0.447961 0.034435 0.701202
O O5 0.117466 0.640264 0.257966
O O6 0.242260 0.602875 0.241062
O O7 0.143312 0.305972 0.934150
O O8 0.231433 0.934710 0.940577
O O9 0.926304 0.499367 0.279379
O O10 0.803206 0.954005 0.456974
O O11 0.930255 0.027772 0.427461
O O12 0.312185 0.497957 0.742855
O O13 0.320802 0.060398 0.514512
O O14 0.621694 0.255388 0.682409
O O15 0.000000 0.000000 0.000000
#
# Coordination Sequence:
#
# PCOD8025542 Si02
#       7
#     2   2   2   2   2   2   2
#     4  12  29  48  71 105 149 195 241 298 369 443
#     4  10  23  47  71 110 146 193 245 314 369 436
#     4  10  25  40  71 103 139 191 243 300 372 423
#     4  10  23  45  69 109 138 183 244 309 358 432
#     4  12  25  47  71 105 141 185 248 299 360 443
#     4  11  25  47  69 105 151 192 245 299 357 448
#     4  11  24  46  75 104 145 191 244 309 375 424
#
# _framework density 27.790164999999998
#
# number of rings (size 3 to 8) (size 9 to 14) (size 15 to 20)
#    0.000    1.143    2.857    0.857   10.000    4.571 
#    2.571    0.000    0.000    0.000    0.000    0.000 
#    0.000    0.000    0.000    0.000    0.000    0.000 
#
# Total GULP energy -173446.779942 kJ/mol
# GULP energy per Si atom -12389.055710 kJ/mol
# Density = 2.772691 g / cm^3
# Si number density = 27.790165 Si / 1000 Ang^3
#
#
#
# Elastic Constant Matrix: (Units=GPa)
#
#
# Indices 1 2 3 4 5 6 
#
# 1 44.9502 15.6009 -1.3249 -7.5075 -1.1124 -19.8708
# 2 15.6009 133.5919 1.3699 2.5210 12.1379 -7.6740
# 3 -1.3249 1.3699 58.6063 9.8137 2.1318 -17.4018
# 4 -7.5075 2.5210 9.8137 24.8473 -7.5135 -1.6834
# 5 -1.1124 12.1379 2.1318 -7.5135 36.8744 3.5850
# 6 -19.8708 -7.6740 -17.4018 -1.6834 3.5850 47.6576
#
#
#
# Elastic Compliance Matrix: (Units=1/GPa)
#
#
# Indices 1 2 3 4 5 6 
#
# 1 0.031412 -0.003339 0.003071 0.010351 0.002632 0.013849
# 2 -0.003339 0.008261 0.000448 -0.003063 -0.003495 0.000256
# 3 0.003071 0.000448 0.021328 -0.008078 -0.003822 0.009143
# 4 0.010351 -0.003063 -0.008078 0.050600 0.011926 0.001763
# 5 0.002632 -0.003495 -0.003822 0.011926 0.031271 -0.002792
# 6 0.013849 0.000256 0.009143 0.001763 -0.002792 0.030409
#
#
# Mechanical properties :
#
#
# Convention : Reuss Voigt Hill
#
# Bulk Modulus (GPa) = 16.29690 29.82671 23.06181
# Shear Modulus (GPa) = 25.85637 36.64268 31.24953
#
# Velocity S-wave (km/s) = 3.05358 3.63512 3.35697
# Velocity P-wave (km/s) = 4.27896 5.32681 4.83138
#
# Compressibility (1/GPa) = 0.06136136
#
# Stress axis : x y z
#
# Youngs Moduli (GPa) = 31.83494 121.05290 46.88593
#
# Poissons Ratio (x) = 0.40416 -0.14400
# Poissons Ratio (y) = 0.10629 -0.02098
# Poissons Ratio (z) = -0.09777 -0.05418
#
# Static dielectric constant tensor:
#      x y z
#    x 4.897620 0.254060 0.082240 
#    y 0.254060 5.377490 0.092050 
#    z 0.082240 0.092050 5.060160 
# 
# 
# High freq. dielectric constant tensor:
#      x y z
#    x 2.106450 0.018970 0.006580 
#    y 0.018970 2.138810 -0.002460 
#    z 0.006580 -0.002460 2.113700 
# 
# From -- ./inp_files/114830.got.cif
#   From: 2010.06.25/outbox.cif.g09.slc.cpg/sg2_58_cif.got.tgz:114830.got - 2010.06.27 13:26:56.
