data_PCOD8025553
_publ_section_title
;
Structure prediction by ZEFSAII (Michael W. Deem and Ramdas Pophale) SiO2 
 PCOD8025553
Probable space group: P -1
;
_chemical_formula_sum "Si O2"
_cell_formula_units_Z 16
_cell_length_a 9.089107
_cell_length_b 12.073342
_cell_length_c 8.843996
_cell_angle_alpha 98.187878
_cell_angle_beta 127.956989
_cell_angle_gamma 93.233024
_cell_volume 744.411706
_symmetry_space_group_name_H-M "P -1"
_symmetry_group_IT_number 2
_symmetry_cell_setting 'triclinic'
loop_
_space_group_symop_operation_xyz
x,y,z
-x,-y,-z
loop_
_atom_site_type_symbol
_atom_site_label
_atom_site_fract_x
_atom_site_fract_y
_atom_site_fract_z
Si Si1 0.485285 0.862916 0.147132
Si Si2 0.657176 0.052512 0.485233
Si Si3 0.563030 0.663177 0.343998
Si Si4 0.441245 0.779229 0.779679
Si Si5 0.205023 0.537647 0.565340
Si Si6 0.246357 0.277569 0.224311
Si Si7 0.196684 0.523824 0.214728
Si Si8 0.107306 0.897596 0.082918
O O1 0.538302 0.741577 0.200760
O O2 0.296144 0.897353 0.105172
O O3 0.660233 0.957927 0.337692
O O4 0.461621 0.864290 0.951729
O O5 0.635654 0.167398 0.407459
O O6 0.850966 0.089282 0.708776
O O7 0.500000 0.000000 0.500000
O O8 0.673570 0.562019 0.348820
O O9 0.669706 0.743695 0.561043
O O10 0.346377 0.618876 0.245847
O O11 0.313813 0.657918 0.724165
O O12 0.652419 0.768637 0.862196
O O13 0.167483 0.562930 0.372914
O O14 0.000000 0.500000 0.500000
O O15 0.288007 0.412189 0.257724
O O16 0.025826 0.222362 0.064400
O O17 0.000000 0.500000 0.000000
O O18 0.000000 0.000000 0.000000
#
# Coordination Sequence:
#
# PCOD8025553 Si02
#       8
#     2   2   2   2   2   2   2   2
#     4  11  25  42  70  99 137 177 220 285 344 396
#     4  10  23  45  69  93 129 175 223 280 331 402
#     4  11  22  46  66  98 140 183 230 269 331 410
#     4  12  24  44  67  99 140 175 222 276 349 398
#     4  11  26  43  66 101 144 182 219 284 337 395
#     4  11  21  40  65  94 129 178 225 274 328 396
#     4  11  23  39  67  94 132 180 234 267 322 409
#     4  11  23  42  70  99 125 175 234 275 332 412
#
# _framework density 21.493483000000001
#
# number of rings (size 3 to 8) (size 9 to 14) (size 15 to 20)
#    0.000    1.000    2.500    5.625    7.000    1.500 
#    0.000    1.250    0.000    0.000    0.000    0.000 
#    0.000    0.000    0.000    0.000    0.000    0.000 
#
# Total GULP energy -198335.330540 kJ/mol
# GULP energy per Si atom -12395.958159 kJ/mol
# Density = 2.144456 g / cm^3
# Si number density = 21.493483 Si / 1000 Ang^3
#
#
#
# Elastic Constant Matrix: (Units=GPa)
#
#
# Indices 1 2 3 4 5 6 
#
# 1 87.5714 21.1157 32.8203 0.2976 -2.3671 -10.3670
# 2 21.1157 81.5698 22.4044 1.4908 -5.4837 -2.9126
# 3 32.8203 22.4044 141.1899 10.9573 -4.0221 -6.7720
# 4 0.2976 1.4908 10.9573 42.4201 -0.6148 0.0941
# 5 -2.3671 -5.4837 -4.0221 -0.6148 32.8851 6.8180
# 6 -10.3670 -2.9126 -6.7720 0.0941 6.8180 27.6124
#
#
#
# Elastic Compliance Matrix: (Units=1/GPa)
#
#
# Indices 1 2 3 4 5 6 
#
# 1 0.013528 -0.002696 -0.002579 0.000647 -0.000676 0.004327
# 2 -0.002696 0.013479 -0.001474 -0.000045 0.001963 -0.000437
# 3 -0.002579 -0.001474 0.008121 -0.002024 0.000361 0.000786
# 4 0.000647 -0.000045 -0.002024 0.024099 0.000330 -0.000422
# 5 -0.000676 0.001963 0.000361 0.000330 0.032388 -0.007956
# 6 0.004327 -0.000437 0.000786 -0.000422 -0.007956 0.039953
#
#
# Mechanical properties :
#
#
# Convention : Reuss Voigt Hill
#
# Bulk Modulus (GPa) = 46.23069 51.44577 48.83823
# Shear Modulus (GPa) = 32.83528 36.18290 34.50909
#
# Velocity S-wave (km/s) = 3.91280 4.10742 4.01129
# Velocity P-wave (km/s) = 6.47837 6.81777 6.65023
#
# Compressibility (1/GPa) = 0.02163065
#
# Stress axis : x y z
#
# Youngs Moduli (GPa) = 73.92307 74.18716 123.13751
#
# Poissons Ratio (x) = 0.20004 0.31752
# Poissons Ratio (y) = 0.19932 0.18147
# Poissons Ratio (z) = 0.19062 0.10933
#
# Static dielectric constant tensor:
#      x y z
#    x 3.577220 -0.077210 -0.019200 
#    y -0.077210 4.099380 0.135470 
#    z -0.019200 0.135470 4.440040 
# 
# 
# High freq. dielectric constant tensor:
#      x y z
#    x 1.819870 -0.001190 -0.001860 
#    y -0.001190 1.857810 0.006730 
#    z -0.001860 0.006730 1.859130 
# 
# From -- ./inp_files/186418.got.cif
#   From: 2010.06.25/outbox.cif.g09.slc.cpg/sg2_94_cif.got.tgz:186418.got - 2010.06.27 13:26:56.
