data_PCOD8025619
_publ_section_title
;
Structure prediction by ZEFSAII (Michael W. Deem and Ramdas Pophale) SiO2 
 PCOD8025619
Probable space group: P -1
;
_chemical_formula_sum "Si O2"
_cell_formula_units_Z 16
_cell_length_a 15.344753
_cell_length_b 9.534886
_cell_length_c 17.186524
_cell_angle_alpha 41.962657
_cell_angle_beta 152.124143
_cell_angle_gamma 142.486520
_cell_volume 707.955290
_symmetry_space_group_name_H-M "P -1"
_symmetry_group_IT_number 2
_symmetry_cell_setting 'triclinic'
loop_
_space_group_symop_operation_xyz
x,y,z
-x,-y,-z
loop_
_atom_site_type_symbol
_atom_site_label
_atom_site_fract_x
_atom_site_fract_y
_atom_site_fract_z
Si Si1 0.707025 0.975665 0.365627
Si Si2 0.005376 0.180850 0.242268
Si Si3 0.336974 0.102297 0.344013
Si Si4 0.764094 0.398759 0.329709
Si Si5 0.364831 0.334888 0.114032
Si Si6 0.299237 0.794030 0.891773
Si Si7 0.887582 0.833376 0.158882
Si Si8 0.391613 0.492321 0.338022
O O1 0.875838 0.899322 0.565791
O O2 0.485794 0.751356 0.269106
O O3 0.673624 0.134015 0.339582
O O4 0.777862 0.115072 0.282877
O O5 0.148512 0.385638 0.211197
O O6 0.871594 0.279148 0.144983
O O7 0.864848 0.968590 0.161662
O O8 0.273526 0.190671 0.179342
O O9 0.443500 0.324624 0.391849
O O10 0.500000 0.000000 0.500000
O O11 0.129363 0.909360 0.299422
O O12 0.610621 0.405961 0.273175
O O13 0.765895 0.559414 0.193243
O O14 0.000000 0.500000 0.500000
O O15 0.331926 0.567967 0.990434
O O16 0.239426 0.150213 0.023146
O O17 0.500000 0.000000 0.000000
O O18 0.500000 0.500000 0.500000
#
# Coordination Sequence:
#
# PCOD8025619 Si02
#       8
#     2   2   2   2   2   2   2   2
#     4  11  23  44  72 101 137 186 237 283 342 413
#     4  10  23  45  70  99 140 186 235 278 336 419
#     4  11  25  47  72 101 140 182 234 291 338 418
#     4  12  24  44  73 100 136 183 237 289 346 416
#     4  12  27  45  68 104 139 180 231 287 358 413
#     4  12  26  43  66 103 146 181 226 291 348 408
#     4  11  23  45  68 103 137 180 234 280 354 411
#     4   9  22  44  68 101 131 176 233 276 340 399
#
# _framework density 22.600297000000001
#
# number of rings (size 3 to 8) (size 9 to 14) (size 15 to 20)
#    0.000    1.000    2.500    3.375    5.250    2.000 
#    9.000    1.875    0.000    0.000    0.000    0.000 
#    0.000    0.000    0.000    0.000    0.000    0.000 
#
# Total GULP energy -198360.581933 kJ/mol
# GULP energy per Si atom -12397.536371 kJ/mol
# Density = 2.254886 g / cm^3
# Si number density = 22.600297 Si / 1000 Ang^3
#
#
#
# Elastic Constant Matrix: (Units=GPa)
#
#
# Indices 1 2 3 4 5 6 
#
# 1 130.0400 39.5889 39.1449 -4.6824 19.0630 -14.9221
# 2 39.5889 119.3862 27.3926 -6.5939 15.8459 -11.2281
# 3 39.1449 27.3926 67.1540 5.1956 7.4716 -19.4759
# 4 -4.6824 -6.5939 5.1956 26.3121 -3.2877 -7.9325
# 5 19.0630 15.8459 7.4716 -3.2877 47.3950 3.2430
# 6 -14.9221 -11.2281 -19.4759 -7.9325 3.2430 33.4217
#
#
#
# Elastic Compliance Matrix: (Units=1/GPa)
#
#
# Indices 1 2 3 4 5 6 
#
# 1 0.010349 -0.001634 -0.004583 0.002677 -0.002866 0.002314
# 2 -0.001634 0.010185 -0.002564 0.003136 -0.002274 0.002163
# 3 -0.004583 -0.002564 0.021673 -0.003184 -0.001561 0.009118
# 4 0.002677 0.003136 -0.003184 0.043165 0.000648 0.010575
# 5 -0.002866 -0.002274 -0.001561 0.000648 0.023652 -0.005095
# 6 0.002314 0.002163 0.009118 0.010575 -0.005095 0.039998
#
#
# Mechanical properties :
#
#
# Convention : Reuss Voigt Hill
#
# Bulk Modulus (GPa) = 40.57802 58.75922 49.66862
# Shear Modulus (GPa) = 28.60413 35.45601 32.03007
#
# Velocity S-wave (km/s) = 3.56146 3.96514 3.76871
# Velocity P-wave (km/s) = 5.90810 6.85703 6.40018
#
# Compressibility (1/GPa) = 0.02464389
#
# Stress axis : x y z
#
# Youngs Moduli (GPa) = 96.62560 98.18480 46.14071
#
# Poissons Ratio (x) = 0.16047 0.21146
# Poissons Ratio (y) = 0.15792 0.11831
# Poissons Ratio (z) = 0.44283 0.25177
#
# Static dielectric constant tensor:
#      x y z
#    x 4.451140 0.397950 -0.190000 
#    y 0.397950 4.909520 -0.034380 
#    z -0.190000 -0.034380 3.941500 
# 
# 
# High freq. dielectric constant tensor:
#      x y z
#    x 1.905860 -0.000390 -0.010150 
#    y -0.000390 1.899190 0.003200 
#    z -0.010150 0.003200 1.880020 
# 
# From -- ./inp_files/188465.got.cif
#   From: 2010.06.25/outbox.cif.g09.slc.cpg/sg2_95_cif.got.tgz:188465.got - 2010.06.27 13:26:56.
