data_PCOD8025514
_publ_section_title
;
Structure prediction by ZEFSAII (Michael W. Deem and Ramdas Pophale) SiO2 
 PCOD8025514
Probable space group: P -1
;
_chemical_formula_sum "Si O2"
_cell_formula_units_Z 16
_cell_length_a 15.912133
_cell_length_b 9.107079
_cell_length_c 8.964995
_cell_angle_alpha 75.452415
_cell_angle_beta 115.381378
_cell_angle_gamma 142.636548
_cell_volume 702.754818
_symmetry_space_group_name_H-M "P -1"
_symmetry_group_IT_number 2
_symmetry_cell_setting 'triclinic'
loop_
_space_group_symop_operation_xyz
x,y,z
-x,-y,-z
loop_
_atom_site_type_symbol
_atom_site_label
_atom_site_fract_x
_atom_site_fract_y
_atom_site_fract_z
Si Si1 0.480030 0.575810 0.673695
Si Si2 0.515422 0.747817 0.338927
Si Si3 0.774992 0.432738 0.798246
Si Si4 0.969225 0.677691 0.381053
Si Si5 0.028554 0.861564 0.077032
Si Si6 0.193780 0.821831 0.717002
Si Si7 0.270092 0.966150 0.082544
Si Si8 0.843777 0.714346 0.490737
O O1 0.545840 0.741847 0.534535
O O2 0.521073 0.450312 0.733811
O O3 0.299273 0.357833 0.599821
O O4 0.558538 0.759180 0.827568
O O5 0.382981 0.699513 0.239592
O O6 0.659190 0.016560 0.312230
O O7 0.758275 0.231003 0.804638
O O8 0.848350 0.618193 0.668995
O O9 0.882704 0.582427 0.984237
O O10 0.916395 0.461402 0.310207
O O11 0.825203 0.575355 0.372249
O O12 0.053423 0.883508 0.267417
O O13 0.093670 0.827116 0.569164
O O14 0.171196 0.975368 0.072136
O O15 0.000000 0.000000 0.000000
O O16 0.238889 0.913464 0.897131
O O17 0.000000 0.000000 0.500000
#
# Coordination Sequence:
#
# PCOD8025514 Si02
#       8
#     2   2   2   2   2   2   2   2
#     4  10  24  44  71 103 141 186 232 288 357 418
#     4  10  23  45  69 100 138 183 233 285 356 421
#     4  11  25  42  71 102 142 185 233 294 352 416
#     4  11  25  42  69 103 135 186 239 287 351 413
#     4  12  25  45  71 101 142 185 235 291 354 418
#     4  11  25  43  70 101 141 184 232 297 342 417
#     4  12  26  45  70 105 143 183 236 294 353 419
#     4  11  24  43  71 105 143 185 237 291 353 422
#
# _framework density 22.767541000000001
#
# number of rings (size 3 to 8) (size 9 to 14) (size 15 to 20)
#    0.000    1.000    1.250    4.125    7.000    6.000 
#    0.000    0.000    0.000    0.000    0.000    0.000 
#    0.000    0.000    0.000    0.000    0.000    0.000 
#
# Total GULP energy -198353.278236 kJ/mol
# GULP energy per Si atom -12397.079890 kJ/mol
# Density = 2.271572 g / cm^3
# Si number density = 22.767541 Si / 1000 Ang^3
#
#
#
# Elastic Constant Matrix: (Units=GPa)
#
#
# Indices 1 2 3 4 5 6 
#
# 1 150.1365 49.8804 47.7286 -10.8274 3.3711 4.1896
# 2 49.8804 115.6643 58.3101 0.0539 8.2087 4.3500
# 3 47.7286 58.3101 127.5167 2.2110 -9.6817 1.0728
# 4 -10.8274 0.0539 2.2110 36.9460 -0.4091 -10.3010
# 5 3.3711 8.2087 -9.6817 -0.4091 33.5861 -5.4429
# 6 4.1896 4.3500 1.0728 -10.3010 -5.4429 41.3909
#
#
#
# Elastic Compliance Matrix: (Units=1/GPa)
#
#
# Indices 1 2 3 4 5 6 
#
# 1 0.008358 -0.002493 -0.002093 0.002571 -0.000801 0.000005
# 2 -0.002493 0.012754 -0.005222 -0.000995 -0.004678 -0.001815
# 3 -0.002093 -0.005222 0.011395 -0.000993 0.004899 0.000862
# 4 0.002571 -0.000995 -0.000993 0.029986 0.001280 0.007501
# 5 -0.000801 -0.004678 0.004899 0.001280 0.033258 0.005138
# 6 0.000005 -0.001815 0.000862 0.007501 0.005138 0.026870
#
#
# Mechanical properties :
#
#
# Convention : Reuss Voigt Hill
#
# Bulk Modulus (GPa) = 77.57817 78.35063 77.96440
# Shear Modulus (GPa) = 34.12130 38.21115 36.16623
#
# Velocity S-wave (km/s) = 3.87548 4.10117 3.98992
# Velocity P-wave (km/s) = 7.36029 7.54415 7.45278
#
# Compressibility (1/GPa) = 0.01289022
#
# Stress axis : x y z
#
# Youngs Moduli (GPa) = 119.64904 78.40593 87.75576
#
# Poissons Ratio (x) = 0.19550 0.18371
# Poissons Ratio (y) = 0.29834 0.45822
# Poissons Ratio (z) = 0.25048 0.40940
#
# Static dielectric constant tensor:
#      x y z
#    x 4.397050 -0.147900 -0.020170 
#    y -0.147900 4.075170 0.052280 
#    z -0.020170 0.052280 4.259860 
# 
# 
# High freq. dielectric constant tensor:
#      x y z
#    x 1.912940 -0.006330 -0.000470 
#    y -0.006330 1.900970 -0.001110 
#    z -0.000470 -0.001110 1.899650 
# 
# From -- ./inp_files/298327.got.cif
#   From: 2010.06.25/outbox.cif.g09.slc.cpg/sg2_150_cif.got.tgz:298327.got - 2010.06.27 13:26:56.
