data_PCOD8025712
_publ_section_title
;
Structure prediction by ZEFSAII (Michael W. Deem and Ramdas Pophale) SiO2 
 PCOD8025712
Probable space group: P -1
;
_chemical_formula_sum "Si O2"
_cell_formula_units_Z 12
_cell_length_a 5.097498
_cell_length_b 10.830695
_cell_length_c 9.321108
_cell_angle_alpha 89.477075
_cell_angle_beta 104.476066
_cell_angle_gamma 63.542188
_cell_volume 441.756168
_symmetry_space_group_name_H-M "P -1"
_symmetry_group_IT_number 2
_symmetry_cell_setting 'triclinic'
loop_
_space_group_symop_operation_xyz
x,y,z
-x,-y,-z
loop_
_atom_site_type_symbol
_atom_site_label
_atom_site_fract_x
_atom_site_fract_y
_atom_site_fract_z
Si Si1 0.169232 0.483416 0.845787
Si Si2 0.213633 0.858555 0.341520
Si Si3 0.710066 0.975331 0.888757
Si Si4 0.376150 0.862298 0.674003
Si Si5 0.285132 0.725336 0.920345
Si Si6 0.373692 0.558701 0.328905
O O1 0.148295 0.616983 0.930304
O O2 0.320798 0.479612 0.715644
O O3 0.828199 0.505764 0.771892
O O4 0.375220 0.342113 0.964480
O O5 0.428502 0.825779 0.513197
O O6 0.165722 0.725162 0.301111
O O7 0.370382 0.891036 0.224905
O O8 0.887042 0.981994 0.334486
O O9 0.676983 0.862047 0.781256
O O10 0.080923 0.879060 0.971680
O O11 0.500000 0.000000 0.000000
O O12 0.302992 0.751986 0.752239
O O13 0.500000 0.500000 0.500000
#
# Coordination Sequence:
#
# PCOD8025712 Si02
#       6
#     2   2   2   2   2   2
#     4  11  28  48  76 114 155 210 255 324 382 471
#     4  10  25  45  70 111 149 203 251 323 386 457
#     4  11  26  44  79 113 150 200 260 326 386 460
#     4  10  23  45  74 104 153 196 257 316 393 455
#     4  10  26  46  75 111 155 202 258 317 397 458
#     4  12  28  48  77 111 156 205 266 315 386 467
#
# _framework density 27.164307999999998
#
# number of rings (size 3 to 8) (size 9 to 14) (size 15 to 20)
#    0.000    1.333    0.000    2.000   14.000    2.667 
#    0.000    2.500    0.000    0.000    0.000    0.000 
#    0.000    0.000    0.000    0.000    0.000    0.000 
#
# Total GULP energy -148789.686104 kJ/mol
# GULP energy per Si atom -12399.140509 kJ/mol
# Density = 2.710248 g / cm^3
# Si number density = 27.164308 Si / 1000 Ang^3
#
#
#
# Elastic Constant Matrix: (Units=GPa)
#
#
# Indices 1 2 3 4 5 6 
#
# 1 88.6164 10.7425 68.7541 -14.3102 -18.7226 5.7324
# 2 10.7425 101.9783 30.2371 -24.1551 -13.8470 0.8460
# 3 68.7541 30.2371 182.2787 -11.5534 -30.3239 -5.2944
# 4 -14.3102 -24.1551 -11.5534 41.9241 1.1075 2.0476
# 5 -18.7226 -13.8470 -30.3239 1.1075 47.7781 4.5223
# 6 5.7324 0.8460 -5.2944 2.0476 4.5223 38.2873
#
#
#
# Elastic Compliance Matrix: (Units=1/GPa)
#
#
# Indices 1 2 3 4 5 6 
#
# 1 0.017839 0.001826 -0.006158 0.005552 0.003892 -0.004319
# 2 0.001826 0.012288 -0.001797 0.007201 0.003116 -0.001547
# 3 -0.006158 -0.001797 0.008483 -0.000954 0.002291 0.001915
# 4 0.005552 0.007201 -0.000954 0.029699 0.003262 -0.003096
# 5 0.003892 0.003116 0.002291 0.003262 0.025065 -0.003470
# 6 -0.004319 -0.001547 0.001915 -0.003096 -0.003470 0.027639
#
#
# Mechanical properties :
#
#
# Convention : Reuss Voigt Hill
#
# Bulk Modulus (GPa) = 37.94729 65.81563 51.88146
# Shear Modulus (GPa) = 35.19733 43.14056 39.16894
#
# Velocity S-wave (km/s) = 3.60352 3.98946 3.80139
# Velocity P-wave (km/s) = 5.59586 6.74555 6.19742
#
# Compressibility (1/GPa) = 0.02635234
#
# Stress axis : x y z
#
# Youngs Moduli (GPa) = 56.05670 81.37903 117.87947
#
# Poissons Ratio (x) = -0.14860 0.72588
# Poissons Ratio (y) = -0.10236 0.21187
# Poissons Ratio (z) = 0.34519 0.14627
#
# Static dielectric constant tensor:
#      x y z
#    x 4.789670 0.206960 0.231410 
#    y 0.206960 5.148490 -0.080520 
#    z 0.231410 -0.080520 5.447650 
# 
# 
# High freq. dielectric constant tensor:
#      x y z
#    x 2.081600 0.008000 -0.000530 
#    y 0.008000 2.111210 -0.005750 
#    z -0.000530 -0.005750 2.114480 
# 
# From -- ./inp_files/131511.got.cif
#   From: 2010.06.25/outbox.cif.g09.slc.cpg/sg2_66_cif.got.tgz:131511.got - 2010.06.27 13:26:56.
