data_PCOD8025190
_publ_section_title
;
Structure prediction by ZEFSAII (Michael W. Deem and Ramdas Pophale) SiO2 
 PCOD8025190
Probable space group: P -1
;
_chemical_formula_sum "Si O2"
_cell_formula_units_Z 14
_cell_length_a 13.106493
_cell_length_b 9.285182
_cell_length_c 22.803709
_cell_angle_alpha 147.052285
_cell_angle_beta 152.582685
_cell_angle_gamma 50.690690
_cell_volume 622.444435
_symmetry_space_group_name_H-M "P -1"
_symmetry_group_IT_number 2
_symmetry_cell_setting 'triclinic'
loop_
_space_group_symop_operation_xyz
x,y,z
-x,-y,-z
loop_
_atom_site_type_symbol
_atom_site_label
_atom_site_fract_x
_atom_site_fract_y
_atom_site_fract_z
Si Si1 0.982425 0.309128 0.592168
Si Si2 0.193941 0.144470 0.234500
Si Si3 0.513894 0.543464 0.953097
Si Si4 0.615447 0.979251 0.378046
Si Si5 0.775693 0.574110 0.773163
Si Si6 0.952284 0.076850 0.683222
Si Si7 0.235496 0.356247 0.455172
O O1 0.262139 0.573857 0.821214
O O2 0.823943 0.290952 0.564054
O O3 0.830102 0.361266 0.477567
O O4 0.000000 0.000000 0.500000
O O5 0.398202 0.030120 0.314395
O O6 0.294266 0.393810 0.319354
O O7 0.125679 0.236330 0.293274
O O8 0.943825 0.886057 0.993979
O O9 0.504984 0.261417 0.816918
O O10 0.500000 0.500000 0.000000
O O11 0.766328 0.825828 0.160955
O O12 0.755826 0.880296 0.465869
O O13 0.906948 0.360787 0.771492
O O14 0.523680 0.442659 0.637410
O O15 0.915486 0.884459 0.656217
#
# Coordination Sequence:
#
# PCOD8025190 Si02
#       7
#     2   2   2   2   2   2   2
#     4  10  23  44  70  90 126 176 225 274 314 385
#     4  11  23  38  71  98 131 173 226 266 324 398
#     4  11  24  42  70  93 127 174 231 270 317 391
#     4  11  21  42  67  98 125 173 224 272 324 389
#     4  11  23  40  65 101 133 172 219 271 327 395
#     4  12  25  40  65 100 139 174 209 276 343 386
#     4  12  25  42  64 101 139 171 214 273 340 393
#
# _framework density 22.491965
#
# number of rings (size 3 to 8) (size 9 to 14) (size 15 to 20)
#    0.000    0.857    5.714    1.714    0.000    2.286 
#    0.000    2.857    0.000    0.000    0.000    0.000 
#    0.000    0.000    0.000    0.000    0.000    0.000 
#
# Total GULP energy -173474.700074 kJ/mol
# GULP energy per Si atom -12391.050005 kJ/mol
# Density = 2.244077 g / cm^3
# Si number density = 22.491965 Si / 1000 Ang^3
#
#
#
# Elastic Constant Matrix: (Units=GPa)
#
#
# Indices 1 2 3 4 5 6 
#
# 1 107.2498 48.8270 52.9535 2.6916 20.5267 24.8312
# 2 48.8270 103.9582 20.0841 -4.7383 9.0454 19.7487
# 3 52.9535 20.0841 95.1329 -13.2842 19.3266 8.1087
# 4 2.6916 -4.7383 -13.2842 28.2175 -5.3092 6.0928
# 5 20.5267 9.0454 19.3266 -5.3092 44.3928 0.1665
# 6 24.8312 19.7487 8.1087 6.0928 0.1665 38.0548
#
#
#
# Elastic Compliance Matrix: (Units=1/GPa)
#
#
# Indices 1 2 3 4 5 6 
#
# 1 0.018697 -0.005817 -0.008617 -0.006287 -0.004437 -0.006319
# 2 -0.005817 0.013025 0.001432 0.004257 -0.000064 -0.003950
# 3 -0.008617 0.001432 0.016710 0.008450 -0.002571 -0.000023
# 4 -0.006287 0.004257 0.008450 0.042858 0.003512 -0.006784
# 5 -0.004437 -0.000064 -0.002571 0.003512 0.026120 0.002799
# 6 -0.006319 -0.003950 -0.000023 -0.006784 0.002799 0.033530
#
#
# Mechanical properties :
#
#
# Convention : Reuss Voigt Hill
#
# Bulk Modulus (GPa) = 44.58720 61.11890 52.85305
# Shear Modulus (GPa) = 27.11229 34.43143 30.77186
#
# Velocity S-wave (km/s) = 3.47568 3.91683 3.70283
# Velocity P-wave (km/s) = 5.99782 6.90565 6.46768
#
# Compressibility (1/GPa) = 0.02242796
#
# Stress axis : x y z
#
# Youngs Moduli (GPa) = 53.48505 76.77793 59.84394
#
# Poissons Ratio (x) = 0.44660 0.51568
# Poissons Ratio (y) = 0.31111 -0.08571
# Poissons Ratio (z) = 0.46089 -0.10996
#
# Static dielectric constant tensor:
#      x y z
#    x 4.184970 -0.242980 0.254880 
#    y -0.242980 4.014070 -0.330730 
#    z 0.254880 -0.330730 4.403980 
# 
# 
# High freq. dielectric constant tensor:
#      x y z
#    x 1.887430 -0.016580 0.011500 
#    y -0.016580 1.872510 -0.018310 
#    z 0.011500 -0.018310 1.893250 
# 
# From -- ./inp_files/342494.got.cif
#   From: 2010.06.25/outbox.cif.g09.slc.cpg/sg2_172_cif.got.tgz:342494.got - 2010.06.27 13:26:56.
