data_PCOD8025013
_publ_section_title
;
Structure prediction by ZEFSAII (Michael W. Deem and Ramdas Pophale) SiO2 
 PCOD8025013
Probable space group: P -1
;
_chemical_formula_sum "Si O2"
_cell_formula_units_Z 14
_cell_length_a 8.995152
_cell_length_b 12.285153
_cell_length_c 11.578513
_cell_angle_alpha 35.753979
_cell_angle_beta 86.234162
_cell_angle_gamma 66.836893
_cell_volume 605.987262
_symmetry_space_group_name_H-M "P -1"
_symmetry_group_IT_number 2
_symmetry_cell_setting 'triclinic'
loop_
_space_group_symop_operation_xyz
x,y,z
-x,-y,-z
loop_
_atom_site_type_symbol
_atom_site_label
_atom_site_fract_x
_atom_site_fract_y
_atom_site_fract_z
Si Si1 0.535664 0.709009 0.981082
Si Si2 0.713132 0.362937 0.621873
Si Si3 0.278135 0.593697 0.157932
Si Si4 0.833547 0.564130 0.281927
Si Si5 0.799798 0.735076 0.808439
Si Si6 0.238508 0.199372 0.502338
Si Si7 0.876904 0.904832 0.875846
O O1 0.655401 0.671219 0.894021
O O2 0.362571 0.976611 0.767340
O O3 0.447324 0.567132 0.105424
O O4 0.667421 0.620965 0.160195
O O5 0.500000 0.500000 0.500000
O O6 0.761242 0.285554 0.818212
O O7 0.783727 0.520494 0.448872
O O8 0.804644 0.154829 0.705716
O O9 0.322056 0.344862 0.385710
O O10 0.090495 0.761076 0.952536
O O11 0.027020 0.335307 0.431431
O O12 0.849135 0.777128 0.092839
O O13 0.751178 0.866664 0.576567
O O14 0.774256 0.905239 0.765794
O O15 0.000000 0.500000 0.000000
#
# Coordination Sequence:
#
# PCOD8025013 Si02
#       7
#     2   2   2   2   2   2   2
#     4  11  23  40  70 100 130 175 224 265 337 392
#     4  12  25  41  67 100 134 172 223 275 329 391
#     4  11  24  43  67 100 132 169 230 273 320 402
#     4  10  23  44  67  96 137 175 220 271 333 394
#     4  11  21  47  70  94 138 176 215 277 332 391
#     4  11  24  45  70  98 133 176 221 272 332 394
#     4  10  24  44  69  92 137 177 215 276 334 388
#
# _framework density 23.102796999999999
#
# number of rings (size 3 to 8) (size 9 to 14) (size 15 to 20)
#    0.000    1.143    5.714    1.714    4.000    4.571 
#    0.000    5.714    0.000    0.000    0.000    0.000 
#    0.000    0.000    0.000    0.000    0.000    0.000 
#
# Total GULP energy -173565.048453 kJ/mol
# GULP energy per Si atom -12397.503461 kJ/mol
# Density = 2.305021 g / cm^3
# Si number density = 23.102797 Si / 1000 Ang^3
#
#
#
# Elastic Constant Matrix: (Units=GPa)
#
#
# Indices 1 2 3 4 5 6 
#
# 1 151.9241 14.8008 47.4330 6.5794 0.1008 -16.5563
# 2 14.8008 57.9866 11.0875 5.7565 -1.5664 4.6125
# 3 47.4330 11.0875 85.5784 -10.0751 7.3715 -12.4740
# 4 6.5794 5.7565 -10.0751 29.8844 -6.3348 -10.1852
# 5 0.1008 -1.5664 7.3715 -6.3348 29.8080 -0.0948
# 6 -16.5563 4.6125 -12.4740 -10.1852 -0.0948 32.6101
#
#
#
# Elastic Compliance Matrix: (Units=1/GPa)
#
#
# Indices 1 2 3 4 5 6 
#
# 1 0.008440 -0.001186 -0.004565 -0.002386 0.000537 0.001963
# 2 -0.001186 0.019540 -0.003767 -0.007070 0.000437 -0.007014
# 3 -0.004565 -0.003767 0.017184 0.009687 -0.002349 0.007807
# 4 -0.002386 -0.007070 0.009687 0.046247 0.007126 0.017959
# 5 0.000537 0.000437 -0.002349 0.007126 0.035670 0.001642
# 6 0.001963 -0.007014 0.007807 0.017959 0.001642 0.041254
#
#
# Mechanical properties :
#
#
# Convention : Reuss Voigt Hill
#
# Bulk Modulus (GPa) = 38.27296 49.12577 43.69937
# Shear Modulus (GPa) = 25.49967 33.27169 29.38568
#
# Velocity S-wave (km/s) = 3.32588 3.79906 3.57031
# Velocity P-wave (km/s) = 5.59919 6.36820 5.99604
#
# Compressibility (1/GPa) = 0.02612810
#
# Stress axis : x y z
#
# Youngs Moduli (GPa) = 118.48265 51.17728 58.19245
#
# Poissons Ratio (x) = 0.06070 0.26567
# Poissons Ratio (y) = 0.14053 0.21919
# Poissons Ratio (z) = 0.54093 0.19276
#
# Static dielectric constant tensor:
#      x y z
#    x 6.248680 4.048240 -0.985070 
#    y 4.048240 13.771510 -2.186760 
#    z -0.985070 -2.186760 4.718850 
# 
# 
# High freq. dielectric constant tensor:
#      x y z
#    x 1.937670 -0.011340 0.007530 
#    y -0.011340 1.886730 0.010040 
#    z 0.007530 0.010040 1.908630 
# 
# From -- ./inp_files/388810.got.cif
#   From: 2010.06.25/outbox.cif.g09.slc.cpg/sg2_195_cif.got.tgz:388810.got - 2010.06.27 13:26:56.
