data_PCOD8025544
_publ_section_title
;
Structure prediction by ZEFSAII (Michael W. Deem and Ramdas Pophale) SiO2 
 PCOD8025544
Probable space group: P -1
;
_chemical_formula_sum "Si O2"
_cell_formula_units_Z 12
_cell_length_a 5.733035
_cell_length_b 9.111464
_cell_length_c 12.799300
_cell_angle_alpha 111.899973
_cell_angle_beta 111.589684
_cell_angle_gamma 55.850155
_cell_volume 502.309653
_symmetry_space_group_name_H-M "P -1"
_symmetry_group_IT_number 2
_symmetry_cell_setting 'triclinic'
loop_
_space_group_symop_operation_xyz
x,y,z
-x,-y,-z
loop_
_atom_site_type_symbol
_atom_site_label
_atom_site_fract_x
_atom_site_fract_y
_atom_site_fract_z
Si Si1 0.322680 0.647729 0.756396
Si Si2 0.655914 0.109938 0.580788
Si Si3 0.816815 0.986962 0.063853
Si Si4 0.824963 0.632925 0.303270
Si Si5 0.070422 0.618315 0.120711
Si Si6 0.819655 0.248334 0.461849
O O1 0.095894 0.579181 0.733300
O O2 0.607078 0.510685 0.826415
O O3 0.366405 0.627315 0.632447
O O4 0.220121 0.852162 0.824743
O O5 0.518490 0.234931 0.693790
O O6 0.605520 0.246209 0.512718
O O7 0.500000 0.000000 0.500000
O O8 0.990993 0.958381 0.607834
O O9 0.028509 0.796233 0.102008
O O10 0.500000 0.000000 0.000000
O O11 0.000000 0.000000 0.000000
O O12 0.873486 0.682701 0.208709
O O13 0.994422 0.671568 0.432381
O O14 0.000000 0.500000 0.000000
#
# Coordination Sequence:
#
# PCOD8025544 Si02
#       6
#     2   2   2   2   2   2
#     4  12  28  45  79 110 155 206 259 325 394 475
#     4   9  21  41  70 104 152 200 250 311 376 471
#     4  12  30  55  82 115 157 210 271 334 399 472
#     4  11  25  45  74 110 155 203 252 324 389 477
#     4  12  28  51  76 111 152 200 266 329 393 466
#     4  10  23  45  69 115 153 201 254 311 401 471
#
# _framework density 23.889648000000001
#
# number of rings (size 3 to 8) (size 9 to 14) (size 15 to 20)
#    0.000    1.000    1.667    2.500   11.667    6.667 
#    0.000    0.000    0.000    0.000    0.000    0.000 
#    0.000    0.000    0.000    0.000    0.000    0.000 
#
# Total GULP energy -148692.833383 kJ/mol
# GULP energy per Si atom -12391.069449 kJ/mol
# Density = 2.383527 g / cm^3
# Si number density = 23.889648 Si / 1000 Ang^3
#
#
#
# Elastic Constant Matrix: (Units=GPa)
#
#
# Indices 1 2 3 4 5 6 
#
# 1 103.7779 44.2597 49.9733 0.1015 -11.0964 27.1324
# 2 44.2597 170.2096 78.5871 -1.0162 4.3060 26.3105
# 3 49.9733 78.5871 159.7693 -2.4146 0.4269 13.9390
# 4 0.1015 -1.0162 -2.4146 54.0071 2.7909 -1.0329
# 5 -11.0964 4.3060 0.4269 2.7909 37.3843 1.0286
# 6 27.1324 26.3105 13.9390 -1.0329 1.0286 44.8434
#
#
#
# Elastic Compliance Matrix: (Units=1/GPa)
#
#
# Indices 1 2 3 4 5 6 
#
# 1 0.013976 -0.001216 -0.003195 -0.000559 0.004556 -0.006867
# 2 -0.001216 0.008268 -0.003419 0.000009 -0.001192 -0.003025
# 3 -0.003195 -0.003419 0.008842 0.000397 -0.000719 0.001216
# 4 -0.000559 0.000009 0.000397 0.018630 -0.001581 0.000675
# 5 0.004556 -0.001192 -0.000719 -0.001581 0.028434 -0.002522
# 6 -0.006867 -0.003025 0.001216 0.000675 -0.002522 0.027925
#
#
# Mechanical properties :
#
#
# Convention : Reuss Voigt Hill
#
# Bulk Modulus (GPa) = 64.82797 86.59967 75.71382
# Shear Modulus (GPa) = 39.40848 44.64274 42.02561
#
# Velocity S-wave (km/s) = 4.06594 4.32754 4.19878
# Velocity P-wave (km/s) = 7.01697 7.82935 7.43426
#
# Compressibility (1/GPa) = 0.01542544
#
# Stress axis : x y z
#
# Youngs Moduli (GPa) = 71.55084 120.95201 113.09805
#
# Poissons Ratio (x) = 0.14711 0.36132
# Poissons Ratio (y) = 0.08703 0.38669
# Poissons Ratio (z) = 0.22859 0.41355
#
# Static dielectric constant tensor:
#      x y z
#    x 4.743000 -0.050560 -0.172360 
#    y -0.050560 4.666000 0.134240 
#    z -0.172360 0.134240 4.207150 
# 
# 
# High freq. dielectric constant tensor:
#      x y z
#    x 1.951140 0.016500 -0.001390 
#    y 0.016500 1.965210 0.015530 
#    z -0.001390 0.015530 1.952890 
# 
# From -- ./inp_files/22526.got.cif
#   From: 2010.06.25/outbox.cif.g09.slc.cpg/sg2_12_cif.got.tgz:22526.got - 2010.06.27 13:26:56.
