data_PCOD8025118
_publ_section_title
;
Structure prediction by ZEFSAII (Michael W. Deem and Ramdas Pophale) SiO2 
 PCOD8025118
Probable space group: P -1
;
_chemical_formula_sum "Si O2"
_cell_formula_units_Z 12
_cell_length_a 8.475327
_cell_length_b 5.604054
_cell_length_c 12.907230
_cell_angle_alpha 104.018372
_cell_angle_beta 100.177035
_cell_angle_gamma 120.181589
_cell_volume 480.494941
_symmetry_space_group_name_H-M "P -1"
_symmetry_group_IT_number 2
_symmetry_cell_setting 'triclinic'
loop_
_space_group_symop_operation_xyz
x,y,z
-x,-y,-z
loop_
_atom_site_type_symbol
_atom_site_label
_atom_site_fract_x
_atom_site_fract_y
_atom_site_fract_z
Si Si1 0.035174 0.843894 0.791146
Si Si2 0.988696 0.371539 0.597224
Si Si3 0.273151 0.780206 0.970816
Si Si4 0.599028 0.856881 0.554783
Si Si5 0.693488 0.921350 0.798942
Si Si6 0.707568 0.594739 0.227421
O O1 0.926725 0.518122 0.692170
O O2 0.877012 0.913088 0.798055
O O3 0.145689 0.883923 0.914814
O O4 0.204285 0.059590 0.747745
O O5 0.000000 0.500000 0.500000
O O6 0.195881 0.436401 0.661141
O O7 0.815791 0.016228 0.546583
O O8 0.215405 0.474165 0.877082
O O9 0.500000 0.000000 0.000000
O O10 0.240028 0.785194 0.091559
O O11 0.500000 0.500000 0.500000
O O12 0.608051 0.947350 0.684882
O O13 0.500000 0.000000 0.500000
O O14 0.525850 0.617088 0.808245
#
# Coordination Sequence:
#
# PCOD8025118 Si02
#       6
#     2   2   2   2   2   2
#     4  11  23  45  70 108 140 189 249 301 373 445
#     4  11  25  47  71 100 150 193 243 312 371 448
#     4   9  22  44  67 106 143 188 242 299 373 446
#     4  12  27  48  73 112 147 196 257 310 378 451
#     4  11  23  45  71 105 144 190 245 308 364 445
#     4  10  23  44  69 103 142 189 241 299 374 441
#
# _framework density 24.974249
#
# number of rings (size 3 to 8) (size 9 to 14) (size 15 to 20)
#    0.000    1.333    1.667    2.500    2.333    4.000 
#   15.000    0.000    0.000    0.000    0.000    0.000 
#    0.000    0.000    0.000    0.000    0.000    0.000 
#
# Total GULP energy -148702.341798 kJ/mol
# GULP energy per Si atom -12391.861816 kJ/mol
# Density = 2.491741 g / cm^3
# Si number density = 24.974249 Si / 1000 Ang^3
#
#
#
# Elastic Constant Matrix: (Units=GPa)
#
#
# Indices 1 2 3 4 5 6 
#
# 1 75.7917 18.7995 29.9096 2.7304 13.1666 9.4433
# 2 18.7995 123.3128 37.2119 2.5459 6.5234 15.0003
# 3 29.9096 37.2119 188.3114 -15.0655 7.7736 -9.1047
# 4 2.7304 2.5459 -15.0655 27.0878 7.2123 2.9509
# 5 13.1666 6.5234 7.7736 7.2123 31.0045 -2.7973
# 6 9.4433 15.0003 -9.1047 2.9509 -2.7973 38.1938
#
#
#
# Elastic Compliance Matrix: (Units=1/GPa)
#
#
# Indices 1 2 3 4 5 6 
#
# 1 0.016040 -0.000808 -0.002408 -0.000700 -0.006293 -0.004629
# 2 -0.000808 0.009394 -0.001959 -0.001130 -0.001237 -0.003960
# 3 -0.002408 -0.001959 0.006565 0.004046 -0.000922 0.002550
# 4 -0.000700 -0.001130 0.004046 0.042428 -0.010572 -0.002471
# 5 -0.006293 -0.001237 -0.000922 -0.010572 0.038368 0.005448
# 6 -0.004629 -0.003960 0.002550 -0.002471 0.005448 0.030080
#
#
# Mechanical properties :
#
#
# Convention : Reuss Voigt Hill
#
# Bulk Modulus (GPa) = 46.19163 62.13978 54.16570
# Shear Modulus (GPa) = 31.16405 39.35686 35.26046
#
# Velocity S-wave (km/s) = 3.53632 3.97406 3.76157
# Velocity P-wave (km/s) = 5.93380 6.78182 6.37193
#
# Compressibility (1/GPa) = 0.02164894
#
# Stress axis : x y z
#
# Youngs Moduli (GPa) = 62.34434 106.44824 152.32452
#
# Poissons Ratio (x) = 0.08604 0.36680
# Poissons Ratio (y) = 0.05039 0.29838
# Poissons Ratio (z) = 0.15013 0.20852
#
# Static dielectric constant tensor:
#      x y z
#    x 4.669250 0.347420 -1.923350 
#    y 0.347420 4.778830 -1.186510 
#    z -1.923350 -1.186510 16.231410 
# 
# 
# High freq. dielectric constant tensor:
#      x y z
#    x 1.989090 0.016920 0.008980 
#    y 0.016920 1.990460 0.009840 
#    z 0.008980 0.009840 2.014890 
# 
# From -- ./inp_files/26639.got.cif
#   From: 2010.06.25/outbox.cif.g09.slc.cpg/sg2_14_cif.got.tgz:26639.got - 2010.06.27 13:26:56.
