data_PCOD8025908
_publ_section_title
;
Structure prediction by ZEFSAII (Michael W. Deem and Ramdas Pophale) SiO2 
 PCOD8025908
Probable space group: P -1
;
_chemical_formula_sum "Si O2"
_cell_formula_units_Z 14
_cell_length_a 12.963499
_cell_length_b 7.887872
_cell_length_c 9.276188
_cell_angle_alpha 104.371574
_cell_angle_beta 134.916023
_cell_angle_gamma 63.731428
_cell_volume 599.234620
_symmetry_space_group_name_H-M "P -1"
_symmetry_group_IT_number 2
_symmetry_cell_setting 'triclinic'
loop_
_space_group_symop_operation_xyz
x,y,z
-x,-y,-z
loop_
_atom_site_type_symbol
_atom_site_label
_atom_site_fract_x
_atom_site_fract_y
_atom_site_fract_z
Si Si1 0.160211 0.530146 0.649715
Si Si2 0.449098 0.178637 0.882195
Si Si3 0.876466 0.489426 0.714509
Si Si4 0.193664 0.217700 0.067604
Si Si5 0.330484 0.652366 0.325463
Si Si6 0.456794 0.938801 0.595809
Si Si7 0.742508 0.201505 0.028311
O O1 0.306140 0.364787 0.839923
O O2 0.200398 0.522061 0.516955
O O3 0.140741 0.730089 0.746978
O O4 0.000000 0.500000 0.500000
O O5 0.378069 0.121894 0.656421
O O6 0.596917 0.230899 0.997900
O O7 0.500000 0.000000 0.000000
O O8 0.838940 0.704296 0.781189
O O9 0.809351 0.391395 0.750496
O O10 0.066301 0.371336 0.869940
O O11 0.371385 0.196625 0.193490
O O12 0.174044 0.017125 0.987823
O O13 0.500000 0.500000 0.500000
O O14 0.329127 0.846705 0.433663
O O15 0.312020 0.666850 0.138402
O O16 0.500000 0.000000 0.500000
#
# Coordination Sequence:
#
# PCOD8025908 Si02
#       7
#     2   2   2   2   2   2   2
#     4  12  30  48  69 104 149 186 233 293 352 416
#     4  11  26  45  75  98 145 188 232 285 353 416
#     4  11  26  44  72 102 142 183 234 286 360 411
#     4  10  23  46  72  99 141 180 235 290 345 419
#     4  12  24  40  74 101 135 178 234 288 343 413
#     4  11  21  44  71 101 135 180 239 286 340 412
#     4  11  27  47  71 105 143 179 240 288 353 419
#
# _framework density 23.363136000000001
#
# number of rings (size 3 to 8) (size 9 to 14) (size 15 to 20)
#    0.000    0.857    4.286    2.143   12.000    2.286 
#    0.000    0.000    0.000    0.000    0.000    0.000 
#    0.000    0.000    0.000    0.000    0.000    0.000 
#
# Total GULP energy -173544.123573 kJ/mol
# GULP energy per Si atom -12396.008827 kJ/mol
# Density = 2.330996 g / cm^3
# Si number density = 23.363136 Si / 1000 Ang^3
#
#
#
# Elastic Constant Matrix: (Units=GPa)
#
#
# Indices 1 2 3 4 5 6 
#
# 1 108.7392 33.8947 32.0188 5.7171 7.6508 16.4211
# 2 33.8947 125.8535 55.1611 29.1518 2.0847 -3.3666
# 3 32.0188 55.1611 124.4065 35.6002 -0.6748 8.2136
# 4 5.7171 29.1518 35.6002 53.8659 1.2805 3.7929
# 5 7.6508 2.0847 -0.6748 1.2805 41.1623 -0.9649
# 6 16.4211 -3.3666 8.2136 3.7929 -0.9649 29.3496
#
#
#
# Elastic Compliance Matrix: (Units=1/GPa)
#
#
# Indices 1 2 3 4 5 6 
#
# 1 0.011744 -0.002975 -0.001882 0.002136 -0.002287 -0.006736
# 2 -0.002975 0.011246 -0.003416 -0.003827 0.000150 0.004410
# 3 -0.001882 -0.003416 0.011775 -0.005621 0.000847 -0.001879
# 4 0.002136 -0.003827 -0.005621 0.024380 -0.001130 -0.003249
# 5 -0.002287 0.000150 0.000847 -0.001130 0.024808 0.002022
# 6 -0.006736 0.004410 -0.001879 -0.003249 0.002022 0.039359
#
#
# Mechanical properties :
#
#
# Convention : Reuss Voigt Hill
#
# Bulk Modulus (GPa) = 54.89193 66.79429 60.84311
# Shear Modulus (GPa) = 34.26282 40.73719 37.50000
#
# Velocity S-wave (km/s) = 3.83369 4.18024 4.01071
# Velocity P-wave (km/s) = 6.56828 7.20769 6.89540
#
# Compressibility (1/GPa) = 0.01821762
#
# Stress axis : x y z
#
# Youngs Moduli (GPa) = 85.15108 88.91966 84.92911
#
# Poissons Ratio (x) = 0.26453 0.15988
# Poissons Ratio (y) = 0.25332 0.29012
# Poissons Ratio (z) = 0.16030 0.30375
#
# Static dielectric constant tensor:
#      x y z
#    x 4.292300 0.009410 0.139930 
#    y 0.009410 4.393150 0.166730 
#    z 0.139930 0.166730 4.609370 
# 
# 
# High freq. dielectric constant tensor:
#      x y z
#    x 1.904740 -0.002320 -0.002160 
#    y -0.002320 1.932410 0.011910 
#    z -0.002160 0.011910 1.935540 
# 
# From -- ./inp_files/235757.got.cif
#   From: 2010.06.25/outbox.cif.g09.slc.cpg/sg2_118_cif.got.tgz:235757.got - 2010.06.27 13:26:56.
