data_PCOD8025267
_publ_section_title
;
Structure prediction by ZEFSAII (Michael W. Deem and Ramdas Pophale) SiO2 
 PCOD8025267
Probable space group: P -1
;
_chemical_formula_sum "Si O2"
_cell_formula_units_Z 16
_cell_length_a 19.331301
_cell_length_b 11.998924
_cell_length_c 10.028002
_cell_angle_alpha 57.403193
_cell_angle_beta 155.382952
_cell_angle_gamma 130.625588
_cell_volume 724.898083
_symmetry_space_group_name_H-M "P -1"
_symmetry_group_IT_number 2
_symmetry_cell_setting 'triclinic'
loop_
_space_group_symop_operation_xyz
x,y,z
-x,-y,-z
loop_
_atom_site_type_symbol
_atom_site_label
_atom_site_fract_x
_atom_site_fract_y
_atom_site_fract_z
Si Si1 0.165980 0.222596 0.391401
Si Si2 0.427984 0.666166 0.866352
Si Si3 0.889835 0.895662 0.162899
Si Si4 0.676982 0.396751 0.981863
Si Si5 0.082237 0.422587 0.286174
Si Si6 0.608919 0.950217 0.826667
Si Si7 0.139727 0.758661 0.763610
Si Si8 0.264368 0.300425 0.220527
O O1 0.043940 0.273978 0.234835
O O2 0.147719 0.253955 0.183601
O O3 0.372822 0.318308 0.750932
O O4 0.081088 0.047380 0.380406
O O5 0.300825 0.524124 0.642870
O O6 0.461876 0.812599 0.746674
O O7 0.317161 0.637577 0.829607
O O8 0.953369 0.772302 0.392421
O O9 0.788398 0.840692 0.878393
O O10 0.753327 0.906291 0.029708
O O11 0.475340 0.342884 0.599065
O O12 0.775899 0.572791 0.004043
O O13 0.775628 0.300383 0.165207
O O14 0.936306 0.375909 0.180007
O O15 0.000000 0.500000 0.000000
O O16 0.500000 0.000000 0.500000
O O17 0.707908 0.084582 0.015153
#
# Coordination Sequence:
#
# PCOD8025267 Si02
#       8
#     2   2   2   2   2   2   2   2
#     4  11  23  45  67 100 139 177 228 276 338 409
#     4  11  25  44  68  99 132 183 224 276 345 395
#     4  12  24  44  70 100 137 180 225 283 340 407
#     4  10  24  46  68 101 138 181 227 281 332 413
#     4  12  25  41  68 101 135 177 230 287 333 399
#     4  12  25  45  69  98 136 181 224 281 341 406
#     4  12  24  44  69  98 141 176 226 282 341 398
#     4  10  23  44  71  99 139 181 227 275 343 396
#
# _framework density 22.072067000000001
#
# number of rings (size 3 to 8) (size 9 to 14) (size 15 to 20)
#    0.000    0.750    2.500    4.875    0.000    6.500 
#    2.250    0.000    0.000    0.000    0.000    0.000 
#    0.000    0.000    0.000    0.000    0.000    0.000 
#
# Total GULP energy -198264.721952 kJ/mol
# GULP energy per Si atom -12391.545122 kJ/mol
# Density = 2.202183 g / cm^3
# Si number density = 22.072067 Si / 1000 Ang^3
#
#
#
# Elastic Constant Matrix: (Units=GPa)
#
#
# Indices 1 2 3 4 5 6 
#
# 1 138.0911 64.5807 43.1447 -13.7123 -7.8577 3.7967
# 2 64.5807 118.8684 29.3633 -3.7793 -10.7006 5.7412
# 3 43.1447 29.3633 46.7435 -15.5108 -11.9907 -7.4967
# 4 -13.7123 -3.7793 -15.5108 45.9183 -3.3631 -4.8135
# 5 -7.8577 -10.7006 -11.9907 -3.3631 28.4480 -9.8266
# 6 3.7967 5.7412 -7.4967 -4.8135 -9.8266 48.2334
#
#
#
# Elastic Compliance Matrix: (Units=1/GPa)
#
#
# Indices 1 2 3 4 5 6 
#
# 1 0.012270 -0.004356 -0.010206 -0.000704 -0.003615 -0.002840
# 2 -0.004356 0.011901 -0.004189 -0.001873 0.000673 -0.001774
# 3 -0.010206 -0.004189 0.046605 0.015502 0.022125 0.014600
# 4 -0.000704 -0.001873 0.015502 0.028336 0.011714 0.007902
# 5 -0.003615 0.000673 0.022125 0.011714 0.050321 0.015064
# 6 -0.002840 -0.001774 0.014600 0.007902 0.015064 0.027294
#
#
# Mechanical properties :
#
#
# Convention : Reuss Voigt Hill
#
# Bulk Modulus (GPa) = 30.05174 64.20893 47.13034
# Shear Modulus (GPa) = 22.19087 35.62755 28.90921
#
# Velocity S-wave (km/s) = 3.17422 4.02200 3.62299
# Velocity P-wave (km/s) = 5.20375 7.12197 6.23704
#
# Compressibility (1/GPa) = 0.03327594
#
# Stress axis : x y z
#
# Youngs Moduli (GPa) = 81.50211 84.02972 21.45676
#
# Poissons Ratio (x) = 0.36601 0.21898
# Poissons Ratio (y) = 0.35500 0.08987
# Poissons Ratio (z) = 0.83177 0.35197
#
# Static dielectric constant tensor:
#      x y z
#    x 3.251260 0.316380 -0.436820 
#    y 0.316380 3.942840 0.078960 
#    z -0.436820 0.078960 3.981230 
# 
# 
# High freq. dielectric constant tensor:
#      x y z
#    x 1.876750 0.003950 -0.014430 
#    y 0.003950 1.877640 0.005730 
#    z -0.014430 0.005730 1.874270 
# 
# From -- ./inp_files/333072.got.cif
#   From: 2010.06.25/outbox.cif.g09.slc.cpg/sg2_167_cif.got.tgz:333072.got - 2010.06.27 13:26:56.
