data_PCOD8025444
_publ_section_title
;
Structure prediction by ZEFSAII (Michael W. Deem and Ramdas Pophale) SiO2 
 PCOD8025444
Probable space group: P -1
;
_chemical_formula_sum "Si O2"
_cell_formula_units_Z 16
_cell_length_a 13.601104
_cell_length_b 8.602120
_cell_length_c 12.031500
_cell_angle_alpha 49.033965
_cell_angle_beta 41.862900
_cell_angle_gamma 51.470756
_cell_volume 683.551032
_symmetry_space_group_name_H-M "P -1"
_symmetry_group_IT_number 2
_symmetry_cell_setting 'triclinic'
loop_
_space_group_symop_operation_xyz
x,y,z
-x,-y,-z
loop_
_atom_site_type_symbol
_atom_site_label
_atom_site_fract_x
_atom_site_fract_y
_atom_site_fract_z
Si Si1 0.555270 0.445603 0.137875
Si Si2 0.713932 0.696004 0.527194
Si Si3 0.627411 0.123699 0.828561
Si Si4 0.900315 0.732892 0.782315
Si Si5 0.824402 0.475225 0.758567
Si Si6 0.210339 0.591410 0.841197
Si Si7 0.755548 0.370160 0.447993
Si Si8 0.934930 0.954602 0.193283
O O1 0.463434 0.260914 0.302576
O O2 0.422926 0.672197 0.143266
O O3 0.659038 0.421588 0.171466
O O4 0.658723 0.436633 0.945892
O O5 0.823779 0.573109 0.591142
O O6 0.732469 0.564372 0.460454
O O7 0.767719 0.905996 0.352191
O O8 0.650351 0.213455 0.643784
O O9 0.786854 0.960261 0.804319
O O10 0.500000 0.000000 0.000000
O O11 0.862795 0.637395 0.740719
O O12 0.068140 0.765790 0.627330
O O13 0.889572 0.568263 0.966515
O O14 0.945563 0.245627 0.759245
O O15 0.289714 0.534347 0.681294
O O16 0.093647 0.827317 0.815924
O O17 0.000000 0.000000 0.000000
#
# Coordination Sequence:
#
# PCOD8025444 Si02
#       8
#     2   2   2   2   2   2   2   2
#     4  10  23  45  67  94 131 172 219 267 320 388
#     4  11  25  42  69  97 131 170 224 260 322 389
#     4  11  22  40  67  93 131 169 213 266 327 377
#     4  11  22  43  68  96 130 169 217 270 321 383
#     4  11  22  42  71  90 134 169 214 271 322 372
#     4  11  24  42  71  93 136 170 213 268 331 375
#     4  11  25  42  67 100 129 169 221 269 316 391
#     4  12  23  43  68  99 129 177 211 266 327 385
#
# _framework density 23.407176
#
# number of rings (size 3 to 8) (size 9 to 14) (size 15 to 20)
#    0.000    1.000    6.250    1.500    1.750    4.500 
#    0.000    0.000    2.750    0.000    0.000    0.000 
#    0.000    0.000    0.000    0.000    0.000    0.000 
#
# Total GULP energy -198319.687574 kJ/mol
# GULP energy per Si atom -12394.980473 kJ/mol
# Density = 2.335390 g / cm^3
# Si number density = 23.407176 Si / 1000 Ang^3
#
#
#
# Elastic Constant Matrix: (Units=GPa)
#
#
# Indices 1 2 3 4 5 6 
#
# 1 30.3010 8.6593 21.1159 -7.5761 19.9947 5.5096
# 2 8.6593 99.9262 18.0130 8.3321 5.8887 -8.3723
# 3 21.1159 18.0130 165.7906 -16.6524 0.8454 21.5203
# 4 -7.5761 8.3321 -16.6524 19.4617 3.0693 -2.4608
# 5 19.9947 5.8887 0.8454 3.0693 50.7390 8.1940
# 6 5.5096 -8.3723 21.5203 -2.4608 8.1940 23.4858
#
#
#
# Elastic Compliance Matrix: (Units=1/GPa)
#
#
# Indices 1 2 3 4 5 6 
#
# 1 0.060229 -0.005223 -0.004283 0.025774 -0.024483 -0.000824
# 2 -0.005223 0.012162 -0.002391 -0.008436 0.000093 0.006835
# 3 -0.004283 -0.002391 0.008365 0.005065 0.002805 -0.007960
# 4 0.025774 -0.008436 0.005065 0.071262 -0.013317 -0.001582
# 5 -0.024483 0.000093 0.002805 -0.013317 0.031592 -0.009211
# 6 -0.000824 0.006835 -0.007960 -0.001582 -0.009211 0.055551
#
#
# Mechanical properties :
#
#
# Convention : Reuss Voigt Hill
#
# Bulk Modulus (GPa) = 17.55565 43.51045 30.53305
# Shear Modulus (GPa) = 17.73412 35.28593 26.51003
#
# Velocity S-wave (km/s) = 2.75551 3.88684 3.36900
# Velocity P-wave (km/s) = 4.20002 6.22674 5.31095
#
# Compressibility (1/GPa) = 0.05696172
#
# Stress axis : x y z
#
# Youngs Moduli (GPa) = 16.60330 82.22543 119.54957
#
# Poissons Ratio (x) = 0.42943 0.51203
# Poissons Ratio (y) = 0.08671 0.28588
# Poissons Ratio (z) = 0.07111 0.19662
#
# Static dielectric constant tensor:
#      x y z
#    x 4.024250 -0.083020 -0.259420 
#    y -0.083020 4.871760 -0.019190 
#    z -0.259420 -0.019190 4.904030 
# 
# 
# High freq. dielectric constant tensor:
#      x y z
#    x 1.909780 -0.005090 -0.009200 
#    y -0.005090 1.908670 0.003530 
#    z -0.009200 0.003530 1.959290 
# 
# From -- ./inp_files/446743.got.cif
#   From: 2010.06.25/outbox.cif.g09.slc.cpg/sg2_224_cif.got.tgz:446743.got - 2010.06.27 13:26:56.
