data_PCOD8025004
_publ_section_title
;
Structure prediction by ZEFSAII (Michael W. Deem and Ramdas Pophale) SiO2 
 PCOD8025004
Probable space group: P -1
;
_chemical_formula_sum "Si O2"
_cell_formula_units_Z 16
_cell_length_a 12.011423
_cell_length_b 8.438844
_cell_length_c 21.784825
_cell_angle_alpha 136.619828
_cell_angle_beta 149.910851
_cell_angle_gamma 53.294465
_cell_volume 757.244904
_symmetry_space_group_name_H-M "P -1"
_symmetry_group_IT_number 2
_symmetry_cell_setting 'triclinic'
loop_
_space_group_symop_operation_xyz
x,y,z
-x,-y,-z
loop_
_atom_site_type_symbol
_atom_site_label
_atom_site_fract_x
_atom_site_fract_y
_atom_site_fract_z
Si Si1 0.714003 0.865160 0.075733
Si Si2 0.462577 0.289490 0.377628
Si Si3 0.149458 0.025446 0.377097
Si Si4 0.210338 0.366295 0.070536
Si Si5 0.243525 0.447135 0.875643
Si Si6 0.926161 0.102642 0.558790
Si Si7 0.014491 0.912452 0.914243
Si Si8 0.439151 0.631660 0.359268
O O1 0.752578 0.742322 0.123419
O O2 0.689563 0.664444 0.957215
O O3 0.941214 0.039741 0.234093
O O4 0.500000 0.000000 0.000000
O O5 0.500000 0.500000 0.500000
O O6 0.669788 0.140043 0.436893
O O7 0.236898 0.133481 0.245050
O O8 0.442462 0.391717 0.329236
O O9 0.318614 0.235287 0.493844
O O10 0.080143 0.049945 0.423414
O O11 0.262227 0.784042 0.351348
O O12 0.377094 0.542390 0.236993
O O13 0.000000 0.500000 0.000000
O O14 0.156652 0.106885 0.997760
O O15 0.096148 0.332104 0.716452
O O16 0.138330 0.679565 0.909826
O O17 0.500000 0.500000 0.000000
O O18 0.000000 0.000000 0.500000
O O19 0.000000 0.000000 0.000000
#
# Coordination Sequence:
#
# PCOD8025004 Si02
#       8
#     2   2   2   2   2   2   2   2
#     4  11  24  43  68  97 136 177 219 273 343 410
#     4  12  23  42  69  98 134 175 230 273 335 406
#     4  10  23  44  67  95 137 171 221 284 343 389
#     4  12  25  41  67 102 132 174 230 273 338 405
#     4  11  25  46  66  98 141 177 225 279 340 404
#     4  11  26  44  68  99 135 180 226 280 341 405
#     4  12  25  42  68 100 137 179 225 286 334 396
#     4  11  23  42  68 101 131 171 224 289 328 399
#
# _framework density 21.129227
#
# number of rings (size 3 to 8) (size 9 to 14) (size 15 to 20)
#    0.000    0.750    5.000    2.250    5.250    4.000 
#    0.000    1.250    0.000    0.000    0.000    0.000 
#    0.000    0.000    0.000    0.000    0.000    0.000 
#
# Total GULP energy -198258.591038 kJ/mol
# GULP energy per Si atom -12391.161940 kJ/mol
# Density = 2.108114 g / cm^3
# Si number density = 21.129227 Si / 1000 Ang^3
#
#
#
# Elastic Constant Matrix: (Units=GPa)
#
#
# Indices 1 2 3 4 5 6 
#
# 1 84.9568 17.4486 40.1594 1.0837 -12.1566 -25.2569
# 2 17.4486 104.8781 36.4668 -11.3071 3.7111 -19.1498
# 3 40.1594 36.4668 146.7989 -5.8848 5.4543 -21.2537
# 4 1.0837 -11.3071 -5.8848 37.5931 -5.5121 4.8991
# 5 -12.1566 3.7111 5.4543 -5.5121 49.3656 2.7491
# 6 -25.2569 -19.1498 -21.2537 4.8991 2.7491 38.4982
#
#
#
# Elastic Compliance Matrix: (Units=1/GPa)
#
#
# Indices 1 2 3 4 5 6 
#
# 1 0.016634 -0.000287 -0.003410 -0.001691 0.003814 0.008830
# 2 -0.000287 0.011316 -0.002022 0.002472 -0.000648 0.004056
# 3 -0.003410 -0.002022 0.008549 0.000381 -0.001676 0.001548
# 4 -0.001691 0.002472 0.000381 0.028301 0.002709 -0.003465
# 5 0.003814 -0.000648 -0.001676 0.002709 0.021768 -0.000644
# 6 0.008830 0.004056 0.001548 -0.003465 -0.000644 0.035127
#
#
# Mechanical properties :
#
#
# Convention : Reuss Voigt Hill
#
# Bulk Modulus (GPa) = 39.90340 58.30929 49.10634
# Shear Modulus (GPa) = 35.33881 41.26198 38.30040
#
# Velocity S-wave (km/s) = 4.09407 4.42389 4.26217
# Velocity P-wave (km/s) = 6.42456 7.33149 6.89296
#
# Compressibility (1/GPa) = 0.02506052
#
# Stress axis : x y z
#
# Youngs Moduli (GPa) = 60.11710 88.37313 116.97334
#
# Poissons Ratio (x) = 0.02532 0.39893
# Poissons Ratio (y) = 0.01722 0.23654
# Poissons Ratio (z) = 0.20502 0.17871
#
# Static dielectric constant tensor:
#      x y z
#    x 3.959860 0.073690 0.066650 
#    y 0.073690 3.602960 -0.417730 
#    z 0.066650 -0.417730 5.707280 
# 
# 
# High freq. dielectric constant tensor:
#      x y z
#    x 1.831190 0.001720 -0.002060 
#    y 0.001720 1.815770 -0.007910 
#    z -0.002060 -0.007910 1.856170 
# 
# From -- ./inp_files/190814.got.cif
#   From: 2010.06.25/outbox.cif.g09.slc.cpg/sg2_96_cif.got.tgz:190814.got - 2010.06.27 13:26:56.
