data_PCOD8025435
_publ_section_title
;
Structure prediction by ZEFSAII (Michael W. Deem and Ramdas Pophale) SiO2 
 PCOD8025435
Probable space group: P -1
;
_chemical_formula_sum "Si O2"
_cell_formula_units_Z 14
_cell_length_a 14.629990
_cell_length_b 25.047890
_cell_length_c 15.475523
_cell_angle_alpha 18.653802
_cell_angle_beta 28.416603
_cell_angle_gamma 19.121431
_cell_volume 587.477463
_symmetry_space_group_name_H-M "P -1"
_symmetry_group_IT_number 2
_symmetry_cell_setting 'triclinic'
loop_
_space_group_symop_operation_xyz
x,y,z
-x,-y,-z
loop_
_atom_site_type_symbol
_atom_site_label
_atom_site_fract_x
_atom_site_fract_y
_atom_site_fract_z
Si Si1 0.147546 0.029714 0.398361
Si Si2 0.084680 0.523529 0.186083
Si Si3 0.369090 0.855248 0.802809
Si Si4 0.454928 0.215556 0.053019
Si Si5 0.954105 0.243826 0.790714
Si Si6 0.225216 0.493126 0.299833
Si Si7 0.998935 0.238639 0.380497
O O1 0.469304 0.777796 0.526331
O O2 0.995213 0.121513 0.478636
O O3 0.000000 0.000000 0.500000
O O4 0.134560 0.226433 0.069132
O O5 0.361534 0.317119 0.217118
O O6 0.181500 0.570275 0.117861
O O7 0.946258 0.433690 0.464124
O O8 0.097405 0.092291 0.612248
O O9 0.443404 0.913550 0.737891
O O10 0.265870 0.737948 0.103451
O O11 0.313975 0.488022 0.762175
O O12 0.222873 0.241126 0.166462
O O13 0.730229 0.034482 0.041388
O O14 0.834530 0.316516 0.877388
O O15 0.000000 0.500000 0.500000
#
# Coordination Sequence:
#
# PCOD8025435 Si02
#       7
#     2   2   2   2   2   2   2
#     4  12  25  43  74 111 139 187 247 295 360 428
#     4  11  24  46  73 100 148 190 235 297 360 418
#     4  12  23  44  73 102 140 188 236 291 352 426
#     4  11  24  46  68 107 141 185 241 286 355 429
#     4  11  25  42  70 106 142 182 236 289 358 423
#     4  10  23  45  67 102 140 189 235 289 358 423
#     4  11  24  43  75 102 138 191 237 290 359 421
#
# _framework density 23.830703
#
# number of rings (size 3 to 8) (size 9 to 14) (size 15 to 20)
#    0.000    0.857    4.286    2.571    2.000    4.000 
#    0.000    5.714    0.000    0.000    0.000    0.000 
#    0.000    0.000    0.000    0.000    0.000    0.000 
#
# Total GULP energy -173555.596506 kJ/mol
# GULP energy per Si atom -12396.828322 kJ/mol
# Density = 2.377646 g / cm^3
# Si number density = 23.830703 Si / 1000 Ang^3
#
#
#
# Elastic Constant Matrix: (Units=GPa)
#
#
# Indices 1 2 3 4 5 6 
#
# 1 101.2443 12.0431 29.0989 -18.2431 17.6974 15.3269
# 2 12.0431 85.4315 35.1330 -26.0394 7.3923 24.7293
# 3 29.0989 35.1330 64.2334 -7.3993 20.9959 11.0555
# 4 -18.2431 -26.0394 -7.3993 37.1660 -8.6256 -13.4711
# 5 17.6974 7.3923 20.9959 -8.6256 39.0566 -5.0039
# 6 15.3269 24.7293 11.0555 -13.4711 -5.0039 28.7869
#
#
#
# Elastic Compliance Matrix: (Units=1/GPa)
#
#
# Indices 1 2 3 4 5 6 
#
# 1 0.013593 0.004257 -0.005429 0.005122 -0.003822 -0.007077
# 2 0.004257 0.022587 -0.011203 0.011618 0.000875 -0.011778
# 3 -0.005429 -0.011203 0.028372 -0.009974 -0.013567 -0.005407
# 4 0.005122 0.011618 -0.009974 0.043276 0.012127 0.013482
# 5 -0.003822 0.000875 -0.013567 0.012127 0.039582 0.019049
# 6 -0.007077 -0.011778 -0.005407 0.013482 0.019049 0.060321
#
#
# Mechanical properties :
#
#
# Convention : Reuss Voigt Hill
#
# Bulk Modulus (GPa) = 25.12466 44.82880 34.97673
# Shear Modulus (GPa) = 20.34591 32.64418 26.49504
#
# Velocity S-wave (km/s) = 2.92510 3.70515 3.33799
# Velocity P-wave (km/s) = 4.68766 6.09560 5.43739
#
# Compressibility (1/GPa) = 0.03980153
#
# Stress axis : x y z
#
# Youngs Moduli (GPa) = 73.56483 44.27262 35.24639
#
# Poissons Ratio (x) = -0.18846 0.19135
# Poissons Ratio (y) = -0.31314 0.39487
# Poissons Ratio (z) = 0.39938 0.49600
#
# Static dielectric constant tensor:
#      x y z
#    x 5.234160 0.352670 -0.097530 
#    y 0.352670 4.262270 -0.189480 
#    z -0.097530 -0.189480 4.417170 
# 
# 
# High freq. dielectric constant tensor:
#      x y z
#    x 1.957860 0.008830 -0.008050 
#    y 0.008830 1.946940 -0.011330 
#    z -0.008050 -0.011330 1.934890 
# 
# From -- ./inp_files/418602.got.cif
#   From: 2010.06.25/outbox.cif.g09.slc.cpg/sg2_210_cif.got.tgz:418602.got - 2010.06.27 13:26:56.
