data_PCOD8025729
_publ_section_title
;
Structure prediction by ZEFSAII (Michael W. Deem and Ramdas Pophale) SiO2 
 PCOD8025729
Probable space group: P -1
;
_chemical_formula_sum "Si O2"
_cell_formula_units_Z 14
_cell_length_a 8.627264
_cell_length_b 5.402189
_cell_length_c 16.258626
_cell_angle_alpha 62.592721
_cell_angle_beta 125.953354
_cell_angle_gamma 102.597023
_cell_volume 543.109855
_symmetry_space_group_name_H-M "P -1"
_symmetry_group_IT_number 2
_symmetry_cell_setting 'triclinic'
loop_
_space_group_symop_operation_xyz
x,y,z
-x,-y,-z
loop_
_atom_site_type_symbol
_atom_site_label
_atom_site_fract_x
_atom_site_fract_y
_atom_site_fract_z
Si Si1 0.413329 0.554462 0.552795
Si Si2 0.547680 0.375691 0.163755
Si Si3 0.166916 0.065667 0.604835
Si Si4 0.653394 0.837283 0.018089
Si Si5 0.896254 0.064990 0.662048
Si Si6 0.162681 0.686133 0.055070
Si Si7 0.178781 0.559095 0.256455
O O1 0.500000 0.500000 0.500000
O O2 0.292451 0.857073 0.466144
O O3 0.594699 0.531069 0.672761
O O4 0.262482 0.331617 0.560469
O O5 0.674274 0.196408 0.297429
O O6 0.693217 0.545619 0.124765
O O7 0.381790 0.556716 0.133054
O O8 0.432568 0.185922 0.096010
O O9 0.000000 0.000000 0.500000
O O10 0.084088 0.141524 0.658391
O O11 0.500000 0.000000 0.000000
O O12 0.842838 0.012986 0.040086
O O13 0.879965 0.250802 0.711713
O O14 0.921544 0.732913 0.733491
O O15 0.116159 0.735346 0.129176
O O16 0.000000 0.500000 0.000000
#
# Coordination Sequence:
#
# PCOD8025729 Si02
#       7
#     2   2   2   2   2   2   2
#     4  10  23  45  75 108 156 201 258 319 381 464
#     4  10  24  47  78 110 154 206 263 329 397 470
#     4  12  26  47  78 118 159 209 262 319 396 480
#     4   9  21  48  76 109 149 199 263 328 395 465
#     4  11  26  49  73 116 155 210 263 316 386 477
#     4  11  26  47  76 116 150 205 265 334 400 470
#     4  11  26  49  79 110 156 207 260 328 396 457
#
# _framework density 25.777473000000001
#
# number of rings (size 3 to 8) (size 9 to 14) (size 15 to 20)
#    0.000    1.429    0.000    3.429    8.000    4.000 
#   18.000    0.000    0.000    0.000    0.000    0.000 
#    0.000    0.000    0.000    0.000    0.000    0.000 
#
# Total GULP energy -173483.219813 kJ/mol
# GULP energy per Si atom -12391.658558 kJ/mol
# Density = 2.571880 g / cm^3
# Si number density = 25.777473 Si / 1000 Ang^3
#
#
#
# Elastic Constant Matrix: (Units=GPa)
#
#
# Indices 1 2 3 4 5 6 
#
# 1 155.0009 59.9019 33.1417 -2.2595 -12.9829 12.5476
# 2 59.9019 123.8734 4.4680 6.8000 -19.5418 15.3382
# 3 33.1417 4.4680 72.1137 14.6634 1.4432 5.5113
# 4 -2.2595 6.8000 14.6634 25.3630 -5.4892 -5.0827
# 5 -12.9829 -19.5418 1.4432 -5.4892 42.3839 -10.4633
# 6 12.5476 15.3382 5.5113 -5.0827 -10.4633 57.4040
#
#
#
# Elastic Compliance Matrix: (Units=1/GPa)
#
#
# Indices 1 2 3 4 5 6 
#
# 1 0.009522 -0.004484 -0.005314 0.005622 0.001874 0.000466
# 2 -0.004484 0.011074 0.002440 -0.004671 0.002509 -0.002169
# 3 -0.005314 0.002440 0.019271 -0.013726 -0.003736 -0.003237
# 4 0.005622 -0.004671 -0.013726 0.052519 0.008708 0.007574
# 5 0.001874 0.002509 -0.003736 0.008708 0.027845 0.005125
# 6 0.000466 -0.002169 -0.003237 0.007574 0.005125 0.019814
#
#
# Mechanical properties :
#
#
# Convention : Reuss Voigt Hill
#
# Bulk Modulus (GPa) = 39.76087 60.66793 50.21440
# Shear Modulus (GPa) = 30.64778 41.92861 36.28819
#
# Velocity S-wave (km/s) = 3.45184 4.03744 3.75607
# Velocity P-wave (km/s) = 5.59866 6.73208 6.19136
#
# Compressibility (1/GPa) = 0.02515036
#
# Stress axis : x y z
#
# Youngs Moduli (GPa) = 105.02288 90.30448 51.89031
#
# Poissons Ratio (x) = 0.40488 0.27577
# Poissons Ratio (y) = 0.47087 -0.12660
# Poissons Ratio (z) = 0.55813 -0.22032
#
# Static dielectric constant tensor:
#      x y z
#    x 5.612540 0.426200 0.197860 
#    y 0.426200 4.877510 -0.583030 
#    z 0.197860 -0.583030 5.491140 
# 
# 
# High freq. dielectric constant tensor:
#      x y z
#    x 2.058100 0.003070 -0.001270 
#    y 0.003070 2.024220 -0.013050 
#    z -0.001270 -0.013050 2.033870 
# 
# From -- ./inp_files/553307.got.cif
#   From: 2010.06.25/outbox.cif.g09.slc.cpg/sg2_277_cif.got.tgz:553307.got - 2010.06.27 13:26:56.
