data_PCOD8025927
_publ_section_title
;
Structure prediction by ZEFSAII (Michael W. Deem and Ramdas Pophale) SiO2 
 PCOD8025927
Probable space group: P -1
;
_chemical_formula_sum "Si O2"
_cell_formula_units_Z 16
_cell_length_a 8.993109
_cell_length_b 11.370870
_cell_length_c 13.525119
_cell_angle_alpha 128.550287
_cell_angle_beta 106.552224
_cell_angle_gamma 114.426291
_cell_volume 637.746661
_symmetry_space_group_name_H-M "P -1"
_symmetry_group_IT_number 2
_symmetry_cell_setting 'triclinic'
loop_
_space_group_symop_operation_xyz
x,y,z
-x,-y,-z
loop_
_atom_site_type_symbol
_atom_site_label
_atom_site_fract_x
_atom_site_fract_y
_atom_site_fract_z
Si Si1 0.254065 0.374469 0.273569
Si Si2 0.205287 0.473428 0.737826
Si Si3 0.115439 0.334051 0.437693
Si Si4 0.983935 0.086813 0.772920
Si Si5 0.557231 0.001387 0.120879
Si Si6 0.511494 0.419660 0.781846
Si Si7 0.287310 0.951138 0.473595
Si Si8 0.733823 0.949051 0.855443
O O1 0.407909 0.559791 0.307224
O O2 0.366486 0.290624 0.254098
O O3 0.288102 0.474036 0.442290
O O4 0.954908 0.155534 0.084189
O O5 0.390100 0.724411 0.965460
O O6 0.280087 0.358132 0.713810
O O7 0.235895 0.522310 0.649775
O O8 0.913544 0.282671 0.613835
O O9 0.068252 0.129693 0.362293
O O10 0.848028 0.200417 0.295746
O O11 0.884818 0.107407 0.674310
O O12 0.274853 0.347892 0.985931
O O13 0.835825 0.026981 0.807265
O O14 0.500000 0.000000 0.000000
O O15 0.474723 0.081718 0.211095
O O16 0.423488 0.190017 0.685500
O O17 0.500000 0.000000 0.500000
#
# Coordination Sequence:
#
# PCOD8025927 Si02
#       8
#     2   2   2   2   2   2   2   2
#     4   9  19  41  70 103 139 176 228 272 349 418
#     4  12  28  46  69 103 141 185 235 282 346 411
#     4  11  23  44  70 108 139 183 226 281 351 417
#     4  10  23  46  74  98 132 185 235 277 352 403
#     4  12  24  43  69 103 146 181 225 287 344 407
#     4  11  23  47  74  99 138 185 229 287 341 416
#     4  12  30  48  67 102 141 180 240 295 336 405
#     4   9  19  38  67 101 136 173 225 280 329 416
#
# _framework density 25.088332000000001
#
# number of rings (size 3 to 8) (size 9 to 14) (size 15 to 20)
#    0.000    1.250    3.750    1.875    5.250    3.000 
#    2.250    0.000    0.000    0.000    0.000    0.000 
#    0.000    0.000    0.000    0.000    0.000    0.000 
#
# Total GULP energy -198308.996279 kJ/mol
# GULP energy per Si atom -12394.312267 kJ/mol
# Density = 2.503123 g / cm^3
# Si number density = 25.088332 Si / 1000 Ang^3
#
#
#
# Elastic Constant Matrix: (Units=GPa)
#
#
# Indices 1 2 3 4 5 6 
#
# 1 150.6123 1.9080 22.8416 -1.8755 25.4384 -16.3855
# 2 1.9080 42.6222 4.4834 -3.1244 7.5887 -4.1466
# 3 22.8416 4.4834 78.2369 -2.2340 4.7357 7.1219
# 4 -1.8755 -3.1244 -2.2340 45.8020 0.9407 -1.1143
# 5 25.4384 7.5887 4.7357 0.9407 37.7761 5.8226
# 6 -16.3855 -4.1466 7.1219 -1.1143 5.8226 24.7503
#
#
#
# Elastic Compliance Matrix: (Units=1/GPa)
#
#
# Indices 1 2 3 4 5 6 
#
# 1 0.009490 0.002313 -0.003267 0.000781 -0.007931 0.009511
# 2 0.002313 0.025992 -0.002405 0.002119 -0.007844 0.008519
# 3 -0.003267 -0.002405 0.014412 0.000190 0.001976 -0.007169
# 4 0.000781 0.002119 0.000190 0.022112 -0.001874 0.002254
# 5 -0.007931 -0.007844 0.001976 -0.001874 0.035590 -0.015590
# 6 0.009511 0.008519 -0.007169 0.002254 -0.015590 0.053959
#
#
# Mechanical properties :
#
#
# Convention : Reuss Voigt Hill
#
# Bulk Modulus (GPa) = 23.16058 36.65973 29.91015
# Shear Modulus (GPa) = 27.37278 37.81491 32.59385
#
# Velocity S-wave (km/s) = 3.30670 3.88657 3.60830
# Velocity P-wave (km/s) = 4.88166 5.89784 5.41365
#
# Compressibility (1/GPa) = 0.04317682
#
# Stress axis : x y z
#
# Youngs Moduli (GPa) = 105.37829 38.47339 69.38877
#
# Poissons Ratio (x) = -0.08901 0.22666
# Poissons Ratio (y) = -0.24379 0.16689
# Poissons Ratio (z) = 0.34422 0.09253
#
# Static dielectric constant tensor:
#      x y z
#    x 4.582200 0.034240 -0.100560 
#    y 0.034240 4.301440 0.281000 
#    z -0.100560 0.281000 4.555150 
# 
# 
# High freq. dielectric constant tensor:
#      x y z
#    x 2.011910 0.006890 0.009790 
#    y 0.006890 1.980290 -0.000750 
#    z 0.009790 -0.000750 2.019620 
# 
# From -- ./inp_files/500871.got.cif
#   From: 2010.06.25/outbox.cif.g09.slc.cpg/sg2_251_cif.got.tgz:500871.got - 2010.06.27 13:26:56.
