data_PCOD8025217
_publ_section_title
;
Structure prediction by ZEFSAII (Michael W. Deem and Ramdas Pophale) SiO2 
 PCOD8025217
Probable space group: P -1
;
_chemical_formula_sum "Si O2"
_cell_formula_units_Z 16
_cell_length_a 9.277116
_cell_length_b 10.889119
_cell_length_c 14.392889
_cell_angle_alpha 115.871243
_cell_angle_beta 64.931895
_cell_angle_gamma 61.694467
_cell_volume 697.161345
_symmetry_space_group_name_H-M "P -1"
_symmetry_group_IT_number 2
_symmetry_cell_setting 'triclinic'
loop_
_space_group_symop_operation_xyz
x,y,z
-x,-y,-z
loop_
_atom_site_type_symbol
_atom_site_label
_atom_site_fract_x
_atom_site_fract_y
_atom_site_fract_z
Si Si1 0.954699 0.113506 0.457551
Si Si2 0.094191 0.060654 0.731329
Si Si3 0.902955 0.988715 0.897388
Si Si4 0.945294 0.478108 0.906140
Si Si5 0.363252 0.222071 0.560528
Si Si6 0.432244 0.647047 0.736912
Si Si7 0.290654 0.290395 0.393789
Si Si8 0.363998 0.970435 0.188422
O O1 0.650806 0.382211 0.620665
O O2 0.169880 0.084112 0.369528
O O3 0.062359 0.928501 0.292303
O O4 0.000000 0.000000 0.500000
O O5 0.020202 0.051966 0.848700
O O6 0.017304 0.270291 0.818226
O O7 0.406529 0.823545 0.534753
O O8 0.798720 0.951074 0.837016
O O9 0.654839 0.200012 0.101007
O O10 0.170751 0.747319 0.799006
O O11 0.121213 0.437326 0.766601
O O12 0.000000 0.500000 0.000000
O O13 0.635623 0.695357 0.030840
O O14 0.258939 0.258683 0.497834
O O15 0.500000 0.000000 0.500000
O O16 0.563359 0.663307 0.633373
O O17 0.448116 0.071158 0.212210
O O18 0.000000 0.500000 0.500000
#
# Coordination Sequence:
#
# PCOD8025217 Si02
#       8
#     2   2   2   2   2   2   2   2
#     4  11  27  42  73 104 140 189 242 294 365 435
#     4  10  23  44  70  99 140 188 236 295 353 437
#     4  10  25  46  70 106 142 193 242 297 366 432
#     4  11  26  43  71 108 149 186 242 304 368 433
#     4  10  23  44  73  98 139 190 241 286 363 432
#     4  11  25  48  74 100 149 193 244 295 369 432
#     4  12  25  46  74 103 144 190 242 304 358 441
#     4  11  26  44  70 107 143 183 250 296 367 425
#
# _framework density 22.950210999999999
#
# number of rings (size 3 to 8) (size 9 to 14) (size 15 to 20)
#    0.000    1.250    2.500    1.500   10.500    4.500 
#    2.250    0.000    0.000    0.000    0.000    0.000 
#    0.000    0.000    0.000    0.000    0.000    0.000 
#
# Total GULP energy -198215.329470 kJ/mol
# GULP energy per Si atom -12388.458092 kJ/mol
# Density = 2.289797 g / cm^3
# Si number density = 22.950211 Si / 1000 Ang^3
#
#
#
# Elastic Constant Matrix: (Units=GPa)
#
#
# Indices 1 2 3 4 5 6 
#
# 1 85.2436 36.5459 26.8431 8.4438 10.7570 -17.6059
# 2 36.5459 129.5740 54.3493 -0.1978 4.8243 -21.6426
# 3 26.8431 54.3493 130.3437 2.8388 -3.1405 -12.8323
# 4 8.4438 -0.1978 2.8388 40.6812 -3.1242 0.4171
# 5 10.7570 4.8243 -3.1405 -3.1242 37.0599 2.5972
# 6 -17.6059 -21.6426 -12.8323 0.4171 2.5972 35.4076
#
#
#
# Elastic Compliance Matrix: (Units=1/GPa)
#
#
# Indices 1 2 3 4 5 6 
#
# 1 0.015553 -0.002528 -0.001600 -0.003578 -0.005045 0.006021
# 2 -0.002528 0.010644 -0.003564 0.000693 -0.001178 0.004036
# 3 -0.001600 -0.003564 0.009570 -0.000227 0.001694 0.000373
# 4 -0.003578 0.000693 -0.000227 0.025611 0.003227 -0.001976
# 5 -0.005045 -0.001178 0.001694 0.003227 0.029353 -0.004806
# 6 0.006021 0.004036 0.000373 -0.001976 -0.004806 0.034214
#
#
# Mechanical properties :
#
#
# Convention : Reuss Voigt Hill
#
# Bulk Modulus (GPa) = 49.05685 64.51533 56.78609
# Shear Modulus (GPa) = 33.98483 37.79128 35.88805
#
# Velocity S-wave (km/s) = 3.85230 4.06231 3.95870
# Velocity P-wave (km/s) = 6.41940 7.08345 6.75958
#
# Compressibility (1/GPa) = 0.02038451
#
# Stress axis : x y z
#
# Youngs Moduli (GPa) = 64.29598 93.94526 104.49255
#
# Poissons Ratio (x) = 0.23745 0.16718
# Poissons Ratio (y) = 0.16251 0.37241
# Poissons Ratio (z) = 0.10287 0.33482
#
# Static dielectric constant tensor:
#      x y z
#    x 4.091600 -0.192940 -0.212140 
#    y -0.192940 3.691010 0.354000 
#    z -0.212140 0.354000 3.581920 
# 
# 
# High freq. dielectric constant tensor:
#      x y z
#    x 1.909430 -0.004610 -0.006870 
#    y -0.004610 1.907710 -0.005450 
#    z -0.006870 -0.005450 1.912770 
# 
# From -- ./inp_files/500693.got.cif
#   From: 2010.06.25/outbox.cif.g09.slc.cpg/sg2_251_cif.got.tgz:500693.got - 2010.06.27 13:26:56.
