data_PCOD8025697
_publ_section_title
;
Structure prediction by ZEFSAII (Michael W. Deem and Ramdas Pophale) SiO2 
 PCOD8025697
Probable space group: P -1
;
_chemical_formula_sum "Si O2"
_cell_formula_units_Z 16
_cell_length_a 16.522322
_cell_length_b 11.824862
_cell_length_c 18.763516
_cell_angle_alpha 42.441119
_cell_angle_beta 156.895492
_cell_angle_gamma 148.410133
_cell_volume 734.843616
_symmetry_space_group_name_H-M "P -1"
_symmetry_group_IT_number 2
_symmetry_cell_setting 'triclinic'
loop_
_space_group_symop_operation_xyz
x,y,z
-x,-y,-z
loop_
_atom_site_type_symbol
_atom_site_label
_atom_site_fract_x
_atom_site_fract_y
_atom_site_fract_z
Si Si1 0.254569 0.345058 0.426115
Si Si2 0.758964 0.516704 0.500668
Si Si3 0.261409 0.433180 0.077591
Si Si4 0.909329 0.611999 0.199926
Si Si5 0.727085 0.031349 0.350992
Si Si6 0.317296 0.827494 0.994514
Si Si7 0.128964 0.047505 0.005265
Si Si8 0.727014 0.316589 0.320021
O O1 0.500000 0.500000 0.500000
O O2 0.314474 0.502934 0.466680
O O3 0.234642 0.144756 0.528555
O O4 0.976094 0.242791 0.208378
O O5 0.525498 0.456650 0.287396
O O6 0.814966 0.351296 0.603025
O O7 0.027426 0.769998 0.590180
O O8 0.290596 0.615008 0.061947
O O9 0.239853 0.463189 0.962443
O O10 0.007501 0.197522 0.018380
O O11 0.716161 0.423598 0.189969
O O12 0.965128 0.833073 0.168452
O O13 0.450979 0.929149 0.132470
O O14 0.724609 0.120957 0.384418
O O15 0.500000 0.000000 0.000000
O O16 0.457140 0.209021 0.197540
O O17 0.000000 0.000000 0.000000
O O18 0.000000 0.500000 0.500000
#
# Coordination Sequence:
#
# PCOD8025697 Si02
#       8
#     2   2   2   2   2   2   2   2
#     4  12  26  41  67 111 143 180 227 283 351 413
#     4  11  22  44  70 103 137 189 232 278 343 421
#     4  11  23  42  75 100 148 178 229 292 347 411
#     4  10  23  45  73  99 136 182 238 280 345 413
#     4  11  25  44  72  97 140 185 237 279 344 418
#     4  12  22  44  74 100 139 189 229 280 343 422
#     4  10  25  45  69 102 139 183 229 288 354 405
#     4  11  26  49  72 102 136 184 241 291 337 419
#
# _framework density 21.773340000000001
#
# number of rings (size 3 to 8) (size 9 to 14) (size 15 to 20)
#    0.000    1.000    3.750    2.250    8.750    2.000 
#    6.750    0.000    0.000    0.000    0.000    0.000 
#    0.000    0.000    0.000    0.000    0.000    0.000 
#
# Total GULP energy -198367.159319 kJ/mol
# GULP energy per Si atom -12397.947457 kJ/mol
# Density = 2.172378 g / cm^3
# Si number density = 21.773340 Si / 1000 Ang^3
#
#
#
# Elastic Constant Matrix: (Units=GPa)
#
#
# Indices 1 2 3 4 5 6 
#
# 1 102.4621 30.6615 53.0271 14.0004 16.7036 2.3127
# 2 30.6615 123.5941 51.4768 2.0221 14.1823 -5.2278
# 3 53.0271 51.4768 191.2239 6.0783 5.3438 5.7178
# 4 14.0004 2.0221 6.0783 31.2014 -1.9645 3.3921
# 5 16.7036 14.1823 5.3438 -1.9645 41.5638 7.5695
# 6 2.3127 -5.2278 5.7178 3.3921 7.5695 28.5221
#
#
#
# Elastic Compliance Matrix: (Units=1/GPa)
#
#
# Indices 1 2 3 4 5 6 
#
# 1 0.013305 -0.001303 -0.003055 -0.005749 -0.005020 0.001311
# 2 -0.001303 0.009872 -0.002300 -0.000156 -0.003145 0.003229
# 3 -0.003055 -0.002300 0.006695 0.000528 0.001539 -0.001987
# 4 -0.005749 -0.000156 0.000528 0.035410 0.004913 -0.005184
# 5 -0.005020 -0.003145 0.001539 0.004913 0.028768 -0.008697
# 6 0.001311 0.003229 -0.001987 -0.005184 -0.008697 0.038869
#
#
# Mechanical properties :
#
#
# Convention : Reuss Voigt Hill
#
# Bulk Modulus (GPa) = 60.39729 76.40122 68.39926
# Shear Modulus (GPa) = 32.94805 39.06510 36.00658
#
# Velocity S-wave (km/s) = 3.89424 4.24036 4.07098
# Velocity P-wave (km/s) = 6.92961 7.69024 7.31981
#
# Compressibility (1/GPa) = 0.01655703
#
# Stress axis : x y z
#
# Youngs Moduli (GPa) = 75.15993 101.29497 149.35607
#
# Poissons Ratio (x) = 0.13196 0.45628
# Poissons Ratio (y) = 0.09792 0.34352
# Poissons Ratio (z) = 0.22961 0.23298
#
# Static dielectric constant tensor:
#      x y z
#    x 3.848400 -0.109830 0.034520 
#    y -0.109830 4.950990 -0.078170 
#    z 0.034520 -0.078170 4.095610 
# 
# 
# High freq. dielectric constant tensor:
#      x y z
#    x 1.846680 -0.004580 0.005750 
#    y -0.004580 1.867440 -0.010700 
#    z 0.005750 -0.010700 1.860670 
# 
# From -- ./inp_files/600075.got.cif
#   From: 2010.06.25/outbox.cif.g09.slc.cpg/sg2_301_cif.got.tgz:600075.got - 2010.06.27 13:26:56.
