data_PCOD8025499
_publ_section_title
;
Structure prediction by ZEFSAII (Michael W. Deem and Ramdas Pophale) SiO2 
 PCOD8025499
Probable space group: P -1
;
_chemical_formula_sum "Si O2"
_cell_formula_units_Z 14
_cell_length_a 6.403285
_cell_length_b 17.338363
_cell_length_c 8.894861
_cell_angle_alpha 116.453197
_cell_angle_beta 63.516840
_cell_angle_gamma 72.517716
_cell_volume 619.159981
_symmetry_space_group_name_H-M "P -1"
_symmetry_group_IT_number 2
_symmetry_cell_setting 'triclinic'
loop_
_space_group_symop_operation_xyz
x,y,z
-x,-y,-z
loop_
_atom_site_type_symbol
_atom_site_label
_atom_site_fract_x
_atom_site_fract_y
_atom_site_fract_z
Si Si1 0.189747 0.216461 0.159633
Si Si2 0.267337 0.497937 0.862440
Si Si3 0.638451 0.348473 0.871006
Si Si4 0.155320 0.041651 0.900941
Si Si5 0.813850 0.865521 0.608386
Si Si6 0.155628 0.953123 0.253581
Si Si7 0.023499 0.432288 0.290113
O O1 0.216631 0.204030 0.320872
O O2 0.988283 0.343420 0.287010
O O3 0.055476 0.156448 0.098759
O O4 0.510457 0.157709 0.930226
O O5 0.567039 0.393335 0.758226
O O6 0.248166 0.496951 0.684145
O O7 0.234659 0.602890 0.025297
O O8 0.000000 0.500000 0.000000
O O9 0.906790 0.217756 0.663865
O O10 0.343700 0.374817 0.060776
O O11 0.030296 0.073928 0.801008
O O12 0.506154 0.942884 0.683711
O O13 0.000000 0.000000 0.000000
O O14 0.849047 0.952211 0.748598
O O15 0.000000 0.000000 0.500000
O O16 0.000000 0.500000 0.500000
#
# Coordination Sequence:
#
# PCOD8025499 Si02
#       7
#     2   2   2   2   2   2   2
#     4  11  24  41  67 101 132 171 227 269 329 396
#     4   9  22  45  69  93 132 173 230 273 331 393
#     4  10  23  45  68  97 133 175 224 278 332 392
#     4  11  21  45  68  96 132 178 215 266 331 399
#     4  11  23  40  70  99 131 172 222 266 329 402
#     4  11  23  42  66 100 135 166 217 277 328 394
#     4  11  26  46  67  99 137 174 225 279 331 394
#
# _framework density 22.611280000000001
#
# number of rings (size 3 to 8) (size 9 to 14) (size 15 to 20)
#    0.000    1.429    2.857    1.714    6.000    8.571 
#    2.571    0.000    0.000    0.000    0.000    0.000 
#    0.000    0.000    0.000    0.000    0.000    0.000 
#
# Total GULP energy -173483.448730 kJ/mol
# GULP energy per Si atom -12391.674909 kJ/mol
# Density = 2.255982 g / cm^3
# Si number density = 22.611280 Si / 1000 Ang^3
#
#
#
# Elastic Constant Matrix: (Units=GPa)
#
#
# Indices 1 2 3 4 5 6 
#
# 1 132.8293 36.5089 28.2024 3.4835 26.9365 -3.7375
# 2 36.5089 110.4589 20.6132 3.7582 19.9727 1.9110
# 3 28.2024 20.6132 82.2769 6.9210 5.9279 -4.2560
# 4 3.4835 3.7582 6.9210 38.1658 1.2331 6.5561
# 5 26.9365 19.9727 5.9279 1.2331 38.1876 -10.9282
# 6 -3.7375 1.9110 -4.2560 6.5561 -10.9282 28.5065
#
#
#
# Elastic Compliance Matrix: (Units=1/GPa)
#
#
# Indices 1 2 3 4 5 6 
#
# 1 0.009690 -0.001626 -0.002566 0.000163 -0.005972 -0.001330
# 2 -0.001626 0.010958 -0.001996 0.000164 -0.005219 -0.003284
# 3 -0.002566 -0.001996 0.013797 -0.002661 0.001690 0.003117
# 4 0.000163 0.000164 -0.002661 0.028124 -0.002985 -0.007999
# 5 -0.005972 -0.005219 0.001690 -0.002985 0.037187 0.014762
# 6 -0.001330 -0.003284 0.003117 -0.007999 0.014762 0.043090
#
#
# Mechanical properties :
#
#
# Convention : Reuss Voigt Hill
#
# Bulk Modulus (GPa) = 45.31342 55.13490 50.22416
# Shear Modulus (GPa) = 30.75456 36.98801 33.87129
#
# Velocity S-wave (km/s) = 3.69201 4.04892 3.87458
# Velocity P-wave (km/s) = 6.18533 6.80405 6.50205
#
# Compressibility (1/GPa) = 0.02206852
#
# Stress axis : x y z
#
# Youngs Moduli (GPa) = 103.20259 91.25657 72.47961
#
# Poissons Ratio (x) = 0.14843 0.18599
# Poissons Ratio (y) = 0.16786 0.14463
# Poissons Ratio (z) = 0.26483 0.18210
#
# Static dielectric constant tensor:
#      x y z
#    x 4.115660 0.062240 0.140150 
#    y 0.062240 4.443810 -0.070000 
#    z 0.140150 -0.070000 3.827820 
# 
# 
# High freq. dielectric constant tensor:
#      x y z
#    x 1.901100 0.005180 0.001120 
#    y 0.005180 1.897180 -0.006710 
#    z 0.001120 -0.006710 1.877640 
# 
# From -- ./inp_files/106498.got.cif
#   From: 2010.06.25/outbox.cif.g09.slc.cpg/sg2_54_cif.got.tgz:106498.got - 2010.06.27 13:26:56.
