data_PCOD8025791
_publ_section_title
;
Structure prediction by ZEFSAII (Michael W. Deem and Ramdas Pophale) SiO2 
 PCOD8025791
Probable space group: P -1
;
_chemical_formula_sum "Si O2"
_cell_formula_units_Z 14
_cell_length_a 11.570473
_cell_length_b 9.861454
_cell_length_c 8.916106
_cell_angle_alpha 45.440759
_cell_angle_beta 118.179904
_cell_angle_gamma 116.367559
_cell_volume 628.575556
_symmetry_space_group_name_H-M "P -1"
_symmetry_group_IT_number 2
_symmetry_cell_setting 'triclinic'
loop_
_space_group_symop_operation_xyz
x,y,z
-x,-y,-z
loop_
_atom_site_type_symbol
_atom_site_label
_atom_site_fract_x
_atom_site_fract_y
_atom_site_fract_z
Si Si1 0.387798 0.838351 0.981797
Si Si2 0.292317 0.726612 0.522587
Si Si3 0.148494 0.779223 0.098414
Si Si4 0.488823 0.462080 0.344244
Si Si5 0.985847 0.036621 0.634659
Si Si6 0.684091 0.948607 0.513691
Si Si7 0.042790 0.556259 0.647330
O O1 0.319400 0.940633 0.730811
O O2 0.273759 0.745710 0.101026
O O3 0.451929 0.657653 0.098908
O O4 0.500000 0.000000 0.000000
O O5 0.197724 0.801736 0.282154
O O6 0.373328 0.576694 0.611703
O O7 0.204548 0.614034 0.694273
O O8 0.378158 0.923489 0.495934
O O9 0.019208 0.605969 0.143585
O O10 0.094216 0.965065 0.862765
O O11 0.500000 0.500000 0.500000
O O12 0.384980 0.272600 0.377750
O O13 0.835019 0.950059 0.658708
O O14 0.025120 0.264577 0.493088
O O15 0.000000 0.000000 0.500000
O O16 0.000000 0.500000 0.500000
#
# Coordination Sequence:
#
# PCOD8025791 Si02
#       7
#     2   2   2   2   2   2   2
#     4  12  25  42  69 104 132 179 234 283 337 403
#     4  10  23  46  68 103 144 173 230 289 334 414
#     4  11  23  44  73  97 140 186 225 273 348 403
#     4  12  24  44  76  97 130 190 226 280 350 405
#     4  11  24  41  69 101 139 178 225 286 332 404
#     4  11  25  44  65 107 140 170 233 287 340 403
#     4   9  23  41  64  98 137 178 223 275 332 403
#
# _framework density 22.272580999999999
#
# number of rings (size 3 to 8) (size 9 to 14) (size 15 to 20)
#    0.000    1.143    4.286    0.429    2.000   10.857 
#    0.000    4.286    0.000    0.000    0.000    0.000 
#    0.000    0.000    0.000    0.000    0.000    0.000 
#
# Total GULP energy -173454.317254 kJ/mol
# GULP energy per Si atom -12389.594090 kJ/mol
# Density = 2.222189 g / cm^3
# Si number density = 22.272581 Si / 1000 Ang^3
#
#
#
# Elastic Constant Matrix: (Units=GPa)
#
#
# Indices 1 2 3 4 5 6 
#
# 1 118.7504 47.1424 38.8633 -13.2347 2.1672 -7.0495
# 2 47.1424 148.6442 23.1174 -21.6789 -1.7614 -14.0445
# 3 38.8633 23.1174 68.7476 -9.9676 -2.8808 -1.8559
# 4 -13.2347 -21.6789 -9.9676 36.4480 1.8280 5.3352
# 5 2.1672 -1.7614 -2.8808 1.8280 28.8220 -5.9371
# 6 -7.0495 -14.0445 -1.8559 5.3352 -5.9371 36.4905
#
#
#
# Elastic Compliance Matrix: (Units=1/GPa)
#
#
# Indices 1 2 3 4 5 6 
#
# 1 0.011419 -0.002576 -0.005477 0.001117 -0.001526 0.000525
# 2 -0.002576 0.008400 -0.000766 0.003465 0.000892 0.002335
# 3 -0.005477 -0.000766 0.018337 0.002543 0.001938 -0.000477
# 4 0.001117 0.003465 0.002543 0.031187 -0.002266 -0.003250
# 5 -0.001526 0.000892 0.001938 -0.002266 0.036525 0.006421
# 6 0.000525 0.002335 -0.000477 -0.003250 0.006421 0.029900
#
#
# Mechanical properties :
#
#
# Convention : Reuss Voigt Hill
#
# Bulk Modulus (GPa) = 48.73560 61.59871 55.16715
# Shear Modulus (GPa) = 31.20206 35.48672 33.34439
#
# Velocity S-wave (km/s) = 3.74694 3.99594 3.87344
# Velocity P-wave (km/s) = 6.37561 7.00049 6.69534
#
# Compressibility (1/GPa) = 0.02051888
#
# Stress axis : x y z
#
# Youngs Moduli (GPa) = 87.56980 119.04849 54.53486
#
# Poissons Ratio (x) = 0.30661 0.29871
# Poissons Ratio (y) = 0.22554 0.04177
# Poissons Ratio (z) = 0.47965 0.09118
#
# Static dielectric constant tensor:
#      x y z
#    x 4.906560 0.460810 -0.080190 
#    y 0.460810 4.708820 -0.303310 
#    z -0.080190 -0.303310 4.045460 
# 
# 
# High freq. dielectric constant tensor:
#      x y z
#    x 1.884170 -0.002430 0.003580 
#    y -0.002430 1.892660 -0.002490 
#    z 0.003580 -0.002490 1.863910 
# 
# From -- ./inp_files/242267.got.cif
#   From: 2010.06.25/outbox.cif.g09.slc.cpg/sg2_122_cif.got.tgz:242267.got - 2010.06.27 13:26:56.
