data_PCOD8025240
_publ_section_title
;
Structure prediction by ZEFSAII (Michael W. Deem and Ramdas Pophale) SiO2 
 PCOD8025240
Probable space group: P -1
;
_chemical_formula_sum "Si O2"
_cell_formula_units_Z 16
_cell_length_a 19.486465
_cell_length_b 9.363421
_cell_length_c 5.034630
_cell_angle_alpha 108.894241
_cell_angle_beta 110.067208
_cell_angle_gamma 52.315929
_cell_volume 674.765993
_symmetry_space_group_name_H-M "P -1"
_symmetry_group_IT_number 2
_symmetry_cell_setting 'triclinic'
loop_
_space_group_symop_operation_xyz
x,y,z
-x,-y,-z
loop_
_atom_site_type_symbol
_atom_site_label
_atom_site_fract_x
_atom_site_fract_y
_atom_site_fract_z
Si Si1 0.750859 0.111682 0.997471
Si Si2 0.224302 0.311075 0.624962
Si Si3 0.289722 0.532861 0.109928
Si Si4 0.623487 0.004105 0.646167
Si Si5 0.854309 0.890139 0.492494
Si Si6 0.550420 0.833244 0.765262
Si Si7 0.036871 0.805562 0.805571
Si Si8 0.148664 0.618048 0.340051
O O1 0.664829 0.102083 0.904464
O O2 0.817571 0.972760 0.782964
O O3 0.716457 0.317528 0.001392
O O4 0.803500 0.051466 0.307197
O O5 0.238108 0.450066 0.876844
O O6 0.178809 0.414426 0.348028
O O7 0.316070 0.113083 0.593668
O O8 0.160133 0.271909 0.676146
O O9 0.394202 0.372713 0.172619
O O10 0.235365 0.618916 0.366844
O O11 0.522437 0.156261 0.519601
O O12 0.623191 0.854244 0.735081
O O13 0.958523 0.797515 0.573004
O O14 0.500000 0.000000 0.000000
O O15 0.897415 0.240753 0.385554
O O16 0.084780 0.667433 0.031557
O O17 0.000000 0.000000 0.000000
#
# Coordination Sequence:
#
# PCOD8025240 Si02
#       8
#     2   2   2   2   2   2   2   2
#     4  11  27  45  74 102 147 187 238 293 354 430
#     4  11  24  45  75 101 146 188 241 293 354 433
#     4  12  25  44  73 107 144 189 242 293 359 416
#     4  10  23  44  71 106 141 190 236 288 361 424
#     4  11  27  48  72 104 142 193 237 291 365 425
#     4  11  22  41  74 104 143 188 239 290 354 427
#     4  12  27  46  72 105 150 187 235 299 366 424
#     4  12  26  44  73 105 142 186 243 294 351 425
#
# _framework density 23.711922999999999
#
# number of rings (size 3 to 8) (size 9 to 14) (size 15 to 20)
#    0.000    0.750    3.750    2.625    7.000    1.500 
#    0.000    0.625    0.000    0.000    0.000    0.000 
#    0.000    0.000    0.000    0.000    0.000    0.000 
#
# Total GULP energy -198310.582230 kJ/mol
# GULP energy per Si atom -12394.411389 kJ/mol
# Density = 2.365795 g / cm^3
# Si number density = 23.711923 Si / 1000 Ang^3
#
#
#
# Elastic Constant Matrix: (Units=GPa)
#
#
# Indices 1 2 3 4 5 6 
#
# 1 105.0910 55.1010 36.7227 -7.9006 0.4420 -10.1053
# 2 55.1010 132.0211 40.2797 -28.7775 11.3537 1.6375
# 3 36.7227 40.2797 98.0478 -17.6407 -5.9900 -6.7805
# 4 -7.9006 -28.7775 -17.6407 46.7135 0.6966 -3.4775
# 5 0.4420 11.3537 -5.9900 0.6966 31.2047 -2.4033
# 6 -10.1053 1.6375 -6.7805 -3.4775 -2.4033 37.5604
#
#
#
# Elastic Compliance Matrix: (Units=1/GPa)
#
#
# Indices 1 2 3 4 5 6 
#
# 1 0.013480 -0.005322 -0.002882 -0.001866 0.001485 0.003261
# 2 -0.005322 0.012254 -0.002500 0.005616 -0.005160 -0.002227
# 3 -0.002882 -0.002500 0.013235 0.003083 0.003594 0.002238
# 4 -0.001866 0.005616 0.003083 0.025899 -0.001842 0.002090
# 5 0.001485 -0.005160 0.003594 -0.001842 0.034891 0.003335
# 6 0.003261 -0.002227 0.002238 0.002090 0.003335 0.028409
#
#
# Mechanical properties :
#
#
# Convention : Reuss Voigt Hill
#
# Bulk Modulus (GPa) = 56.94332 66.59631 61.76981
# Shear Modulus (GPa) = 32.16932 36.63283 34.40108
#
# Velocity S-wave (km/s) = 3.68730 3.93480 3.81306
# Velocity P-wave (km/s) = 6.49577 6.98499 6.74482
#
# Compressibility (1/GPa) = 0.01756132
#
# Stress axis : x y z
#
# Youngs Moduli (GPa) = 74.18454 81.60713 75.55911
#
# Poissons Ratio (x) = 0.43429 0.21777
# Poissons Ratio (y) = 0.39479 0.18888
# Poissons Ratio (z) = 0.21381 0.20400
#
# Static dielectric constant tensor:
#      x y z
#    x 4.895190 -0.063550 0.064320 
#    y -0.063550 4.463130 -0.272990 
#    z 0.064320 -0.272990 4.462140 
# 
# 
# High freq. dielectric constant tensor:
#      x y z
#    x 1.939140 -0.007670 -0.003270 
#    y -0.007670 1.941270 -0.014460 
#    z -0.003270 -0.014460 1.941870 
# 
# From -- ./inp_files/43869.got.cif
#   From: 2010.06.25/outbox.cif.g09.slc.cpg/sg2_22_cif.got.tgz:43869.got - 2010.06.27 13:26:56.
