data_PCOD8025456
_publ_section_title
;
Structure prediction by ZEFSAII (Michael W. Deem and Ramdas Pophale) SiO2 
 PCOD8025456
Probable space group: P -1
;
_chemical_formula_sum "Si O2"
_cell_formula_units_Z 16
_cell_length_a 21.711813
_cell_length_b 8.647439
_cell_length_c 17.187973
_cell_angle_alpha 56.845803
_cell_angle_beta 19.042576
_cell_angle_gamma 48.087708
_cell_volume 734.499850
_symmetry_space_group_name_H-M "P -1"
_symmetry_group_IT_number 2
_symmetry_cell_setting 'triclinic'
loop_
_space_group_symop_operation_xyz
x,y,z
-x,-y,-z
loop_
_atom_site_type_symbol
_atom_site_label
_atom_site_fract_x
_atom_site_fract_y
_atom_site_fract_z
Si Si1 0.424994 0.028615 0.716344
Si Si2 0.993126 0.453724 0.360386
Si Si3 0.718489 0.499301 0.258341
Si Si4 0.057350 0.800056 0.779145
Si Si5 0.874058 0.588039 0.297261
Si Si6 0.139329 0.131561 0.520866
Si Si7 0.894174 0.173999 0.646875
Si Si8 0.401444 0.999049 0.931650
O O1 0.374857 0.250898 0.672770
O O2 0.442673 0.053694 0.780907
O O3 0.654106 0.817367 0.466224
O O4 0.212434 0.014172 0.951830
O O5 0.846223 0.584016 0.424122
O O6 0.047202 0.618312 0.294789
O O7 0.840010 0.405719 0.612884
O O8 0.222516 0.227909 0.125130
O O9 0.500000 0.500000 0.500000
O O10 0.861819 0.325751 0.201910
O O11 0.895681 0.425986 0.995428
O O12 0.121108 0.620513 0.685181
O O13 0.170980 0.936048 0.591851
O O14 0.076815 0.098392 0.518720
O O15 0.376562 0.113116 0.248525
O O16 0.000000 0.000000 0.500000
O O17 0.677654 0.173198 0.934460
#
# Coordination Sequence:
#
# PCOD8025456 Si02
#       8
#     2   2   2   2   2   2   2   2
#     4  11  21  44  67  96 136 178 223 278 338 402
#     4  11  23  41  70  98 133 178 225 282 335 403
#     4  11  25  43  67 100 138 174 226 283 335 407
#     4  11  24  43  68  98 136 179 225 281 339 402
#     4  11  23  44  70  97 134 181 226 276 345 401
#     4  12  24  43  69 102 136 177 229 279 341 401
#     4  10  23  45  67  98 139 178 227 280 336 403
#     4  11  22  44  68  95 140 178 221 286 336 400
#
# _framework density 21.783529999999999
#
# number of rings (size 3 to 8) (size 9 to 14) (size 15 to 20)
#    0.000    1.000    5.000    3.375    0.000    6.000 
#    0.000    0.000    0.000    0.000    0.000    0.000 
#    0.000    0.000    0.000    0.000    0.000    0.000 
#
# Total GULP energy -198357.613812 kJ/mol
# GULP energy per Si atom -12397.350863 kJ/mol
# Density = 2.173395 g / cm^3
# Si number density = 21.783530 Si / 1000 Ang^3
#
#
#
# Elastic Constant Matrix: (Units=GPa)
#
#
# Indices 1 2 3 4 5 6 
#
# 1 107.7410 45.5447 34.5733 -13.6961 -20.3021 -7.1442
# 2 45.5447 139.6365 57.2342 -8.0472 5.6500 -6.1777
# 3 34.5733 57.2342 120.4840 4.8655 -24.1720 0.5204
# 4 -13.6961 -8.0472 4.8655 36.8290 1.2614 0.0480
# 5 -20.3021 5.6500 -24.1720 1.2614 33.1688 -0.5040
# 6 -7.1442 -6.1777 0.5204 0.0480 -0.5040 37.2892
#
#
#
# Elastic Compliance Matrix: (Units=1/GPa)
#
#
# Indices 1 2 3 4 5 6 
#
# 1 0.013434 -0.004344 -0.000207 0.003773 0.008698 0.001970
# 2 -0.004344 0.011682 -0.006251 0.002079 -0.009267 0.001062
# 3 -0.000207 -0.006251 0.013695 -0.003629 0.011039 -0.001112
# 4 0.003773 0.002079 -0.003629 0.029550 -0.001797 0.001056
# 5 0.008698 -0.009267 0.011039 -0.001797 0.045173 0.000590
# 6 0.001970 0.001062 -0.001112 0.001056 0.000590 0.027393
#
#
# Mechanical properties :
#
#
# Convention : Reuss Voigt Hill
#
# Bulk Modulus (GPa) = 58.11653 71.39622 64.75637
# Shear Modulus (GPa) = 29.71503 36.82468 33.26985
#
# Velocity S-wave (km/s) = 3.69739 4.11601 3.91230
# Velocity P-wave (km/s) = 6.70556 7.44548 7.08519
#
# Compressibility (1/GPa) = 0.01720681
#
# Stress axis : x y z
#
# Youngs Moduli (GPa) = 74.44031 85.60129 73.02160
#
# Poissons Ratio (x) = 0.37185 0.01512
# Poissons Ratio (y) = 0.32337 0.45643
# Poissons Ratio (z) = 0.01542 0.53506
#
# Static dielectric constant tensor:
#      x y z
#    x 4.060280 -0.094980 -0.000480 
#    y -0.094980 4.355170 -0.229380 
#    z -0.000480 -0.229380 3.997830 
# 
# 
# High freq. dielectric constant tensor:
#      x y z
#    x 1.853040 -0.009600 -0.004950 
#    y -0.009600 1.871680 -0.001590 
#    z -0.004950 -0.001590 1.845920 
# 
# From -- ./inp_files/577297.got.cif
#   From: 2010.06.25/outbox.cif.g09.slc.cpg/sg2_289_cif.got.tgz:577297.got - 2010.06.27 13:26:56.
