data_PCOD8025661
_publ_section_title
;
Structure prediction by ZEFSAII (Michael W. Deem and Ramdas Pophale) SiO2 
 PCOD8025661
Probable space group: P -1
;
_chemical_formula_sum "Si O2"
_cell_formula_units_Z 16
_cell_length_a 14.087783
_cell_length_b 8.108501
_cell_length_c 14.136764
_cell_angle_alpha 122.249135
_cell_angle_beta 123.067347
_cell_angle_gamma 29.914899
_cell_volume 667.756751
_symmetry_space_group_name_H-M "P -1"
_symmetry_group_IT_number 2
_symmetry_cell_setting 'triclinic'
loop_
_space_group_symop_operation_xyz
x,y,z
-x,-y,-z
loop_
_atom_site_type_symbol
_atom_site_label
_atom_site_fract_x
_atom_site_fract_y
_atom_site_fract_z
Si Si1 0.182231 0.196781 0.068272
Si Si2 0.271308 0.790026 0.335477
Si Si3 0.955987 0.883847 0.506679
Si Si4 0.679316 0.048211 0.273348
Si Si5 0.846640 0.072308 0.890666
Si Si6 0.406569 0.645890 0.870899
Si Si7 0.653554 0.873384 0.475225
Si Si8 0.542582 0.879778 0.224680
O O1 0.107512 0.208055 0.129484
O O2 0.317009 0.194559 0.163616
O O3 0.000000 0.500000 0.000000
O O4 0.321647 0.847153 0.983666
O O5 0.476213 0.402728 0.314653
O O6 0.131534 0.949509 0.217304
O O7 0.168528 0.856281 0.394278
O O8 0.302323 0.974945 0.418957
O O9 0.150290 0.523642 0.544482
O O10 0.847272 0.870387 0.383294
O O11 0.000000 0.000000 0.500000
O O12 0.718058 0.095569 0.206789
O O13 0.667399 0.824221 0.194976
O O14 0.622832 0.428663 0.906611
O O15 0.000000 0.000000 0.000000
O O16 0.391509 0.431316 0.805331
O O17 0.557141 0.002558 0.359482
O O18 0.500000 0.000000 0.500000
#
# Coordination Sequence:
#
# PCOD8025661 Si02
#       8
#     2   2   2   2   2   2   2   2
#     4  11  26  48  71 109 140 187 245 300 361 433
#     4  11  25  46  68 104 150 185 238 298 363 432
#     4  12  26  44  69 107 144 191 247 298 358 432
#     4  11  25  46  74 107 141 192 244 298 365 429
#     4  10  23  45  72 101 140 189 234 294 367 428
#     4  10  24  49  70 104 147 186 239 298 366 434
#     4  12  25  45  71 103 144 190 239 295 369 429
#     4  11  24  45  74  99 146 190 237 296 370 424
#
# _framework density 23.960819999999998
#
# number of rings (size 3 to 8) (size 9 to 14) (size 15 to 20)
#    0.000    1.000    1.250    6.000    5.250    5.500 
#    2.250    0.000    0.000    0.000    0.000    0.000 
#    0.000    0.000    0.000    0.000    0.000    0.000 
#
# Total GULP energy -198349.452336 kJ/mol
# GULP energy per Si atom -12396.840771 kJ/mol
# Density = 2.390628 g / cm^3
# Si number density = 23.960820 Si / 1000 Ang^3
#
#
#
# Elastic Constant Matrix: (Units=GPa)
#
#
# Indices 1 2 3 4 5 6 
#
# 1 146.6834 13.7045 39.7093 -1.1397 2.0824 13.1690
# 2 13.7045 68.6381 22.7956 -23.2330 8.9497 5.3942
# 3 39.7093 22.7956 128.5389 -32.6688 10.9974 0.0028
# 4 -1.1397 -23.2330 -32.6688 42.0314 1.5578 -0.6411
# 5 2.0824 8.9497 10.9974 1.5578 46.4277 -4.0626
# 6 13.1690 5.3942 0.0028 -0.6411 -4.0626 31.4083
#
#
#
# Elastic Compliance Matrix: (Units=1/GPa)
#
#
# Indices 1 2 3 4 5 6 
#
# 1 0.008019 -0.001421 -0.003022 -0.002981 0.000457 -0.003120
# 2 -0.001421 0.019278 0.000146 0.010844 -0.004318 -0.003052
# 3 -0.003022 0.000146 0.011155 0.008786 -0.002736 0.001066
# 4 -0.002981 0.010844 0.008786 0.036723 -0.005318 -0.000551
# 5 0.000457 -0.004318 -0.002736 -0.005318 0.023482 0.003479
# 6 -0.003120 -0.003052 0.001066 -0.000551 0.003479 0.034109
#
#
# Mechanical properties :
#
#
# Convention : Reuss Voigt Hill
#
# Bulk Modulus (GPa) = 33.49319 55.14213 44.31766
# Shear Modulus (GPa) = 33.04434 41.81690 37.43062
#
# Velocity S-wave (km/s) = 3.71765 4.18211 3.95670
# Velocity P-wave (km/s) = 5.69531 6.81055 6.27774
#
# Compressibility (1/GPa) = 0.02985682
#
# Stress axis : x y z
#
# Youngs Moduli (GPa) = 124.70904 51.87267 89.64921
#
# Poissons Ratio (x) = 0.07371 0.27092
# Poissons Ratio (y) = 0.17721 -0.01307
# Poissons Ratio (z) = 0.37687 -0.00756
#
# Static dielectric constant tensor:
#      x y z
#    x 4.786880 0.099620 -0.137780 
#    y 0.099620 4.347390 -0.327600 
#    z -0.137780 -0.327600 4.492330 
# 
# 
# High freq. dielectric constant tensor:
#      x y z
#    x 1.970150 0.008430 -0.003660 
#    y 0.008430 1.945220 -0.024500 
#    z -0.003660 -0.024500 1.955670 
# 
# From -- ./inp_files/530150.got.cif
#   From: 2010.06.25/outbox.cif.g09.slc.cpg/sg2_266_cif.got.tgz:530150.got - 2010.06.27 13:26:56.
