data_PCOD8025485
_publ_section_title
;
Structure prediction by ZEFSAII (Michael W. Deem and Ramdas Pophale) SiO2 
 PCOD8025485
Probable space group: P -1
;
_chemical_formula_sum "Si O2"
_cell_formula_units_Z 16
_cell_length_a 8.991710
_cell_length_b 21.165773
_cell_length_c 8.933920
_cell_angle_alpha 39.329062
_cell_angle_beta 132.731203
_cell_angle_gamma 125.627621
_cell_volume 785.446729
_symmetry_space_group_name_H-M "P -1"
_symmetry_group_IT_number 2
_symmetry_cell_setting 'triclinic'
loop_
_space_group_symop_operation_xyz
x,y,z
-x,-y,-z
loop_
_atom_site_type_symbol
_atom_site_label
_atom_site_fract_x
_atom_site_fract_y
_atom_site_fract_z
Si Si1 0.659965 0.745438 0.379191
Si Si2 0.006517 0.615941 0.768342
Si Si3 0.492378 0.883236 0.593964
Si Si4 0.559767 0.717906 0.701058
Si Si5 0.715207 0.265379 0.054697
Si Si6 0.839975 0.420453 0.353497
Si Si7 0.228821 0.051215 0.085165
Si Si8 0.962049 0.641727 0.105818
O O1 0.590434 0.758060 0.478959
O O2 0.470434 0.700481 0.229521
O O3 0.824095 0.666908 0.624658
O O4 0.752873 0.854228 0.185789
O O5 0.016091 0.633407 0.563571
O O6 0.226359 0.658351 0.909503
O O7 0.000000 0.500000 0.000000
O O8 0.501639 0.805235 0.609265
O O9 0.715405 0.916082 0.762964
O O10 0.391063 0.975930 0.285181
O O11 0.347776 0.841984 0.712175
O O12 0.394164 0.619381 0.770848
O O13 0.769997 0.685400 0.967222
O O14 0.915236 0.271715 0.072781
O O15 0.881809 0.541380 0.139664
O O16 0.885030 0.387736 0.610523
O O17 0.000000 0.000000 0.000000
#
# Coordination Sequence:
#
# PCOD8025485 Si02
#       8
#     2   2   2   2   2   2   2   2
#     4  11  25  41  66  92 127 169 206 262 321 370
#     4  12  23  40  63  94 127 173 216 253 305 374
#     4  10  24  41  68  95 121 160 213 267 313 383
#     4  12  23  40  64  95 129 164 211 262 315 367
#     4  11  21  42  61  92 128 168 211 257 307 374
#     4  11  24  40  60  92 133 172 217 254 304 371
#     4  10  23  45  68  90 121 162 210 262 327 379
#     4  11  24  40  60  92 133 175 209 258 309 367
#
# _framework density 20.370573
#
# number of rings (size 3 to 8) (size 9 to 14) (size 15 to 20)
#    0.000    1.000    5.000    1.125    3.500    1.000 
#    0.000    0.625    0.000    0.000    0.000    0.000 
#    0.000    0.000    0.000    0.000    0.000    0.000 
#
# Total GULP energy -198289.670561 kJ/mol
# GULP energy per Si atom -12393.104410 kJ/mol
# Density = 2.032421 g / cm^3
# Si number density = 20.370573 Si / 1000 Ang^3
#
#
#
# Elastic Constant Matrix: (Units=GPa)
#
#
# Indices 1 2 3 4 5 6 
#
# 1 107.1108 52.5528 36.2407 -1.2203 0.8296 -4.1357
# 2 52.5528 132.8263 42.7733 6.4938 9.2915 6.4577
# 3 36.2407 42.7733 95.7773 -4.8179 9.0770 1.5297
# 4 -1.2203 6.4938 -4.8179 29.4269 0.5046 3.1507
# 5 0.8296 9.2915 9.0770 0.5046 26.8034 4.7197
# 6 -4.1357 6.4577 1.5297 3.1507 4.7197 35.6642
#
#
#
# Elastic Compliance Matrix: (Units=1/GPa)
#
#
# Indices 1 2 3 4 5 6 
#
# 1 0.012504 -0.004236 -0.002999 0.000713 0.001722 0.002055
# 2 -0.004236 0.010546 -0.003015 -0.002773 -0.002145 -0.001743
# 3 -0.002999 -0.003015 0.013391 0.002810 -0.003419 -0.000172
# 4 0.000713 -0.002773 0.002810 0.035370 -0.000215 -0.002632
# 5 0.001722 -0.002145 -0.003419 -0.000215 0.039959 -0.004534
# 6 0.002055 -0.001743 -0.000172 -0.002632 -0.004534 0.029433
#
#
# Mechanical properties :
#
#
# Convention : Reuss Voigt Hill
#
# Bulk Modulus (GPa) = 62.74235 66.53867 64.64051
# Shear Modulus (GPa) = 29.93705 31.98874 30.96289
#
# Velocity S-wave (km/s) = 3.83772 3.96705 3.90292
# Velocity P-wave (km/s) = 7.10668 7.32928 7.21884
#
# Compressibility (1/GPa) = 0.01593820
#
# Stress axis : x y z
#
# Youngs Moduli (GPa) = 79.97673 94.82206 74.67947
#
# Poissons Ratio (x) = 0.40170 0.22399
# Poissons Ratio (y) = 0.33881 0.22518
# Poissons Ratio (z) = 0.23988 0.28591
#
# Static dielectric constant tensor:
#      x y z
#    x 4.714800 1.454650 0.320390 
#    y 1.454650 6.410320 1.010990 
#    z 0.320390 1.010990 3.927870 
# 
# 
# High freq. dielectric constant tensor:
#      x y z
#    x 1.789550 0.009860 -0.012640 
#    y 0.009860 1.810640 0.015090 
#    z -0.012640 0.015090 1.794870 
# 
# From -- ./inp_files/214952.got.cif
#   From: 2010.06.25/outbox.cif.g09.slc.cpg/sg2_108_cif.got.tgz:214952.got - 2010.06.27 13:26:56.
