data_PCOD8025199
_publ_section_title
;
Structure prediction by ZEFSAII (Michael W. Deem and Ramdas Pophale) SiO2 
 PCOD8025199
Probable space group: P -1
;
_chemical_formula_sum "Si O2"
_cell_formula_units_Z 14
_cell_length_a 27.475933
_cell_length_b 16.569719
_cell_length_c 15.082211
_cell_angle_alpha 153.264642
_cell_angle_beta 20.037565
_cell_angle_gamma 163.702781
_cell_volume 657.551966
_symmetry_space_group_name_H-M "P -1"
_symmetry_group_IT_number 2
_symmetry_cell_setting 'triclinic'
loop_
_space_group_symop_operation_xyz
x,y,z
-x,-y,-z
loop_
_atom_site_type_symbol
_atom_site_label
_atom_site_fract_x
_atom_site_fract_y
_atom_site_fract_z
Si Si1 0.619658 0.728602 0.246696
Si Si2 0.742654 0.495488 0.733077
Si Si3 0.639470 0.176643 0.264268
Si Si4 0.915293 0.467654 0.253101
Si Si5 0.960195 0.658731 0.938278
Si Si6 0.505244 0.634578 0.539781
Si Si7 0.103943 0.707811 0.443349
O O1 0.424391 0.683557 0.517252
O O2 0.594035 0.626619 0.290474
O O3 0.604037 0.545940 0.025323
O O4 0.871655 0.061774 0.136969
O O5 0.866478 0.596118 0.523638
O O6 0.925829 0.677134 0.678267
O O7 0.581211 0.165234 0.700995
O O8 0.723457 0.263017 0.306122
O O9 0.831137 0.277631 0.972339
O O10 0.894689 0.271703 0.158392
O O11 0.845080 0.383337 0.810767
O O12 0.754663 0.574374 0.242562
O O13 0.500000 0.500000 0.500000
O O14 0.659346 0.962431 0.614006
O O15 0.000000 0.500000 0.500000
#
# Coordination Sequence:
#
# PCOD8025199 Si02
#       7
#     2   2   2   2   2   2   2
#     4  12  25  43  68 101 136 172 225 282 327 404
#     4  11  25  41  67 100 133 171 221 276 332 397
#     4  11  22  47  69  95 135 173 220 277 335 401
#     4  10  23  44  70  96 131 175 220 275 337 398
#     4  11  23  42  67  96 132 174 230 271 330 402
#     4  12  26  42  64  99 138 178 223 279 334 394
#     4  11  22  42  67  93 132 183 222 271 332 395
#
# _framework density 21.291091000000002
#
# number of rings (size 3 to 8) (size 9 to 14) (size 15 to 20)
#    0.000    0.857    5.714    1.714    2.000    5.143 
#    0.000    1.429    0.000    0.000    0.000    0.000 
#    0.000    0.000    0.000    0.000    0.000    0.000 
#
# Total GULP energy -173593.393300 kJ/mol
# GULP energy per Si atom -12399.528093 kJ/mol
# Density = 2.124263 g / cm^3
# Si number density = 21.291091 Si / 1000 Ang^3
#
#
#
# Elastic Constant Matrix: (Units=GPa)
#
#
# Indices 1 2 3 4 5 6 
#
# 1 125.1237 38.3173 59.6974 -2.8997 14.7613 -13.1807
# 2 38.3173 71.6885 45.2285 -4.0310 3.5814 -17.7215
# 3 59.6974 45.2285 141.2690 6.6195 17.7379 -7.2818
# 4 -2.8997 -4.0310 6.6195 37.1595 -0.5685 1.0763
# 5 14.7613 3.5814 17.7379 -0.5685 32.4971 -6.7908
# 6 -13.1807 -17.7215 -7.2818 1.0763 -6.7908 25.8581
#
#
#
# Elastic Compliance Matrix: (Units=1/GPa)
#
#
# Indices 1 2 3 4 5 6 
#
# 1 0.011047 -0.003201 -0.003286 0.001010 -0.002473 0.001820
# 2 -0.003201 0.022673 -0.005991 0.002966 0.005084 0.013432
# 3 -0.003286 -0.005991 0.010904 -0.002809 -0.004645 -0.003814
# 4 0.001010 0.002966 -0.002809 0.027806 0.001438 0.000977
# 5 -0.002473 0.005084 -0.004645 0.001438 0.036053 0.010324
# 6 0.001820 0.013432 -0.003814 0.000977 0.010324 0.050402
#
#
# Mechanical properties :
#
#
# Convention : Reuss Voigt Hill
#
# Bulk Modulus (GPa) = 50.84695 69.39637 60.12166
# Shear Modulus (GPa) = 26.26070 32.09215 29.17643
#
# Velocity S-wave (km/s) = 3.51581 3.88661 3.70585
# Velocity P-wave (km/s) = 6.35727 7.26676 6.82718
#
# Compressibility (1/GPa) = 0.01966686
#
# Stress axis : x y z
#
# Youngs Moduli (GPa) = 90.52000 44.10485 91.71008
#
# Poissons Ratio (x) = 0.14118 0.30140
# Poissons Ratio (y) = 0.28975 0.54947
# Poissons Ratio (z) = 0.29749 0.26425
#
# Static dielectric constant tensor:
#      x y z
#    x 3.986900 -0.087470 0.145010 
#    y -0.087470 3.724930 -0.114610 
#    z 0.145010 -0.114610 4.219270 
# 
# 
# High freq. dielectric constant tensor:
#      x y z
#    x 1.839800 -0.007570 0.006420 
#    y -0.007570 1.819100 -0.015820 
#    z 0.006420 -0.015820 1.849920 
# 
# From -- ./inp_files/269124.got.cif
#   From: 2010.06.25/outbox.cif.g09.slc.cpg/sg2_135_cif.got.tgz:269124.got - 2010.06.27 13:26:56.
