data_PCOD8025905
_publ_section_title
;
Structure prediction by ZEFSAII (Michael W. Deem and Ramdas Pophale) SiO2 
 PCOD8025905
Probable space group: P -1
;
_chemical_formula_sum "Si O2"
_cell_formula_units_Z 16
_cell_length_a 14.712132
_cell_length_b 13.385604
_cell_length_c 15.011973
_cell_angle_alpha 40.432874
_cell_angle_beta 140.499881
_cell_angle_gamma 160.383338
_cell_volume 623.106448
_symmetry_space_group_name_H-M "P -1"
_symmetry_group_IT_number 2
_symmetry_cell_setting 'triclinic'
loop_
_space_group_symop_operation_xyz
x,y,z
-x,-y,-z
loop_
_atom_site_type_symbol
_atom_site_label
_atom_site_fract_x
_atom_site_fract_y
_atom_site_fract_z
Si Si1 0.495621 0.377300 0.001237
Si Si2 0.748416 0.842923 0.364397
Si Si3 0.907858 0.182333 0.821534
Si Si4 0.340444 0.211805 0.268668
Si Si5 0.179744 0.266973 0.256675
Si Si6 0.229290 0.661577 0.993303
Si Si7 0.662733 0.284002 0.584733
Si Si8 0.780401 0.146852 0.304065
O O1 0.763640 0.513954 0.118889
O O2 0.229718 0.018806 0.056347
O O3 0.500000 0.500000 0.000000
O O4 0.480457 0.468854 0.839195
O O5 0.461741 0.476901 0.384442
O O6 0.653060 0.905682 0.303205
O O7 0.000000 0.000000 0.500000
O O8 0.889270 0.016916 0.258515
O O9 0.803357 0.257902 0.672288
O O10 0.839751 0.016917 0.794863
O O11 0.132809 0.086037 0.272939
O O12 0.534530 0.255585 0.423288
O O13 0.269165 0.515389 0.116923
O O14 0.162897 0.645356 0.851303
O O15 0.000000 0.500000 0.000000
O O16 0.500000 0.000000 0.000000
O O17 0.914075 0.622129 0.585025
O O18 0.432300 0.026712 0.658160
#
# Coordination Sequence:
#
# PCOD8025905 Si02
#       8
#     2   2   2   2   2   2   2   2
#     4  10  23  46  72  99 135 181 228 285 342 398
#     4  12  24  44  65  95 136 176 221 282 341 409
#     4  11  25  47  72 103 139 184 231 286 340 405
#     4  11  26  47  69 104 142 180 232 285 342 415
#     4  12  25  41  70 100 131 181 225 277 348 404
#     4  12  23  46  68  98 132 180 228 285 343 402
#     4  12  27  44  72 103 138 187 229 282 348 406
#     4  12  25  45  68 100 139 174 232 284 340 415
#
# _framework density 25.677793999999999
#
# number of rings (size 3 to 8) (size 9 to 14) (size 15 to 20)
#    0.000    0.500    2.500    6.000    3.500    6.000 
#    0.000    4.375    0.000    0.000    0.000    0.000 
#    0.000    0.000    0.000    0.000    0.000    0.000 
#
# Total GULP energy -198374.089876 kJ/mol
# GULP energy per Si atom -12398.380617 kJ/mol
# Density = 2.561935 g / cm^3
# Si number density = 25.677794 Si / 1000 Ang^3
#
#
#
# Elastic Constant Matrix: (Units=GPa)
#
#
# Indices 1 2 3 4 5 6 
#
# 1 107.0297 26.3570 34.1641 -4.6820 10.4174 12.1135
# 2 26.3570 110.7502 -3.6358 5.0344 -8.7200 25.4652
# 3 34.1641 -3.6358 113.7854 4.4007 8.0402 12.8361
# 4 -4.6820 5.0344 4.4007 23.1846 0.1442 9.9144
# 5 10.4174 -8.7200 8.0402 0.1442 38.8672 5.1811
# 6 12.1135 25.4652 12.8361 9.9144 5.1811 28.3900
#
#
#
# Elastic Compliance Matrix: (Units=1/GPa)
#
#
# Indices 1 2 3 4 5 6 
#
# 1 0.011846 -0.002913 -0.003400 0.004526 -0.002881 -0.001959
# 2 -0.002913 0.013125 0.002354 0.001682 0.004977 -0.013090
# 3 -0.003400 0.002354 0.010497 -0.001037 -0.000057 -0.005034
# 4 0.004526 0.001682 -0.001037 0.053252 0.002107 -0.021952
# 5 -0.002881 0.004977 -0.000057 0.002107 0.028849 -0.009210
# 6 -0.001959 -0.013090 -0.005034 -0.021952 -0.009210 0.059424
#
#
# Mechanical properties :
#
#
# Convention : Reuss Voigt Hill
#
# Bulk Modulus (GPa) = 36.29878 49.48174 42.89026
# Shear Modulus (GPa) = 25.76071 36.40037 31.08054
#
# Velocity S-wave (km/s) = 3.17082 3.76916 3.48286
# Velocity P-wave (km/s) = 5.25094 6.18500 5.73701
#
# Compressibility (1/GPa) = 0.02754913
#
# Stress axis : x y z
#
# Youngs Moduli (GPa) = 84.41650 76.19005 95.26846
#
# Poissons Ratio (x) = 0.22194 0.32394
# Poissons Ratio (y) = 0.24590 -0.22426
# Poissons Ratio (z) = 0.28704 -0.17935
#
# Static dielectric constant tensor:
#      x y z
#    x 4.915030 0.368400 0.088280 
#    y 0.368400 5.005880 -0.107580 
#    z 0.088280 -0.107580 5.763850 
# 
# 
# High freq. dielectric constant tensor:
#      x y z
#    x 2.034900 0.007000 0.004320 
#    y 0.007000 2.026780 0.001250 
#    z 0.004320 0.001250 2.034680 
# 
# From -- ./inp_files/533697.got.cif
#   From: 2010.06.25/outbox.cif.g09.slc.cpg/sg2_267_cif.got.tgz:533697.got - 2010.06.27 13:26:56.
