data_PCOD8025216
_publ_section_title
;
Structure prediction by ZEFSAII (Michael W. Deem and Ramdas Pophale) SiO2 
 PCOD8025216
Probable space group: P -1
;
_chemical_formula_sum "Si O2"
_cell_formula_units_Z 14
_cell_length_a 14.070244
_cell_length_b 8.283080
_cell_length_c 13.508833
_cell_angle_alpha 44.362356
_cell_angle_beta 34.627771
_cell_angle_gamma 42.750528
_cell_volume 581.741399
_symmetry_space_group_name_H-M "P -1"
_symmetry_group_IT_number 2
_symmetry_cell_setting 'triclinic'
loop_
_space_group_symop_operation_xyz
x,y,z
-x,-y,-z
loop_
_atom_site_type_symbol
_atom_site_label
_atom_site_fract_x
_atom_site_fract_y
_atom_site_fract_z
Si Si1 0.860521 0.524875 0.693749
Si Si2 0.898469 0.791184 0.733004
Si Si3 0.899784 0.411331 0.041982
Si Si4 0.401122 0.746705 0.653006
Si Si5 0.287150 0.749366 0.419660
Si Si6 0.209856 0.925845 0.947961
Si Si7 0.446864 0.026047 0.312187
O O1 0.928929 0.669914 0.652483
O O2 0.000000 0.500000 0.500000
O O3 0.666066 0.692049 0.744412
O O4 0.853279 0.268903 0.853254
O O5 0.092248 0.770230 0.620684
O O6 0.757099 0.074117 0.717916
O O7 0.811846 0.640802 0.941986
O O8 0.732172 0.351008 0.253917
O O9 0.000000 0.500000 0.000000
O O10 0.034899 0.172431 0.971066
O O11 0.597292 0.530663 0.589654
O O12 0.310604 0.820314 0.805469
O O13 0.417428 0.975632 0.476508
O O14 0.399105 0.832414 0.369605
O O15 0.345464 0.005576 0.865896
#
# Coordination Sequence:
#
# PCOD8025216 Si02
#       7
#     2   2   2   2   2   2   2
#     4  11  25  44  70  99 140 183 227 288 344 408
#     4  10  23  45  68 100 137 184 234 280 336 415
#     4  12  25  44  70  98 139 181 233 283 346 409
#     4  12  24  42  72 103 138 182 228 292 341 402
#     4  10  23  44  70  99 140 182 235 278 342 408
#     4  12  26  45  68 104 140 177 235 286 345 412
#     4  11  24  44  67 103 139 183 229 276 349 410
#
# _framework density 24.065677999999998
#
# number of rings (size 3 to 8) (size 9 to 14) (size 15 to 20)
#    0.000    0.857    1.429    5.143    4.000    2.857 
#    2.571    0.000    0.000    0.000    0.000    0.000 
#    0.000    0.000    0.000    0.000    0.000    0.000 
#
# Total GULP energy -173587.500608 kJ/mol
# GULP energy per Si atom -12399.107186 kJ/mol
# Density = 2.401090 g / cm^3
# Si number density = 24.065678 Si / 1000 Ang^3
#
#
#
# Elastic Constant Matrix: (Units=GPa)
#
#
# Indices 1 2 3 4 5 6 
#
# 1 71.6462 16.5707 20.3122 -4.7560 -4.5408 -8.5681
# 2 16.5707 95.8471 22.5158 -15.2160 12.2980 -19.7949
# 3 20.3122 22.5158 107.6642 -23.5309 -2.4504 -8.3003
# 4 -4.7560 -15.2160 -23.5309 39.4431 -6.8572 2.8455
# 5 -4.5408 12.2980 -2.4504 -6.8572 50.2128 0.2110
# 6 -8.5681 -19.7949 -8.3003 2.8455 0.2110 34.4367
#
#
#
# Elastic Compliance Matrix: (Units=1/GPa)
#
#
# Indices 1 2 3 4 5 6 
#
# 1 0.015421 -0.001910 -0.002330 -0.000125 0.001722 0.002177
# 2 -0.001910 0.013334 -0.001306 0.003116 -0.003105 0.006636
# 3 -0.002330 -0.001306 0.011473 0.006259 0.001520 0.000908
# 4 -0.000125 0.003116 0.006259 0.030875 0.003744 0.000694
# 5 0.001722 -0.003105 0.001520 0.003744 0.021423 -0.001430
# 6 0.002177 0.006636 0.000908 0.000694 -0.001430 0.033565
#
#
# Mechanical properties :
#
#
# Convention : Reuss Voigt Hill
#
# Bulk Modulus (GPa) = 34.32243 43.77276 39.04759
# Shear Modulus (GPa) = 34.03774 39.20244 36.62009
#
# Velocity S-wave (km/s) = 3.76489 4.04044 3.90509
# Velocity P-wave (km/s) = 5.76126 6.32418 6.04927
#
# Compressibility (1/GPa) = 0.02913547
#
# Stress axis : x y z
#
# Youngs Moduli (GPa) = 64.84633 74.99725 87.15776
#
# Poissons Ratio (x) = 0.14324 0.20310
# Poissons Ratio (y) = 0.12385 0.11385
# Poissons Ratio (z) = 0.15111 0.09797
#
# Static dielectric constant tensor:
#      x y z
#    x 4.841820 -0.396030 -0.129000 
#    y -0.396030 4.578410 -0.322210 
#    z -0.129000 -0.322210 4.514710 
# 
# 
# High freq. dielectric constant tensor:
#      x y z
#    x 1.964950 -0.011800 -0.015140 
#    y -0.011800 1.955420 -0.017010 
#    z -0.015140 -0.017010 1.959930 
# 
# From -- ./inp_files/156625.got.cif
#   From: 2010.06.25/outbox.cif.g09.slc.cpg/sg2_79_cif.got.tgz:156625.got - 2010.06.27 13:26:56.
