data_PCOD8025983
_publ_section_title
;
Structure prediction by ZEFSAII (Michael W. Deem and Ramdas Pophale) SiO2 
 PCOD8025983
Probable space group: P -1
;
_chemical_formula_sum "Si O2"
_cell_formula_units_Z 10
_cell_length_a 11.650862
_cell_length_b 9.548489
_cell_length_c 8.794661
_cell_angle_alpha 45.894114
_cell_angle_beta 60.566669
_cell_angle_gamma 37.228237
_cell_volume 420.570853
_symmetry_space_group_name_H-M "P -1"
_symmetry_group_IT_number 2
_symmetry_cell_setting 'triclinic'
loop_
_space_group_symop_operation_xyz
x,y,z
-x,-y,-z
loop_
_atom_site_type_symbol
_atom_site_label
_atom_site_fract_x
_atom_site_fract_y
_atom_site_fract_z
Si Si1 0.489264 0.705858 0.625738
Si Si2 0.009500 0.540694 0.286153
Si Si3 0.877013 0.944294 0.582421
Si Si4 0.301659 0.896799 0.105570
Si Si5 0.562581 0.817395 0.795059
O O1 0.663618 0.373105 0.723862
O O2 0.472803 0.761646 0.774092
O O3 0.287399 0.832701 0.603443
O O4 0.534691 0.865226 0.397130
O O5 0.980356 0.373649 0.334912
O O6 0.211657 0.416056 0.200575
O O7 0.000000 0.500000 0.500000
O O8 0.850418 0.870089 0.098110
O O9 0.770390 0.972741 0.778705
O O10 0.000000 0.000000 0.500000
O O11 0.502258 0.793584 0.016133
#
# Coordination Sequence:
#
# PCOD8025983 Si02
#       5
#     2   2   2   2   2
#     4  10  23  47  69 107 140 191 231 294 350 421
#     4  11  26  49  74 105 143 190 236 295 353 419
#     4  11  27  46  71 108 150 183 236 295 357 423
#     4  12  25  44  76 104 141 192 236 289 363 410
#     4  10  24  46  74  99 148 181 246 289 346 424
#
# _framework density 23.777207000000001
#
# number of rings (size 3 to 8) (size 9 to 14) (size 15 to 20)
#    0.000    1.200    0.000    5.400    8.400    4.000 
#    0.000    0.000    0.000    0.000    0.000    0.000 
#    0.000    0.000    0.000    0.000    0.000    0.000 
#
# Total GULP energy -124000.855248 kJ/mol
# GULP energy per Si atom -12400.085525 kJ/mol
# Density = 2.372309 g / cm^3
# Si number density = 23.777207 Si / 1000 Ang^3
#
#
#
# Elastic Constant Matrix: (Units=GPa)
#
#
# Indices 1 2 3 4 5 6 
#
# 1 147.1212 47.7502 33.5973 3.7592 -0.8573 8.7837
# 2 47.7502 141.7320 54.3500 -4.0237 -15.0008 5.8277
# 3 33.5973 54.3500 66.0481 -24.9831 -9.8173 -0.7122
# 4 3.7592 -4.0237 -24.9831 63.0064 -11.8332 -12.0576
# 5 -0.8573 -15.0008 -9.8173 -11.8332 32.4581 -3.2182
# 6 8.7837 5.8277 -0.7122 -12.0576 -3.2182 40.7646
#
#
#
# Elastic Compliance Matrix: (Units=1/GPa)
#
#
# Indices 1 2 3 4 5 6 
#
# 1 0.008772 -0.001146 -0.005754 -0.004267 -0.003931 -0.003399
# 2 -0.001146 0.011367 -0.010052 -0.003563 0.000630 -0.002558
# 3 -0.005754 -0.010052 0.035270 0.018061 0.013416 0.009694
# 4 -0.004267 -0.003563 0.018061 0.028031 0.015036 0.011223
# 5 -0.003931 0.000630 0.013416 0.015036 0.041399 0.008707
# 6 -0.003399 -0.002558 0.009694 0.011223 0.008707 0.029805
#
#
# Mechanical properties :
#
#
# Convention : Reuss Voigt Hill
#
# Bulk Modulus (GPa) = 46.50290 69.58846 58.04568
# Shear Modulus (GPa) = 25.54696 41.85940 33.70318
#
# Velocity S-wave (km/s) = 3.28141 4.20036 3.76900
# Velocity P-wave (km/s) = 5.82727 7.27011 6.58831
#
# Compressibility (1/GPa) = 0.02150403
#
# Stress axis : x y z
#
# Youngs Moduli (GPa) = 113.99596 87.97171 28.35309
#
# Poissons Ratio (x) = 0.10085 0.16314
# Poissons Ratio (y) = 0.13069 0.28501
# Poissons Ratio (z) = 0.65591 0.88432
#
# Static dielectric constant tensor:
#      x y z
#    x 4.191000 0.091520 0.034540 
#    y 0.091520 4.453170 -0.046040 
#    z 0.034540 -0.046040 4.284030 
# 
# 
# High freq. dielectric constant tensor:
#      x y z
#    x 1.933850 0.004880 -0.003330 
#    y 0.004880 1.958120 -0.001240 
#    z -0.003330 -0.001240 1.941140 
# 
# From -- ./inp_files/156031.got.cif
#   From: 2010.06.25/outbox.cif.g09.slc.cpg/sg2_79_cif.got.tgz:156031.got - 2010.06.27 13:26:56.
