data_PCOD8025269
_publ_section_title
;
Structure prediction by ZEFSAII (Michael W. Deem and Ramdas Pophale) SiO2 
 PCOD8025269
Probable space group: P -1
;
_chemical_formula_sum "Si O2"
_cell_formula_units_Z 16
_cell_length_a 8.298093
_cell_length_b 11.635842
_cell_length_c 20.192584
_cell_angle_alpha 147.667253
_cell_angle_beta 138.660772
_cell_angle_gamma 52.361065
_cell_volume 687.211136
_symmetry_space_group_name_H-M "P -1"
_symmetry_group_IT_number 2
_symmetry_cell_setting 'triclinic'
loop_
_space_group_symop_operation_xyz
x,y,z
-x,-y,-z
loop_
_atom_site_type_symbol
_atom_site_label
_atom_site_fract_x
_atom_site_fract_y
_atom_site_fract_z
Si Si1 0.738727 0.093834 0.459921
Si Si2 0.440747 0.828966 0.341237
Si Si3 0.445510 0.368005 0.161143
Si Si4 0.468595 0.873833 0.731546
Si Si5 0.876300 0.270213 0.326654
Si Si6 0.805960 0.566273 0.749586
Si Si7 0.696332 0.323758 0.988853
Si Si8 0.027920 0.840082 0.134263
O O1 0.669690 0.151879 0.392848
O O2 0.723855 0.315619 0.601988
O O3 0.552006 0.914824 0.347720
O O4 0.000000 0.000000 0.500000
O O5 0.542199 0.605184 0.283715
O O6 0.152074 0.771240 0.208537
O O7 0.500000 0.000000 0.500000
O O8 0.701434 0.269758 0.207839
O O9 0.292315 0.348270 0.171038
O O10 0.261621 0.239623 0.990143
O O11 0.266003 0.828148 0.702184
O O12 0.686837 0.707950 0.723900
O O13 0.571577 0.119590 0.888956
O O14 0.000000 0.500000 0.500000
O O15 0.067629 0.102640 0.278149
O O16 0.101124 0.586983 0.851757
O O17 0.827653 0.254423 0.928459
O O18 0.500000 0.500000 0.000000
#
# Coordination Sequence:
#
# PCOD8025269 Si02
#       8
#     2   2   2   2   2   2   2   2
#     4  12  26  43  66 106 141 192 241 300 365 424
#     4  12  24  43  71 100 144 188 246 295 358 427
#     4  10  23  45  69 103 137 188 242 297 355 427
#     4  11  25  46  70 101 143 185 242 296 362 432
#     4  11  26  46  74 106 144 189 240 299 359 434
#     4  10  23  44  71  99 142 189 237 298 360 427
#     4  11  24  47  73 106 146 186 240 297 364 434
#     4  11  25  45  72 102 142 188 241 296 361 431
#
# _framework density 23.282509999999998
#
# number of rings (size 3 to 8) (size 9 to 14) (size 15 to 20)
#    0.000    1.000    2.500    3.000    5.250    4.000 
#    0.000    0.000    0.000    0.000    0.000    0.000 
#    0.000    0.000    0.000    0.000    0.000    0.000 
#
# Total GULP energy -198283.282071 kJ/mol
# GULP energy per Si atom -12392.705129 kJ/mol
# Density = 2.322952 g / cm^3
# Si number density = 23.282510 Si / 1000 Ang^3
#
#
#
# Elastic Constant Matrix: (Units=GPa)
#
#
# Indices 1 2 3 4 5 6 
#
# 1 51.3243 41.6640 24.3768 0.5468 3.4443 -3.8721
# 2 41.6640 158.5217 32.5364 -9.9022 0.8763 -6.3876
# 3 24.3768 32.5364 108.3541 -6.4108 8.3063 2.6579
# 4 0.5468 -9.9022 -6.4108 60.9259 2.6300 -0.0216
# 5 3.4443 0.8763 8.3063 2.6300 32.6423 6.4123
# 6 -3.8721 -6.3876 2.6579 -0.0216 6.4123 36.9914
#
#
#
# Elastic Compliance Matrix: (Units=1/GPa)
#
#
# Indices 1 2 3 4 5 6 
#
# 1 0.026815 -0.006183 -0.004180 -0.001601 -0.001937 0.002374
# 2 -0.006183 0.008261 -0.001068 0.001267 0.000447 0.000779
# 3 -0.004180 -0.001068 0.010744 0.001087 -0.002151 -0.001020
# 4 -0.001601 0.001267 0.001087 0.016815 -0.001546 0.000251
# 5 -0.001937 0.000447 -0.002151 -0.001546 0.032604 -0.005624
# 6 0.002374 0.000779 -0.001020 0.000251 -0.005624 0.028465
#
#
# Mechanical properties :
#
#
# Convention : Reuss Voigt Hill
#
# Bulk Modulus (GPa) = 43.55986 57.26160 50.41073
# Shear Modulus (GPa) = 32.42128 40.75345 36.58737
#
# Velocity S-wave (km/s) = 3.73569 4.18830 3.96846
# Velocity P-wave (km/s) = 6.11204 6.93086 6.53429
#
# Compressibility (1/GPa) = 0.02295691
#
# Stress axis : x y z
#
# Youngs Moduli (GPa) = 37.29225 121.05542 93.07164
#
# Poissons Ratio (x) = 0.74853 0.38908
# Poissons Ratio (y) = 0.23059 0.09939
# Poissons Ratio (z) = 0.15590 0.12927
#
# Static dielectric constant tensor:
#      x y z
#    x 3.893580 -0.092140 0.184720 
#    y -0.092140 4.635870 -0.243990 
#    z 0.184720 -0.243990 4.824070 
# 
# 
# High freq. dielectric constant tensor:
#      x y z
#    x 1.894530 -0.002090 0.006470 
#    y -0.002090 1.946620 -0.007880 
#    z 0.006470 -0.007880 1.940490 
# 
# From -- ./inp_files/187514.got.cif
#   From: 2010.06.25/outbox.cif.g09.slc.cpg/sg2_94_cif.got.tgz:187514.got - 2010.06.27 13:26:56.
