data_PCOD8025458
_publ_section_title
;
Structure prediction by ZEFSAII (Michael W. Deem and Ramdas Pophale) SiO2 
 PCOD8025458
Probable space group: P -1
;
_chemical_formula_sum "Si O2"
_cell_formula_units_Z 16
_cell_length_a 16.902326
_cell_length_b 9.540910
_cell_length_c 11.939278
_cell_angle_alpha 54.994182
_cell_angle_beta 28.838618
_cell_angle_gamma 47.110330
_cell_volume 679.036833
_symmetry_space_group_name_H-M "P -1"
_symmetry_group_IT_number 2
_symmetry_cell_setting 'triclinic'
loop_
_space_group_symop_operation_xyz
x,y,z
-x,-y,-z
loop_
_atom_site_type_symbol
_atom_site_label
_atom_site_fract_x
_atom_site_fract_y
_atom_site_fract_z
Si Si1 0.411711 0.524555 0.220785
Si Si2 0.421396 0.682463 0.359378
Si Si3 0.249062 0.481692 0.808406
Si Si4 0.969028 0.712397 0.219456
Si Si5 0.051430 0.042115 0.671438
Si Si6 0.002900 0.688749 0.586022
Si Si7 0.447381 0.126629 0.397002
Si Si8 0.802008 0.865190 0.966249
O O1 0.476561 0.636294 0.180325
O O2 0.194888 0.648298 0.422713
O O3 0.464819 0.320305 0.304854
O O4 0.500000 0.500000 0.000000
O O5 0.337760 0.540128 0.569044
O O6 0.600095 0.643107 0.227705
O O7 0.268311 0.900045 0.466800
O O8 0.163368 0.343593 0.932552
O O9 0.091046 0.673001 0.973727
O O10 0.018935 0.849528 0.172980
O O11 0.015227 0.507578 0.313339
O O12 0.755117 0.831075 0.405703
O O13 0.015734 0.216406 0.553434
O O14 0.931838 0.931765 0.843527
O O15 0.848921 0.843949 0.786327
O O16 0.500000 0.000000 0.500000
O O17 0.588710 0.013492 0.174438
#
# Coordination Sequence:
#
# PCOD8025458 Si02
#       8
#     2   2   2   2   2   2   2   2
#     4  11  24  42  68 102 143 181 230 288 357 410
#     4  11  25  44  72  99 138 186 231 290 343 423
#     4  10  25  48  68  99 143 181 234 283 359 406
#     4  10  25  46  69 102 138 182 228 289 348 407
#     4  12  24  41  72 104 137 178 236 283 343 417
#     4  10  23  45  67  98 142 181 227 281 354 416
#     4  11  25  43  70 100 138 179 233 286 344 417
#     4  11  23  43  69  99 136 179 227 285 337 416
#
# _framework density 23.562785000000002
#
# number of rings (size 3 to 8) (size 9 to 14) (size 15 to 20)
#    0.000    1.250    1.250    3.000    7.000    2.000 
#    2.250    3.125    0.000    0.000    0.000    0.000 
#    0.000    0.000    0.000    0.000    0.000    0.000 
#
# Total GULP energy -198425.549202 kJ/mol
# GULP energy per Si atom -12401.596825 kJ/mol
# Density = 2.350916 g / cm^3
# Si number density = 23.562785 Si / 1000 Ang^3
#
#
#
# Elastic Constant Matrix: (Units=GPa)
#
#
# Indices 1 2 3 4 5 6 
#
# 1 79.5299 59.3128 35.7274 10.0244 11.0346 12.4077
# 2 59.3128 104.5718 38.7267 19.5630 -0.9265 5.9159
# 3 35.7274 38.7267 120.3222 26.7890 2.5178 4.5521
# 4 10.0244 19.5630 26.7890 51.8186 0.0845 0.7627
# 5 11.0346 -0.9265 2.5178 0.0845 27.0825 0.0210
# 6 12.4077 5.9159 4.5521 0.7627 0.0210 46.2388
#
#
#
# Elastic Compliance Matrix: (Units=1/GPa)
#
#
# Indices 1 2 3 4 5 6 
#
# 1 0.026634 -0.014028 -0.003418 0.002003 -0.011016 -0.005044
# 2 -0.014028 0.018630 -0.001193 -0.003736 0.006474 0.001557
# 3 -0.003418 -0.001193 0.010681 -0.004412 0.000373 0.000091
# 4 0.002003 -0.003736 -0.004412 0.022603 -0.000604 0.000002
# 5 -0.011016 0.006474 0.000373 -0.000604 0.041600 0.002082
# 6 -0.005044 0.001557 0.000091 0.000002 0.002082 0.022771
#
#
# Mechanical properties :
#
#
# Convention : Reuss Voigt Hill
#
# Bulk Modulus (GPa) = 53.57274 63.55086 58.56180
# Shear Modulus (GPa) = 26.82117 36.40512 31.61314
#
# Velocity S-wave (km/s) = 3.37751 3.93495 3.66684
# Velocity P-wave (km/s) = 6.16406 6.90467 6.54485
#
# Compressibility (1/GPa) = 0.01866621
#
# Stress axis : x y z
#
# Youngs Moduli (GPa) = 37.54550 53.67816 93.62317
#
# Poissons Ratio (x) = 0.75300 0.32001
# Poissons Ratio (y) = 0.52669 0.11172
# Poissons Ratio (z) = 0.12833 0.06406
#
# Static dielectric constant tensor:
#      x y z
#    x 4.044250 -0.028280 -0.029520 
#    y -0.028280 4.387040 0.160410 
#    z -0.029520 0.160410 4.464230 
# 
# 
# High freq. dielectric constant tensor:
#      x y z
#    x 1.922350 0.001690 0.001900 
#    y 0.001690 1.945490 0.014110 
#    z 0.001900 0.014110 1.939600 
# 
# From -- ./inp_files/461976.got.cif
#   From: 2010.06.25/outbox.cif.g09.slc.cpg/sg2_231_cif.got.tgz:461976.got - 2010.06.27 13:26:56.
