data_PCOD8025718
_publ_section_title
;
Structure prediction by ZEFSAII (Michael W. Deem and Ramdas Pophale) SiO2 
 PCOD8025718
Probable space group: P -1
;
_chemical_formula_sum "Si O2"
_cell_formula_units_Z 12
_cell_length_a 13.392462
_cell_length_b 9.257200
_cell_length_c 9.762692
_cell_angle_alpha 82.097471
_cell_angle_beta 118.560275
_cell_angle_gamma 51.466653
_cell_volume 643.359504
_symmetry_space_group_name_H-M "P -1"
_symmetry_group_IT_number 2
_symmetry_cell_setting 'triclinic'
loop_
_space_group_symop_operation_xyz
x,y,z
-x,-y,-z
loop_
_atom_site_type_symbol
_atom_site_label
_atom_site_fract_x
_atom_site_fract_y
_atom_site_fract_z
Si Si1 0.659781 0.199962 0.744229
Si Si2 0.044699 0.786603 0.715977
Si Si3 0.034337 0.817704 0.408355
Si Si4 0.993596 0.677874 0.960053
Si Si5 0.340993 0.694700 0.977629
Si Si6 0.265956 0.564738 0.336175
O O1 0.486981 0.311987 0.529387
O O2 0.761614 0.234324 0.734665
O O3 0.578195 0.332413 0.820983
O O4 0.817267 0.916947 0.898867
O O5 0.083894 0.684829 0.601240
O O6 0.234360 0.648887 0.931627
O O7 0.960603 0.752036 0.768032
O O8 0.910395 0.064558 0.565768
O O9 0.153980 0.626194 0.389727
O O10 0.810930 0.030724 0.208669
O O11 0.184516 0.552630 0.159661
O O12 0.000000 0.500000 0.000000
O O13 0.500000 0.500000 0.000000
#
# Coordination Sequence:
#
# PCOD8025718 Si02
#       6
#     2   2   2   2   2   2
#     4  11  21  34  63  87 115 145 200 244 284 333
#     4   9  18  33  52  86 113 143 192 227 290 335
#     4   9  17  32  59  80 120 136 188 252 280 326
#     4  12  23  40  58  81 126 161 184 230 288 354
#     4  10  17  29  57  89 114 139 183 250 295 323
#     4  11  20  37  61  89 109 149 198 248 282 331
#
# _framework density 18.652090999999999
#
# number of rings (size 3 to 8) (size 9 to 14) (size 15 to 20)
#    1.000    0.667    5.000    1.500    0.000    0.667 
#    0.000    0.833    0.000    2.000    0.000    0.000 
#    0.000    0.000    0.000    0.000    0.000    0.000 
#
# Total GULP energy -148669.294276 kJ/mol
# GULP energy per Si atom -12389.107856 kJ/mol
# Density = 1.860964 g / cm^3
# Si number density = 18.652091 Si / 1000 Ang^3
#
#
#
# Elastic Constant Matrix: (Units=GPa)
#
#
# Indices 1 2 3 4 5 6 
#
# 1 75.7795 45.3839 43.9468 2.7455 -9.3265 -9.4907
# 2 45.3839 72.5234 38.4175 3.9669 -5.6119 -12.8141
# 3 43.9468 38.4175 103.5746 10.3774 1.9440 1.3132
# 4 2.7455 3.9669 10.3774 26.2333 -13.2071 -8.3208
# 5 -9.3265 -5.6119 1.9440 -13.2071 37.4121 6.3666
# 6 -9.4907 -12.8141 1.3132 -8.3208 6.3666 25.6782
#
#
#
# Elastic Compliance Matrix: (Units=1/GPa)
#
#
# Indices 1 2 3 4 5 6 
#
# 1 0.025232 -0.010756 -0.007597 0.006916 0.006673 0.004933
# 2 -0.010756 0.024717 -0.004999 0.002638 0.000632 0.009313
# 3 -0.007597 -0.004999 0.015960 -0.010171 -0.005702 -0.008001
# 4 0.006916 0.002638 -0.010171 0.056537 0.019567 0.017861
# 5 0.006673 0.000632 -0.005702 0.019567 0.035591 0.000590
# 6 0.004933 0.009313 -0.008001 0.017861 0.000590 0.051465
#
#
# Mechanical properties :
#
#
# Convention : Reuss Voigt Hill
#
# Bulk Modulus (GPa) = 52.06589 56.37489 54.22039
# Shear Modulus (GPa) = 19.03977 26.13999 22.58988
#
# Velocity S-wave (km/s) = 3.19844 3.74766 3.48389
# Velocity P-wave (km/s) = 6.45096 7.00119 6.73170
#
# Compressibility (1/GPa) = 0.01920643
#
# Stress axis : x y z
#
# Youngs Moduli (GPa) = 39.63192 40.45722 62.65642
#
# Poissons Ratio (x) = 0.43514 0.47602
# Poissons Ratio (y) = 0.42626 0.31320
# Poissons Ratio (z) = 0.30110 0.20223
#
# Static dielectric constant tensor:
#      x y z
#    x 3.071940 -0.239590 -0.013570 
#    y -0.239590 3.043150 0.182620 
#    z -0.013570 0.182620 3.508850 
# 
# 
# High freq. dielectric constant tensor:
#      x y z
#    x 1.686270 -0.038630 -0.000500 
#    y -0.038630 1.689930 0.018240 
#    z -0.000500 0.018240 1.733160 
# 
# From -- ./inp_files/238575.got.cif
#   From: 2010.06.25/outbox.cif.g09.slc.cpg/sg2_120_cif.got.tgz:238575.got - 2010.06.27 13:26:56.
