data_PCOD8025329
_publ_section_title
;
Structure prediction by ZEFSAII (Michael W. Deem and Ramdas Pophale) SiO2 
 PCOD8025329
Probable space group: P -1
;
_chemical_formula_sum "Si O2"
_cell_formula_units_Z 14
_cell_length_a 7.865446
_cell_length_b 9.301572
_cell_length_c 11.542264
_cell_angle_alpha 127.700948
_cell_angle_beta 66.045830
_cell_angle_gamma 112.325108
_cell_volume 600.395285
_symmetry_space_group_name_H-M "P -1"
_symmetry_group_IT_number 2
_symmetry_cell_setting 'triclinic'
loop_
_space_group_symop_operation_xyz
x,y,z
-x,-y,-z
loop_
_atom_site_type_symbol
_atom_site_label
_atom_site_fract_x
_atom_site_fract_y
_atom_site_fract_z
Si Si1 0.056896 0.026967 0.314460
Si Si2 0.529591 0.566844 0.229830
Si Si3 0.850836 0.127132 0.126902
Si Si4 0.696609 0.215632 0.978834
Si Si5 0.713393 0.891600 0.482998
Si Si6 0.102840 0.381387 0.325510
Si Si7 0.451686 0.112711 0.783681
O O1 0.157801 0.123227 0.448910
O O2 0.113872 0.180954 0.276857
O O3 0.120666 0.833288 0.164332
O O4 0.834605 0.971340 0.375918
O O5 0.596050 0.690339 0.385258
O O6 0.310941 0.474358 0.269621
O O7 0.556196 0.683256 0.160250
O O8 0.676092 0.427825 0.102780
O O9 0.963044 0.333907 0.229827
O O10 0.743374 0.032505 0.224245
O O11 0.704587 0.136342 0.066986
O O12 0.000000 0.000000 0.000000
O O13 0.521871 0.119697 0.901057
O O14 0.578071 0.035854 0.615729
O O15 0.000000 0.500000 0.500000
#
# Coordination Sequence:
#
# PCOD8025329 Si02
#       7
#     2   2   2   2   2   2   2
#     4  10  23  46  68  99 136 183 226 276 342 409
#     4  12  26  43  70 107 137 174 232 286 341 394
#     4  12  25  46  72  99 138 187 227 270 351 412
#     4  11  26  44  71 101 139 179 229 280 341 409
#     4  10  23  44  73  97 134 182 228 278 341 402
#     4  12  26  43  69 102 142 176 231 285 336 401
#     4  11  24  48  71  98 138 182 229 279 341 409
#
# _framework density 23.317969999999999
#
# number of rings (size 3 to 8) (size 9 to 14) (size 15 to 20)
#    0.000    0.857    1.429    4.714    6.000    1.143 
#    0.000    0.000    0.000    0.000    0.000    0.000 
#    0.000    0.000    0.000    0.000    0.000    0.000 
#
# Total GULP energy -173481.289204 kJ/mol
# GULP energy per Si atom -12391.520657 kJ/mol
# Density = 2.326490 g / cm^3
# Si number density = 23.317970 Si / 1000 Ang^3
#
#
#
# Elastic Constant Matrix: (Units=GPa)
#
#
# Indices 1 2 3 4 5 6 
#
# 1 78.7300 77.3444 60.2750 -2.2506 -11.6728 -4.7046
# 2 77.3444 145.6460 61.6256 -4.7337 -6.4317 17.0824
# 3 60.2750 61.6256 145.1165 19.2626 0.9316 -7.7488
# 4 -2.2506 -4.7337 19.2626 40.1862 -5.6879 -3.3712
# 5 -11.6728 -6.4317 0.9316 -5.6879 42.7312 1.6431
# 6 -4.7046 17.0824 -7.7488 -3.3712 1.6431 34.6617
#
#
#
# Elastic Compliance Matrix: (Units=1/GPa)
#
#
# Indices 1 2 3 4 5 6 
#
# 1 0.039623 -0.018069 -0.009065 0.006718 0.008716 0.012496
# 2 -0.018069 0.018080 -0.000813 0.000306 -0.001716 -0.011434
# 3 -0.009065 -0.000813 0.012000 -0.006780 -0.003816 0.001374
# 4 0.006718 0.000306 -0.006780 0.029534 0.005889 0.001839
# 5 0.008716 -0.001716 -0.003816 0.005889 0.026373 0.000498
# 6 0.012496 -0.011434 0.001374 0.001839 0.000498 0.036644
#
#
# Mechanical properties :
#
#
# Convention : Reuss Voigt Hill
#
# Bulk Modulus (GPa) = 72.41484 85.33140 78.87312
# Shear Modulus (GPa) = 22.44662 34.86567 28.65614
#
# Velocity S-wave (km/s) = 3.10600 3.87101 3.50941
# Velocity P-wave (km/s) = 6.63218 7.52687 7.09364
#
# Compressibility (1/GPa) = 0.01380932
#
# Stress axis : x y z
#
# Youngs Moduli (GPa) = 25.23767 55.30846 83.33665
#
# Poissons Ratio (x) = 0.99934 0.75546
# Poissons Ratio (y) = 0.45601 0.06778
# Poissons Ratio (z) = 0.22878 0.04498
#
# Static dielectric constant tensor:
#      x y z
#    x 4.450440 -0.110850 0.214730 
#    y -0.110850 3.776390 -0.084930 
#    z 0.214730 -0.084930 4.499740 
# 
# 
# High freq. dielectric constant tensor:
#      x y z
#    x 1.938670 0.000060 0.010400 
#    y 0.000060 1.906060 -0.004740 
#    z 0.010400 -0.004740 1.944870 
# 
# From -- ./inp_files/156940.got.cif
#   From: 2010.06.25/outbox.cif.g09.slc.cpg/sg2_79_cif.got.tgz:156940.got - 2010.06.27 13:26:56.
