data_PCOD8025315
_publ_section_title
;
Structure prediction by ZEFSAII (Michael W. Deem and Ramdas Pophale) SiO2 
 PCOD8025315
Probable space group: P -1
;
_chemical_formula_sum "Si O2"
_cell_formula_units_Z 12
_cell_length_a 8.870184
_cell_length_b 10.572148
_cell_length_c 9.882603
_cell_angle_alpha 139.967553
_cell_angle_beta 56.599795
_cell_angle_gamma 114.404058
_cell_volume 497.601587
_symmetry_space_group_name_H-M "P -1"
_symmetry_group_IT_number 2
_symmetry_cell_setting 'triclinic'
loop_
_space_group_symop_operation_xyz
x,y,z
-x,-y,-z
loop_
_atom_site_type_symbol
_atom_site_label
_atom_site_fract_x
_atom_site_fract_y
_atom_site_fract_z
Si Si1 0.412960 0.913859 0.155056
Si Si2 0.231058 0.152208 0.228900
Si Si3 0.117696 0.532772 0.760961
Si Si4 0.915595 0.286595 0.339806
Si Si5 0.266170 0.536262 0.984263
Si Si6 0.469364 0.815880 0.459322
O O1 0.256858 0.966352 0.164585
O O2 0.465139 0.115671 0.368723
O O3 0.586059 0.814865 0.917012
O O4 0.341103 0.751301 0.164762
O O5 0.194658 0.341832 0.493032
O O6 0.065587 0.123611 0.180475
O O7 0.129515 0.719386 0.804132
O O8 0.233504 0.564365 0.863164
O O9 0.908924 0.507082 0.879223
O O10 0.737167 0.251922 0.488002
O O11 0.000000 0.500000 0.500000
O O12 0.411692 0.366243 0.802551
O O13 0.500000 0.000000 0.500000
#
# Coordination Sequence:
#
# PCOD8025315 Si02
#       6
#     2   2   2   2   2   2
#     4  11  26  45  76 102 142 190 237 296 353 425
#     4  10  23  46  68 107 136 189 242 286 349 425
#     4  10  23  44  73 104 143 191 236 291 351 426
#     4  10  24  45  73 101 142 190 231 291 350 419
#     4  11  25  46  71 105 147 189 233 295 360 417
#     4  12  29  48  73 109 143 184 240 299 355 423
#
# _framework density 24.115679
#
# number of rings (size 3 to 8) (size 9 to 14) (size 15 to 20)
#    0.000    1.333    1.667    2.000   11.667    6.000 
#    0.000    0.000    0.000    0.000    0.000    0.000 
#    0.000    0.000    0.000    0.000    0.000    0.000 
#
# Total GULP energy -148792.348941 kJ/mol
# GULP energy per Si atom -12399.362412 kJ/mol
# Density = 2.406079 g / cm^3
# Si number density = 24.115679 Si / 1000 Ang^3
#
#
#
# Elastic Constant Matrix: (Units=GPa)
#
#
# Indices 1 2 3 4 5 6 
#
# 1 89.6530 18.8768 10.6849 7.0206 -25.2196 2.1320
# 2 18.8768 121.3978 4.2978 3.9785 -19.6509 7.0587
# 3 10.6849 4.2978 71.1024 1.7205 -22.0490 0.8673
# 4 7.0206 3.9785 1.7205 35.1530 -3.5462 -2.8882
# 5 -25.2196 -19.6509 -22.0490 -3.5462 42.8622 -3.4201
# 6 2.1320 7.0587 0.8673 -2.8882 -3.4201 26.9505
#
#
#
# Elastic Compliance Matrix: (Units=1/GPa)
#
#
# Indices 1 2 3 4 5 6 
#
# 1 0.013584 -0.000817 0.000436 -0.001875 0.007679 -0.000101
# 2 -0.000817 0.009101 0.000824 -0.000671 0.003907 -0.001922
# 3 0.000436 0.000824 0.016836 -0.000032 0.009323 0.000388
# 4 -0.001875 -0.000671 -0.000032 0.029328 0.001289 0.003632
# 5 0.007679 0.003907 0.009323 0.001289 0.034751 0.002617
# 6 -0.000101 -0.001922 0.000388 0.003632 0.002617 0.038325
#
#
# Mechanical properties :
#
#
# Convention : Reuss Voigt Hill
#
# Bulk Modulus (GPa) = 24.74874 38.87469 31.81172
# Shear Modulus (GPa) = 32.36057 37.54603 34.95330
#
# Velocity S-wave (km/s) = 3.66715 3.95006 3.81123
# Velocity P-wave (km/s) = 5.31183 6.07939 5.70852
#
# Compressibility (1/GPa) = 0.04040609
#
# Stress axis : x y z
#
# Youngs Moduli (GPa) = 73.61841 109.87285 59.39605
#
# Poissons Ratio (x) = 0.08980 -0.02589
# Poissons Ratio (y) = 0.06017 -0.04893
# Poissons Ratio (z) = -0.03209 -0.09052
#
# Static dielectric constant tensor:
#      x y z
#    x 5.045360 -0.379340 0.041000 
#    y -0.379340 4.365220 0.020530 
#    z 0.041000 0.020530 4.277890 
# 
# 
# High freq. dielectric constant tensor:
#      x y z
#    x 1.974690 -0.013060 -0.002080 
#    y -0.013060 1.960890 0.001310 
#    z -0.002080 0.001310 1.958860 
# 
# From -- ./inp_files/324677.got.cif
#   From: 2010.06.25/outbox.cif.g09.slc.cpg/sg2_163_cif.got.tgz:324677.got - 2010.06.27 13:26:56.
