data_PCOD8025427
_publ_section_title
;
Structure prediction by ZEFSAII (Michael W. Deem and Ramdas Pophale) SiO2 
 PCOD8025427
Probable space group: P -1
;
_chemical_formula_sum "Si O2"
_cell_formula_units_Z 14
_cell_length_a 8.666118
_cell_length_b 9.095915
_cell_length_c 9.370199
_cell_angle_alpha 109.108776
_cell_angle_beta 103.138962
_cell_angle_gamma 79.899929
_cell_volume 675.545880
_symmetry_space_group_name_H-M "P -1"
_symmetry_group_IT_number 2
_symmetry_cell_setting 'triclinic'
loop_
_space_group_symop_operation_xyz
x,y,z
-x,-y,-z
loop_
_atom_site_type_symbol
_atom_site_label
_atom_site_fract_x
_atom_site_fract_y
_atom_site_fract_z
Si Si1 0.399618 0.383023 0.358563
Si Si2 0.073741 0.342673 0.395345
Si Si3 0.515892 0.525746 0.175557
Si Si4 0.412468 0.928998 0.728507
Si Si5 0.771592 0.264506 0.154595
Si Si6 0.164048 0.035492 0.473439
Si Si7 0.343780 0.844433 0.195079
O O1 0.500000 0.500000 0.500000
O O2 0.214257 0.400183 0.352452
O O3 0.400972 0.419767 0.201948
O O4 0.481282 0.214483 0.367957
O O5 0.142531 0.217781 0.487466
O O6 0.000000 0.500000 0.500000
O O7 0.953416 0.258906 0.241760
O O8 0.693380 0.444118 0.230262
O O9 0.463632 0.708519 0.256663
O O10 0.500000 0.500000 0.000000
O O11 0.314893 0.868205 0.821605
O O12 0.297343 0.013087 0.613925
O O13 0.541885 0.047651 0.831708
O O14 0.763556 0.227314 0.972187
O O15 0.222241 0.930521 0.313252
O O16 0.000000 0.000000 0.500000
#
# Coordination Sequence:
#
# PCOD8025427 Si02
#       7
#     2   2   2   2   2   2   2
#     4  11  23  41  67  92 124 173 218 262 320 390
#     4  12  26  43  66  95 135 173 219 269 332 390
#     4   9  21  41  65  94 126 167 213 260 319 386
#     4  11  22  42  68  97 127 168 225 267 323 386
#     4  10  23  45  66  99 134 172 210 271 337 390
#     4  12  26  43  63 100 131 172 222 274 326 378
#     4  11  23  42  70  96 134 170 221 272 321 390
#
# _framework density 20.723980999999998
#
# number of rings (size 3 to 8) (size 9 to 14) (size 15 to 20)
#    0.000    1.143    2.857    3.429    6.000    0.571 
#    0.000    2.857    0.000    0.000    0.000    0.000 
#    0.000    0.000    0.000    0.000    0.000    0.000 
#
# Total GULP energy -173452.171935 kJ/mol
# GULP energy per Si atom -12389.440852 kJ/mol
# Density = 2.067681 g / cm^3
# Si number density = 20.723981 Si / 1000 Ang^3
#
#
#
# Elastic Constant Matrix: (Units=GPa)
#
#
# Indices 1 2 3 4 5 6 
#
# 1 149.7732 44.5250 49.5470 -0.7920 -5.2954 8.9855
# 2 44.5250 149.6874 39.7600 -3.6877 -3.3659 -16.8777
# 3 49.5470 39.7600 94.8220 -8.7698 -3.4018 -2.0362
# 4 -0.7920 -3.6877 -8.7698 32.5316 1.0963 -1.0082
# 5 -5.2954 -3.3659 -3.4018 1.0963 34.8511 2.5948
# 6 8.9855 -16.8777 -2.0362 -1.0082 2.5948 34.9150
#
#
#
# Elastic Compliance Matrix: (Units=1/GPa)
#
#
# Indices 1 2 3 4 5 6 
#
# 1 0.008810 -0.001988 -0.003921 -0.001214 0.001068 -0.003571
# 2 -0.001988 0.008409 -0.002356 0.000410 -0.000065 0.004455
# 3 -0.003921 -0.002356 0.013927 0.003403 0.000373 0.000753
# 4 -0.001214 0.000410 0.003403 0.031758 -0.000938 0.001696
# 5 0.001068 -0.000065 0.000373 -0.000938 0.029100 -0.002474
# 6 -0.003571 0.004455 0.000753 0.001696 -0.002474 0.031991
#
#
# Mechanical properties :
#
#
# Convention : Reuss Voigt Hill
#
# Bulk Modulus (GPa) = 68.41407 73.54963 70.98185
# Shear Modulus (GPa) = 34.38903 37.82292 36.10597
#
# Velocity S-wave (km/s) = 4.07797 4.27673 4.17853
# Velocity P-wave (km/s) = 7.43349 7.74302 7.58984
#
# Compressibility (1/GPa) = 0.01461688
#
# Stress axis : x y z
#
# Youngs Moduli (GPa) = 113.50263 118.92506 71.80334
#
# Poissons Ratio (x) = 0.23640 0.28153
# Poissons Ratio (y) = 0.22562 0.16916
# Poissons Ratio (z) = 0.44503 0.28018
#
# Static dielectric constant tensor:
#      x y z
#    x 3.808750 -0.216040 -0.141550 
#    y -0.216040 4.409240 -0.254150 
#    z -0.141550 -0.254150 3.633570 
# 
# 
# High freq. dielectric constant tensor:
#      x y z
#    x 1.813190 -0.006650 -0.008630 
#    y -0.006650 1.834020 -0.011240 
#    z -0.008630 -0.011240 1.800680 
# 
# From -- ./inp_files/154326.got.cif
#   From: 2010.06.25/outbox.cif.g09.slc.cpg/sg2_78_cif.got.tgz:154326.got - 2010.06.27 13:26:56.
