data_PCOD8025786
_publ_section_title
;
Structure prediction by ZEFSAII (Michael W. Deem and Ramdas Pophale) SiO2 
 PCOD8025786
Probable space group: P -1
;
_chemical_formula_sum "Si O2"
_cell_formula_units_Z 16
_cell_length_a 9.228996
_cell_length_b 15.699906
_cell_length_c 5.269479
_cell_angle_alpha 68.963918
_cell_angle_beta 91.491927
_cell_angle_gamma 89.251138
_cell_volume 712.185662
_symmetry_space_group_name_H-M "P -1"
_symmetry_group_IT_number 2
_symmetry_cell_setting 'triclinic'
loop_
_space_group_symop_operation_xyz
x,y,z
-x,-y,-z
loop_
_atom_site_type_symbol
_atom_site_label
_atom_site_fract_x
_atom_site_fract_y
_atom_site_fract_z
Si Si1 0.630271 0.305650 0.359875
Si Si2 0.182124 0.527520 0.730514
Si Si3 0.584316 0.909443 0.020196
Si Si4 0.858583 0.581937 0.648813
Si Si5 0.328298 0.800868 0.009656
Si Si6 0.321412 0.248916 0.430953
Si Si7 0.821549 0.903165 0.659987
Si Si8 0.103235 0.953302 0.850487
O O1 0.685878 0.408026 0.263750
O O2 0.651387 0.267733 0.683322
O O3 0.458820 0.306056 0.279643
O O4 0.715623 0.250693 0.197423
O O5 0.208694 0.478999 0.512736
O O6 0.032532 0.586569 0.633427
O O7 0.178820 0.454011 0.034260
O O8 0.729160 0.942813 0.850636
O O9 0.475660 0.853871 0.891726
O O10 0.623333 0.839613 0.319601
O O11 0.500000 0.000000 0.000000
O O12 0.788670 0.682877 0.498817
O O13 0.205166 0.870484 0.036539
O O14 0.226672 0.201973 0.256335
O O15 0.994466 0.906732 0.695571
O O16 0.791227 0.970863 0.346877
O O17 0.000000 0.000000 0.000000
#
# Coordination Sequence:
#
# PCOD8025786 Si02
#       8
#     2   2   2   2   2   2   2   2
#     4  11  25  43  68 101 135 174 228 277 345 409
#     4  10  23  46  68 101 133 180 219 278 352 409
#     4  11  24  43  67  95 141 183 230 281 343 405
#     4  10  24  43  72  98 137 174 225 278 342 413
#     4  11  25  42  67  97 136 178 230 283 338 406
#     4  11  25  41  66 104 134 177 229 282 338 406
#     4  11  24  42  66  93 136 176 232 283 344 398
#     4  11  26  42  62  95 132 183 234 282 346 400
#
# _framework density 22.466051
#
# number of rings (size 3 to 8) (size 9 to 14) (size 15 to 20)
#    0.000    1.250    1.250    3.000   10.500    3.000 
#    0.000    0.000    0.000    0.000    0.000    0.000 
#    0.000    0.000    0.000    0.000    0.000    0.000 
#
# Total GULP energy -198332.364835 kJ/mol
# GULP energy per Si atom -12395.772802 kJ/mol
# Density = 2.241492 g / cm^3
# Si number density = 22.466051 Si / 1000 Ang^3
#
#
#
# Elastic Constant Matrix: (Units=GPa)
#
#
# Indices 1 2 3 4 5 6 
#
# 1 92.2263 51.6939 6.1655 -8.8411 -7.4508 8.7481
# 2 51.6939 119.3129 16.4013 1.6468 5.5063 6.4500
# 3 6.1655 16.4013 72.9137 9.0728 -9.0696 -1.8955
# 4 -8.8411 1.6468 9.0728 33.2903 -2.9459 1.0704
# 5 -7.4508 5.5063 -9.0696 -2.9459 30.7436 -2.6480
# 6 8.7481 6.4500 -1.8955 1.0704 -2.6480 49.0263
#
#
#
# Elastic Compliance Matrix: (Units=1/GPa)
#
#
# Indices 1 2 3 4 5 6 
#
# 1 0.015947 -0.007184 0.000287 0.005060 0.005575 -0.001699
# 2 -0.007184 0.012124 -0.002467 -0.002250 -0.004910 -0.000625
# 3 0.000287 -0.002467 0.015319 -0.003592 0.004790 0.001203
# 4 0.005060 -0.002250 -0.003592 0.032833 0.003607 -0.001268
# 5 0.005575 -0.004910 0.004790 0.003607 0.036666 0.001738
# 6 -0.001699 -0.000625 0.001203 -0.001268 0.001738 0.020951
#
#
# Mechanical properties :
#
#
# Convention : Reuss Voigt Hill
#
# Bulk Modulus (GPa) = 40.54570 48.10827 44.32699
# Shear Modulus (GPa) = 31.09670 36.62485 33.86077
#
# Velocity S-wave (km/s) = 3.72447 4.04199 3.88648
# Velocity P-wave (km/s) = 6.04833 6.57601 6.31768
#
# Compressibility (1/GPa) = 0.02466352
#
# Stress axis : x y z
#
# Youngs Moduli (GPa) = 62.70759 82.47828 65.27633
#
# Poissons Ratio (x) = 0.59253 -0.01874
# Poissons Ratio (y) = 0.45049 0.16102
# Poissons Ratio (z) = -0.01801 0.20346
#
# Static dielectric constant tensor:
#      x y z
#    x 4.438420 0.308030 0.091900 
#    y 0.308030 4.065130 0.097690 
#    z 0.091900 0.097690 3.884620 
# 
# 
# High freq. dielectric constant tensor:
#      x y z
#    x 1.894880 0.013100 0.001220 
#    y 0.013100 1.889640 0.011050 
#    z 0.001220 0.011050 1.875660 
# 
# From -- ./inp_files/37437.got.cif
#   From: 2010.06.25/outbox.cif.g09.slc.cpg/sg2_19_cif.got.tgz:37437.got - 2010.06.27 13:26:56.
