data_PCOD8025685
_publ_section_title
;
Structure prediction by ZEFSAII (Michael W. Deem and Ramdas Pophale) SiO2 
 PCOD8025685
Probable space group: P -1
;
_chemical_formula_sum "Si O2"
_cell_formula_units_Z 16
_cell_length_a 17.723700
_cell_length_b 20.035336
_cell_length_c 5.279068
_cell_angle_alpha 68.065891
_cell_angle_beta 108.612616
_cell_angle_gamma 159.661684
_cell_volume 601.562662
_symmetry_space_group_name_H-M "P -1"
_symmetry_group_IT_number 2
_symmetry_cell_setting 'triclinic'
loop_
_space_group_symop_operation_xyz
x,y,z
-x,-y,-z
loop_
_atom_site_type_symbol
_atom_site_label
_atom_site_fract_x
_atom_site_fract_y
_atom_site_fract_z
Si Si1 0.550734 0.661382 0.862768
Si Si2 0.692829 0.650376 0.298792
Si Si3 0.163587 0.931678 0.074991
Si Si4 0.631309 0.159902 0.604124
Si Si5 0.772159 0.500497 0.145969
Si Si6 0.923087 0.016550 0.423989
Si Si7 0.028336 0.464048 0.871162
Si Si8 0.432368 0.130324 0.583667
O O1 0.364758 0.456780 0.820915
O O2 0.418659 0.603359 0.996744
O O3 0.681544 0.817380 0.570398
O O4 0.723404 0.755617 0.058049
O O5 0.500000 0.500000 0.500000
O O6 0.908373 0.803977 0.454543
O O7 0.071920 0.935551 0.905666
O O8 0.341291 0.068106 0.852520
O O9 0.977626 0.715305 0.173939
O O10 0.269745 0.019141 0.341334
O O11 0.809607 0.363105 0.394543
O O12 0.460354 0.067114 0.696301
O O13 0.781135 0.236581 0.838380
O O14 0.500000 0.000000 0.500000
O O15 0.853640 0.514913 0.985736
O O16 0.665336 0.365824 0.456434
O O17 0.000000 0.000000 0.500000
O O18 0.000000 0.500000 0.000000
#
# Coordination Sequence:
#
# PCOD8025685 Si02
#       8
#     2   2   2   2   2   2   2   2
#     4  11  25  45  70 103 148 192 252 312 379 452
#     4  11  24  44  70 105 139 194 247 306 379 453
#     4  12  29  49  74 114 150 202 260 315 388 462
#     4  10  23  45  73 104 150 194 250 310 392 464
#     4  11  26  48  75 108 156 202 251 325 384 457
#     4  12  26  45  71 105 145 197 252 312 380 457
#     4  10  24  45  72 112 144 197 257 317 386 466
#     4  11  28  49  76 113 150 199 257 317 384 461
#
# _framework density 26.597394999999999
#
# number of rings (size 3 to 8) (size 9 to 14) (size 15 to 20)
#    0.000    1.000    2.500    1.875   10.500    2.500 
#    0.000    0.000    0.000    0.000    0.000    0.000 
#    0.000    0.000    0.000    0.000    0.000    0.000 
#
# Total GULP energy -198233.456352 kJ/mol
# GULP energy per Si atom -12389.591022 kJ/mol
# Density = 2.653686 g / cm^3
# Si number density = 26.597395 Si / 1000 Ang^3
#
#
#
# Elastic Constant Matrix: (Units=GPa)
#
#
# Indices 1 2 3 4 5 6 
#
# 1 196.4577 44.3023 9.9709 6.0867 2.2977 19.9757
# 2 44.3023 122.1191 18.4986 3.9749 15.8134 -2.6353
# 3 9.9709 18.4986 45.7879 6.6641 3.9424 9.6888
# 4 6.0867 3.9749 6.6641 34.5419 0.3393 8.6998
# 5 2.2977 15.8134 3.9424 0.3393 29.4604 0.8364
# 6 19.9757 -2.6353 9.6888 8.6998 0.8364 38.4834
#
#
#
# Elastic Compliance Matrix: (Units=1/GPa)
#
#
# Indices 1 2 3 4 5 6 
#
# 1 0.005943 -0.002387 0.000302 0.000003 0.000872 -0.003344
# 2 -0.002387 0.010366 -0.003802 -0.000794 -0.004951 0.003193
# 3 0.000302 -0.003802 0.025115 -0.002925 -0.001138 -0.006054
# 4 0.000003 -0.000794 -0.002925 0.031208 0.000640 -0.006388
# 5 0.000872 -0.004951 -0.001138 0.000640 0.036719 -0.001448
# 6 -0.003344 0.003193 -0.006054 -0.006388 -0.001448 0.030940
#
#
# Mechanical properties :
#
#
# Convention : Reuss Voigt Hill
#
# Bulk Modulus (GPa) = 33.72610 56.65649 45.19129
# Shear Modulus (GPa) = 30.87402 39.93668 35.40535
#
# Velocity S-wave (km/s) = 3.41073 3.87916 3.65246
# Velocity P-wave (km/s) = 5.31212 6.43518 5.90043
#
# Compressibility (1/GPa) = 0.02965063
#
# Stress axis : x y z
#
# Youngs Moduli (GPa) = 168.27115 96.46491 39.81700
#
# Poissons Ratio (x) = 0.23025 -0.01204
# Poissons Ratio (y) = 0.40165 0.15139
# Poissons Ratio (z) = -0.05087 0.36677
#
# Static dielectric constant tensor:
#      x y z
#    x 5.656840 0.400510 0.520640 
#    y 0.400510 5.347490 0.052470 
#    z 0.520640 0.052470 4.866130 
# 
# 
# High freq. dielectric constant tensor:
#      x y z
#    x 2.097330 0.004630 0.006210 
#    y 0.004630 2.082440 -0.013810 
#    z 0.006210 -0.013810 2.032730 
# 
# From -- ./inp_files/112383.got.cif
#   From: 2010.06.25/outbox.cif.g09.slc.cpg/sg2_57_cif.got.tgz:112383.got - 2010.06.27 13:26:56.
