data_PCOD8025310
_publ_section_title
;
Structure prediction by ZEFSAII (Michael W. Deem and Ramdas Pophale) SiO2 
 PCOD8025310
Probable space group: P -1
;
_chemical_formula_sum "Si O2"
_cell_formula_units_Z 16
_cell_length_a 19.242931
_cell_length_b 7.582421
_cell_length_c 8.818904
_cell_angle_alpha 35.627894
_cell_angle_beta 116.000726
_cell_angle_gamma 118.297082
_cell_volume 656.441924
_symmetry_space_group_name_H-M "P -1"
_symmetry_group_IT_number 2
_symmetry_cell_setting 'triclinic'
loop_
_space_group_symop_operation_xyz
x,y,z
-x,-y,-z
loop_
_atom_site_type_symbol
_atom_site_label
_atom_site_fract_x
_atom_site_fract_y
_atom_site_fract_z
Si Si1 0.491140 0.641653 0.552487
Si Si2 0.083879 0.595257 0.930389
Si Si3 0.413268 0.751875 0.899275
Si Si4 0.176224 0.116073 0.471100
Si Si5 0.015728 0.670118 0.242858
Si Si6 0.279289 0.289882 0.917460
Si Si7 0.661960 0.809143 0.268231
Si Si8 0.185919 0.777124 0.403025
O O1 0.500000 0.500000 0.500000
O O2 0.397336 0.530843 0.574156
O O3 0.524577 0.012938 0.314437
O O4 0.542273 0.503020 0.819966
O O5 0.145292 0.420996 0.186729
O O6 0.129724 0.952768 0.692680
O O7 0.000000 0.500000 0.000000
O O8 0.056764 0.511953 0.794774
O O9 0.342723 0.576324 0.849105
O O10 0.381841 0.933623 0.882412
O O11 0.166888 0.899201 0.464897
O O12 0.268478 0.225399 0.525996
O O13 0.108471 0.696875 0.272864
O O14 0.000000 0.500000 0.500000
O O15 0.000000 0.000000 0.000000
O O16 0.308638 0.103351 0.936729
O O17 0.211913 0.452994 0.672709
O O18 0.250065 0.042373 0.194878
#
# Coordination Sequence:
#
# PCOD8025310 Si02
#       8
#     2   2   2   2   2   2   2   2
#     4  10  23  44  73 102 136 189 228 284 350 414
#     4  12  27  45  67 104 135 181 233 286 347 407
#     4  11  24  47  73  98 144 183 231 287 348 412
#     4  12  26  46  71  96 141 190 222 288 354 409
#     4  12  23  43  69  92 125 177 231 273 336 412
#     4  12  28  43  71 106 138 183 234 288 343 412
#     4  11  27  45  72 107 141 181 238 286 350 414
#     4  12  25  47  67 100 139 182 233 285 351 413
#
# _framework density 24.373823000000002
#
# number of rings (size 3 to 8) (size 9 to 14) (size 15 to 20)
#    0.000    0.500    3.750    4.125    5.250    5.000 
#    0.000    0.000    0.000    0.000    0.000    0.000 
#    0.000    0.000    0.000    0.000    0.000    0.000 
#
# Total GULP energy -198231.572870 kJ/mol
# GULP energy per Si atom -12389.473304 kJ/mol
# Density = 2.431835 g / cm^3
# Si number density = 24.373823 Si / 1000 Ang^3
#
#
#
# Elastic Constant Matrix: (Units=GPa)
#
#
# Indices 1 2 3 4 5 6 
#
# 1 88.0879 21.5703 38.0882 6.2871 -9.6444 15.3579
# 2 21.5703 61.2262 19.2231 -4.0080 3.0119 14.7330
# 3 38.0882 19.2231 165.6685 1.7689 -9.1652 5.3984
# 4 6.2871 -4.0080 1.7689 19.4036 9.3394 2.6042
# 5 -9.6444 3.0119 -9.1652 9.3394 40.2638 5.8319
# 6 15.3579 14.7330 5.3984 2.6042 5.8319 43.2488
#
#
#
# Elastic Compliance Matrix: (Units=1/GPa)
#
#
# Indices 1 2 3 4 5 6 
#
# 1 0.015442 -0.004527 -0.002484 -0.008025 0.005905 -0.003944
# 2 -0.004527 0.020382 -0.001480 0.008509 -0.004181 -0.005100
# 3 -0.002484 -0.001480 0.006839 -0.000751 0.001186 0.000418
# 4 -0.008025 0.008509 -0.000751 0.064583 -0.017495 -0.001485
# 5 0.005905 -0.004181 0.001186 -0.017495 0.031472 -0.004011
# 6 -0.003944 -0.005100 0.000418 -0.001485 -0.004011 0.026838
#
#
# Mechanical properties :
#
#
# Convention : Reuss Voigt Hill
#
# Bulk Modulus (GPa) = 38.93977 52.52731 45.73354
# Shear Modulus (GPa) = 26.16436 36.32329 31.24382
#
# Velocity S-wave (km/s) = 3.27993 3.86457 3.58419
# Velocity P-wave (km/s) = 5.50950 6.44288 5.99439
#
# Compressibility (1/GPa) = 0.02568068
#
# Stress axis : x y z
#
# Youngs Moduli (GPa) = 64.75924 49.06214 146.21963
#
# Poissons Ratio (x) = 0.22210 0.36321
# Poissons Ratio (y) = 0.29316 0.21644
# Poissons Ratio (z) = 0.16086 0.07262
#
# Static dielectric constant tensor:
#      x y z
#    x 4.704130 0.188730 -0.542040 
#    y 0.188730 4.271200 -0.160150 
#    z -0.542040 -0.160150 4.918410 
# 
# 
# High freq. dielectric constant tensor:
#      x y z
#    x 1.970670 0.023830 -0.009920 
#    y 0.023830 1.976790 0.011340 
#    z -0.009920 0.011340 1.981710 
# 
# From -- ./inp_files/343223.got.cif
#   From: 2010.06.25/outbox.cif.g09.slc.cpg/sg2_172_cif.got.tgz:343223.got - 2010.06.27 13:26:56.
