data_PCOD8025238
_publ_section_title
;
Structure prediction by ZEFSAII (Michael W. Deem and Ramdas Pophale) SiO2 
 PCOD8025238
Probable space group: P -1
;
_chemical_formula_sum "Si O2"
_cell_formula_units_Z 16
_cell_length_a 16.723494
_cell_length_b 6.633875
_cell_length_c 11.578080
_cell_angle_alpha 70.586373
_cell_angle_beta 47.525957
_cell_angle_gamma 50.540907
_cell_volume 720.845758
_symmetry_space_group_name_H-M "P -1"
_symmetry_group_IT_number 2
_symmetry_cell_setting 'triclinic'
loop_
_space_group_symop_operation_xyz
x,y,z
-x,-y,-z
loop_
_atom_site_type_symbol
_atom_site_label
_atom_site_fract_x
_atom_site_fract_y
_atom_site_fract_z
Si Si1 0.109071 0.101124 0.963808
Si Si2 0.525918 0.525724 0.748491
Si Si3 0.383163 0.305939 0.569601
Si Si4 0.037105 0.654554 0.511435
Si Si5 0.698434 0.971753 0.030576
Si Si6 0.902017 0.509925 0.255794
Si Si7 0.783161 0.185839 0.711518
Si Si8 0.303254 0.498044 0.870159
O O1 0.070351 0.276821 0.852209
O O2 0.164078 0.797421 0.942147
O O3 0.982039 0.247212 0.146432
O O4 0.229230 0.101812 0.901625
O O5 0.574681 0.532667 0.572649
O O6 0.649777 0.299913 0.746101
O O7 0.412158 0.477579 0.852815
O O8 0.458940 0.797914 0.835829
O O9 0.253700 0.363222 0.621521
O O10 0.361812 0.399130 0.704187
O O11 0.500000 0.000000 0.500000
O O12 0.046617 0.566604 0.650335
O O13 0.176335 0.611701 0.343215
O O14 0.000000 0.500000 0.500000
O O15 0.910081 0.957368 0.557963
O O16 0.766759 0.072883 0.866277
O O17 0.722557 0.705076 0.009141
#
# Coordination Sequence:
#
# PCOD8025238 Si02
#       8
#     2   2   2   2   2   2   2   2
#     4  10  23  44  71 105 139 178 239 290 354 421
#     4  11  24  41  69  99 139 183 233 284 349 417
#     4  12  22  42  70  99 146 177 227 296 351 421
#     4  11  26  46  72 101 137 186 234 290 352 423
#     4  11  22  45  66  98 145 179 232 295 338 410
#     4  11  22  47  72 102 143 182 227 301 357 406
#     4  11  25  46  66 100 138 182 235 289 341 411
#     4  11  24  42  71 106 134 192 229 283 358 419
#
# _framework density 22.196151
#
# number of rings (size 3 to 8) (size 9 to 14) (size 15 to 20)
#    0.000    1.000    5.000    1.500    0.000    6.000 
#    0.000    0.000    0.000    0.000    0.000    0.000 
#    0.000    0.000    0.000    0.000    0.000    0.000 
#
# Total GULP energy -198370.863856 kJ/mol
# GULP energy per Si atom -12398.178991 kJ/mol
# Density = 2.214563 g / cm^3
# Si number density = 22.196151 Si / 1000 Ang^3
#
#
#
# Elastic Constant Matrix: (Units=GPa)
#
#
# Indices 1 2 3 4 5 6 
#
# 1 79.3958 58.5814 30.8006 -0.2785 -0.9517 0.2509
# 2 58.5814 141.5763 58.5861 3.4679 4.0008 1.9215
# 3 30.8006 58.5861 113.4859 -10.8505 -3.5617 4.1200
# 4 -0.2785 3.4679 -10.8505 49.1722 -5.4288 -8.0621
# 5 -0.9517 4.0008 -3.5617 -5.4288 22.5849 4.3522
# 6 0.2509 1.9215 4.1200 -8.0621 4.3522 39.7595
#
#
#
# Elastic Compliance Matrix: (Units=1/GPa)
#
#
# Indices 1 2 3 4 5 6 
#
# 1 0.018383 -0.007200 -0.001161 0.000615 0.001964 0.000262
# 2 -0.007200 0.012129 -0.004645 -0.002354 -0.003725 -0.000129
# 3 -0.001161 -0.004645 0.011974 0.003237 0.003584 -0.000745
# 4 0.000615 -0.002354 0.003237 0.022451 0.005635 0.003710
# 5 0.001964 -0.003725 0.003584 0.005635 0.047766 -0.004290
# 6 0.000262 -0.000129 -0.000745 0.003710 -0.004290 0.026455
#
#
# Mechanical properties :
#
#
# Convention : Reuss Voigt Hill
#
# Bulk Modulus (GPa) = 60.70288 70.04379 65.37334
# Shear Modulus (GPa) = 29.29773 34.73597 32.01685
#
# Velocity S-wave (km/s) = 3.63705 3.96024 3.80208
# Velocity P-wave (km/s) = 6.71158 7.24821 6.98505
#
# Compressibility (1/GPa) = 0.01647368
#
# Stress axis : x y z
#
# Youngs Moduli (GPa) = 54.39799 82.44471 83.51678
#
# Poissons Ratio (x) = 0.59361 0.09698
# Poissons Ratio (y) = 0.39167 0.38792
# Poissons Ratio (z) = 0.06317 0.38294
#
# Static dielectric constant tensor:
#      x y z
#    x 3.924660 -0.120110 -0.097980 
#    y -0.120110 4.306450 -0.043920 
#    z -0.097980 -0.043920 4.263240 
# 
# 
# High freq. dielectric constant tensor:
#      x y z
#    x 1.868840 -0.015340 -0.011790 
#    y -0.015340 1.877710 -0.002150 
#    z -0.011790 -0.002150 1.878750 
# 
# From -- ./inp_files/364487.got.cif
#   From: 2010.06.25/outbox.cif.g09.slc.cpg/sg2_183_cif.got.tgz:364487.got - 2010.06.27 13:26:56.
