data_PCOD8025105
_publ_section_title
;
Structure prediction by ZEFSAII (Michael W. Deem and Ramdas Pophale) SiO2 
 PCOD8025105
Probable space group: P -1
;
_chemical_formula_sum "Si O2"
_cell_formula_units_Z 16
_cell_length_a 8.949572
_cell_length_b 22.258510
_cell_length_c 6.745029
_cell_angle_alpha 49.188582
_cell_angle_beta 54.353806
_cell_angle_gamma 47.870573
_cell_volume 728.835329
_symmetry_space_group_name_H-M "P -1"
_symmetry_group_IT_number 2
_symmetry_cell_setting 'triclinic'
loop_
_space_group_symop_operation_xyz
x,y,z
-x,-y,-z
loop_
_atom_site_type_symbol
_atom_site_label
_atom_site_fract_x
_atom_site_fract_y
_atom_site_fract_z
Si Si1 0.469815 0.765169 0.505452
Si Si2 0.849167 0.758536 0.432808
Si Si3 0.735304 0.308270 0.880654
Si Si4 0.566783 0.638180 0.341156
Si Si5 0.411328 0.048377 0.671148
Si Si6 0.226755 0.969327 0.289391
Si Si7 0.965019 0.590051 0.944222
Si Si8 0.725343 0.461514 0.820296
O O1 0.701648 0.751572 0.391858
O O2 0.463674 0.710598 0.437057
O O3 0.306397 0.868047 0.372020
O O4 0.404409 0.729399 0.826055
O O5 0.712526 0.843097 0.499405
O O6 0.994588 0.660545 0.630285
O O7 0.033085 0.774767 0.157813
O O8 0.617869 0.358023 0.661529
O O9 0.779326 0.374222 0.841532
O O10 0.721896 0.538608 0.516571
O O11 0.725291 0.655937 0.046980
O O12 0.620143 0.021692 0.690742
O O13 0.500000 0.000000 0.500000
O O14 0.247587 0.021519 0.964761
O O15 0.000000 0.000000 0.500000
O O16 0.000000 0.500000 0.000000
O O17 0.113141 0.561317 0.079638
O O18 0.500000 0.500000 0.000000
#
# Coordination Sequence:
#
# PCOD8025105 Si02
#       8
#     2   2   2   2   2   2   2   2
#     4  11  24  43  67  98 134 170 219 274 328 394
#     4  11  24  44  66  98 134 175 219 271 329 394
#     4  12  24  43  65  97 133 174 222 272 324 393
#     4  12  24  42  66  93 132 176 219 271 328 390
#     4  10  24  44  69 100 136 174 222 276 337 401
#     4  10  23  44  69 101 134 173 220 278 337 401
#     4  12  24  42  68  96 132 178 222 268 329 388
#     4  12  23  41  62  94 133 172 222 273 322 387
#
# _framework density 21.952835
#
# number of rings (size 3 to 8) (size 9 to 14) (size 15 to 20)
#    0.000    0.750    2.500    5.250    1.750    1.500 
#    2.250    0.000    0.000    0.000    0.000    0.000 
#    0.000    0.000    0.000    0.000    0.000    0.000 
#
# Total GULP energy -198324.288907 kJ/mol
# GULP energy per Si atom -12395.268057 kJ/mol
# Density = 2.190287 g / cm^3
# Si number density = 21.952835 Si / 1000 Ang^3
#
#
#
# Elastic Constant Matrix: (Units=GPa)
#
#
# Indices 1 2 3 4 5 6 
#
# 1 142.7954 52.5922 43.6150 12.0986 6.4824 -7.4842
# 2 52.5922 116.0613 48.2792 -3.9568 2.4489 -0.7926
# 3 43.6150 48.2792 95.5135 8.1846 -3.1898 -3.0794
# 4 12.0986 -3.9568 8.1846 42.2247 -8.2927 -7.7753
# 5 6.4824 2.4489 -3.1898 -8.2927 34.4811 10.8712
# 6 -7.4842 -0.7926 -3.0794 -7.7753 10.8712 35.9789
#
#
#
# Elastic Compliance Matrix: (Units=1/GPa)
#
#
# Indices 1 2 3 4 5 6 
#
# 1 0.009437 -0.003270 -0.002457 -0.002767 -0.003068 0.002010
# 2 -0.003270 0.012266 -0.004970 0.003027 0.000076 -0.000204
# 3 -0.002457 -0.004970 0.014344 -0.002279 0.001722 -0.000406
# 4 -0.002767 0.003027 -0.002279 0.026913 0.005477 0.003457
# 5 -0.003068 0.000076 0.001722 0.005477 0.034077 -0.009602
# 6 0.002010 -0.000204 -0.000406 0.003457 -0.009602 0.031821
#
#
# Mechanical properties :
#
#
# Convention : Reuss Voigt Hill
#
# Bulk Modulus (GPa) = 68.25056 71.48256 69.86656
# Shear Modulus (GPa) = 32.22995 36.52920 34.37957
#
# Velocity S-wave (km/s) = 3.83580 4.08362 3.96165
# Velocity P-wave (km/s) = 7.12565 7.40724 7.26781
#
# Compressibility (1/GPa) = 0.01465189
#
# Stress axis : x y z
#
# Youngs Moduli (GPa) = 105.96728 81.52884 69.71779
#
# Poissons Ratio (x) = 0.26661 0.17129
# Poissons Ratio (y) = 0.34652 0.34650
# Poissons Ratio (z) = 0.26035 0.40521
#
# Static dielectric constant tensor:
#      x y z
#    x 3.813940 0.011240 -0.308110 
#    y 0.011240 3.927020 0.086360 
#    z -0.308110 0.086360 4.172810 
# 
# 
# High freq. dielectric constant tensor:
#      x y z
#    x 1.869290 -0.004790 -0.013450 
#    y -0.004790 1.871080 0.007410 
#    z -0.013450 0.007410 1.872670 
# 
# From -- ./inp_files/52351.got.cif
#   From: 2010.06.25/outbox.cif.g09.slc.cpg/sg2_27_cif.got.tgz:52351.got - 2010.06.27 13:26:56.
