data_PCOD8025818
_publ_section_title
;
Structure prediction by ZEFSAII (Michael W. Deem and Ramdas Pophale) SiO2 
 PCOD8025818
Probable space group: P -1
;
_chemical_formula_sum "Si O2"
_cell_formula_units_Z 16
_cell_length_a 15.766965
_cell_length_b 12.133097
_cell_length_c 9.140908
_cell_angle_alpha 142.193337
_cell_angle_beta 68.801143
_cell_angle_gamma 131.302538
_cell_volume 755.187401
_symmetry_space_group_name_H-M "P -1"
_symmetry_group_IT_number 2
_symmetry_cell_setting 'triclinic'
loop_
_space_group_symop_operation_xyz
x,y,z
-x,-y,-z
loop_
_atom_site_type_symbol
_atom_site_label
_atom_site_fract_x
_atom_site_fract_y
_atom_site_fract_z
Si Si1 0.023805 0.323383 0.302543
Si Si2 0.176081 0.098221 0.202470
Si Si3 0.241385 0.290309 0.791211
Si Si4 0.016114 0.185434 0.484752
Si Si5 0.662857 0.881582 0.651962
Si Si6 0.730236 0.543887 0.735336
Si Si7 0.762035 0.402542 0.102809
Si Si8 0.428382 0.745756 0.707607
O O1 0.986178 0.184393 0.333257
O O2 0.161004 0.455749 0.317643
O O3 0.000000 0.500000 0.500000
O O4 0.945052 0.145956 0.036585
O O5 0.119525 0.166771 0.423985
O O6 0.257993 0.060752 0.194993
O O7 0.250095 0.275161 0.207218
O O8 0.327249 0.256662 0.624426
O O9 0.245866 0.494551 0.933363
O O10 0.291649 0.384717 0.022757
O O11 0.107652 0.030405 0.589047
O O12 0.095678 0.449005 0.785449
O O13 0.522713 0.702253 0.601153
O O14 0.702557 0.130143 0.828549
O O15 0.616556 0.285290 0.466737
O O16 0.690375 0.430024 0.300653
O O17 0.500000 0.000000 0.000000
#
# Coordination Sequence:
#
# PCOD8025818 Si02
#       8
#     2   2   2   2   2   2   2   2
#     4  11  21  35  65 100 131 167 219 267 322 388
#     4  11  20  40  65  94 127 173 220 260 319 389
#     4  12  24  41  64  97 140 168 205 267 341 394
#     4  11  20  40  63  96 136 170 205 268 335 384
#     4  11  26  42  66  97 126 177 227 261 316 391
#     4  11  22  42  66  92 132 172 206 277 329 373
#     4  11  23  43  66  94 131 173 217 268 322 379
#     4  10  23  46  69  91 123 171 233 272 306 379
#
# _framework density 21.186793000000002
#
# number of rings (size 3 to 8) (size 9 to 14) (size 15 to 20)
#    0.000    1.000    6.250    1.875    1.750    4.000 
#    0.000    2.500    0.000    0.000    0.000    0.000 
#    0.000    0.000    0.000    0.000    0.000    0.000 
#
# Total GULP energy -198271.343279 kJ/mol
# GULP energy per Si atom -12391.958955 kJ/mol
# Density = 2.113857 g / cm^3
# Si number density = 21.186793 Si / 1000 Ang^3
#
#
#
# Elastic Constant Matrix: (Units=GPa)
#
#
# Indices 1 2 3 4 5 6 
#
# 1 130.6133 38.9472 53.0632 -6.0982 4.6915 8.3740
# 2 38.9472 63.1512 33.1690 -9.6309 -1.0252 -2.0990
# 3 53.0632 33.1690 109.0694 -6.1282 18.6400 3.1878
# 4 -6.0982 -9.6309 -6.1282 29.6156 0.5231 4.1868
# 5 4.6915 -1.0252 18.6400 0.5231 42.2692 4.6248
# 6 8.3740 -2.0990 3.1878 4.1868 4.6248 28.4794
#
#
#
# Elastic Compliance Matrix: (Units=1/GPa)
#
#
# Indices 1 2 3 4 5 6 
#
# 1 0.010818 -0.004695 -0.003845 0.000354 0.000734 -0.003268
# 2 -0.004695 0.022065 -0.004703 0.004852 0.002812 0.002363
# 3 -0.003845 -0.004703 0.013461 0.000548 -0.005643 0.000113
# 4 0.000354 0.004852 0.000548 0.036256 -0.000051 -0.005130
# 5 0.000734 0.002812 -0.005643 -0.000051 0.026536 -0.003679
# 6 -0.003268 0.002363 0.000113 -0.005130 -0.003679 0.037587
#
#
# Mechanical properties :
#
#
# Convention : Reuss Voigt Hill
#
# Bulk Modulus (GPa) = 50.35835 61.46584 55.91209
# Shear Modulus (GPa) = 27.80421 31.91647 29.86034
#
# Velocity S-wave (km/s) = 3.62655 3.88549 3.75825
# Velocity P-wave (km/s) = 6.43087 7.01454 6.72904
#
# Compressibility (1/GPa) = 0.01985768
#
# Stress axis : x y z
#
# Youngs Moduli (GPa) = 92.43843 45.32138 74.28669
#
# Poissons Ratio (x) = 0.21277 0.28567
# Poissons Ratio (y) = 0.43397 0.34937
# Poissons Ratio (z) = 0.35547 0.21315
#
# Static dielectric constant tensor:
#      x y z
#    x 4.095340 0.103880 0.257680 
#    y 0.103880 4.013370 -0.187210 
#    z 0.257680 -0.187210 3.870880 
# 
# 
# High freq. dielectric constant tensor:
#      x y z
#    x 1.827430 0.006440 0.014090 
#    y 0.006440 1.816080 0.003190 
#    z 0.014090 0.003190 1.843580 
# 
# From -- ./inp_files/308763.got.cif
#   From: 2010.06.25/outbox.cif.g09.slc.cpg/sg2_155_cif.got.tgz:308763.got - 2010.06.27 13:26:56.
