data_PCOD8025604
_publ_section_title
;
Structure prediction by ZEFSAII (Michael W. Deem and Ramdas Pophale) SiO2 
 PCOD8025604
Probable space group: P -1
;
_chemical_formula_sum "Si O2"
_cell_formula_units_Z 14
_cell_length_a 11.164837
_cell_length_b 13.798618
_cell_length_c 6.429054
_cell_angle_alpha 69.145152
_cell_angle_beta 70.443186
_cell_angle_gamma 38.897595
_cell_volume 578.376932
_symmetry_space_group_name_H-M "P -1"
_symmetry_group_IT_number 2
_symmetry_cell_setting 'triclinic'
loop_
_space_group_symop_operation_xyz
x,y,z
-x,-y,-z
loop_
_atom_site_type_symbol
_atom_site_label
_atom_site_fract_x
_atom_site_fract_y
_atom_site_fract_z
Si Si1 0.957830 0.737080 0.229380
Si Si2 0.287752 0.845927 0.523643
Si Si3 0.902944 0.163467 0.690067
Si Si4 0.222754 0.460036 0.966271
Si Si5 0.321198 0.034313 0.121733
Si Si6 0.569826 0.341625 0.035166
Si Si7 0.893454 0.680089 0.699105
O O1 0.869137 0.697114 0.448966
O O2 0.058804 0.739367 0.356628
O O3 0.107352 0.601308 0.086164
O O4 0.796365 0.902413 0.075854
O O5 0.235284 0.775417 0.472598
O O6 0.449181 0.712386 0.697371
O O7 0.366480 0.891294 0.294001
O O8 0.102630 0.985887 0.663963
O O9 0.789142 0.197099 0.938808
O O10 0.437457 0.372847 0.906011
O O11 0.235954 0.333622 0.128739
O O12 0.116734 0.528020 0.753458
O O13 0.187359 0.165034 0.274844
O O14 0.500000 0.000000 0.000000
O O15 0.500000 0.500000 0.000000
#
# Coordination Sequence:
#
# PCOD8025604 Si02
#       7
#     2   2   2   2   2   2   2
#     4  11  23  43  74  92 141 183 231 284 349 409
#     4  11  28  45  71 102 145 186 229 290 350 411
#     4  11  26  45  72 100 140 188 234 279 352 416
#     4  10  24  43  68 105 135 180 233 285 352 408
#     4  11  27  44  68 106 134 179 239 283 340 416
#     4  12  27  45  73 106 142 179 236 292 347 418
#     4  10  23  45  70  95 141 184 227 288 345 412
#
# _framework density 24.205670999999999
#
# number of rings (size 3 to 8) (size 9 to 14) (size 15 to 20)
#    0.000    1.143    2.857    0.857   12.000    2.286 
#    0.000    0.000    0.000    0.000    0.000    0.000 
#    0.000    0.000    0.000    0.000    0.000    0.000 
#
# Total GULP energy -173471.738030 kJ/mol
# GULP energy per Si atom -12390.838431 kJ/mol
# Density = 2.415058 g / cm^3
# Si number density = 24.205671 Si / 1000 Ang^3
#
#
#
# Elastic Constant Matrix: (Units=GPa)
#
#
# Indices 1 2 3 4 5 6 
#
# 1 101.1469 19.4588 23.6108 -6.9342 2.3340 1.6783
# 2 19.4588 46.5953 41.9065 -11.7946 -2.3947 9.4239
# 3 23.6108 41.9065 136.1808 -19.3323 -13.4362 -6.2445
# 4 -6.9342 -11.7946 -19.3323 37.6004 5.1703 -1.2920
# 5 2.3340 -2.3947 -13.4362 5.1703 25.0899 8.6623
# 6 1.6783 9.4239 -6.2445 -1.2920 8.6623 31.4587
#
#
#
# Elastic Compliance Matrix: (Units=1/GPa)
#
#
# Indices 1 2 3 4 5 6 
#
# 1 0.010925 -0.004103 -0.000705 0.000728 -0.002344 0.001182
# 2 -0.004103 0.036244 -0.010187 0.004666 0.001911 -0.012995
# 3 -0.000705 -0.010187 0.011447 0.002281 0.003171 0.004582
# 4 0.000728 0.004666 0.002281 0.030138 -0.005193 0.001684
# 5 -0.002344 0.001911 0.003171 -0.005193 0.047557 -0.013126
# 6 0.001182 -0.012995 0.004582 0.001684 -0.013126 0.040211
#
#
# Mechanical properties :
#
#
# Convention : Reuss Voigt Hill
#
# Bulk Modulus (GPa) = 34.93390 50.43058 42.68224
# Shear Modulus (GPa) = 23.14222 32.09294 27.61758
#
# Velocity S-wave (km/s) = 3.09539 3.64516 3.38147
# Velocity P-wave (km/s) = 5.21907 6.21255 5.73735
#
# Compressibility (1/GPa) = 0.02862549
#
# Stress axis : x y z
#
# Youngs Moduli (GPa) = 91.53311 27.59047 87.35835
#
# Poissons Ratio (x) = 0.11322 0.06160
# Poissons Ratio (y) = 0.37560 0.88992
# Poissons Ratio (z) = 0.06454 0.28106
#
# Static dielectric constant tensor:
#      x y z
#    x 4.522210 0.054350 0.131490 
#    y 0.054350 4.182370 0.005740 
#    z 0.131490 0.005740 4.383030 
# 
# 
# High freq. dielectric constant tensor:
#      x y z
#    x 1.963280 0.009910 0.000860 
#    y 0.009910 1.948890 0.004880 
#    z 0.000860 0.004880 1.967000 
# 
# From -- ./inp_files/77335.got.cif
#   From: 2010.06.25/outbox.cif.g09.slc.cpg/sg2_39_cif.got.tgz:77335.got - 2010.06.27 13:26:56.
