data_PCOD8025834
_publ_section_title
;
Structure prediction by ZEFSAII (Michael W. Deem and Ramdas Pophale) SiO2 
 PCOD8025834
Probable space group: P -1
;
_chemical_formula_sum "Si O2"
_cell_formula_units_Z 16
_cell_length_a 14.394667
_cell_length_b 9.136511
_cell_length_c 20.906563
_cell_angle_alpha 64.505987
_cell_angle_beta 149.196071
_cell_angle_gamma 128.712045
_cell_volume 1058.767393
_symmetry_space_group_name_H-M "P -1"
_symmetry_group_IT_number 2
_symmetry_cell_setting 'triclinic'
loop_
_space_group_symop_operation_xyz
x,y,z
-x,-y,-z
loop_
_atom_site_type_symbol
_atom_site_label
_atom_site_fract_x
_atom_site_fract_y
_atom_site_fract_z
Si Si1 0.072276 0.345798 0.138748
Si Si2 0.252572 0.777652 0.135612
Si Si3 0.737699 0.017093 0.379601
Si Si4 0.489381 0.053840 0.328061
Si Si5 0.852916 0.680316 0.675657
Si Si6 0.499165 0.754581 0.475203
Si Si7 0.501632 0.355074 0.365975
Si Si8 0.076360 0.233724 0.438029
O O1 0.113730 0.557789 0.120078
O O2 0.000016 0.259675 0.184557
O O3 0.289001 0.360437 0.242453
O O4 0.873382 0.199641 0.001968
O O5 0.496288 0.843500 0.245019
O O6 0.278146 0.918470 0.182968
O O7 0.706638 0.126327 0.400302
O O8 0.867510 0.169978 0.370389
O O9 0.875493 0.933290 0.501833
O O10 0.489915 0.237478 0.318400
O O11 0.480765 0.927241 0.406576
O O12 0.725357 0.787653 0.579758
O O13 0.688716 0.448308 0.628734
O O14 0.983635 0.738182 0.675085
O O15 0.482258 0.750773 0.542390
O O16 0.714743 0.571053 0.447073
#
# Coordination Sequence:
#
# PCOD8025834 Si02
#       8
#     2   2   2   2   2   2   2   2
#     4  10  17  30  47  66  87 115 149 181 217 261
#     4   9  18  31  46  62  90 115 152 181 213 252
#     4   9  18  31  46  62  90 115 152 181 213 252
#     4  10  17  30  42  67  95 114 140 178 226 261
#     4   9  14  26  47  64  86 114 147 181 216 252
#     4   9  15  26  42  68  93 109 137 177 229 268
#     4  10  19  26  46  70  92 114 139 176 225 275
#     4  10  17  30  47  66  87 115 149 181 217 261
#
# _framework density 15.111912999999999
#
# number of rings (size 3 to 8) (size 9 to 14) (size 15 to 20)
#    0.750    1.750    3.750    1.125    0.000    1.000 
#    0.000    0.625    0.000    0.000    0.000    0.000 
#    0.000    9.000    0.000    0.000    0.000    0.000 
#
# Total GULP energy -198254.862050 kJ/mol
# GULP energy per Si atom -12390.928878 kJ/mol
# Density = 1.507752 g / cm^3
# Si number density = 15.111913 Si / 1000 Ang^3
#
#
#
# Elastic Constant Matrix: (Units=GPa)
#
#
# Indices 1 2 3 4 5 6 
#
# 1 81.3013 32.2168 28.3696 5.0937 -17.9676 0.1674
# 2 32.2168 39.0187 9.7810 -1.9386 -8.3937 -3.0707
# 3 28.3696 9.7810 66.6482 -1.7629 -19.0940 5.1237
# 4 5.0937 -1.9386 -1.7629 13.0937 3.5558 -2.7335
# 5 -17.9676 -8.3937 -19.0940 3.5558 19.4710 2.7676
# 6 0.1674 -3.0707 5.1237 -2.7335 2.7676 30.0880
#
#
#
# Elastic Compliance Matrix: (Units=1/GPa)
#
#
# Indices 1 2 3 4 5 6 
#
# 1 0.025360 -0.017814 -0.003724 -0.018293 0.016045 -0.004463
# 2 -0.017814 0.040966 0.001250 0.014578 -0.000995 0.005483
# 3 -0.003724 0.001250 0.022685 -0.002104 0.020556 -0.005797
# 4 -0.018293 0.014578 -0.002104 0.097010 -0.032328 0.013735
# 5 0.016045 -0.000995 0.020556 -0.032328 0.093968 -0.015272
# 6 -0.004463 0.005483 -0.005797 0.013735 -0.015272 0.037460
#
#
# Mechanical properties :
#
#
# Convention : Reuss Voigt Hill
#
# Bulk Modulus (GPa) = 20.64672 36.41147 28.52909
# Shear Modulus (GPa) = 13.36287 20.30393 16.83340
#
# Velocity S-wave (km/s) = 2.97688 3.66945 3.34116
# Velocity P-wave (km/s) = 5.05054 6.48845 5.81412
#
# Compressibility (1/GPa) = 0.04843385
#
# Stress axis : x y z
#
# Youngs Moduli (GPa) = 39.43253 24.41062 44.08164
#
# Poissons Ratio (x) = 0.43485 0.16418
# Poissons Ratio (y) = 0.70245 -0.05510
# Poissons Ratio (z) = 0.14686 -0.03051
#
# Static dielectric constant tensor:
#      x y z
#    x 2.912650 0.065840 -0.184100 
#    y 0.065840 2.652180 -0.007900 
#    z -0.184100 -0.007900 2.804130 
# 
# 
# High freq. dielectric constant tensor:
#      x y z
#    x 1.574200 0.000800 -0.019390 
#    y 0.000800 1.558110 -0.006640 
#    z -0.019390 -0.006640 1.558890 
# 
# From -- ./inp_files/248871.got.cif
#   From: 2010.06.25/outbox.cif.g09.slc.cpg/sg2_125_cif.got.tgz:248871.got - 2010.06.27 13:26:56.
