data_PCOD8025543
_publ_section_title
;
Structure prediction by ZEFSAII (Michael W. Deem and Ramdas Pophale) SiO2 
 PCOD8025543
Probable space group: P -1
;
_chemical_formula_sum "Si O2"
_cell_formula_units_Z 16
_cell_length_a 15.004343
_cell_length_b 11.604246
_cell_length_c 5.344815
_cell_angle_alpha 69.892613
_cell_angle_beta 92.217514
_cell_angle_gamma 130.972342
_cell_volume 636.515355
_symmetry_space_group_name_H-M "P -1"
_symmetry_group_IT_number 2
_symmetry_cell_setting 'triclinic'
loop_
_space_group_symop_operation_xyz
x,y,z
-x,-y,-z
loop_
_atom_site_type_symbol
_atom_site_label
_atom_site_fract_x
_atom_site_fract_y
_atom_site_fract_z
Si Si1 0.686258 0.537583 0.595875
Si Si2 0.667768 0.318299 0.395034
Si Si3 0.732254 0.833686 0.587083
Si Si4 0.715413 0.132174 0.815088
Si Si5 0.120704 0.409466 0.091383
Si Si6 0.850035 0.192534 0.272465
Si Si7 0.474111 0.224690 0.110503
Si Si8 0.931724 0.897404 0.823261
O O1 0.663881 0.457527 0.381106
O O2 0.710808 0.707116 0.468382
O O3 0.805411 0.576375 0.677706
O O4 0.565605 0.402260 0.849324
O O5 0.658971 0.214947 0.702026
O O6 0.794541 0.415114 0.183969
O O7 0.550515 0.193473 0.295919
O O8 0.604737 0.770421 0.707478
O O9 0.798094 0.835046 0.835562
O O10 0.821213 0.021738 0.339004
O O11 0.790439 0.170710 0.545317
O O12 0.609415 0.929476 0.981986
O O13 0.795859 0.216637 0.011698
O O14 0.083180 0.261335 0.020929
O O15 0.994506 0.356602 0.196539
O O16 0.000000 0.000000 0.500000
O O17 0.000000 0.000000 0.000000
#
# Coordination Sequence:
#
# PCOD8025543 Si02
#       8
#     2   2   2   2   2   2   2   2
#     4  10  24  44  70 102 141 186 228 292 353 423
#     4  11  26  46  70 101 139 190 238 290 352 411
#     4  10  23  45  69 109 142 178 233 287 355 421
#     4  11  28  47  74 102 138 187 243 295 348 409
#     4  10  25  42  67 103 142 183 232 284 358 415
#     4  11  26  46  73 106 140 187 234 292 350 419
#     4  10  24  46  69 103 137 184 239 293 348 415
#     4  11  24  40  70 102 143 185 220 281 345 427
#
# _framework density 25.136863999999999
#
# number of rings (size 3 to 8) (size 9 to 14) (size 15 to 20)
#    0.000    1.500    1.250    0.750   15.750    2.000 
#    9.000    0.000    0.000    0.000    0.000    0.000 
#    0.000    0.000    0.000    0.000    0.000    0.000 
#
# Total GULP energy -198378.716539 kJ/mol
# GULP energy per Si atom -12398.669784 kJ/mol
# Density = 2.507965 g / cm^3
# Si number density = 25.136864 Si / 1000 Ang^3
#
#
#
# Elastic Constant Matrix: (Units=GPa)
#
#
# Indices 1 2 3 4 5 6 
#
# 1 78.3481 25.1963 22.1581 -11.6488 -11.4798 27.2900
# 2 25.1963 80.2102 14.4496 6.2738 -16.2803 12.4500
# 3 22.1581 14.4496 83.5411 5.7435 -3.6479 14.1784
# 4 -11.6488 6.2738 5.7435 35.5663 -2.8555 0.5250
# 5 -11.4798 -16.2803 -3.6479 -2.8555 22.2141 -9.6321
# 6 27.2900 12.4500 14.1784 0.5250 -9.6321 46.9414
#
#
#
# Elastic Compliance Matrix: (Units=1/GPa)
#
#
# Indices 1 2 3 4 5 6 
#
# 1 0.019920 -0.004113 -0.003488 0.008262 0.003993 -0.008709
# 2 -0.004113 0.016018 -0.001123 -0.003260 0.009185 0.000403
# 3 -0.003488 -0.001123 0.013593 -0.003246 -0.001720 -0.002097
# 4 0.008262 -0.003260 -0.003246 0.032315 0.004459 -0.002405
# 5 0.003993 0.009185 -0.001720 0.004459 0.057345 0.007479
# 6 -0.008709 0.000403 -0.002097 -0.002405 0.007479 0.028455
#
#
# Mechanical properties :
#
#
# Convention : Reuss Voigt Hill
#
# Bulk Modulus (GPa) = 31.16775 40.63414 35.90094
# Shear Modulus (GPa) = 25.53781 32.96405 29.25093
#
# Velocity S-wave (km/s) = 3.19086 3.62523 3.41496
# Velocity P-wave (km/s) = 5.09917 5.80718 5.46465
#
# Compressibility (1/GPa) = 0.03208445
#
# Stress axis : x y z
#
# Youngs Moduli (GPa) = 50.20167 62.42857 73.56506
#
# Poissons Ratio (x) = 0.25677 0.25656
# Poissons Ratio (y) = 0.20648 0.08260
# Poissons Ratio (z) = 0.17508 0.07010
#
# Static dielectric constant tensor:
#      x y z
#    x 4.636250 0.074200 0.006440 
#    y 0.074200 4.818460 -0.308810 
#    z 0.006440 -0.308810 4.162500 
# 
# 
# High freq. dielectric constant tensor:
#      x y z
#    x 2.007550 0.005390 -0.003580 
#    y 0.005390 2.014350 -0.009830 
#    z -0.003580 -0.009830 1.983670 
# 
# From -- ./inp_files/94650.got.cif
#   From: 2010.06.25/outbox.cif.g09.slc.cpg/sg2_48_cif.got.tgz:94650.got - 2010.06.27 13:26:56.
