data_PCOD8025230
_publ_section_title
;
Structure prediction by ZEFSAII (Michael W. Deem and Ramdas Pophale) SiO2 
 PCOD8025230
Probable space group: P -1
;
_chemical_formula_sum "Si O2"
_cell_formula_units_Z 16
_cell_length_a 14.855796
_cell_length_b 15.019256
_cell_length_c 14.085736
_cell_angle_alpha 18.942868
_cell_angle_beta 42.649715
_cell_angle_gamma 42.401655
_cell_volume 678.043944
_symmetry_space_group_name_H-M "P -1"
_symmetry_group_IT_number 2
_symmetry_cell_setting 'triclinic'
loop_
_space_group_symop_operation_xyz
x,y,z
-x,-y,-z
loop_
_atom_site_type_symbol
_atom_site_label
_atom_site_fract_x
_atom_site_fract_y
_atom_site_fract_z
Si Si1 0.189445 0.348389 0.591108
Si Si2 0.641732 0.223815 0.921842
Si Si3 0.570351 0.613903 0.919465
Si Si4 0.255955 0.972319 0.600748
Si Si5 0.842202 0.273011 0.400224
Si Si6 0.055419 0.190366 0.686027
Si Si7 0.421771 0.778561 0.238678
Si Si8 0.135390 0.240752 0.232919
O O1 0.316457 0.479409 0.391382
O O2 0.167289 0.334255 0.508716
O O3 0.055195 0.552627 0.530861
O O4 0.225451 0.028231 0.923979
O O5 0.534857 0.213436 0.098273
O O6 0.566204 0.211415 0.893837
O O7 0.673008 0.346596 0.153331
O O8 0.500000 0.500000 0.000000
O O9 0.652498 0.853057 0.585262
O O10 0.120559 0.989654 0.752034
O O11 0.222806 0.126302 0.371266
O O12 0.733942 0.218943 0.616741
O O13 0.975354 0.344874 0.278165
O O14 0.870822 0.989137 0.607946
O O15 0.794718 0.521260 0.109870
O O16 0.000000 0.000000 0.000000
O O17 0.500000 0.500000 0.500000
O O18 0.500000 0.000000 0.000000
#
# Coordination Sequence:
#
# PCOD8025230 Si02
#       8
#     2   2   2   2   2   2   2   2
#     4  11  24  44  73 101 144 183 231 292 358 423
#     4  12  26  47  72 104 140 194 242 291 353 430
#     4  12  27  47  71 101 148 188 242 292 347 427
#     4  12  27  43  74 104 136 189 241 287 359 426
#     4  10  23  46  69  99 143 176 231 296 360 419
#     4  11  25  45  73 106 149 181 230 304 359 425
#     4  12  28  46  74 104 145 188 243 301 368 427
#     4  10  23  44  71 102 135 183 229 298 355 427
#
# _framework density 23.597290999999998
#
# number of rings (size 3 to 8) (size 9 to 14) (size 15 to 20)
#    0.000    0.750    1.250    4.875   10.500    0.000 
#    4.500    0.000    0.000    0.000    0.000    0.000 
#    0.000    0.000    0.000    0.000    0.000    0.000 
#
# Total GULP energy -198281.630156 kJ/mol
# GULP energy per Si atom -12392.601885 kJ/mol
# Density = 2.354358 g / cm^3
# Si number density = 23.597291 Si / 1000 Ang^3
#
#
#
# Elastic Constant Matrix: (Units=GPa)
#
#
# Indices 1 2 3 4 5 6 
#
# 1 91.3608 37.9057 21.2994 -5.7288 8.2242 14.4451
# 2 37.9057 113.7455 27.8591 -1.2201 7.6298 -3.4522
# 3 21.2994 27.8591 126.5415 -15.2975 -3.2353 14.9848
# 4 -5.7288 -1.2201 -15.2975 41.6125 -6.8925 4.1309
# 5 8.2242 7.6298 -3.2353 -6.8925 42.9999 -5.6933
# 6 14.4451 -3.4522 14.9848 4.1309 -5.6933 42.3173
#
#
#
# Elastic Compliance Matrix: (Units=1/GPa)
#
#
# Indices 1 2 3 4 5 6 
#
# 1 0.014170 -0.004569 -0.000577 0.001755 -0.002390 -0.005498
# 2 -0.004569 0.011025 -0.002273 -0.001646 -0.001083 0.003279
# 3 -0.000577 -0.002273 0.009423 0.003896 0.001381 -0.003520
# 4 0.001755 -0.001646 0.003896 0.026732 0.003980 -0.004187
# 5 -0.002390 -0.001083 0.001381 0.003980 0.025074 0.003223
# 6 -0.005498 0.003279 -0.003520 -0.004187 0.003223 0.027864
#
#
# Mechanical properties :
#
#
# Convention : Reuss Voigt Hill
#
# Bulk Modulus (GPa) = 50.55464 56.19735 53.37600
# Shear Modulus (GPa) = 36.84051 41.69151 39.26601
#
# Velocity S-wave (km/s) = 3.95551 4.20788 4.08365
# Velocity P-wave (km/s) = 6.50629 6.89023 6.70101
#
# Compressibility (1/GPa) = 0.01978058
#
# Stress axis : x y z
#
# Youngs Moduli (GPa) = 70.57093 90.70009 106.11959
#
# Poissons Ratio (x) = 0.41437 0.06125
# Poissons Ratio (y) = 0.32241 0.24125
# Poissons Ratio (z) = 0.04073 0.20619
#
# Static dielectric constant tensor:
#      x y z
#    x 4.258040 -0.163560 -0.077810 
#    y -0.163560 4.227340 -0.271630 
#    z -0.077810 -0.271630 4.201130 
# 
# 
# High freq. dielectric constant tensor:
#      x y z
#    x 1.935830 -0.012530 -0.009020 
#    y -0.012530 1.931740 -0.013500 
#    z -0.009020 -0.013500 1.944650 
# 
# From -- ./inp_files/534001.got.cif
#   From: 2010.06.25/outbox.cif.g09.slc.cpg/sg2_268_cif.got.tgz:534001.got - 2010.06.27 13:26:56.
