data_PCOD8025256
_publ_section_title
;
Structure prediction by ZEFSAII (Michael W. Deem and Ramdas Pophale) SiO2 
 PCOD8025256
Probable space group: P -1
;
_chemical_formula_sum "Si O2"
_cell_formula_units_Z 16
_cell_length_a 14.854369
_cell_length_b 7.176387
_cell_length_c 7.028778
_cell_angle_alpha 85.800788
_cell_angle_beta 73.310794
_cell_angle_gamma 106.801635
_cell_volume 677.026450
_symmetry_space_group_name_H-M "P -1"
_symmetry_group_IT_number 2
_symmetry_cell_setting 'triclinic'
loop_
_space_group_symop_operation_xyz
x,y,z
-x,-y,-z
loop_
_atom_site_type_symbol
_atom_site_label
_atom_site_fract_x
_atom_site_fract_y
_atom_site_fract_z
Si Si1 0.476528 0.209945 0.100217
Si Si2 0.625196 0.584334 0.104643
Si Si3 0.353939 0.814400 0.263213
Si Si4 0.796224 0.714831 0.729947
Si Si5 0.896388 0.350910 0.144516
Si Si6 0.836789 0.161790 0.804476
Si Si7 0.007789 0.788775 0.570110
Si Si8 0.735653 0.530423 0.397390
O O1 0.521135 0.404052 0.188305
O O2 0.404683 0.039550 0.293213
O O3 0.406107 0.231768 0.965537
O O4 0.573629 0.174431 0.959692
O O5 0.679269 0.621712 0.271017
O O6 0.704727 0.552505 0.903666
O O7 0.242726 0.759787 0.257170
O O8 0.348329 0.660306 0.446689
O O9 0.775413 0.702734 0.517171
O O10 0.895940 0.652625 0.703195
O O11 0.810420 0.928775 0.794641
O O12 0.918019 0.206371 0.300912
O O13 0.825938 0.470743 0.256242
O O14 0.839399 0.203033 0.023517
O O15 0.000000 0.500000 0.000000
O O16 0.945082 0.283322 0.638216
O O17 0.000000 0.000000 0.500000
#
# Coordination Sequence:
#
# PCOD8025256 Si02
#       8
#     2   2   2   2   2   2   2   2
#     4  10  23  44  71  96 141 186 228 293 356 400
#     4  11  23  45  68 101 140 187 229 287 350 421
#     4  11  22  44  69 101 137 184 230 293 343 405
#     4  11  24  45  70 100 144 184 224 289 346 418
#     4  12  26  42  72 108 138 187 234 285 344 413
#     4  11  24  46  71  98 147 185 229 284 349 416
#     4  10  24  43  69 100 140 182 228 281 343 419
#     4  12  26  42  73 105 139 179 240 284 348 412
#
# _framework density 23.632756000000001
#
# number of rings (size 3 to 8) (size 9 to 14) (size 15 to 20)
#    0.000    1.000    3.750    2.250    1.750    6.000 
#    0.000    0.000    0.000    0.000    0.000    0.000 
#    0.000    0.000    0.000    0.000    0.000    0.000 
#
# Total GULP energy -198281.393407 kJ/mol
# GULP energy per Si atom -12392.587088 kJ/mol
# Density = 2.357897 g / cm^3
# Si number density = 23.632756 Si / 1000 Ang^3
#
#
#
# Elastic Constant Matrix: (Units=GPa)
#
#
# Indices 1 2 3 4 5 6 
#
# 1 110.1088 13.1999 21.8095 1.9965 7.8242 7.4328
# 2 13.1999 72.1603 23.0352 8.1079 0.4592 10.4661
# 3 21.8095 23.0352 95.1880 18.3755 12.6768 8.0884
# 4 1.9965 8.1079 18.3755 38.1536 10.2608 -0.7422
# 5 7.8242 0.4592 12.6768 10.2608 47.0835 -6.6301
# 6 7.4328 10.4661 8.0884 -0.7422 -6.6301 31.9737
#
#
#
# Elastic Compliance Matrix: (Units=1/GPa)
#
#
# Indices 1 2 3 4 5 6 
#
# 1 0.009782 -0.001053 -0.001812 0.000978 -0.001591 -0.001778
# 2 -0.001053 0.015814 -0.002911 -0.002171 0.000700 -0.004100
# 3 -0.001812 -0.002911 0.013140 -0.004997 -0.002483 -0.002580
# 4 0.000978 -0.002171 -0.004997 0.030463 -0.005242 0.001368
# 5 -0.001591 0.000700 -0.002483 -0.005242 0.024102 0.005645
# 6 -0.001778 -0.004100 -0.002580 0.001368 0.005645 0.034886
#
#
# Mechanical properties :
#
#
# Convention : Reuss Voigt Hill
#
# Bulk Modulus (GPa) = 36.78708 43.72738 40.25723
# Shear Modulus (GPa) = 33.60151 38.06967 35.83559
#
# Velocity S-wave (km/s) = 3.77479 4.01794 3.89826
# Velocity P-wave (km/s) = 5.88206 6.32994 6.11011
#
# Compressibility (1/GPa) = 0.02718345
#
# Stress axis : x y z
#
# Youngs Moduli (GPa) = 102.22370 63.23403 76.10372
#
# Poissons Ratio (x) = 0.06657 0.13793
# Poissons Ratio (y) = 0.10762 0.22157
# Poissons Ratio (z) = 0.18527 0.18410
#
# Static dielectric constant tensor:
#      x y z
#    x 4.801670 0.318720 -0.369770 
#    y 0.318720 4.502590 -0.281160 
#    z -0.369770 -0.281160 4.303590 
# 
# 
# High freq. dielectric constant tensor:
#      x y z
#    x 1.957710 0.004150 -0.015450 
#    y 0.004150 1.935360 -0.010720 
#    z -0.015450 -0.010720 1.920050 
# 
# From -- ./inp_files/90396.got.cif
#   From: 2010.06.25/outbox.cif.g09.slc.cpg/sg2_46_cif.got.tgz:90396.got - 2010.06.27 13:26:56.
