data_PCOD8025304
_publ_section_title
;
Structure prediction by ZEFSAII (Michael W. Deem and Ramdas Pophale) SiO2 
 PCOD8025304
Probable space group: P -1
;
_chemical_formula_sum "Si O2"
_cell_formula_units_Z 16
_cell_length_a 15.401446
_cell_length_b 9.139883
_cell_length_c 11.842345
_cell_angle_alpha 114.360955
_cell_angle_beta 75.058708
_cell_angle_gamma 151.144727
_cell_volume 712.295978
_symmetry_space_group_name_H-M "P -1"
_symmetry_group_IT_number 2
_symmetry_cell_setting 'triclinic'
loop_
_space_group_symop_operation_xyz
x,y,z
-x,-y,-z
loop_
_atom_site_type_symbol
_atom_site_label
_atom_site_fract_x
_atom_site_fract_y
_atom_site_fract_z
Si Si1 0.975227 0.277524 0.412083
Si Si2 0.596756 0.738130 0.707076
Si Si3 0.320283 0.715218 0.544503
Si Si4 0.311741 0.226027 0.821197
Si Si5 0.715042 0.684880 0.483763
Si Si6 0.189955 0.699216 0.019405
Si Si7 0.581932 0.923646 0.162249
Si Si8 0.203315 0.375565 0.017138
O O1 0.000000 0.500000 0.500000
O O2 0.178691 0.527258 0.431340
O O3 0.895710 0.139733 0.268017
O O4 0.852414 0.980132 0.443721
O O5 0.453111 0.422023 0.734111
O O6 0.731313 0.811431 0.635239
O O7 0.492294 0.647974 0.604646
O O8 0.702822 0.040836 0.835385
O O9 0.245738 0.437454 0.539782
O O10 0.500000 0.000000 0.500000
O O11 0.325752 0.855955 0.687057
O O12 0.383576 0.215533 0.889568
O O13 0.307474 0.404692 0.915513
O O14 0.157227 0.468181 0.999479
O O15 0.000000 0.500000 0.000000
O O16 0.310621 0.858988 0.917926
O O17 0.364414 0.641489 0.143994
O O18 0.000000 0.000000 0.000000
#
# Coordination Sequence:
#
# PCOD8025304 Si02
#       8
#     2   2   2   2   2   2   2   2
#     4  11  25  45  68 102 138 182 236 288 351 415
#     4  10  23  44  73 100 141 177 239 283 354 408
#     4  12  27  45  71 107 143 184 239 291 354 422
#     4  11  24  46  73 100 141 185 233 295 347 422
#     4  10  24  44  74 100 136 191 231 291 348 418
#     4  12  28  46  72 106 143 186 233 298 355 425
#     4  12  26  48  74 101 148 187 234 294 362 414
#     4  12  28  45  72 105 138 187 239 287 354 426
#
# _framework density 22.462572000000002
#
# number of rings (size 3 to 8) (size 9 to 14) (size 15 to 20)
#    0.000    0.750    2.500    3.375   12.250    2.000 
#    0.000    0.000    0.000    0.000    0.000    0.000 
#    0.000    0.000    0.000    0.000    0.000    0.000 
#
# Total GULP energy -198249.941725 kJ/mol
# GULP energy per Si atom -12390.621358 kJ/mol
# Density = 2.241145 g / cm^3
# Si number density = 22.462572 Si / 1000 Ang^3
#
#
#
# Elastic Constant Matrix: (Units=GPa)
#
#
# Indices 1 2 3 4 5 6 
#
# 1 166.5744 53.4795 23.9896 11.9973 11.6267 -13.7395
# 2 53.4795 119.2375 28.2660 6.8341 11.5645 0.1070
# 3 23.9896 28.2660 82.6999 -0.9879 -7.8989 -4.2542
# 4 11.9973 6.8341 -0.9879 29.1201 2.6759 -1.7995
# 5 11.6267 11.5645 -7.8989 2.6759 36.6285 5.3827
# 6 -13.7395 0.1070 -4.2542 -1.7995 5.3827 45.5341
#
#
#
# Elastic Compliance Matrix: (Units=1/GPa)
#
#
# Indices 1 2 3 4 5 6 
#
# 1 0.007572 -0.002758 -0.001353 -0.002191 -0.002005 0.002315
# 2 -0.002758 0.010751 -0.003220 -0.001274 -0.002995 -0.000855
# 3 -0.001353 -0.003220 0.014036 0.001422 0.004302 0.000459
# 4 -0.002191 -0.001274 0.001422 0.035781 -0.001364 0.001050
# 5 -0.002005 -0.002995 0.004302 -0.001364 0.030476 -0.003853
# 6 0.002315 -0.000855 0.000459 0.001050 -0.003853 0.023202
#
#
# Mechanical properties :
#
#
# Convention : Reuss Voigt Hill
#
# Bulk Modulus (GPa) = 56.49952 64.44244 60.47098
# Shear Modulus (GPa) = 35.11774 39.77500 37.44637
#
# Velocity S-wave (km/s) = 3.95826 4.21256 4.08739
# Velocity P-wave (km/s) = 6.78953 7.23961 7.01818
#
# Compressibility (1/GPa) = 0.01769926
#
# Stress axis : x y z
#
# Youngs Moduli (GPa) = 132.06226 93.01492 71.24437
#
# Poissons Ratio (x) = 0.25650 0.09636
# Poissons Ratio (y) = 0.36418 0.22940
# Poissons Ratio (z) = 0.17862 0.29949
#
# Static dielectric constant tensor:
#      x y z
#    x 4.909270 0.231650 0.812900 
#    y 0.231650 4.075450 0.401070 
#    z 0.812900 0.401070 4.921780 
# 
# 
# High freq. dielectric constant tensor:
#      x y z
#    x 1.898250 -0.002180 0.003340 
#    y -0.002180 1.888210 0.013340 
#    z 0.003340 0.013340 1.893310 
# 
# From -- ./inp_files/274340.got.cif
#   From: 2010.06.25/outbox.cif.g09.slc.cpg/sg2_138_cif.got.tgz:274340.got - 2010.06.27 13:26:56.
