data_PCOD8025879
_publ_section_title
;
Structure prediction by ZEFSAII (Michael W. Deem and Ramdas Pophale) SiO2 
 PCOD8025879
Probable space group: P -1
;
_chemical_formula_sum "Si O2"
_cell_formula_units_Z 16
_cell_length_a 8.567310
_cell_length_b 13.379774
_cell_length_c 9.544148
_cell_angle_alpha 111.376010
_cell_angle_beta 136.083039
_cell_angle_gamma 81.032598
_cell_volume 696.930518
_symmetry_space_group_name_H-M "P -1"
_symmetry_group_IT_number 2
_symmetry_cell_setting 'triclinic'
loop_
_space_group_symop_operation_xyz
x,y,z
-x,-y,-z
loop_
_atom_site_type_symbol
_atom_site_label
_atom_site_fract_x
_atom_site_fract_y
_atom_site_fract_z
Si Si1 0.990469 0.579088 0.410296
Si Si2 0.290530 0.241790 0.618852
Si Si3 0.511104 0.427658 0.339164
Si Si4 0.977687 0.880542 0.854792
Si Si5 0.697994 0.426385 0.929688
Si Si6 0.960594 0.854133 0.339197
Si Si7 0.759516 0.045372 0.194124
Si Si8 0.046855 0.285997 0.993101
O O1 0.912442 0.687172 0.472855
O O2 0.000000 0.500000 0.500000
O O3 0.244619 0.611340 0.528866
O O4 0.800048 0.514436 0.153861
O O5 0.250258 0.164739 0.412122
O O6 0.540431 0.314846 0.822898
O O7 0.256515 0.174598 0.709148
O O8 0.500000 0.500000 0.500000
O O9 0.466537 0.507288 0.226212
O O10 0.318672 0.322094 0.178124
O O11 0.010262 0.795992 0.955301
O O12 0.181225 0.887770 0.876868
O O13 0.000000 0.000000 0.000000
O O14 0.913108 0.388300 0.971065
O O15 0.913388 0.950118 0.254932
O O16 0.019429 0.760757 0.227693
O O17 0.187009 0.882810 0.594854
O O18 0.500000 0.000000 0.000000
#
# Coordination Sequence:
#
# PCOD8025879 Si02
#       8
#     2   2   2   2   2   2   2   2
#     4  12  25  46  70 101 145 189 235 290 350 420
#     4  11  25  44  72 105 143 188 238 286 356 424
#     4  12  26  46  69 101 148 187 235 290 350 423
#     4  11  24  49  69 102 142 184 238 294 348 429
#     4  12  26  46  70 106 148 185 237 292 352 427
#     4  10  24  43  65 102 135 176 237 288 344 420
#     4  10  23  46  71  93 135 180 234 297 350 402
#     4  12  25  43  72 105 143 188 234 288 356 421
#
# _framework density 22.957812000000001
#
# number of rings (size 3 to 8) (size 9 to 14) (size 15 to 20)
#    0.000    0.750    3.750    3.000    5.250    3.000 
#    0.000    1.250    0.000    0.000    0.000    0.000 
#    0.000    0.000    0.000    0.000    0.000    0.000 
#
# Total GULP energy -198262.503541 kJ/mol
# GULP energy per Si atom -12391.406471 kJ/mol
# Density = 2.290556 g / cm^3
# Si number density = 22.957812 Si / 1000 Ang^3
#
#
#
# Elastic Constant Matrix: (Units=GPa)
#
#
# Indices 1 2 3 4 5 6 
#
# 1 89.6388 19.8805 59.6600 9.0951 7.2796 12.8120
# 2 19.8805 79.0791 32.7013 14.8979 -6.7376 10.3194
# 3 59.6600 32.7013 143.2476 20.7424 -3.6007 9.2409
# 4 9.0951 14.8979 20.7424 34.7461 3.1713 -2.7731
# 5 7.2796 -6.7376 -3.6007 3.1713 53.7073 9.8985
# 6 12.8120 10.3194 9.2409 -2.7731 9.8985 41.9400
#
#
#
# Elastic Compliance Matrix: (Units=1/GPa)
#
#
# Indices 1 2 3 4 5 6 
#
# 1 0.016245 -0.001318 -0.006365 0.000109 -0.002306 -0.002684
# 2 -0.001318 0.015655 -0.001822 -0.005899 0.003139 -0.004179
# 3 -0.006365 -0.001822 0.010737 -0.004172 0.001721 -0.000655
# 4 0.000109 -0.005899 -0.004172 0.034593 -0.004108 0.005594
# 5 -0.002306 0.003139 0.001721 -0.004108 0.020717 -0.005608
# 6 -0.002684 -0.004179 -0.000655 0.005594 -0.005608 0.027530
#
#
# Mechanical properties :
#
#
# Convention : Reuss Voigt Hill
#
# Bulk Modulus (GPa) = 42.32728 59.60548 50.96638
# Shear Modulus (GPa) = 32.81639 39.39359 36.10499
#
# Velocity S-wave (km/s) = 3.78487 4.14685 3.96999
# Velocity P-wave (km/s) = 6.13004 6.99628 6.57743
#
# Compressibility (1/GPa) = 0.02362543
#
# Stress axis : x y z
#
# Youngs Moduli (GPa) = 61.55926 63.87925 93.13190
#
# Poissons Ratio (x) = 0.08422 0.59280
# Poissons Ratio (y) = 0.08116 0.16968
# Poissons Ratio (z) = 0.39184 0.11638
#
# Static dielectric constant tensor:
#      x y z
#    x 4.165110 0.297640 -0.248750 
#    y 0.297640 4.076810 0.255590 
#    z -0.248750 0.255590 4.120300 
# 
# 
# High freq. dielectric constant tensor:
#      x y z
#    x 1.905170 0.017860 -0.011970 
#    y 0.017860 1.910990 0.014700 
#    z -0.011970 0.014700 1.920740 
# 
# From -- ./inp_files/208103.got.cif
#   From: 2010.06.25/outbox.cif.g09.slc.cpg/sg2_105_cif.got.tgz:208103.got - 2010.06.27 13:26:56.
