data_PCOD8025447
_publ_section_title
;
Structure prediction by ZEFSAII (Michael W. Deem and Ramdas Pophale) SiO2 
 PCOD8025447
Probable space group: P -1
;
_chemical_formula_sum "Si O2"
_cell_formula_units_Z 12
_cell_length_a 13.142349
_cell_length_b 9.979079
_cell_length_c 12.059940
_cell_angle_alpha 82.853507
_cell_angle_beta 23.581156
_cell_angle_gamma 95.538058
_cell_volume 532.242312
_symmetry_space_group_name_H-M "P -1"
_symmetry_group_IT_number 2
_symmetry_cell_setting 'triclinic'
loop_
_space_group_symop_operation_xyz
x,y,z
-x,-y,-z
loop_
_atom_site_type_symbol
_atom_site_label
_atom_site_fract_x
_atom_site_fract_y
_atom_site_fract_z
Si Si1 0.884863 0.884350 0.232108
Si Si2 0.669561 0.670258 0.758993
Si Si3 0.544507 0.548228 0.653038
Si Si4 0.687667 0.187515 0.796535
Si Si5 0.165809 0.662224 0.608996
Si Si6 0.481584 0.982159 0.388049
O O1 0.697024 0.697925 0.399000
O O2 0.679642 0.928028 0.506512
O O3 0.000000 0.000000 0.000000
O O4 0.178097 0.927214 0.007954
O O5 0.649484 0.649238 0.650416
O O6 0.011686 0.762511 0.444330
O O7 0.500000 0.500000 0.000000
O O8 0.510008 0.761770 0.945179
O O9 0.682142 0.439473 0.513017
O O10 0.188773 0.445709 0.006210
O O11 0.762872 0.264100 0.591799
O O12 0.500000 0.000000 0.000000
O O13 0.298371 0.798604 0.554796
O O14 0.500000 0.000000 0.500000
#
# Coordination Sequence:
#
# PCOD8025447 Si02
#       6
#     2   2   2   2   2   2
#     4  10  23  45  67  95 126 169 222 269 338 386
#     4  12  23  44  64  96 143 171 220 266 325 392
#     4  12  25  41  70  98 132 180 215 271 330 388
#     4  12  26  41  64 101 137 177 218 269 317 387
#     4  12  24  43  65 101 134 170 227 265 324 399
#     4  10  23  45  68  93 129 169 217 278 330 386
#
# _framework density 22.546122
#
# number of rings (size 3 to 8) (size 9 to 14) (size 15 to 20)
#    0.000    0.667    3.333    4.000    4.667    0.000 
#    0.000   20.000    0.000    0.000    0.000    0.000 
#    0.000    0.000    0.000    0.000    0.000    0.000 
#
# Total GULP energy -148773.782623 kJ/mol
# GULP energy per Si atom -12397.815219 kJ/mol
# Density = 2.249481 g / cm^3
# Si number density = 22.546122 Si / 1000 Ang^3
#
#
#
# Elastic Constant Matrix: (Units=GPa)
#
#
# Indices 1 2 3 4 5 6 
#
# 1 62.2782 30.9670 30.8530 2.4840 -5.4841 20.5750
# 2 30.9670 215.5525 104.1745 13.4386 -21.7909 3.3285
# 3 30.8530 104.1745 207.5834 10.4321 -47.2692 -7.0838
# 4 2.4840 13.4386 10.4321 61.3156 -12.7813 -5.3285
# 5 -5.4841 -21.7909 -47.2692 -12.7813 32.1782 -12.2415
# 6 20.5750 3.3285 -7.0838 -5.3285 -12.2415 37.3897
#
#
#
# Elastic Compliance Matrix: (Units=1/GPa)
#
#
# Indices 1 2 3 4 5 6 
#
# 1 0.027195 -0.001050 -0.008614 -0.005664 -0.020065 -0.023880
# 2 -0.001050 0.006383 -0.003524 -0.001342 -0.002159 -0.001556
# 3 -0.008614 -0.003524 0.013843 0.005411 0.024952 0.016617
# 4 -0.005664 -0.001342 0.005411 0.021220 0.019733 0.013746
# 5 -0.020065 -0.002159 0.024952 0.019733 0.088902 0.047880
# 6 -0.023880 -0.001556 0.016617 0.013746 0.047880 0.060808
#
#
# Mechanical properties :
#
#
# Convention : Reuss Voigt Hill
#
# Bulk Modulus (GPa) = 47.52034 90.82257 69.17145
# Shear Modulus (GPa) = 19.86152 47.47135 33.66643
#
# Velocity S-wave (km/s) = 2.97126 4.59357 3.86842
# Velocity P-wave (km/s) = 5.73532 8.27678 7.12036
#
# Compressibility (1/GPa) = 0.02104362
#
# Stress axis : x y z
#
# Youngs Moduli (GPa) = 36.77139 156.66951 72.23757
#
# Poissons Ratio (x) = 0.16456 0.62226
# Poissons Ratio (y) = 0.03862 0.25459
# Poissons Ratio (z) = 0.31675 0.55215
#
# Static dielectric constant tensor:
#      x y z
#    x 4.366750 -1.158420 -1.717390 
#    y -1.158420 6.497090 3.143130 
#    z -1.717390 3.143130 9.104780 
# 
# 
# High freq. dielectric constant tensor:
#      x y z
#    x 1.874720 -0.011640 -0.009080 
#    y -0.011640 1.913880 0.003900 
#    z -0.009080 0.003900 1.920230 
# 
# From -- ./inp_files/37125.got.cif
#   From: 2010.06.25/outbox.cif.g09.slc.cpg/sg2_19_cif.got.tgz:37125.got - 2010.06.27 13:26:56.
