data_PCOD8025663
_publ_section_title
;
Structure prediction by ZEFSAII (Michael W. Deem and Ramdas Pophale) SiO2 
 PCOD8025663
Probable space group: P -1
;
_chemical_formula_sum "Si O2"
_cell_formula_units_Z 12
_cell_length_a 4.823286
_cell_length_b 9.042171
_cell_length_c 18.946782
_cell_angle_alpha 35.219243
_cell_angle_beta 109.910737
_cell_angle_gamma 107.205101
_cell_volume 447.826125
_symmetry_space_group_name_H-M "P -1"
_symmetry_group_IT_number 2
_symmetry_cell_setting 'triclinic'
loop_
_space_group_symop_operation_xyz
x,y,z
-x,-y,-z
loop_
_atom_site_type_symbol
_atom_site_label
_atom_site_fract_x
_atom_site_fract_y
_atom_site_fract_z
Si Si1 0.075159 0.526838 0.093227
Si Si2 0.495224 0.180050 0.083493
Si Si3 0.040330 0.552580 0.338603
Si Si4 0.298998 0.011578 0.272657
Si Si5 0.446670 0.795145 0.514040
Si Si6 0.487628 0.762995 0.143345
O O1 0.250045 0.561054 0.169095
O O2 0.072440 0.225672 0.193623
O O3 0.204399 0.707084 0.969836
O O4 0.741385 0.610194 0.040123
O O5 0.525550 0.144269 0.184195
O O6 0.393036 0.893444 0.158612
O O7 0.113315 0.779041 0.311687
O O8 0.322895 0.436432 0.368304
O O9 0.882374 0.325143 0.459419
O O10 0.807235 0.638933 0.225384
O O11 0.485870 0.917365 0.392286
O O12 0.500000 0.000000 0.500000
O O13 0.500000 0.000000 0.000000
#
# Coordination Sequence:
#
# PCOD8025663 Si02
#       6
#     2   2   2   2   2   2
#     4  11  25  43  71 107 144 185 235 285 344 416
#     4  11  24  43  69 108 144 185 234 288 345 411
#     4  12  27  48  72 106 141 180 234 291 349 417
#     4  12  26  46  73 103 144 188 230 291 353 413
#     4  12  29  51  75 102 136 185 240 291 347 416
#     4  10  23  45  72 102 140 185 229 284 345 409
#
# _framework density 26.796113999999999
#
# number of rings (size 3 to 8) (size 9 to 14) (size 15 to 20)
#    0.000    0.667    0.000    7.000    0.000   13.333 
#    0.000    0.000    0.000    0.000    0.000    0.000 
#    0.000    0.000    0.000    0.000    0.000    0.000 
#
# Total GULP energy -148832.345828 kJ/mol
# GULP energy per Si atom -12402.695486 kJ/mol
# Density = 2.673513 g / cm^3
# Si number density = 26.796114 Si / 1000 Ang^3
#
#
#
# Elastic Constant Matrix: (Units=GPa)
#
#
# Indices 1 2 3 4 5 6 
#
# 1 78.4657 41.8497 5.5478 -8.7793 19.1051 8.0072
# 2 41.8497 193.3602 70.7160 -21.4125 -5.6065 8.2504
# 3 5.5478 70.7160 135.2478 4.5714 13.2793 -2.8651
# 4 -8.7793 -21.4125 4.5714 65.6141 -0.6777 0.8979
# 5 19.1051 -5.6065 13.2793 -0.6777 15.4512 -13.2078
# 6 8.0072 8.2504 -2.8651 0.8979 -13.2078 31.6363
#
#
#
# Elastic Compliance Matrix: (Units=1/GPa)
#
#
# Indices 1 2 3 4 5 6 
#
# 1 -1.111206 0.448517 -0.472268 0.043638 3.183422 1.449313
# 2 0.448517 -0.173666 0.185966 -0.014817 -1.277577 -0.584342
# 3 -0.472268 0.185966 -0.189436 0.016141 1.338167 0.612089
# 4 0.043638 -0.014817 0.016141 0.014645 -0.120984 -0.056644
# 5 3.183422 -1.277577 1.338167 -0.120984 -8.999619 -4.105167
# 6 1.449313 -0.584342 0.612089 -0.056644 -4.105167 -1.839644
#
#
# Mechanical properties :
#
#
# Convention : Reuss Voigt Hill
#
# Bulk Modulus (GPa) = -0.86966 71.47785 35.30410
# Shear Modulus (GPa) = -0.38442 41.80432 20.70995
#
# Velocity S-wave (km/s) = -0.37917 3.95408 2.78307
# Velocity P-wave (km/s) = 0.71899 6.89775 4.85088
#
# Compressibility (1/GPa) = -1.14987754
#
# Stress axis : x y z
#
# Youngs Moduli (GPa) = -0.89992 -5.75819 -5.27884
#
# Poissons Ratio (x) = 2.58265 -2.49303
# Poissons Ratio (y) = 0.40363 0.98169
# Poissons Ratio (z) = -0.42501 1.07083
#
# Static dielectric constant tensor:
#      x y z
#    x 4.558560 -0.213660 -0.076280 
#    y -0.213660 6.448310 0.027680 
#    z -0.076280 0.027680 5.019090 
# 
# 
# High freq. dielectric constant tensor:
#      x y z
#    x 2.071510 0.001060 -0.004800 
#    y 0.001060 2.101070 -0.006790 
#    z -0.004800 -0.006790 2.090220 
# 
# From -- ./inp_files/581299.got.cif
#   From: 2010.06.25/outbox.cif.g09.slc.cpg/sg2_291_cif.got.tgz:581299.got - 2010.06.27 13:26:56.
