data_PCOD8025941
_publ_section_title
;
Structure prediction by ZEFSAII (Michael W. Deem and Ramdas Pophale) SiO2 
 PCOD8025941
Probable space group: P -1
;
_chemical_formula_sum "Si O2"
_cell_formula_units_Z 14
_cell_length_a 9.263379
_cell_length_b 8.572678
_cell_length_c 9.018256
_cell_angle_alpha 89.650632
_cell_angle_beta 96.119550
_cell_angle_gamma 51.565723
_cell_volume 555.372277
_symmetry_space_group_name_H-M "P -1"
_symmetry_group_IT_number 2
_symmetry_cell_setting 'triclinic'
loop_
_space_group_symop_operation_xyz
x,y,z
-x,-y,-z
loop_
_atom_site_type_symbol
_atom_site_label
_atom_site_fract_x
_atom_site_fract_y
_atom_site_fract_z
Si Si1 0.298895 0.679814 0.040099
Si Si2 0.345780 0.921440 0.568417
Si Si3 0.489148 0.312106 0.703717
Si Si4 0.186124 0.760438 0.711619
Si Si5 0.907320 0.673916 0.605904
Si Si6 0.630755 0.909995 0.158831
Si Si7 0.957091 0.414392 0.866175
O O1 0.323643 0.793888 0.172511
O O2 0.197916 0.603705 0.105618
O O3 0.500000 0.500000 0.000000
O O4 0.179397 0.819668 0.884207
O O5 0.278424 0.127291 0.483622
O O6 0.447908 0.909154 0.732376
O O7 0.474931 0.748687 0.464225
O O8 0.178858 0.916136 0.601626
O O9 0.382407 0.547059 0.696260
O O10 0.364343 0.264511 0.767463
O O11 0.024465 0.746670 0.664541
O O12 0.859740 0.590587 0.733778
O O13 0.000000 0.500000 0.500000
O O14 0.848934 0.800811 0.155649
O O15 0.500000 0.000000 0.000000
O O16 0.000000 0.500000 0.000000
#
# Coordination Sequence:
#
# PCOD8025941 Si02
#       7
#     2   2   2   2   2   2   2
#     4  10  23  46  77 110 145 197 250 304 372 448
#     4  12  27  45  73 115 148 195 248 312 373 445
#     4  11  24  48  72 110 151 195 248 308 373 441
#     4  11  23  48  70 107 154 193 248 303 373 449
#     4  12  25  47  74 108 155 191 248 310 376 444
#     4  12  27  50  74 111 152 197 253 309 369 453
#     4  12  24  48  79 107 147 202 249 304 376 442
#
# _framework density 25.208317000000001
#
# number of rings (size 3 to 8) (size 9 to 14) (size 15 to 20)
#    0.000    0.571    4.286    3.000    4.000    2.286 
#    5.143    2.143    0.000    0.000    0.000    0.000 
#    0.000    0.000    0.000    0.000    0.000    0.000 
#
# Total GULP energy -173516.250530 kJ/mol
# GULP energy per Si atom -12394.017895 kJ/mol
# Density = 2.515094 g / cm^3
# Si number density = 25.208317 Si / 1000 Ang^3
#
#
#
# Elastic Constant Matrix: (Units=GPa)
#
#
# Indices 1 2 3 4 5 6 
#
# 1 137.1607 11.7816 47.0220 -0.6130 -17.8425 8.1448
# 2 11.7816 65.3749 41.5644 0.7761 -6.1220 7.8390
# 3 47.0220 41.5644 180.6291 15.5340 -0.5570 5.4800
# 4 -0.6130 0.7761 15.5340 46.8217 20.6971 0.9255
# 5 -17.8425 -6.1220 -0.5570 20.6971 54.8849 -8.6704
# 6 8.1448 7.8390 5.4800 0.9255 -8.6704 25.7778
#
#
#
# Elastic Compliance Matrix: (Units=1/GPa)
#
#
# Indices 1 2 3 4 5 6 
#
# 1 0.008442 0.000287 -0.002186 -0.000315 0.002654 -0.001386
# 2 0.000287 0.018599 -0.004275 0.000690 0.001158 -0.004473
# 3 -0.002186 -0.004275 0.007272 -0.002304 -0.000170 0.000470
# 4 -0.000315 0.000690 -0.002304 0.027013 -0.010908 -0.004259
# 5 0.002654 0.001158 -0.000170 -0.010908 0.024505 0.007480
# 6 -0.001386 -0.004473 0.000470 -0.004259 0.007480 0.043160
#
#
# Mechanical properties :
#
#
# Convention : Reuss Voigt Hill
#
# Bulk Modulus (GPa) = 45.52617 64.87788 55.20202
# Shear Modulus (GPa) = 33.63373 44.34999 38.99186
#
# Velocity S-wave (km/s) = 3.65668 4.19900 3.93719
# Velocity P-wave (km/s) = 5.99396 7.02149 6.52798
#
# Compressibility (1/GPa) = 0.02196539
#
# Stress axis : x y z
#
# Youngs Moduli (GPa) = 118.45953 53.76634 137.50622
#
# Poissons Ratio (x) = -0.01544 0.30064
# Poissons Ratio (y) = -0.03402 0.58779
# Poissons Ratio (z) = 0.25900 0.22983
#
# Static dielectric constant tensor:
#      x y z
#    x 4.316760 0.352730 0.160710 
#    y 0.352730 4.243230 -0.011280 
#    z 0.160710 -0.011280 5.267500 
# 
# 
# High freq. dielectric constant tensor:
#      x y z
#    x 2.012800 0.021200 0.003770 
#    y 0.021200 1.984110 0.002800 
#    z 0.003770 0.002800 2.033470 
# 
# From -- ./inp_files/158649.got.cif
#   From: 2010.06.25/outbox.cif.g09.slc.cpg/sg2_80_cif.got.tgz:158649.got - 2010.06.27 13:26:56.
