data_PCOD8025562
_publ_section_title
;
Structure prediction by ZEFSAII (Michael W. Deem and Ramdas Pophale) SiO2 
 PCOD8025562
Probable space group: P -1
;
_chemical_formula_sum "Si O2"
_cell_formula_units_Z 14
_cell_length_a 9.954279
_cell_length_b 6.557065
_cell_length_c 20.605725
_cell_angle_alpha 46.632924
_cell_angle_beta 132.263097
_cell_angle_gamma 132.647334
_cell_volume 662.904209
_symmetry_space_group_name_H-M "P -1"
_symmetry_group_IT_number 2
_symmetry_cell_setting 'triclinic'
loop_
_space_group_symop_operation_xyz
x,y,z
-x,-y,-z
loop_
_atom_site_type_symbol
_atom_site_label
_atom_site_fract_x
_atom_site_fract_y
_atom_site_fract_z
Si Si1 0.016915 0.801193 0.300970
Si Si2 0.352656 0.711384 0.098151
Si Si3 0.767617 0.076861 0.386912
Si Si4 0.982082 0.158115 0.562572
Si Si5 0.339559 0.055650 0.250324
Si Si6 0.224634 0.838810 0.894247
Si Si7 0.919928 0.231846 0.892593
O O1 0.049737 0.962698 0.347531
O O2 0.912207 0.434043 0.347293
O O3 0.235852 0.924264 0.314046
O O4 0.878393 0.921935 0.187515
O O5 0.402510 0.415334 0.182869
O O6 0.240518 0.725858 0.122837
O O7 0.555941 0.010521 0.096101
O O8 0.220600 0.704972 0.994227
O O9 0.803003 0.978884 0.493162
O O10 0.537716 0.997785 0.320440
O O11 0.821804 0.872276 0.396136
O O12 0.000000 0.500000 0.500000
O O13 0.178021 0.873717 0.184945
O O14 0.103280 0.555364 0.870254
O O15 0.000000 0.000000 0.000000
#
# Coordination Sequence:
#
# PCOD8025562 Si02
#       7
#     2   2   2   2   2   2   2
#     4  11  23  40  69  97 130 174 214 272 327 383
#     4  11  24  44  63  93 134 183 218 271 319 381
#     4  10  23  45  69  98 128 166 221 268 332 400
#     4   9  22  46  70  93 131 169 206 278 336 387
#     4  12  25  40  68 102 131 174 223 267 324 393
#     4  11  23  43  65  91 135 177 223 264 322 381
#     4  12  25  40  62  95 139 178 220 272 320 378
#
# _framework density 21.11919
#
# number of rings (size 3 to 8) (size 9 to 14) (size 15 to 20)
#    0.000    1.143    4.286    1.286    4.000    1.143 
#    0.000    6.429    0.000    0.000    0.000    0.000 
#    0.000    0.000    0.000    0.000    0.000    0.000 
#
# Total GULP energy -173607.771378 kJ/mol
# GULP energy per Si atom -12400.555098 kJ/mol
# Density = 2.107112 g / cm^3
# Si number density = 21.119190 Si / 1000 Ang^3
#
#
#
# Elastic Constant Matrix: (Units=GPa)
#
#
# Indices 1 2 3 4 5 6 
#
# 1 133.2998 64.0341 71.8903 17.7170 3.4262 -12.3707
# 2 64.0341 90.5391 17.7303 1.3964 0.1035 1.5354
# 3 71.8903 17.7303 94.1140 8.5885 17.5683 0.3724
# 4 17.7170 1.3964 8.5885 25.0629 -7.5302 0.7768
# 5 3.4262 0.1035 17.5683 -7.5302 39.2422 -4.1757
# 6 -12.3707 1.5354 0.3724 0.7768 -4.1757 34.3870
#
#
#
# Elastic Compliance Matrix: (Units=1/GPa)
#
#
# Indices 1 2 3 4 5 6 
#
# 1 0.026750 -0.015539 -0.017396 -0.011059 0.004575 0.011311
# 2 -0.015539 0.020543 0.007679 0.006962 -0.001537 -0.006934
# 3 -0.017396 0.007679 0.024317 0.000751 -0.010107 -0.008108
# 4 -0.011059 0.006962 0.000751 0.050142 0.009781 -0.004242
# 5 0.004575 -0.001537 -0.010107 0.009781 0.032074 0.005498
# 6 0.011311 -0.006934 -0.008108 -0.004242 0.005498 0.034311
#
#
# Mechanical properties :
#
#
# Convention : Reuss Voigt Hill
#
# Bulk Modulus (GPa) = 47.39742 69.47358 58.43550
# Shear Modulus (GPa) = 20.35157 30.69162 25.52160
#
# Velocity S-wave (km/s) = 3.10764 3.81630 3.48006
# Velocity P-wave (km/s) = 5.94711 7.23783 6.62398
#
# Compressibility (1/GPa) = 0.02109819
#
# Stress axis : x y z
#
# Youngs Moduli (GPa) = 37.38319 48.67795 41.12383
#
# Poissons Ratio (x) = 0.75640 0.71537
# Poissons Ratio (y) = 0.58089 -0.31577
# Poissons Ratio (z) = 0.65030 -0.37378
#
# Static dielectric constant tensor:
#      x y z
#    x 3.883220 -0.138310 -0.142650 
#    y -0.138310 3.859810 0.076540 
#    z -0.142650 0.076540 4.203150 
# 
# 
# High freq. dielectric constant tensor:
#      x y z
#    x 1.830490 -0.007860 0.003560 
#    y -0.007860 1.821390 -0.001460 
#    z 0.003560 -0.001460 1.843390 
# 
# From -- ./inp_files/47214.got.cif
#   From: 2010.06.25/outbox.cif.g09.slc.cpg/sg2_24_cif.got.tgz:47214.got - 2010.06.27 13:26:56.
