data_PCOD8025871
_publ_section_title
;
Structure prediction by ZEFSAII (Michael W. Deem and Ramdas Pophale) SiO2 
 PCOD8025871
Probable space group: P -1
;
_chemical_formula_sum "Si O2"
_cell_formula_units_Z 16
_cell_length_a 11.470806
_cell_length_b 18.358206
_cell_length_c 20.687768
_cell_angle_alpha 160.748202
_cell_angle_beta 149.402367
_cell_angle_gamma 30.994514
_cell_volume 704.873467
_symmetry_space_group_name_H-M "P -1"
_symmetry_group_IT_number 2
_symmetry_cell_setting 'triclinic'
loop_
_space_group_symop_operation_xyz
x,y,z
-x,-y,-z
loop_
_atom_site_type_symbol
_atom_site_label
_atom_site_fract_x
_atom_site_fract_y
_atom_site_fract_z
Si Si1 0.591945 0.013504 0.483467
Si Si2 0.347465 0.524715 0.145823
Si Si3 0.846968 0.822759 0.904379
Si Si4 0.926195 0.333589 0.595723
Si Si5 0.107888 0.649969 0.758002
Si Si6 0.362409 0.996765 0.864576
Si Si7 0.106599 0.165313 0.324216
Si Si8 0.875630 0.485148 0.838023
O O1 0.687259 0.237417 0.709150
O O2 0.381501 0.022488 0.339339
O O3 0.500000 0.000000 0.500000
O O4 0.795741 0.786851 0.375087
O O5 0.613718 0.362324 0.127678
O O6 0.295542 0.575861 0.240325
O O7 0.152598 0.402558 0.922746
O O8 0.892634 0.588366 0.767936
O O9 0.565458 0.929326 0.849367
O O10 0.991909 0.806196 0.893280
O O11 0.945938 0.010947 0.149225
O O12 0.780403 0.197387 0.368559
O O13 0.838399 0.352500 0.644160
O O14 0.073471 0.397405 0.544557
O O15 0.959970 0.763045 0.720690
O O16 0.500000 0.000000 0.000000
O O17 0.186795 0.241451 0.971893
#
# Coordination Sequence:
#
# PCOD8025871 Si02
#       8
#     2   2   2   2   2   2   2   2
#     4  11  25  45  72 102 149 180 238 292 355 421
#     4  10  23  48  70 105 144 189 229 304 349 414
#     4  12  26  41  73 103 137 182 239 290 352 424
#     4  12  27  45  70 106 135 197 237 287 358 427
#     4  10  23  46  71 103 140 178 241 286 361 421
#     4  12  27  47  69 101 146 182 238 296 350 423
#     4  10  24  43  69 104 138 187 215 302 354 410
#     4  11  25  46  74 100 146 189 240 286 357 428
#
# _framework density 22.699109
#
# number of rings (size 3 to 8) (size 9 to 14) (size 15 to 20)
#    0.000    1.000    2.500    3.000    7.000    4.000 
#    2.250    0.000    0.000    0.000    0.000    0.000 
#    0.000    0.000    0.000    0.000    0.000    0.000 
#
# Total GULP energy -198407.424478 kJ/mol
# GULP energy per Si atom -12400.464030 kJ/mol
# Density = 2.264744 g / cm^3
# Si number density = 22.699109 Si / 1000 Ang^3
#
#
#
# Elastic Constant Matrix: (Units=GPa)
#
#
# Indices 1 2 3 4 5 6 
#
# 1 119.5522 41.8556 25.5749 -1.5678 -4.7567 -7.4385
# 2 41.8556 128.7914 42.0224 -17.3841 -3.4364 -20.3556
# 3 25.5749 42.0224 113.8798 0.2440 14.5632 -1.1342
# 4 -1.5678 -17.3841 0.2440 28.2758 -0.2789 1.9641
# 5 -4.7567 -3.4364 14.5632 -0.2789 34.9381 0.2177
# 6 -7.4385 -20.3556 -1.1342 1.9641 0.2177 42.8747
#
#
#
# Elastic Compliance Matrix: (Units=1/GPa)
#
#
# Indices 1 2 3 4 5 6 
#
# 1 0.009694 -0.002761 -0.001357 -0.001159 0.001602 0.000380
# 2 -0.002761 0.011665 -0.003966 0.006755 0.002450 0.004632
# 3 -0.001357 -0.003966 0.011210 -0.002546 -0.005257 -0.001678
# 4 -0.001159 0.006755 -0.002546 0.039417 0.001875 0.001124
# 5 0.001602 0.002450 -0.005257 0.001875 0.031281 0.001057
# 6 0.000380 0.004632 -0.001678 0.001124 0.001057 0.025488
#
#
# Mechanical properties :
#
#
# Convention : Reuss Voigt Hill
#
# Bulk Modulus (GPa) = 60.97048 64.56990 62.77019
# Shear Modulus (GPa) = 33.24674 38.06908 35.65791
#
# Velocity S-wave (km/s) = 3.83125 4.09971 3.96775
# Velocity P-wave (km/s) = 6.81835 7.13568 6.97882
#
# Compressibility (1/GPa) = 0.01640138
#
# Stress axis : x y z
#
# Youngs Moduli (GPa) = 103.15983 85.72428 89.20264
#
# Poissons Ratio (x) = 0.23671 0.12102
# Poissons Ratio (y) = 0.28486 0.35378
# Poissons Ratio (z) = 0.13995 0.33999
#
# Static dielectric constant tensor:
#      x y z
#    x 4.190370 -0.162140 0.031380 
#    y -0.162140 4.319040 0.044070 
#    z 0.031380 0.044070 4.148520 
# 
# 
# High freq. dielectric constant tensor:
#      x y z
#    x 1.897750 -0.006140 0.008370 
#    y -0.006140 1.909490 0.002600 
#    z 0.008370 0.002600 1.893230 
# 
# From -- ./inp_files/596083.got.cif
#   From: 2010.06.25/outbox.cif.g09.slc.cpg/sg2_299_cif.got.tgz:596083.got - 2010.06.27 13:26:56.
