data_PCOD8025409
_publ_section_title
;
Structure prediction by ZEFSAII (Michael W. Deem and Ramdas Pophale) SiO2 
 PCOD8025409
Probable space group: P -1
;
_chemical_formula_sum "Si O2"
_cell_formula_units_Z 16
_cell_length_a 17.996907
_cell_length_b 8.370547
_cell_length_c 21.644120
_cell_angle_alpha 136.434355
_cell_angle_beta 161.186878
_cell_angle_gamma 45.785246
_cell_volume 723.692514
_symmetry_space_group_name_H-M "P -1"
_symmetry_group_IT_number 2
_symmetry_cell_setting 'triclinic'
loop_
_space_group_symop_operation_xyz
x,y,z
-x,-y,-z
loop_
_atom_site_type_symbol
_atom_site_label
_atom_site_fract_x
_atom_site_fract_y
_atom_site_fract_z
Si Si1 0.804021 0.426034 0.996129
Si Si2 0.007109 0.274695 0.984776
Si Si3 0.534527 0.011230 0.713257
Si Si4 0.779633 0.955872 0.118449
Si Si5 0.947551 0.481364 0.667381
Si Si6 0.132075 0.045149 0.317674
Si Si7 0.191035 0.992202 0.545094
Si Si8 0.364676 0.300778 0.869368
O O1 0.618038 0.265135 0.834881
O O2 0.707303 0.690837 0.987575
O O3 0.869477 0.320917 0.951997
O O4 0.028347 0.423790 0.216899
O O5 0.265695 0.189928 0.182971
O O6 0.000000 0.500000 0.000000
O O7 0.882301 0.075086 0.793786
O O8 0.350928 0.935524 0.496314
O O9 0.413628 0.030508 0.689692
O O10 0.952582 0.018134 0.327013
O O11 0.897249 0.008050 0.159889
O O12 0.546267 0.110529 0.987095
O O13 0.838250 0.680790 0.592733
O O14 0.782971 0.265285 0.476615
O O15 0.208037 0.403931 0.830143
O O16 0.190464 0.185189 0.651889
O O17 0.500000 0.500000 0.000000
#
# Coordination Sequence:
#
# PCOD8025409 Si02
#       8
#     2   2   2   2   2   2   2   2
#     4  11  24  45  69  99 137 177 226 281 332 403
#     4  12  25  45  73  98 137 175 226 280 338 403
#     4  11  25  44  68 101 134 180 222 277 337 396
#     4  10  23  45  66 100 137 176 224 281 330 396
#     4  11  24  45  68  99 142 177 225 282 329 402
#     4  11  23  45  67 102 138 176 223 278 339 396
#     4  10  25  44  64 100 138 175 226 277 328 399
#     4  12  23  42  73  98 134 182 226 270 344 396
#
# _framework density 22.108837000000001
#
# number of rings (size 3 to 8) (size 9 to 14) (size 15 to 20)
#    0.000    1.000    3.750    2.250    1.750    3.500 
#    2.250    0.000    0.000    0.000    0.000    0.000 
#    0.000    0.000    0.000    0.000    0.000    0.000 
#
# Total GULP energy -198462.542365 kJ/mol
# GULP energy per Si atom -12403.908898 kJ/mol
# Density = 2.205852 g / cm^3
# Si number density = 22.108837 Si / 1000 Ang^3
#
#
#
# Elastic Constant Matrix: (Units=GPa)
#
#
# Indices 1 2 3 4 5 6 
#
# 1 98.0094 46.4402 33.3813 13.3235 3.9989 20.7843
# 2 46.4402 138.4028 48.3414 -6.3730 1.0684 23.1268
# 3 33.3813 48.3414 95.7723 -0.3425 -8.0106 -4.2222
# 4 13.3235 -6.3730 -0.3425 42.8732 4.7725 1.1841
# 5 3.9989 1.0684 -8.0106 4.7725 34.5419 12.8429
# 6 20.7843 23.1268 -4.2222 1.1841 12.8429 36.7243
#
#
#
# Elastic Compliance Matrix: (Units=1/GPa)
#
#
# Indices 1 2 3 4 5 6 
#
# 1 0.015114 -0.002556 -0.004259 -0.004996 0.000846 -0.007569
# 2 -0.002556 0.010945 -0.004833 0.002462 0.000870 -0.006385
# 3 -0.004259 -0.004833 0.014789 0.000366 0.001570 0.006593
# 4 -0.004996 0.002462 0.000366 0.025599 -0.003602 0.001753
# 5 0.000846 0.000870 0.001570 -0.003602 0.034436 -0.012773
# 6 -0.007569 -0.006385 0.006593 0.001753 -0.012773 0.040703
#
#
# Mechanical properties :
#
#
# Convention : Reuss Voigt Hill
#
# Bulk Modulus (GPa) = 56.97427 65.39003 61.18215
# Shear Modulus (GPa) = 29.28548 36.42932 32.85740
#
# Velocity S-wave (km/s) = 3.64346 4.06362 3.85926
# Velocity P-wave (km/s) = 6.59739 7.18735 6.89868
#
# Compressibility (1/GPa) = 0.01755178
#
# Stress axis : x y z
#
# Youngs Moduli (GPa) = 66.16186 91.36812 67.61854
#
# Poissons Ratio (x) = 0.23352 0.28798
# Poissons Ratio (y) = 0.16910 0.32683
# Poissons Ratio (z) = 0.28177 0.44162
#
# Static dielectric constant tensor:
#      x y z
#    x 4.206680 0.201910 -0.111380 
#    y 0.201910 4.097460 0.105250 
#    z -0.111380 0.105250 3.891780 
# 
# 
# High freq. dielectric constant tensor:
#      x y z
#    x 1.882450 0.015800 -0.008490 
#    y 0.015800 1.874460 0.010060 
#    z -0.008490 0.010060 1.866690 
# 
# From -- ./inp_files/206169.got.cif
#   From: 2010.06.25/outbox.cif.g09.slc.cpg/sg2_104_cif.got.tgz:206169.got - 2010.06.27 13:26:56.
