data_PCOD8025532
_publ_section_title
;
Structure prediction by ZEFSAII (Michael W. Deem and Ramdas Pophale) SiO2 
 PCOD8025532
Probable space group: P -1
;
_chemical_formula_sum "Si O2"
_cell_formula_units_Z 16
_cell_length_a 8.494140
_cell_length_b 27.269003
_cell_length_c 14.777893
_cell_angle_alpha 20.986955
_cell_angle_beta 133.201010
_cell_angle_gamma 142.670962
_cell_volume 716.541501
_symmetry_space_group_name_H-M "P -1"
_symmetry_group_IT_number 2
_symmetry_cell_setting 'triclinic'
loop_
_space_group_symop_operation_xyz
x,y,z
-x,-y,-z
loop_
_atom_site_type_symbol
_atom_site_label
_atom_site_fract_x
_atom_site_fract_y
_atom_site_fract_z
Si Si1 0.871743 0.554673 0.521742
Si Si2 0.464191 0.646159 0.920558
Si Si3 0.536296 0.041756 0.667100
Si Si4 0.999813 0.686801 0.012612
Si Si5 0.728713 0.083172 0.871835
Si Si6 0.944740 0.033667 0.721759
Si Si7 0.425651 0.324068 0.887055
Si Si8 0.785454 0.623589 0.851676
O O1 0.620773 0.405787 0.737816
O O2 0.769524 0.615936 0.295777
O O3 0.083048 0.712516 0.397102
O O4 0.004915 0.468731 0.679148
O O5 0.496985 0.810297 0.614244
O O6 0.739374 0.669306 0.971850
O O7 0.408099 0.620206 0.050440
O O8 0.214141 0.478619 0.058660
O O9 0.592572 0.029313 0.814219
O O10 0.774985 0.077236 0.637588
O O11 0.258735 0.865900 0.836798
O O12 0.009821 0.672164 0.931636
O O13 0.500000 0.000000 0.000000
O O14 0.907291 0.014409 0.069960
O O15 0.166524 0.202579 0.461563
O O16 0.756588 0.880909 0.840257
O O17 0.500000 0.500000 0.000000
#
# Coordination Sequence:
#
# PCOD8025532 Si02
#       8
#     2   2   2   2   2   2   2   2
#     4  10  23  45  69  97 144 174 225 285 341 406
#     4  11  26  41  71 101 138 180 231 282 339 411
#     4  12  26  45  69 104 136 185 230 284 344 403
#     4  11  24  43  70  98 141 177 228 281 337 408
#     4  11  28  45  73 101 140 180 228 286 346 411
#     4  11  25  46  71  99 140 181 229 284 341 414
#     4  10  23  45  69 104 134 182 227 284 342 402
#     4  10  25  44  68 101 142 179 223 286 344 402
#
# _framework density 22.329481999999999
#
# number of rings (size 3 to 8) (size 9 to 14) (size 15 to 20)
#    0.000    1.250    1.250    2.250   14.000    3.000 
#    0.000    0.000    0.000    0.000    0.000    0.000 
#    0.000    0.000    0.000    0.000    0.000    0.000 
#
# Total GULP energy -198448.496054 kJ/mol
# GULP energy per Si atom -12403.031003 kJ/mol
# Density = 2.227866 g / cm^3
# Si number density = 22.329482 Si / 1000 Ang^3
#
#
#
# Elastic Constant Matrix: (Units=GPa)
#
#
# Indices 1 2 3 4 5 6 
#
# 1 45.9381 -20.4041 16.2299 4.3621 16.4493 4.1722
# 2 -20.4041 105.2156 25.9614 -13.1598 3.9673 -21.9537
# 3 16.2299 25.9614 151.1804 -21.0781 17.6599 -2.0754
# 4 4.3621 -13.1598 -21.0781 35.8598 4.0156 -2.0543
# 5 16.4493 3.9673 17.6599 4.0156 39.1466 5.9630
# 6 4.1722 -21.9537 -2.0754 -2.0543 5.9630 38.7045
#
#
#
# Elastic Compliance Matrix: (Units=1/GPa)
#
#
# Indices 1 2 3 4 5 6 
#
# 1 0.030654 0.007622 -0.003294 -0.001320 -0.012442 0.002689
# 2 0.007622 0.013825 -0.001882 0.004100 -0.005389 0.007967
# 3 -0.003294 -0.001882 0.008303 0.004921 -0.002739 0.000416
# 4 -0.001320 0.004100 0.004921 0.033470 -0.006350 0.005487
# 5 -0.012442 -0.005389 -0.002739 -0.006350 0.034347 -0.007491
# 6 0.002689 0.007967 0.000416 0.005487 -0.007491 0.031534
#
#
# Mechanical properties :
#
#
# Convention : Reuss Voigt Hill
#
# Bulk Modulus (GPa) = 17.33822 38.43425 27.88624
# Shear Modulus (GPa) = 30.03649 41.44531 35.74090
#
# Velocity S-wave (km/s) = 3.67161 4.31290 4.00511
# Velocity P-wave (km/s) = 5.07502 6.48469 5.82267
#
# Compressibility (1/GPa) = 0.05767604
#
# Stress axis : x y z
#
# Youngs Moduli (GPa) = 32.62241 72.33152 120.43579
#
# Poissons Ratio (x) = -0.55134 0.39667
# Poissons Ratio (y) = -0.24866 0.22664
# Poissons Ratio (z) = 0.10744 0.13612
#
# Static dielectric constant tensor:
#      x y z
#    x 3.960710 -0.113000 0.196800 
#    y -0.113000 4.646270 0.017450 
#    z 0.196800 0.017450 4.171100 
# 
# 
# High freq. dielectric constant tensor:
#      x y z
#    x 1.871350 0.004370 0.010720 
#    y 0.004370 1.893930 -0.002240 
#    z 0.010720 -0.002240 1.895420 
# 
# From -- ./inp_files/505222.got.cif
#   From: 2010.06.25/outbox.cif.g09.slc.cpg/sg2_253_cif.got.tgz:505222.got - 2010.06.27 13:26:56.
