data_PCOD8025462
_publ_section_title
;
Structure prediction by ZEFSAII (Michael W. Deem and Ramdas Pophale) SiO2 
 PCOD8025462
Probable space group: P -1
;
_chemical_formula_sum "Si O2"
_cell_formula_units_Z 16
_cell_length_a 8.091775
_cell_length_b 9.362147
_cell_length_c 24.221256
_cell_angle_alpha 36.180723
_cell_angle_beta 123.137165
_cell_angle_gamma 98.223676
_cell_volume 723.428211
_symmetry_space_group_name_H-M "P -1"
_symmetry_group_IT_number 2
_symmetry_cell_setting 'triclinic'
loop_
_space_group_symop_operation_xyz
x,y,z
-x,-y,-z
loop_
_atom_site_type_symbol
_atom_site_label
_atom_site_fract_x
_atom_site_fract_y
_atom_site_fract_z
Si Si1 0.026630 0.649441 0.757020
Si Si2 0.155315 0.833000 0.026925
Si Si3 0.682021 0.814781 0.739900
Si Si4 0.326284 0.312506 0.667439
Si Si5 0.821949 0.924499 0.381370
Si Si6 0.641507 0.308208 0.638642
Si Si7 0.023493 0.283614 0.777140
Si Si8 0.546855 0.006301 0.916735
O O1 0.959391 0.565176 0.713843
O O2 0.774109 0.842734 0.687663
O O3 0.131350 0.831196 0.701653
O O4 0.231690 0.350112 0.923263
O O5 0.181282 0.534031 0.111742
O O6 0.410816 0.790130 0.099329
O O7 0.998346 0.057425 0.878399
O O8 0.000000 0.000000 0.000000
O O9 0.387621 0.969664 0.642937
O O10 0.760389 0.958403 0.754651
O O11 0.263217 0.128245 0.675715
O O12 0.458048 0.422215 0.621242
O O13 0.511998 0.103710 0.815931
O O14 0.070114 0.619233 0.546916
O O15 0.500000 0.500000 0.500000
O O16 0.835309 0.380871 0.662237
O O17 0.296925 0.072601 0.869900
#
# Coordination Sequence:
#
# PCOD8025462 Si02
#       8
#     2   2   2   2   2   2   2   2
#     4  11  23  45  69 104 138 175 228 292 342 415
#     4  11  20  43  67  98 142 172 223 283 347 410
#     4  11  23  41  75  94 136 180 229 281 347 399
#     4  10  24  44  69  94 142 185 222 288 349 398
#     4  10  23  45  67  99 139 182 237 280 339 421
#     4  11  26  46  67  98 137 183 236 280 340 418
#     4  11  24  41  70  98 136 179 223 287 346 405
#     4  11  23  40  70 101 138 179 224 282 354 402
#
# _framework density 22.116913
#
# number of rings (size 3 to 8) (size 9 to 14) (size 15 to 20)
#    0.000    1.250    2.500    4.500    7.000    1.000 
#    4.500    2.500    0.000    0.000    0.000    0.000 
#    0.000    0.000    0.000    0.000    0.000    0.000 
#
# Total GULP energy -198311.097517 kJ/mol
# GULP energy per Si atom -12394.443595 kJ/mol
# Density = 2.206657 g / cm^3
# Si number density = 22.116913 Si / 1000 Ang^3
#
#
#
# Elastic Constant Matrix: (Units=GPa)
#
#
# Indices 1 2 3 4 5 6 
#
# 1 149.5623 46.4972 37.4067 -5.4514 14.7105 -1.9460
# 2 46.4972 107.3608 51.4493 3.6809 4.7229 15.2797
# 3 37.4067 51.4493 91.7870 12.4990 0.4204 3.8325
# 4 -5.4514 3.6809 12.4990 37.3941 -1.5579 1.7728
# 5 14.7105 4.7229 0.4204 -1.5579 36.2893 -5.2194
# 6 -1.9460 15.2797 3.8325 1.7728 -5.2194 43.0354
#
#
#
# Elastic Compliance Matrix: (Units=1/GPa)
#
#
# Indices 1 2 3 4 5 6 
#
# 1 0.008451 -0.002685 -0.002256 0.002081 -0.002801 0.001111
# 2 -0.002685 0.014529 -0.006931 0.000667 -0.001392 -0.004859
# 3 -0.002256 -0.006931 0.016332 -0.005101 0.001597 0.001308
# 4 0.002081 0.000667 -0.005101 0.028735 0.000241 -0.000843
# 5 -0.002801 -0.001392 0.001597 0.000241 0.029409 0.003782
# 6 0.001111 -0.004859 0.001308 -0.000843 0.003782 0.025389
#
#
# Mechanical properties :
#
#
# Convention : Reuss Voigt Hill
#
# Bulk Modulus (GPa) = 64.23741 68.82404 66.53073
# Shear Modulus (GPa) = 32.94283 37.56753 35.25518
#
# Velocity S-wave (km/s) = 3.86357 4.12586 3.99687
# Velocity P-wave (km/s) = 7.00075 7.34049 7.17263
#
# Compressibility (1/GPa) = 0.01556725
#
# Stress axis : x y z
#
# Youngs Moduli (GPa) = 118.32894 68.82898 61.22974
#
# Poissons Ratio (x) = 0.18482 0.13813
# Poissons Ratio (y) = 0.31774 0.42439
# Poissons Ratio (z) = 0.26694 0.47706
#
# Static dielectric constant tensor:
#      x y z
#    x 3.543720 -1.472850 -0.562860 
#    y -1.472850 1.349790 -1.341290 
#    z -0.562860 -1.341290 2.954460 
# 
# 
# High freq. dielectric constant tensor:
#      x y z
#    x 1.899550 0.005210 0.001030 
#    y 0.005210 1.866210 -0.006600 
#    z 0.001030 -0.006600 1.854380 
# 
# From -- ./inp_files/399583.got.cif
#   From: 2010.06.25/outbox.cif.g09.slc.cpg/sg2_200_cif.got.tgz:399583.got - 2010.06.27 13:26:56.
