data_PCOD8025812
_publ_section_title
;
Structure prediction by ZEFSAII (Michael W. Deem and Ramdas Pophale) SiO2 
 PCOD8025812
Probable space group: P -1
;
_chemical_formula_sum "Si O2"
_cell_formula_units_Z 14
_cell_length_a 15.021659
_cell_length_b 7.687635
_cell_length_c 14.995306
_cell_angle_alpha 99.091525
_cell_angle_beta 151.738136
_cell_angle_gamma 63.650050
_cell_volume 614.142305
_symmetry_space_group_name_H-M "P -1"
_symmetry_group_IT_number 2
_symmetry_cell_setting 'triclinic'
loop_
_space_group_symop_operation_xyz
x,y,z
-x,-y,-z
loop_
_atom_site_type_symbol
_atom_site_label
_atom_site_fract_x
_atom_site_fract_y
_atom_site_fract_z
Si Si1 0.472124 0.872931 0.266281
Si Si2 0.212757 0.390024 0.753139
Si Si3 0.696260 0.985840 0.062629
Si Si4 0.673254 0.419155 0.836960
Si Si5 0.012705 0.286957 0.971398
Si Si6 0.007937 0.301397 0.262809
Si Si7 0.858587 0.167425 0.657077
O O1 0.389038 0.720293 0.174679
O O2 0.759867 0.707125 0.533219
O O3 0.420734 0.998128 0.135577
O O4 0.305456 0.062858 0.212401
O O5 0.232070 0.217318 0.825972
O O6 0.000000 0.500000 0.500000
O O7 0.129715 0.610756 0.755472
O O8 0.487231 0.242961 0.941856
O O9 0.957984 0.922595 0.272860
O O10 0.854063 0.271710 0.901110
O O11 0.423953 0.663010 0.606459
O O12 0.807824 0.478959 0.025626
O O13 0.906563 0.291859 0.781668
O O14 0.000000 0.500000 0.000000
O O15 0.095877 0.057066 0.286151
#
# Coordination Sequence:
#
# PCOD8025812 Si02
#       7
#     2   2   2   2   2   2   2
#     4  11  24  46  71 102 146 182 234 295 353 416
#     4  11  24  43  76 104 140 187 241 286 361 423
#     4  10  23  46  69 103 142 180 235 297 341 423
#     4  12  26  46  72 104 145 189 239 288 352 425
#     4  11  25  46  73 104 143 192 236 291 353 416
#     4  12  26  44  74 104 140 192 232 292 361 413
#     4  11  26  46  68 105 147 181 242 292 348 428
#
# _framework density 22.796021
#
# number of rings (size 3 to 8) (size 9 to 14) (size 15 to 20)
#    0.000    0.857    4.286    2.571    8.000    1.143 
#    0.000    1.429    0.000    0.000    0.000    0.000 
#    0.000    0.000    0.000    0.000    0.000    0.000 
#
# Total GULP energy -173480.225939 kJ/mol
# GULP energy per Si atom -12391.444710 kJ/mol
# Density = 2.274414 g / cm^3
# Si number density = 22.796021 Si / 1000 Ang^3
#
#
#
# Elastic Constant Matrix: (Units=GPa)
#
#
# Indices 1 2 3 4 5 6 
#
# 1 123.9650 30.2658 70.2232 -0.3612 14.5453 -19.7315
# 2 30.2658 97.5167 57.8968 -4.3227 0.0003 -21.0522
# 3 70.2232 57.8968 171.3317 9.9608 6.6117 -31.2177
# 4 -0.3612 -4.3227 9.9608 22.5848 -4.5454 8.3455
# 5 14.5453 0.0003 6.6117 -4.5454 41.3845 -10.8927
# 6 -19.7315 -21.0522 -31.2177 8.3455 -10.8927 38.5813
#
#
#
# Elastic Compliance Matrix: (Units=1/GPa)
#
#
# Indices 1 2 3 4 5 6 
#
# 1 0.011030 -0.000794 -0.004017 0.000862 -0.002889 0.000955
# 2 -0.000794 0.013817 -0.003924 0.003394 0.002298 0.003873
# 3 -0.004017 -0.003924 0.010293 -0.007428 0.000499 0.005881
# 4 0.000862 0.003394 -0.007428 0.054214 0.002996 -0.014599
# 5 -0.002889 0.002298 0.000499 0.002996 0.027337 0.007251
# 6 0.000955 0.003873 0.005881 -0.014599 0.007251 0.038484
#
#
# Mechanical properties :
#
#
# Convention : Reuss Voigt Hill
#
# Bulk Modulus (GPa) = 56.59207 78.84277 67.71742
# Shear Modulus (GPa) = 28.00566 36.13863 32.07214
#
# Velocity S-wave (km/s) = 3.50885 3.98591 3.75496
# Velocity P-wave (km/s) = 6.42614 7.47292 6.96921
#
# Compressibility (1/GPa) = 0.01767032
#
# Stress axis : x y z
#
# Youngs Moduli (GPa) = 90.66473 72.37250 97.15210
#
# Poissons Ratio (x) = 0.05745 0.39026
# Poissons Ratio (y) = 0.07197 0.38124
# Poissons Ratio (z) = 0.36420 0.28400
#
# Static dielectric constant tensor:
#      x y z
#    x 4.267230 -0.275090 0.135830 
#    y -0.275090 3.989220 -0.316740 
#    z 0.135830 -0.316740 4.620650 
# 
# 
# High freq. dielectric constant tensor:
#      x y z
#    x 1.902170 -0.013520 0.009930 
#    y -0.013520 1.887930 -0.016700 
#    z 0.009930 -0.016700 1.916070 
# 
# From -- ./inp_files/528748.got.cif
#   From: 2010.06.25/outbox.cif.g09.slc.cpg/sg2_265_cif.got.tgz:528748.got - 2010.06.27 13:26:56.
