data_PCOD8025821
_publ_section_title
;
Structure prediction by ZEFSAII (Michael W. Deem and Ramdas Pophale) SiO2 
 PCOD8025821
Probable space group: P -1
;
_chemical_formula_sum "Si O2"
_cell_formula_units_Z 14
_cell_length_a 16.339273
_cell_length_b 15.223664
_cell_length_c 9.038179
_cell_angle_alpha 126.604602
_cell_angle_beta 107.431834
_cell_angle_gamma 26.820438
_cell_volume 624.266101
_symmetry_space_group_name_H-M "P -1"
_symmetry_group_IT_number 2
_symmetry_cell_setting 'triclinic'
loop_
_space_group_symop_operation_xyz
x,y,z
-x,-y,-z
loop_
_atom_site_type_symbol
_atom_site_label
_atom_site_fract_x
_atom_site_fract_y
_atom_site_fract_z
Si Si1 0.732620 0.425182 0.893277
Si Si2 0.053223 0.488476 0.363051
Si Si3 0.439563 0.188530 0.995715
Si Si4 0.209833 0.883232 0.445881
Si Si5 0.343426 0.124323 0.661625
Si Si6 0.398087 0.406020 0.672814
Si Si7 0.085952 0.692410 0.547815
O O1 0.996012 0.157586 0.723305
O O2 0.691474 0.357135 0.723087
O O3 0.532294 0.748846 0.051136
O O4 0.705763 0.442139 0.070694
O O5 0.984757 0.696952 0.553275
O O6 0.000000 0.500000 0.500000
O O7 0.910158 0.603527 0.268646
O O8 0.327289 0.138216 0.131428
O O9 0.297977 0.257473 0.910453
O O10 0.301452 0.408555 0.272996
O O11 0.116771 0.003904 0.347596
O O12 0.421823 0.716936 0.416897
O O13 0.500000 0.000000 0.500000
O O14 0.475373 0.860907 0.526566
O O15 0.174389 0.664510 0.700485
#
# Coordination Sequence:
#
# PCOD8025821 Si02
#       7
#     2   2   2   2   2   2   2
#     4  10  23  46  69  93 134 172 219 271 323 390
#     4  12  22  38  63  93 130 171 207 264 326 381
#     4  11  24  42  61  96 133 168 210 269 321 387
#     4  10  24  47  68  95 130 174 219 272 327 378
#     4  12  22  39  63  95 133 169 214 260 326 396
#     4  12  22  43  68  97 129 173 218 269 327 386
#     4  11  25  42  62  98 131 163 225 267 317 395
#
# _framework density 22.426333
#
# number of rings (size 3 to 8) (size 9 to 14) (size 15 to 20)
#    0.000    0.857    5.714    0.857    0.000    3.429 
#    0.000    7.857    0.000    0.000    0.000    0.000 
#    0.000    0.000    0.000    0.000    0.000    0.000 
#
# Total GULP energy -173597.217175 kJ/mol
# GULP energy per Si atom -12399.801227 kJ/mol
# Density = 2.237529 g / cm^3
# Si number density = 22.426333 Si / 1000 Ang^3
#
#
#
# Elastic Constant Matrix: (Units=GPa)
#
#
# Indices 1 2 3 4 5 6 
#
# 1 134.4310 23.4620 14.0336 4.2224 5.7980 -15.3904
# 2 23.4620 109.9368 -0.5560 -4.7547 10.0942 -23.1332
# 3 14.0336 -0.5560 50.5614 -10.0239 3.0445 -5.0611
# 4 4.2224 -4.7547 -10.0239 23.3050 7.6573 4.8511
# 5 5.7980 10.0942 3.0445 7.6573 40.6197 3.1456
# 6 -15.3904 -23.1332 -5.0611 4.8511 3.1456 32.4379
#
#
#
# Elastic Compliance Matrix: (Units=1/GPa)
#
#
# Indices 1 2 3 4 5 6 
#
# 1 0.008436 -0.001262 -0.002717 -0.003539 -0.000270 0.003234
# 2 -0.001262 0.011547 0.002146 0.003201 -0.004065 0.007887
# 3 -0.002717 0.002146 0.023432 0.011907 -0.004343 0.002538
# 4 -0.003539 0.003201 0.011907 0.053878 -0.010989 -0.004530
# 5 -0.000270 -0.004065 -0.004343 -0.010989 0.028437 -0.004819
# 6 0.003234 0.007887 0.002538 -0.004530 -0.004819 0.039528
#
#
# Mechanical properties :
#
#
# Convention : Reuss Voigt Hill
#
# Bulk Modulus (GPa) = 25.15722 40.97871 33.06797
# Shear Modulus (GPa) = 27.44635 36.47182 31.95908
#
# Velocity S-wave (km/s) = 3.50214 4.03711 3.77910
# Velocity P-wave (km/s) = 5.25313 6.32797 5.81544
#
# Compressibility (1/GPa) = 0.03975002
#
# Stress axis : x y z
#
# Youngs Moduli (GPa) = 118.54461 86.59898 42.67706
#
# Poissons Ratio (x) = 0.10926 0.11594
# Poissons Ratio (y) = 0.14957 -0.09159
# Poissons Ratio (z) = 0.32206 -0.18585
#
# Static dielectric constant tensor:
#      x y z
#    x 4.504460 0.480770 0.237390 
#    y 0.480770 4.929540 0.528850 
#    z 0.237390 0.528850 4.246410 
# 
# 
# High freq. dielectric constant tensor:
#      x y z
#    x 1.902490 0.012660 0.000960 
#    y 0.012660 1.875920 -0.003360 
#    z 0.000960 -0.003360 1.876320 
# 
# From -- ./inp_files/177210.got.cif
#   From: 2010.06.25/outbox.cif.g09.slc.cpg/sg2_89_cif.got.tgz:177210.got - 2010.06.27 13:26:56.
