data_PCOD8025056
_publ_section_title
;
Structure prediction by ZEFSAII (Michael W. Deem and Ramdas Pophale) SiO2 
 PCOD8025056
Probable space group: P -1
;
_chemical_formula_sum "Si O2"
_cell_formula_units_Z 12
_cell_length_a 15.317709
_cell_length_b 10.906641
_cell_length_c 19.499033
_cell_angle_alpha 37.066433
_cell_angle_beta 19.698477
_cell_angle_gamma 50.006101
_cell_volume 559.477634
_symmetry_space_group_name_H-M "P -1"
_symmetry_group_IT_number 2
_symmetry_cell_setting 'triclinic'
loop_
_space_group_symop_operation_xyz
x,y,z
-x,-y,-z
loop_
_atom_site_type_symbol
_atom_site_label
_atom_site_fract_x
_atom_site_fract_y
_atom_site_fract_z
Si Si1 0.267994 0.887843 0.284574
Si Si2 0.644604 0.432482 0.362999
Si Si3 0.747100 0.968377 0.623796
Si Si4 0.285662 0.876407 0.892787
Si Si5 0.822981 0.486854 0.983515
Si Si6 0.648940 0.539858 0.560331
O O1 0.231741 0.639013 0.442651
O O2 0.937295 0.839974 0.529451
O O3 0.381684 0.064093 0.188573
O O4 0.500000 0.000000 0.000000
O O5 0.500000 0.500000 0.500000
O O6 0.611509 0.550778 0.265581
O O7 0.999940 0.539907 0.070448
O O8 0.460597 0.146975 0.616483
O O9 0.465650 0.841920 0.836584
O O10 0.966417 0.252553 0.321546
O O11 0.257394 0.714936 0.922125
O O12 0.948369 0.798379 0.204402
O O13 0.501736 0.447161 0.263614
#
# Coordination Sequence:
#
# PCOD8025056 Si02
#       6
#     2   2   2   2   2   2
#     4  11  22  43  71  92 130 176 218 263 320 383
#     4  11  23  45  69  92 135 173 209 267 330 382
#     4  10  23  44  68  94 132 172 213 270 323 374
#     4  11  24  44  66  99 131 166 214 272 321 387
#     4  11  23  43  67  97 132 170 212 267 327 384
#     4  12  23  41  67  99 130 172 219 263 322 384
#
# _framework density 21.448577
#
# number of rings (size 3 to 8) (size 9 to 14) (size 15 to 20)
#    0.000    1.000    5.000    2.000    0.000    2.667 
#    6.000    1.667    0.000    0.000    0.000    0.000 
#    0.000    0.000    0.000    0.000    0.000    0.000 
#
# Total GULP energy -148821.577336 kJ/mol
# GULP energy per Si atom -12401.798111 kJ/mol
# Density = 2.139976 g / cm^3
# Si number density = 21.448577 Si / 1000 Ang^3
#
#
#
# Elastic Constant Matrix: (Units=GPa)
#
#
# Indices 1 2 3 4 5 6 
#
# 1 128.2602 48.1344 37.3877 3.1281 -14.6563 -0.6602
# 2 48.1344 123.4777 52.1363 16.2261 -10.3057 3.0536
# 3 37.3877 52.1363 68.8500 24.7421 -3.9932 27.8894
# 4 3.1281 16.2261 24.7421 36.6321 3.6741 1.1058
# 5 -14.6563 -10.3057 -3.9932 3.6741 35.0397 4.9408
# 6 -0.6602 3.0536 27.8894 1.1058 4.9408 37.6299
#
#
#
# Elastic Compliance Matrix: (Units=1/GPa)
#
#
# Indices 1 2 3 4 5 6 
#
# 1 0.011379 -0.000578 -0.011388 0.006582 0.001430 0.008305
# 2 -0.000578 0.014608 -0.017006 0.004722 0.000033 0.011265
# 3 -0.011388 -0.017006 0.066358 -0.035698 0.008315 -0.048044
# 4 0.006582 0.004722 -0.035698 0.048847 -0.008700 0.025897
# 5 0.001430 0.000033 0.008315 -0.008700 0.032437 -0.010143
# 6 0.008305 0.011265 -0.048044 0.025897 -0.010143 0.061984
#
#
# Mechanical properties :
#
#
# Convention : Reuss Voigt Hill
#
# Bulk Modulus (GPa) = 29.06921 66.21165 47.64043
# Shear Modulus (GPa) = 16.39210 34.05565 25.22387
#
# Velocity S-wave (km/s) = 2.76751 3.98902 3.43303
# Velocity P-wave (km/s) = 4.87796 7.22173 6.16230
#
# Compressibility (1/GPa) = 0.03440065
#
# Stress axis : x y z
#
# Youngs Moduli (GPa) = 87.88208 68.45374 15.06980
#
# Poissons Ratio (x) = 0.03960 0.17161
# Poissons Ratio (y) = 0.05083 0.25628
# Poissons Ratio (z) = 1.00076 1.16414
#
# Static dielectric constant tensor:
#      x y z
#    x 4.223600 -0.242870 0.013400 
#    y -0.242870 3.980810 0.131120 
#    z 0.013400 0.131120 3.861870 
# 
# 
# High freq. dielectric constant tensor:
#      x y z
#    x 1.856530 -0.008410 0.002820 
#    y -0.008410 1.852520 0.017900 
#    z 0.002820 0.017900 1.824960 
# 
# From -- ./inp_files/28643.got.cif
#   From: 2010.06.25/outbox.cif.g09.slc.cpg/sg2_15_cif.got.tgz:28643.got - 2010.06.27 13:26:56.
