data_PCOD8025889
_publ_section_title
;
Structure prediction by ZEFSAII (Michael W. Deem and Ramdas Pophale) SiO2 
 PCOD8025889
Probable space group: P -1
;
_chemical_formula_sum "Si O2"
_cell_formula_units_Z 16
_cell_length_a 8.850879
_cell_length_b 11.617441
_cell_length_c 15.265691
_cell_angle_alpha 150.692460
_cell_angle_beta 91.281737
_cell_angle_gamma 100.783857
_cell_volume 696.347087
_symmetry_space_group_name_H-M "P -1"
_symmetry_group_IT_number 2
_symmetry_cell_setting 'triclinic'
loop_
_space_group_symop_operation_xyz
x,y,z
-x,-y,-z
loop_
_atom_site_type_symbol
_atom_site_label
_atom_site_fract_x
_atom_site_fract_y
_atom_site_fract_z
Si Si1 0.198758 0.662806 0.427903
Si Si2 0.347161 0.151703 0.646157
Si Si3 0.393938 0.663540 0.599727
Si Si4 0.675213 0.553493 0.859429
Si Si5 0.537806 0.164480 0.021782
Si Si6 0.215537 0.445481 0.952565
Si Si7 0.839133 0.087434 0.687001
Si Si8 0.822054 0.561925 0.388256
O O1 0.294974 0.598812 0.465076
O O2 0.189761 0.475000 0.222160
O O3 0.012499 0.609033 0.415737
O O4 0.309302 0.961590 0.602280
O O5 0.533213 0.259601 0.680761
O O6 0.335061 0.412093 0.857507
O O7 0.213647 0.000665 0.470989
O O8 0.500000 0.500000 0.500000
O O9 0.256535 0.595118 0.629177
O O10 0.523886 0.967773 0.811718
O O11 0.601099 0.729080 0.926045
O O12 0.762668 0.671387 0.030802
O O13 0.719850 0.404915 0.196370
O O14 0.500000 0.000000 0.000000
O O15 0.030675 0.278757 0.806782
O O16 0.256496 0.750907 0.165056
O O17 0.807452 0.835326 0.577121
#
# Coordination Sequence:
#
# PCOD8025889 Si02
#       8
#     2   2   2   2   2   2   2   2
#     4  12  25  45  72 105 146 189 233 302 354 421
#     4  12  24  44  71 103 148 190 236 297 351 431
#     4  11  26  49  75 103 138 186 243 296 357 426
#     4  12  25  45  68 106 143 186 243 290 359 423
#     4  10  23  46  71  99 135 185 237 293 350 422
#     4  11  25  42  69 104 145 192 233 291 356 428
#     4  11  24  44  68 107 146 182 241 286 366 416
#     4  11  24  47  73 102 144 189 236 297 355 424
#
# _framework density 22.977048
#
# number of rings (size 3 to 8) (size 9 to 14) (size 15 to 20)
#    0.000    0.750    3.750    3.750    0.000    1.000 
#    2.250    3.125    0.000    0.000    0.000    0.000 
#    0.000    0.000    0.000    0.000    0.000    0.000 
#
# Total GULP energy -198404.290473 kJ/mol
# GULP energy per Si atom -12400.268155 kJ/mol
# Density = 2.292475 g / cm^3
# Si number density = 22.977048 Si / 1000 Ang^3
#
#
#
# Elastic Constant Matrix: (Units=GPa)
#
#
# Indices 1 2 3 4 5 6 
#
# 1 105.4326 48.5712 40.7827 -3.2522 -2.8988 -11.9368
# 2 48.5712 88.0914 34.3115 -6.1627 1.1899 -11.3272
# 3 40.7827 34.3115 136.0903 -6.0650 -6.1622 -6.4497
# 4 -3.2522 -6.1627 -6.0650 45.1964 -6.3369 -1.2962
# 5 -2.8988 1.1899 -6.1622 -6.3369 26.0301 -3.0021
# 6 -11.9368 -11.3272 -6.4497 -1.2962 -3.0021 38.5647
#
#
#
# Elastic Compliance Matrix: (Units=1/GPa)
#
#
# Indices 1 2 3 4 5 6 
#
# 1 0.013572 -0.006336 -0.002299 0.000076 0.001515 0.002076
# 2 -0.006336 0.016053 -0.002037 0.001342 -0.001323 0.002355
# 3 -0.002299 -0.002037 0.008713 0.001044 0.002195 0.000353
# 4 0.000076 0.001342 0.001044 0.023362 0.006095 0.001852
# 5 0.001515 -0.001323 0.002195 0.006095 0.041094 0.003851
# 6 0.002076 0.002355 0.000353 0.001852 0.003851 0.027686
#
#
# Mechanical properties :
#
#
# Convention : Reuss Voigt Hill
#
# Bulk Modulus (GPa) = 58.84505 64.10502 61.47503
# Shear Modulus (GPa) = 31.74806 35.68815 33.71811
#
# Velocity S-wave (km/s) = 3.72119 3.94535 3.83491
# Velocity P-wave (km/s) = 6.64297 6.97958 6.81335
#
# Compressibility (1/GPa) = 0.01699378
#
# Stress axis : x y z
#
# Youngs Moduli (GPa) = 73.68103 62.29220 114.76576
#
# Poissons Ratio (x) = 0.39467 0.26389
# Poissons Ratio (y) = 0.46683 0.23381
# Poissons Ratio (z) = 0.16942 0.12690
#
# Static dielectric constant tensor:
#      x y z
#    x 4.063060 -0.201700 -0.055170 
#    y -0.201700 4.148460 0.060450 
#    z -0.055170 0.060450 4.610400 
# 
# 
# High freq. dielectric constant tensor:
#      x y z
#    x 1.904020 -0.017110 -0.004290 
#    y -0.017110 1.909370 -0.004000 
#    z -0.004290 -0.004000 1.924100 
# 
# From -- ./inp_files/501239.got.cif
#   From: 2010.06.25/outbox.cif.g09.slc.cpg/sg2_251_cif.got.tgz:501239.got - 2010.06.27 13:26:56.
