data_PCOD8025933
_publ_section_title
;
Structure prediction by ZEFSAII (Michael W. Deem and Ramdas Pophale) SiO2 
 PCOD8025933
Probable space group: P -1
;
_chemical_formula_sum "Si O2"
_cell_formula_units_Z 14
_cell_length_a 16.205468
_cell_length_b 16.289027
_cell_length_c 19.674630
_cell_angle_alpha 20.398474
_cell_angle_beta 20.632745
_cell_angle_gamma 18.342779
_cell_volume 516.697723
_symmetry_space_group_name_H-M "P -1"
_symmetry_group_IT_number 2
_symmetry_cell_setting 'triclinic'
loop_
_space_group_symop_operation_xyz
x,y,z
-x,-y,-z
loop_
_atom_site_type_symbol
_atom_site_label
_atom_site_fract_x
_atom_site_fract_y
_atom_site_fract_z
Si Si1 0.252645 0.071366 0.581920
Si Si2 0.489175 0.593220 0.516034
Si Si3 0.149324 0.934608 0.007156
Si Si4 0.253739 0.650777 0.802328
Si Si5 0.198783 0.417485 0.234372
Si Si6 0.746490 0.742284 0.054599
Si Si7 0.153849 0.242803 0.269693
O O1 0.153043 0.355840 0.394021
O O2 0.500000 0.000000 0.500000
O O3 0.335118 0.811437 0.667965
O O4 0.968608 0.174273 0.762108
O O5 0.444888 0.568773 0.650331
O O6 0.394744 0.415183 0.683568
O O7 0.816185 0.464500 0.346147
O O8 0.290757 0.922552 0.385152
O O9 0.056743 0.257449 0.847435
O O10 0.479743 0.664333 0.954348
O O11 0.000000 0.000000 0.000000
O O12 0.323413 0.359120 0.012083
O O13 0.904980 0.836986 0.909287
O O14 0.206912 0.199977 0.343327
O O15 0.000000 0.500000 0.000000
O O16 0.500000 0.000000 0.000000
#
# Coordination Sequence:
#
# PCOD8025933 Si02
#       7
#     2   2   2   2   2   2   2
#     4  12  27  47  79 109 145 203 250 300 377 435
#     4  11  25  47  75 109 151 190 245 300 367 443
#     4  12  27  49  73 104 146 189 251 312 359 435
#     4  11  26  47  75 110 151 195 245 308 369 436
#     4  12  27  48  73 106 149 191 244 304 368 437
#     4  10  23  46  75 110 148 193 240 303 369 437
#     4  12  26  44  77 111 147 194 243 300 371 440
#
# _framework density 27.095147000000001
#
# number of rings (size 3 to 8) (size 9 to 14) (size 15 to 20)
#    0.000    0.571    4.286    3.000    0.000    7.429 
#    0.000    0.000    0.000    0.000    0.000    0.000 
#    0.000    0.000    0.000    0.000    0.000    0.000 
#
# Total GULP energy -173490.414852 kJ/mol
# GULP energy per Si atom -12392.172489 kJ/mol
# Density = 2.703348 g / cm^3
# Si number density = 27.095147 Si / 1000 Ang^3
#
#
#
# Elastic Constant Matrix: (Units=GPa)
#
#
# Indices 1 2 3 4 5 6 
#
# 1 165.4911 23.4451 30.4369 -4.2151 -6.4735 4.9475
# 2 23.4451 129.5725 42.5245 -6.5988 2.3882 -5.3233
# 3 30.4369 42.5245 144.3664 0.8929 12.2350 1.9644
# 4 -4.2151 -6.5988 0.8929 32.6202 3.1661 10.0668
# 5 -6.4735 2.3882 12.2350 3.1661 56.3755 -2.8406
# 6 4.9475 -5.3233 1.9644 10.0668 -2.8406 40.6797
#
#
#
# Elastic Compliance Matrix: (Units=1/GPa)
#
#
# Indices 1 2 3 4 5 6 
#
# 1 0.006465 -0.000786 -0.001203 0.000926 0.000935 -0.000995
# 2 -0.000786 0.008776 -0.002445 0.001424 0.000040 0.001012
# 3 -0.001203 -0.002445 0.008063 -0.000526 -0.001783 -0.000557
# 4 0.000926 0.001424 -0.000526 0.033893 -0.002169 -0.008440
# 5 0.000935 0.000040 -0.001783 -0.002169 0.018443 0.001802
# 6 -0.000995 0.001012 -0.000557 -0.008440 0.001802 0.027077
#
#
# Mechanical properties :
#
#
# Convention : Reuss Voigt Hill
#
# Bulk Modulus (GPa) = 69.27481 70.24924 69.76202
# Shear Modulus (GPa) = 42.95646 48.80332 45.87989
#
# Velocity S-wave (km/s) = 3.98602 4.24864 4.11942
# Velocity P-wave (km/s) = 6.84158 7.07468 6.95910
#
# Compressibility (1/GPa) = 0.01443526
#
# Stress axis : x y z
#
# Youngs Moduli (GPa) = 154.67697 113.94967 124.02886
#
# Poissons Ratio (x) = 0.08956 0.14920
# Poissons Ratio (y) = 0.12157 0.30328
# Poissons Ratio (z) = 0.18606 0.27863
#
# Static dielectric constant tensor:
#      x y z
#    x 5.737260 0.356730 -0.095550 
#    y 0.356730 3.002710 0.472070 
#    z -0.095550 0.472070 5.389080 
# 
# 
# High freq. dielectric constant tensor:
#      x y z
#    x 2.122600 0.007730 0.012400 
#    y 0.007730 2.080110 0.002870 
#    z 0.012400 0.002870 2.109960 
# 
# From -- ./inp_files/600447.got.cif
#   From: 2010.06.25/outbox.cif.g09.slc.cpg/sg2_301_cif.got.tgz:600447.got - 2010.06.27 13:26:56.
