data_PCOD8025589
_publ_section_title
;
Structure prediction by ZEFSAII (Michael W. Deem and Ramdas Pophale) SiO2 
 PCOD8025589
Probable space group: P -1
;
_chemical_formula_sum "Si O2"
_cell_formula_units_Z 16
_cell_length_a 8.497912
_cell_length_b 8.665110
_cell_length_c 20.336120
_cell_angle_alpha 124.863948
_cell_angle_beta 126.906709
_cell_angle_gamma 96.855694
_cell_volume 696.633999
_symmetry_space_group_name_H-M "P -1"
_symmetry_group_IT_number 2
_symmetry_cell_setting 'triclinic'
loop_
_space_group_symop_operation_xyz
x,y,z
-x,-y,-z
loop_
_atom_site_type_symbol
_atom_site_label
_atom_site_fract_x
_atom_site_fract_y
_atom_site_fract_z
Si Si1 0.604299 0.868050 0.349555
Si Si2 0.776503 0.683011 0.570114
Si Si3 0.006929 0.999836 0.923250
Si Si4 0.363318 0.505265 0.803353
Si Si5 0.629746 0.415794 0.645912
Si Si6 0.815166 0.710653 0.154813
Si Si7 0.150902 0.764528 0.139034
Si Si8 0.068026 0.576947 0.392248
O O1 0.668857 0.707874 0.297903
O O2 0.418246 0.726295 0.333535
O O3 0.454343 0.896188 0.264675
O O4 0.875196 0.172421 0.507648
O O5 0.500000 0.500000 0.500000
O O6 0.659642 0.668440 0.465826
O O7 0.908151 0.561415 0.577108
O O8 0.024635 0.981356 0.732055
O O9 0.889218 0.728832 0.798571
O O10 0.820784 0.038710 0.854314
O O11 0.000000 0.000000 0.000000
O O12 0.320172 0.240393 0.035754
O O13 0.178517 0.362257 0.787390
O O14 0.245394 0.607389 0.758869
O O15 0.715128 0.330836 0.588743
O O16 0.985400 0.687695 0.145762
O O17 0.500000 0.500000 0.000000
O O18 0.000000 0.500000 0.000000
#
# Coordination Sequence:
#
# PCOD8025589 Si02
#       8
#     2   2   2   2   2   2   2   2
#     4  12  23  45  68 100 136 186 235 281 343 429
#     4  10  23  45  70 103 135 185 235 285 345 422
#     4  12  24  46  69 102 142 186 232 290 344 422
#     4  12  26  45  65 103 148 181 226 295 358 402
#     4  11  22  44  73  97 135 184 240 286 339 418
#     4  12  24  45  72 104 145 178 229 296 351 408
#     4  12  22  43  71 102 131 186 234 277 344 421
#     4  11  24  42  69 102 136 178 234 290 355 408
#
# _framework density 22.967585
#
# number of rings (size 3 to 8) (size 9 to 14) (size 15 to 20)
#    0.000    0.500    3.750    6.000    0.000    0.500 
#    6.750    1.250    0.000    0.000    0.000    0.000 
#    0.000    0.000    0.000    0.000    0.000    0.000 
#
# Total GULP energy -198349.408862 kJ/mol
# GULP energy per Si atom -12396.838054 kJ/mol
# Density = 2.291531 g / cm^3
# Si number density = 22.967585 Si / 1000 Ang^3
#
#
#
# Elastic Constant Matrix: (Units=GPa)
#
#
# Indices 1 2 3 4 5 6 
#
# 1 76.5883 25.0640 25.0655 -8.1156 -8.7459 -3.0370
# 2 25.0640 113.1904 49.2291 -15.3393 11.4827 -11.6190
# 3 25.0655 49.2291 128.1132 9.0833 -9.3457 -20.2434
# 4 -8.1156 -15.3393 9.0833 54.7648 -12.3124 3.4375
# 5 -8.7459 11.4827 -9.3457 -12.3124 33.9441 -7.9192
# 6 -3.0370 -11.6190 -20.2434 3.4375 -7.9192 40.5882
#
#
#
# Elastic Compliance Matrix: (Units=1/GPa)
#
#
# Indices 1 2 3 4 5 6 
#
# 1 0.015521 -0.002826 -0.001697 0.003044 0.005675 0.000356
# 2 -0.002826 0.012454 -0.004873 0.002688 -0.005391 -0.000356
# 3 -0.001697 -0.004873 0.011376 -0.002810 0.004555 0.005279
# 4 0.003044 0.002688 -0.002810 0.021490 0.006681 -0.000921
# 5 0.005675 -0.005391 0.004555 0.006681 0.038304 0.008061
# 6 0.000356 -0.000356 0.005279 -0.000921 0.008061 0.028846
#
#
# Mechanical properties :
#
#
# Convention : Reuss Voigt Hill
#
# Bulk Modulus (GPa) = 48.63604 57.40100 53.01852
# Shear Modulus (GPa) = 32.54442 40.42831 36.48636
#
# Velocity S-wave (km/s) = 3.76835 4.20006 3.99005
# Velocity P-wave (km/s) = 6.33687 6.96901 6.66044
#
# Compressibility (1/GPa) = 0.02056089
#
# Stress axis : x y z
#
# Youngs Moduli (GPa) = 64.42677 80.29286 87.90700
#
# Poissons Ratio (x) = 0.22689 0.14914
# Poissons Ratio (y) = 0.18206 0.42837
# Poissons Ratio (z) = 0.10930 0.39127
#
# Static dielectric constant tensor:
#      x y z
#    x 3.984160 -0.059240 -0.071990 
#    y -0.059240 4.287050 -0.244820 
#    z -0.071990 -0.244820 4.461020 
# 
# 
# High freq. dielectric constant tensor:
#      x y z
#    x 1.889990 -0.006760 -0.007990 
#    y -0.006760 1.916740 -0.013900 
#    z -0.007990 -0.013900 1.926170 
# 
# From -- ./inp_files/588070.got.cif
#   From: 2010.06.25/outbox.cif.g09.slc.cpg/sg2_295_cif.got.tgz:588070.got - 2010.06.27 13:26:56.
