data_PCOD8025351
_publ_section_title
;
Structure prediction by ZEFSAII (Michael W. Deem and Ramdas Pophale) SiO2 
 PCOD8025351
Probable space group: P -1
;
_chemical_formula_sum "Si O2"
_cell_formula_units_Z 14
_cell_length_a 11.214918
_cell_length_b 8.692890
_cell_length_c 14.221191
_cell_angle_alpha 55.785995
_cell_angle_beta 147.895853
_cell_angle_gamma 115.295913
_cell_volume 605.515304
_symmetry_space_group_name_H-M "P -1"
_symmetry_group_IT_number 2
_symmetry_cell_setting 'triclinic'
loop_
_space_group_symop_operation_xyz
x,y,z
-x,-y,-z
loop_
_atom_site_type_symbol
_atom_site_label
_atom_site_fract_x
_atom_site_fract_y
_atom_site_fract_z
Si Si1 0.406368 0.898425 0.611626
Si Si2 0.574554 0.203803 0.965939
Si Si3 0.796346 0.791794 0.763819
Si Si4 0.226597 0.530878 0.691614
Si Si5 0.551562 0.803976 0.323190
Si Si6 0.958585 0.368537 0.268021
Si Si7 0.191480 0.587335 0.201027
O O1 0.627095 0.852831 0.713266
O O2 0.302077 0.711888 0.630120
O O3 0.222460 0.045929 0.384281
O O4 0.479887 0.986321 0.729334
O O5 0.407388 0.353786 0.858324
O O6 0.573190 0.233027 0.843978
O O7 0.824829 0.231493 0.161071
O O8 0.500000 0.000000 0.000000
O O9 0.733545 0.600576 0.742019
O O10 0.047449 0.750548 0.987653
O O11 0.195154 0.554322 0.774329
O O12 0.000000 0.500000 0.500000
O O13 0.425322 0.672476 0.356612
O O14 0.816745 0.750058 0.503568
O O15 0.035492 0.543078 0.200488
#
# Coordination Sequence:
#
# PCOD8025351 Si02
#       7
#     2   2   2   2   2   2   2
#     4  11  25  44  70 109 147 188 244 292 363 426
#     4  12  28  49  76 107 143 191 243 298 364 430
#     4  10  23  44  75 102 148 189 239 304 345 434
#     4  12  27  47  74 105 144 192 239 298 364 429
#     4  12  26  44  75 110 144 193 237 300 360 428
#     4  12  26  47  75 107 152 187 239 304 351 432
#     4  11  23  45  72 108 141 192 246 288 366 414
#
# _framework density 23.120802000000001
#
# number of rings (size 3 to 8) (size 9 to 14) (size 15 to 20)
#    0.000    0.571    2.857    5.143    2.000    4.000 
#    0.000    0.000    0.000    0.000    0.000    0.000 
#    0.000    0.000    0.000    0.000    0.000    0.000 
#
# Total GULP energy -173589.472162 kJ/mol
# GULP energy per Si atom -12399.248012 kJ/mol
# Density = 2.306818 g / cm^3
# Si number density = 23.120802 Si / 1000 Ang^3
#
#
#
# Elastic Constant Matrix: (Units=GPa)
#
#
# Indices 1 2 3 4 5 6 
#
# 1 127.4719 55.5174 43.8057 0.5667 1.6458 -15.3274
# 2 55.5174 148.4270 52.5448 -3.5511 7.7718 7.8741
# 3 43.8057 52.5448 85.8897 -4.2027 2.2456 -7.0928
# 4 0.5667 -3.5511 -4.2027 45.0052 -7.3291 5.0737
# 5 1.6458 7.7718 2.2456 -7.3291 32.6588 6.3493
# 6 -15.3274 7.8741 -7.0928 5.0737 6.3493 41.1320
#
#
#
# Elastic Compliance Matrix: (Units=1/GPa)
#
#
# Indices 1 2 3 4 5 6 
#
# 1 0.010885 -0.003117 -0.003331 -0.001301 -0.000715 0.004349
# 2 -0.003117 0.009826 -0.004676 0.000644 -0.000981 -0.003777
# 3 -0.003331 -0.004676 0.016448 0.000921 -0.000109 0.002393
# 4 -0.001301 0.000644 0.000921 0.023844 0.006040 -0.004323
# 5 -0.000715 -0.000981 -0.000109 0.006040 0.033419 -0.006001
# 6 0.004349 -0.003777 0.002393 -0.004323 -0.006001 0.028528
#
#
# Mechanical properties :
#
#
# Convention : Reuss Voigt Hill
#
# Bulk Modulus (GPa) = 67.06290 73.94718 70.50504
# Shear Modulus (GPa) = 33.29645 37.75392 35.52519
#
# Velocity S-wave (km/s) = 3.79899 4.04530 3.92408
# Velocity P-wave (km/s) = 6.95065 7.33973 7.14784
#
# Compressibility (1/GPa) = 0.01491137
#
# Stress axis : x y z
#
# Youngs Moduli (GPa) = 91.87129 101.77488 60.79822
#
# Poissons Ratio (x) = 0.31720 0.20249
# Poissons Ratio (y) = 0.28633 0.28430
# Poissons Ratio (z) = 0.30599 0.47592
#
# Static dielectric constant tensor:
#      x y z
#    x 4.625750 0.064520 0.018750 
#    y 0.064520 4.232470 0.011530 
#    z 0.018750 0.011530 4.437190 
# 
# 
# High freq. dielectric constant tensor:
#      x y z
#    x 1.932440 0.000010 0.005100 
#    y 0.000010 1.915750 0.005940 
#    z 0.005100 0.005940 1.921120 
# 
# From -- ./inp_files/515144.got.cif
#   From: 2010.06.25/outbox.cif.g09.slc.cpg/sg2_258_cif.got.tgz:515144.got - 2010.06.27 13:26:56.
