data_PCOD8025484
_publ_section_title
;
Structure prediction by ZEFSAII (Michael W. Deem and Ramdas Pophale) SiO2 
 PCOD8025484
Probable space group: P -1
;
_chemical_formula_sum "Si O2"
_cell_formula_units_Z 14
_cell_length_a 14.016063
_cell_length_b 8.879620
_cell_length_c 5.415679
_cell_angle_alpha 121.610181
_cell_angle_beta 76.088575
_cell_angle_gamma 92.288321
_cell_volume 554.152694
_symmetry_space_group_name_H-M "P -1"
_symmetry_group_IT_number 2
_symmetry_cell_setting 'triclinic'
loop_
_space_group_symop_operation_xyz
x,y,z
-x,-y,-z
loop_
_atom_site_type_symbol
_atom_site_label
_atom_site_fract_x
_atom_site_fract_y
_atom_site_fract_z
Si Si1 0.150579 0.282059 0.850137
Si Si2 0.069963 0.081680 0.339444
Si Si3 0.503599 0.289108 0.808588
Si Si4 0.382772 0.820959 0.859874
Si Si5 0.311816 0.198531 0.051810
Si Si6 0.238823 0.527404 0.677984
Si Si7 0.051875 0.733955 0.810372
O O1 0.163703 0.154439 0.484788
O O2 0.205955 0.186871 0.970918
O O3 0.199739 0.461964 0.910811
O O4 0.032464 0.314222 0.985681
O O5 0.004587 0.249204 0.399758
O O6 0.000000 0.000000 0.500000
O O7 0.100093 0.919743 0.991767
O O8 0.557779 0.221514 0.467013
O O9 0.394330 0.223864 0.812948
O O10 0.500000 0.500000 0.000000
O O11 0.551206 0.202847 0.956279
O O12 0.296251 0.695563 0.839133
O O13 0.336191 0.023886 0.050810
O O14 0.310407 0.372677 0.373520
O O15 0.142093 0.579068 0.611204
#
# Coordination Sequence:
#
# PCOD8025484 Si02
#       7
#     2   2   2   2   2   2   2
#     4  11  25  45  70 108 151 200 256 315 375 465
#     4   9  21  41  72  98 144 198 254 309 381 445
#     4  12  26  56  84 115 158 199 253 324 395 463
#     4  12  30  51  83 115 158 201 254 324 391 462
#     4  12  29  47  78 113 149 199 256 313 393 466
#     4  12  28  44  75 109 152 201 262 314 384 460
#     4  10  23  45  68 108 149 203 252 319 377 450
#
# _framework density 25.263794999999998
#
# number of rings (size 3 to 8) (size 9 to 14) (size 15 to 20)
#    0.000    0.857    1.429    3.429   12.000    4.571 
#    0.000    0.000    0.000    0.000    0.000    0.000 
#    0.000    0.000    0.000    0.000    0.000    0.000 
#
# Total GULP energy -173586.742625 kJ/mol
# GULP energy per Si atom -12399.053045 kJ/mol
# Density = 2.520629 g / cm^3
# Si number density = 25.263795 Si / 1000 Ang^3
#
#
#
# Elastic Constant Matrix: (Units=GPa)
#
#
# Indices 1 2 3 4 5 6 
#
# 1 102.7240 33.5844 24.3302 11.1183 -6.0763 3.9220
# 2 33.5844 138.1903 36.1518 12.3312 -8.8589 -5.6701
# 3 24.3302 36.1518 78.4394 0.1646 -2.0434 -16.0216
# 4 11.1183 12.3312 0.1646 40.2207 -3.6681 0.6116
# 5 -6.0763 -8.8589 -2.0434 -3.6681 39.5328 -4.4004
# 6 3.9220 -5.6701 -16.0216 0.6116 -4.4004 59.0099
#
#
#
# Elastic Compliance Matrix: (Units=1/GPa)
#
#
# Indices 1 2 3 4 5 6 
#
# 1 0.011415 -0.001775 -0.003038 -0.002502 0.000782 -0.001670
# 2 -0.001775 0.008852 -0.003459 -0.002088 0.001355 0.000152
# 3 -0.003038 -0.003459 0.016157 0.001791 0.000233 0.004255
# 4 -0.002502 -0.002088 0.001791 0.026339 0.001718 0.000307
# 5 0.000782 0.001355 0.000233 0.001718 0.026121 0.002072
# 6 -0.001670 0.000152 0.004255 0.000307 0.002072 0.018378
#
#
# Mechanical properties :
#
#
# Convention : Reuss Voigt Hill
#
# Bulk Modulus (GPa) = 50.29949 56.38740 53.34344
# Shear Modulus (GPa) = 38.33377 42.77183 40.55280
#
# Velocity S-wave (km/s) = 3.89953 4.11908 4.01081
# Velocity P-wave (km/s) = 6.34256 6.70749 6.52757
#
# Compressibility (1/GPa) = 0.01988092
#
# Stress axis : x y z
#
# Youngs Moduli (GPa) = 87.60022 112.97029 61.89425
#
# Poissons Ratio (x) = 0.20047 0.18806
# Poissons Ratio (y) = 0.15545 0.21406
# Poissons Ratio (z) = 0.26617 0.39071
#
# Static dielectric constant tensor:
#      x y z
#    x 4.835810 0.277280 0.083070 
#    y 0.277280 4.972590 0.167930 
#    z 0.083070 0.167930 3.903930 
# 
# 
# High freq. dielectric constant tensor:
#      x y z
#    x 2.013210 0.012050 -0.000350 
#    y 0.012050 2.030960 -0.008130 
#    z -0.000350 -0.008130 1.997250 
# 
# From -- ./inp_files/91101.got.cif
#   From: 2010.06.25/outbox.cif.g09.slc.cpg/sg2_46_cif.got.tgz:91101.got - 2010.06.27 13:26:56.
