data_PCOD8025721
_publ_section_title
;
Structure prediction by ZEFSAII (Michael W. Deem and Ramdas Pophale) SiO2 
 PCOD8025721
Probable space group: P -1
;
_chemical_formula_sum "Si O2"
_cell_formula_units_Z 16
_cell_length_a 18.561655
_cell_length_b 5.585065
_cell_length_c 8.950738
_cell_angle_alpha 58.548970
_cell_angle_beta 119.897414
_cell_angle_gamma 111.500032
_cell_volume 679.096311
_symmetry_space_group_name_H-M "P -1"
_symmetry_group_IT_number 2
_symmetry_cell_setting 'triclinic'
loop_
_space_group_symop_operation_xyz
x,y,z
-x,-y,-z
loop_
_atom_site_type_symbol
_atom_site_label
_atom_site_fract_x
_atom_site_fract_y
_atom_site_fract_z
Si Si1 0.381876 0.021336 0.744643
Si Si2 0.112868 0.906698 0.290275
Si Si3 0.262380 0.208691 0.773947
Si Si4 0.626579 0.995616 0.811301
Si Si5 0.907015 0.073106 0.388323
Si Si6 0.706910 0.210453 0.536118
Si Si7 0.044802 0.413711 0.927527
Si Si8 0.545662 0.377683 0.849510
O O1 0.297651 0.991545 0.767531
O O2 0.444840 0.312266 0.747815
O O3 0.349722 0.036038 0.536441
O O4 0.428779 0.751056 0.923609
O O5 0.119038 0.890752 0.480127
O O6 0.195303 0.814028 0.333945
O O7 0.026930 0.715775 0.218579
O O8 0.110162 0.215110 0.116968
O O9 0.301264 0.517081 0.659724
O O10 0.160735 0.172992 0.673738
O O11 0.296200 0.143222 0.993046
O O12 0.568057 0.721137 0.765372
O O13 0.665745 0.214740 0.654146
O O14 0.582114 0.192207 0.814258
O O15 0.899738 0.340948 0.188291
O O16 0.000000 0.000000 0.500000
O O17 0.000000 0.500000 0.000000
#
# Coordination Sequence:
#
# PCOD8025721 Si02
#       8
#     2   2   2   2   2   2   2   2
#     4  10  23  45  74  98 148 185 239 296 360 432
#     4  11  26  44  67 102 136 182 237 290 359 424
#     4  11  26  45  67 104 139 187 235 298 363 424
#     4  11  27  45  74 105 147 188 245 297 368 428
#     4  12  24  44  73  97 139 185 233 286 356 434
#     4  12  26  43  71 103 139 186 236 302 352 434
#     4  11  25  45  69  99 138 180 232 296 355 420
#     4  10  24  47  72 108 143 195 239 300 367 433
#
# _framework density 23.560722999999999
#
# number of rings (size 3 to 8) (size 9 to 14) (size 15 to 20)
#    0.000    1.000    3.750    1.125    5.250    5.500 
#    0.000    0.000    0.000    0.000    0.000    0.000 
#    0.000    0.000    0.000    0.000    0.000    0.000 
#
# Total GULP energy -198297.045365 kJ/mol
# GULP energy per Si atom -12393.565335 kJ/mol
# Density = 2.350710 g / cm^3
# Si number density = 23.560723 Si / 1000 Ang^3
#
#
#
# Elastic Constant Matrix: (Units=GPa)
#
#
# Indices 1 2 3 4 5 6 
#
# 1 83.4769 20.1309 27.4420 4.0720 -1.3304 16.3145
# 2 20.1309 91.2571 26.9100 -3.6910 -12.1062 8.3794
# 3 27.4420 26.9100 105.8813 4.7952 -14.9080 15.9023
# 4 4.0720 -3.6910 4.7952 19.5592 -3.1158 -0.0616
# 5 -1.3304 -12.1062 -14.9080 -3.1158 36.2008 -2.5230
# 6 16.3145 8.3794 15.9023 -0.0616 -2.5230 30.9650
#
#
#
# Elastic Compliance Matrix: (Units=1/GPa)
#
#
# Indices 1 2 3 4 5 6 
#
# 1 0.014642 -0.002353 -0.002423 -0.003226 -0.001942 -0.005998
# 2 -0.002353 0.012841 -0.002211 0.004024 0.003588 -0.000800
# 3 -0.002423 -0.002211 0.011828 -0.002255 0.003576 -0.003912
# 4 -0.003226 0.004024 -0.002255 0.053931 0.005100 0.002292
# 5 -0.001942 0.003588 0.003576 0.005100 0.030715 0.000729
# 6 -0.005998 -0.000800 -0.003912 0.002292 0.000729 0.037744
#
#
# Mechanical properties :
#
#
# Convention : Reuss Voigt Hill
#
# Bulk Modulus (GPa) = 39.46830 47.73125 43.59977
# Shear Modulus (GPa) = 27.15623 31.08714 29.12169
#
# Velocity S-wave (km/s) = 3.39869 3.63636 3.51953
# Velocity P-wave (km/s) = 5.67358 6.15903 5.92128
#
# Compressibility (1/GPa) = 0.02533679
#
# Stress axis : x y z
#
# Youngs Moduli (GPa) = 68.29638 77.87460 84.54736
#
# Poissons Ratio (x) = 0.18322 0.20490
# Poissons Ratio (y) = 0.16069 0.18692
# Poissons Ratio (z) = 0.16551 0.17216
#
# Static dielectric constant tensor:
#      x y z
#    x 4.234710 0.089550 -0.023620 
#    y 0.089550 4.320110 -0.028090 
#    z -0.023620 -0.028090 4.218680 
# 
# 
# High freq. dielectric constant tensor:
#      x y z
#    x 1.931760 0.009230 0.003560 
#    y 0.009230 1.925650 0.007370 
#    z 0.003560 0.007370 1.948870 
# 
# From -- ./inp_files/106284.got.cif
#   From: 2010.06.25/outbox.cif.g09.slc.cpg/sg2_54_cif.got.tgz:106284.got - 2010.06.27 13:26:56.
