data_PCOD8025545
_publ_section_title
;
Structure prediction by ZEFSAII (Michael W. Deem and Ramdas Pophale) SiO2 
 PCOD8025545
Probable space group: P -1
;
_chemical_formula_sum "Si O2"
_cell_formula_units_Z 16
_cell_length_a 8.612406
_cell_length_b 16.121498
_cell_length_c 21.138155
_cell_angle_alpha 22.344076
_cell_angle_beta 42.053037
_cell_angle_gamma 41.524656
_cell_volume 724.944826
_symmetry_space_group_name_H-M "P -1"
_symmetry_group_IT_number 2
_symmetry_cell_setting 'triclinic'
loop_
_space_group_symop_operation_xyz
x,y,z
-x,-y,-z
loop_
_atom_site_type_symbol
_atom_site_label
_atom_site_fract_x
_atom_site_fract_y
_atom_site_fract_z
Si Si1 0.542253 0.717127 0.390763
Si Si2 0.793522 0.284510 0.690211
Si Si3 0.055812 0.763276 0.567590
Si Si4 0.693357 0.992437 0.257655
Si Si5 0.356473 0.622903 0.193735
Si Si6 0.420159 0.072588 0.897674
Si Si7 0.682690 0.162909 0.439884
Si Si8 0.902854 0.321921 0.896879
O O1 0.703402 0.475130 0.531482
O O2 0.260098 0.739420 0.470417
O O3 0.629622 0.903630 0.272184
O O4 0.576978 0.745195 0.286446
O O5 0.780357 0.398164 0.683804
O O6 0.611015 0.115121 0.863155
O O7 0.061626 0.157872 0.681164
O O8 0.173365 0.745123 0.613947
O O9 0.920943 0.566034 0.740584
O O10 0.862825 0.003222 0.449433
O O11 0.486641 0.988754 0.373244
O O12 0.718365 0.243990 0.055856
O O13 0.538135 0.384413 0.290889
O O14 0.171130 0.680193 0.152454
O O15 0.493520 0.822295 0.021789
O O16 0.149100 0.129969 0.965435
#
# Coordination Sequence:
#
# PCOD8025545 Si02
#       8
#     2   2   2   2   2   2   2   2
#     4  11  22  43  63  94 130 166 207 256 323 373
#     4  12  23  37  65  95 130 163 212 252 318 382
#     4  10  23  45  69  88 122 172 218 256 307 375
#     4  11  23  39  64  97 127 164 205 265 316 374
#     4  12  23  39  63  93 131 166 205 261 313 371
#     4  12  24  38  62 103 131 162 202 264 326 373
#     4  10  24  45  69  88 122 171 220 256 308 373
#     4  12  24  39  65  94 136 163 203 264 321 371
#
# _framework density 22.070646
#
# number of rings (size 3 to 8) (size 9 to 14) (size 15 to 20)
#    0.000    0.750    6.250    2.250    3.500    1.000 
#    0.000    0.625    0.000    0.000    0.000    0.000 
#    0.000    0.000    0.000    0.000    0.000    0.000 
#
# Total GULP energy -198446.205696 kJ/mol
# GULP energy per Si atom -12402.887856 kJ/mol
# Density = 2.202041 g / cm^3
# Si number density = 22.070646 Si / 1000 Ang^3
#
#
#
# Elastic Constant Matrix: (Units=GPa)
#
#
# Indices 1 2 3 4 5 6 
#
# 1 103.6416 36.3682 44.3404 -2.2959 -6.0013 -14.2226
# 2 36.3682 61.6761 20.7777 -11.3099 1.0423 -8.8040
# 3 44.3404 20.7777 111.6744 -10.2199 -14.1712 2.1212
# 4 -2.2959 -11.3099 -10.2199 26.3555 -2.5355 4.1567
# 5 -6.0013 1.0423 -14.1712 -2.5355 41.1265 -2.3006
# 6 -14.2226 -8.8040 2.1212 4.1567 -2.3006 19.6500
#
#
#
# Elastic Compliance Matrix: (Units=1/GPa)
#
#
# Indices 1 2 3 4 5 6 
#
# 1 0.015787 -0.006982 -0.005542 -0.005286 0.000811 0.010110
# 2 -0.006982 0.022619 -0.000913 0.008103 -0.001221 0.003322
# 3 -0.005542 -0.000913 0.012367 0.005272 0.003439 -0.006468
# 4 -0.005286 0.008103 0.005272 0.044858 0.003052 -0.009897
# 5 0.000811 -0.001221 0.003439 0.003052 0.025953 0.002061
# 6 0.010110 0.003322 -0.006468 -0.009897 0.002061 0.062730
#
#
# Mechanical properties :
#
#
# Convention : Reuss Voigt Hill
#
# Bulk Modulus (GPa) = 41.84297 53.32942 47.58619
# Shear Modulus (GPa) = 22.81511 29.12678 25.97095
#
# Velocity S-wave (km/s) = 3.21866 3.63672 3.43406
# Velocity P-wave (km/s) = 5.72825 6.46914 6.10993
#
# Compressibility (1/GPa) = 0.02389888
#
# Stress axis : x y z
#
# Youngs Moduli (GPa) = 63.34388 44.21074 80.86275
#
# Poissons Ratio (x) = 0.30867 0.44815
# Poissons Ratio (y) = 0.44226 0.07381
# Poissons Ratio (z) = 0.35106 0.04035
#
# Static dielectric constant tensor:
#      x y z
#    x 4.105190 -0.199540 -0.132000 
#    y -0.199540 3.728250 -0.007540 
#    z -0.132000 -0.007540 4.159250 
# 
# 
# High freq. dielectric constant tensor:
#      x y z
#    x 1.880320 -0.012530 -0.005690 
#    y -0.012530 1.831570 -0.002570 
#    z -0.005690 -0.002570 1.891940 
# 
# From -- ./inp_files/181337.got.cif
#   From: 2010.06.25/outbox.cif.g09.slc.cpg/sg2_91_cif.got.tgz:181337.got - 2010.06.27 13:26:56.
