data_PCOD8025401
_publ_section_title
;
Structure prediction by ZEFSAII (Michael W. Deem and Ramdas Pophale) SiO2 
 PCOD8025401
Probable space group: P -1
;
_chemical_formula_sum "Si O2"
_cell_formula_units_Z 14
_cell_length_a 16.946550
_cell_length_b 8.672704
_cell_length_c 11.134725
_cell_angle_alpha 85.499560
_cell_angle_beta 43.715755
_cell_angle_gamma 119.784207
_cell_volume 671.457002
_symmetry_space_group_name_H-M "P -1"
_symmetry_group_IT_number 2
_symmetry_cell_setting 'triclinic'
loop_
_space_group_symop_operation_xyz
x,y,z
-x,-y,-z
loop_
_atom_site_type_symbol
_atom_site_label
_atom_site_fract_x
_atom_site_fract_y
_atom_site_fract_z
Si Si1 0.892061 0.475400 0.724035
Si Si2 0.552258 0.315935 0.026965
Si Si3 0.162297 0.954582 0.556135
Si Si4 0.453198 0.520232 0.207617
Si Si5 0.805018 0.209353 0.077888
Si Si6 0.465016 0.615443 0.458386
Si Si7 0.093154 0.390341 0.917994
O O1 0.000000 0.500000 0.500000
O O2 0.015621 0.752400 0.623582
O O3 0.702017 0.345483 0.887497
O O4 0.837773 0.297484 0.899884
O O5 0.604279 0.546414 0.005033
O O6 0.348787 0.045036 0.328029
O O7 0.527215 0.309639 0.910914
O O8 0.236483 0.213211 0.452505
O O9 0.071944 0.832775 0.792874
O O10 0.507384 0.635311 0.271837
O O11 0.789303 0.334315 0.180102
O O12 0.608385 0.902955 0.328956
O O13 0.989941 0.309374 0.908902
O O14 0.500000 0.500000 0.500000
O O15 0.243746 0.417249 0.734293
#
# Coordination Sequence:
#
# PCOD8025401 Si02
#       7
#     2   2   2   2   2   2   2
#     4  11  25  39  68  99 122 175 225 257 319 392
#     4   9  22  45  62  92 135 168 210 268 325 380
#     4   9  21  42  65  90 128 171 207 272 319 374
#     4   9  22  43  63  94 129 175 205 268 339 360
#     4  10  25  43  64  94 134 171 213 272 326 373
#     4  12  26  41  69 100 128 170 221 267 321 390
#     4  10  23  45  65  96 130 172 219 263 327 382
#
# _framework density 20.850182
#
# number of rings (size 3 to 8) (size 9 to 14) (size 15 to 20)
#    0.857    1.143    0.000    1.286    8.000    6.857 
#    0.000    0.000    0.000    0.000    0.000    0.000 
#    0.000    0.000    0.000    0.000    0.000    0.000 
#
# Total GULP energy -173516.278873 kJ/mol
# GULP energy per Si atom -12394.019920 kJ/mol
# Density = 2.080273 g / cm^3
# Si number density = 20.850182 Si / 1000 Ang^3
#
#
#
# Elastic Constant Matrix: (Units=GPa)
#
#
# Indices 1 2 3 4 5 6 
#
# 1 165.8893 29.0941 85.0299 24.6356 3.3450 -12.1435
# 2 29.0941 42.6994 27.8827 -0.9961 7.5345 1.3434
# 3 85.0299 27.8827 117.2316 8.8918 -0.6353 -12.9217
# 4 24.6356 -0.9961 8.8918 33.2918 -2.2905 1.4574
# 5 3.3450 7.5345 -0.6353 -2.2905 34.1402 7.8194
# 6 -12.1435 1.3434 -12.9217 1.4574 7.8194 27.8345
#
#
#
# Elastic Compliance Matrix: (Units=1/GPa)
#
#
# Indices 1 2 3 4 5 6 
#
# 1 0.011219 -0.003363 -0.006510 -0.006898 -0.001592 0.002844
# 2 -0.003363 0.030610 -0.005714 0.004764 -0.005209 -0.004383
# 3 -0.006510 -0.005714 0.015019 0.000548 0.001295 0.004015
# 4 -0.006898 0.004764 0.000548 0.035622 0.003351 -0.005792
# 5 -0.001592 -0.005209 0.001295 0.003351 0.032971 -0.009280
# 6 0.002844 -0.004383 0.004015 -0.005792 -0.009280 0.042153
#
#
# Mechanical properties :
#
#
# Convention : Reuss Voigt Hill
#
# Bulk Modulus (GPa) = 38.94824 67.75930 53.35377
# Shear Modulus (GPa) = 24.11663 31.30755 27.71209
#
# Velocity S-wave (km/s) = 3.40466 3.87918 3.64964
# Velocity P-wave (km/s) = 5.84605 7.25485 6.58821
#
# Compressibility (1/GPa) = 0.02567510
#
# Stress axis : x y z
#
# Youngs Moduli (GPa) = 89.13244 32.66870 66.58375
#
# Poissons Ratio (x) = 0.10987 0.43343
# Poissons Ratio (y) = 0.29976 0.38045
# Poissons Ratio (z) = 0.58022 0.18666
#
# Static dielectric constant tensor:
#      x y z
#    x 3.705330 0.067120 0.074990 
#    y 0.067120 3.715960 -0.074010 
#    z 0.074990 -0.074010 3.707780 
# 
# 
# High freq. dielectric constant tensor:
#      x y z
#    x 1.814710 0.008360 0.009840 
#    y 0.008360 1.807590 -0.002330 
#    z 0.009840 -0.002330 1.817560 
# 
# From -- ./inp_files/460544.got.cif
#   From: 2010.06.25/outbox.cif.g09.slc.cpg/sg2_231_cif.got.tgz:460544.got - 2010.06.27 13:26:56.
