data_PCOD8025115
_publ_section_title
;
Structure prediction by ZEFSAII (Michael W. Deem and Ramdas Pophale) SiO2 
 PCOD8025115
Probable space group: P -1
;
_chemical_formula_sum "Si O2"
_cell_formula_units_Z 14
_cell_length_a 5.462090
_cell_length_b 8.144696
_cell_length_c 14.496411
_cell_angle_alpha 69.215204
_cell_angle_beta 107.476800
_cell_angle_gamma 119.230627
_cell_volume 519.738692
_symmetry_space_group_name_H-M "P -1"
_symmetry_group_IT_number 2
_symmetry_cell_setting 'triclinic'
loop_
_space_group_symop_operation_xyz
x,y,z
-x,-y,-z
loop_
_atom_site_type_symbol
_atom_site_label
_atom_site_fract_x
_atom_site_fract_y
_atom_site_fract_z
Si Si1 0.737673 0.795484 0.618150
Si Si2 0.109187 0.020756 0.873787
Si Si3 0.798316 0.669108 0.030953
Si Si4 0.507172 0.989141 0.765993
Si Si5 0.776224 0.814203 0.408970
Si Si6 0.946382 0.417487 0.226102
Si Si7 0.161323 0.508711 0.609486
O O1 0.787830 0.743155 0.528799
O O2 0.404159 0.728381 0.606339
O O3 0.834235 0.680667 0.729158
O O4 0.906590 0.023037 0.611661
O O5 0.842733 0.059466 0.800245
O O6 0.349455 0.044936 0.821273
O O7 0.988330 0.799822 0.942771
O O8 0.262782 0.184132 0.936735
O O9 0.988094 0.570518 0.119097
O O10 0.500000 0.500000 0.000000
O O11 0.370906 0.756594 0.782665
O O12 0.450259 0.093909 0.647874
O O13 0.697204 0.640596 0.360977
O O14 0.010143 0.539719 0.305181
O O15 0.000000 0.500000 0.500000
#
# Coordination Sequence:
#
# PCOD8025115 Si02
#       7
#     2   2   2   2   2   2   2
#     4  10  24  44  63 103 144 188 246 300 365 445
#     4  11  27  52  74 113 149 195 248 310 374 445
#     4  11  25  49  79 111 148 195 249 311 372 441
#     4  11  26  49  77 109 152 198 248 305 376 443
#     4  10  23  44  69 102 143 193 239 301 372 432
#     4  11  25  46  70 108 144 196 247 306 369 440
#     4  12  25  43  72 104 146 192 247 305 366 441
#
# _framework density 26.936616999999998
#
# number of rings (size 3 to 8) (size 9 to 14) (size 15 to 20)
#    0.000    1.143    2.857    1.286    6.000    4.571 
#    5.143    0.000    0.000    0.000    0.000    0.000 
#    0.000    0.000    0.000    0.000    0.000    0.000 
#
# Total GULP energy -173521.770293 kJ/mol
# GULP energy per Si atom -12394.412164 kJ/mol
# Density = 2.687531 g / cm^3
# Si number density = 26.936617 Si / 1000 Ang^3
#
#
#
# Elastic Constant Matrix: (Units=GPa)
#
#
# Indices 1 2 3 4 5 6 
#
# 1 95.8366 12.5085 34.7554 5.7937 3.4152 2.1578
# 2 12.5085 97.8990 21.1335 3.2571 4.7585 4.8703
# 3 34.7554 21.1335 130.9091 -19.5259 24.8793 2.4778
# 4 5.7937 3.2571 -19.5259 48.9202 -13.8000 7.4265
# 5 3.4152 4.7585 24.8793 -13.8000 29.9271 12.2426
# 6 2.1578 4.8703 2.4778 7.4265 12.2426 32.7301
#
#
#
# Elastic Compliance Matrix: (Units=1/GPa)
#
#
# Indices 1 2 3 4 5 6 
#
# 1 0.011955 -0.000697 -0.003546 -0.002656 0.000465 0.000013
# 2 -0.000697 0.010770 -0.001637 -0.001270 -0.000460 -0.000973
# 3 -0.003546 -0.001637 0.010667 0.002163 -0.008111 0.002213
# 4 -0.002656 -0.001270 0.002163 0.028394 0.016947 -0.012581
# 5 0.000465 -0.000460 -0.008111 0.016947 0.058205 -0.024965
# 6 0.000013 -0.000973 0.002213 -0.012581 -0.024965 0.042722
#
#
# Mechanical properties :
#
#
# Convention : Reuss Voigt Hill
#
# Bulk Modulus (GPa) = 46.22950 51.27108 48.75029
# Shear Modulus (GPa) = 27.52023 39.39861 33.45942
#
# Velocity S-wave (km/s) = 3.19982 3.82860 3.52824
# Velocity P-wave (km/s) = 5.55440 6.21446 5.89368
#
# Compressibility (1/GPa) = 0.02163121
#
# Stress axis : x y z
#
# Youngs Moduli (GPa) = 83.64627 92.84977 93.74853
#
# Poissons Ratio (x) = 0.06470 0.33245
# Poissons Ratio (y) = 0.05829 0.15350
# Poissons Ratio (z) = 0.29662 0.15203
#
# Static dielectric constant tensor:
#      x y z
#    x 4.417630 -0.244640 0.045760 
#    y -0.244640 5.629500 0.053440 
#    z 0.045760 0.053440 5.203980 
# 
# 
# High freq. dielectric constant tensor:
#      x y z
#    x 2.051200 -0.004040 0.008720 
#    y -0.004040 2.102380 0.004320 
#    z 0.008720 0.004320 2.094210 
# 
# From -- ./inp_files/480367.got.cif
#   From: 2010.06.25/outbox.cif.g09.slc.cpg/sg2_241_cif.got.tgz:480367.got - 2010.06.27 13:26:56.
