data_PCOD8025270
_publ_section_title
;
Structure prediction by ZEFSAII (Michael W. Deem and Ramdas Pophale) SiO2 
 PCOD8025270
Probable space group: P -1
;
_chemical_formula_sum "Si O2"
_cell_formula_units_Z 12
_cell_length_a 5.324044
_cell_length_b 7.349782
_cell_length_c 15.362134
_cell_angle_alpha 77.137120
_cell_angle_beta 114.266492
_cell_angle_gamma 113.987252
_cell_volume 499.572203
_symmetry_space_group_name_H-M "P -1"
_symmetry_group_IT_number 2
_symmetry_cell_setting 'triclinic'
loop_
_space_group_symop_operation_xyz
x,y,z
-x,-y,-z
loop_
_atom_site_type_symbol
_atom_site_label
_atom_site_fract_x
_atom_site_fract_y
_atom_site_fract_z
Si Si1 0.002390 0.977752 0.178768
Si Si2 0.724550 0.172710 0.454821
Si Si3 0.083924 0.405019 0.107514
Si Si4 0.645479 0.561351 0.421566
Si Si5 0.672258 0.564848 0.107430
Si Si6 0.383203 0.072302 0.700256
O O1 0.337916 0.988834 0.230580
O O2 0.823088 0.801207 0.108026
O O3 0.853874 0.961018 0.253612
O O4 0.981506 0.169328 0.106863
O O5 0.606308 0.351252 0.390668
O O6 0.500000 0.000000 0.500000
O O7 0.983084 0.713628 0.460283
O O8 0.791320 0.068271 0.389310
O O9 0.438873 0.493209 0.161181
O O10 0.921812 0.463165 0.160628
O O11 0.000000 0.500000 0.000000
O O12 0.500000 0.500000 0.500000
O O13 0.489191 0.691810 0.332604
O O14 0.500000 0.500000 0.000000
#
# Coordination Sequence:
#
# PCOD8025270 Si02
#       6
#     2   2   2   2   2   2
#     4  12  27  45  66 108 146 179 235 299 361 406
#     4  11  24  46  71 101 138 192 250 287 351 432
#     4  10  23  44  72  99 131 183 233 284 348 431
#     4  11  25  44  73 100 136 193 248 281 343 436
#     4  10  23  44  72 100 135 182 236 283 352 428
#     4  12  27  45  70 104 150 184 228 307 356 403
#
# _framework density 24.020554000000001
#
# number of rings (size 3 to 8) (size 9 to 14) (size 15 to 20)
#    0.000    1.000    1.667    3.500    4.667    9.333 
#    0.000    0.000    0.000    0.000    0.000    0.000 
#    0.000    0.000    0.000    0.000    0.000    0.000 
#
# Total GULP energy -148749.599357 kJ/mol
# GULP energy per Si atom -12395.799946 kJ/mol
# Density = 2.396588 g / cm^3
# Si number density = 24.020554 Si / 1000 Ang^3
#
#
#
# Elastic Constant Matrix: (Units=GPa)
#
#
# Indices 1 2 3 4 5 6 
#
# 1 160.7886 39.0732 4.1604 -10.7643 9.6183 -6.8785
# 2 39.0732 203.6118 37.8268 -31.4941 14.6054 -2.5509
# 3 4.1604 37.8268 60.3993 -18.9506 2.7626 -1.2123
# 4 -10.7643 -31.4941 -18.9506 49.1013 -2.1679 4.2418
# 5 9.6183 14.6054 2.7626 -2.1679 12.6786 -4.7955
# 6 -6.8785 -2.5509 -1.2123 4.2418 -4.7955 48.3759
#
#
#
# Elastic Compliance Matrix: (Units=1/GPa)
#
#
# Indices 1 2 3 4 5 6 
#
# 1 0.006750 -0.000998 0.000615 0.000869 -0.003778 0.000472
# 2 -0.000998 0.006457 -0.002904 0.002602 -0.005861 -0.000683
# 3 0.000615 -0.002904 0.020263 0.006081 -0.000552 -0.000146
# 4 0.000869 0.002602 0.006081 0.024671 -0.001481 -0.001897
# 5 -0.003778 -0.005861 -0.000552 -0.001481 0.091513 0.008342
# 6 0.000472 -0.000683 -0.000146 -0.001897 0.008342 0.021692
#
#
# Mechanical properties :
#
#
# Convention : Reuss Voigt Hill
#
# Bulk Modulus (GPa) = 37.18038 65.21339 51.19688
# Shear Modulus (GPa) = 26.75424 44.94713 35.85069
#
# Velocity S-wave (km/s) = 3.34099 4.33042 3.86748
# Velocity P-wave (km/s) = 5.51318 7.22574 6.42676
#
# Compressibility (1/GPa) = 0.02689591
#
# Stress axis : x y z
#
# Youngs Moduli (GPa) = 148.13911 154.87604 49.35060
#
# Poissons Ratio (x) = 0.15462 -0.03037
# Poissons Ratio (y) = 0.14789 0.14332
# Poissons Ratio (z) = -0.09115 0.44979
#
# Static dielectric constant tensor:
#      x y z
#    x -12.269700 3.598740 -0.818160 
#    y 3.598740 4.014120 -0.007430 
#    z -0.818160 -0.007430 4.081350 
# 
# 
# High freq. dielectric constant tensor:
#      x y z
#    x 1.977560 -0.012030 0.000000 
#    y -0.012030 1.976700 -0.014200 
#    z 0.000000 -0.014200 1.920020 
# 
# From -- ./inp_files/8776.got.cif
#   From: 2010.06.25/outbox.cif.g09.slc.cpg/sg2_5_cif.got.tgz:8776.got - 2010.06.27 13:26:56.
