data_PCOD8025259
_publ_section_title
;
Structure prediction by ZEFSAII (Michael W. Deem and Ramdas Pophale) SiO2 
 PCOD8025259
Probable space group: P -1
;
_chemical_formula_sum "Si O2"
_cell_formula_units_Z 16
_cell_length_a 12.064955
_cell_length_b 12.180028
_cell_length_c 10.743273
_cell_angle_alpha 122.165485
_cell_angle_beta 115.377796
_cell_angle_gamma 33.500481
_cell_volume 737.234083
_symmetry_space_group_name_H-M "P -1"
_symmetry_group_IT_number 2
_symmetry_cell_setting 'triclinic'
loop_
_space_group_symop_operation_xyz
x,y,z
-x,-y,-z
loop_
_atom_site_type_symbol
_atom_site_label
_atom_site_fract_x
_atom_site_fract_y
_atom_site_fract_z
Si Si1 0.056709 0.231273 0.010807
Si Si2 0.409966 0.184602 0.653555
Si Si3 0.148145 0.541427 0.545775
Si Si4 0.180087 0.781607 0.215917
Si Si5 0.853935 0.937454 0.292976
Si Si6 0.953718 0.594517 0.258103
Si Si7 0.471390 0.630614 0.462952
Si Si8 0.816761 0.970296 0.781211
O O1 0.038481 0.401999 0.104733
O O2 0.119657 0.115014 0.100365
O O3 0.842084 0.342732 0.934263
O O4 0.218792 0.056513 0.874858
O O5 0.242965 0.404910 0.632857
O O6 0.286596 0.223602 0.730493
O O7 0.500000 0.000000 0.500000
O O8 0.582164 0.134298 0.755059
O O9 0.308896 0.499781 0.534187
O O10 0.081054 0.486582 0.383143
O O11 0.944226 0.785562 0.629495
O O12 0.389113 0.636410 0.298674
O O13 0.148103 0.909455 0.164981
O O14 0.006552 0.930169 0.331290
O O15 0.673673 0.133318 0.413606
O O16 0.980742 0.712306 0.279096
O O17 0.500000 0.500000 0.500000
#
# Coordination Sequence:
#
# PCOD8025259 Si02
#       8
#     2   2   2   2   2   2   2   2
#     4  10  25  42  70  97 139 190 212 286 338 417
#     4  12  23  40  67 102 135 174 227 283 341 396
#     4  12  24  40  73 101 132 174 231 287 334 398
#     4  10  23  44  71  97 137 177 229 279 343 398
#     4  10  24  44  69 100 135 182 224 283 340 403
#     4  12  22  46  67 102 142 172 236 276 346 408
#     4  12  23  44  69 106 132 176 234 284 344 402
#     4  12  22  47  66 105 138 175 233 283 342 402
#
# _framework density 21.702741
#
# number of rings (size 3 to 8) (size 9 to 14) (size 15 to 20)
#    0.750    0.000    3.750    5.250    0.000    0.000 
#    2.250    2.500    0.000    0.000    0.000    0.000 
#    0.000    0.000    0.000    0.000    0.000    0.000 
#
# Total GULP energy -198267.058450 kJ/mol
# GULP energy per Si atom -12391.691153 kJ/mol
# Density = 2.165334 g / cm^3
# Si number density = 21.702741 Si / 1000 Ang^3
#
#
#
# Elastic Constant Matrix: (Units=GPa)
#
#
# Indices 1 2 3 4 5 6 
#
# 1 103.4570 31.7286 13.1738 -19.6848 4.2265 -3.9385
# 2 31.7286 78.9193 31.0116 -14.2405 7.3157 5.3784
# 3 13.1738 31.0116 107.0409 -19.3773 14.3223 -0.9935
# 4 -19.6848 -14.2405 -19.3773 15.2431 3.4830 2.4475
# 5 4.2265 7.3157 14.3223 3.4830 33.3249 -4.2726
# 6 -3.9385 5.3784 -0.9935 2.4475 -4.2726 43.8142
#
#
#
# Elastic Compliance Matrix: (Units=1/GPa)
#
#
# Indices 1 2 3 4 5 6 
#
# 1 0.014423 -0.002841 0.003669 0.021788 -0.005057 0.000018
# 2 -0.002841 0.017305 -0.002080 0.011366 -0.004177 -0.003469
# 3 0.003669 -0.002080 0.015120 0.024338 -0.009222 -0.001331
# 4 0.021788 0.011366 0.024338 0.144245 -0.032085 -0.010071
# 5 -0.005057 -0.004177 -0.009222 -0.032085 0.039588 0.005502
# 6 0.000018 -0.003469 -0.001331 -0.010071 0.005502 0.024320
#
#
# Mechanical properties :
#
#
# Convention : Reuss Voigt Hill
#
# Bulk Modulus (GPa) = 22.55043 49.02723 35.78883
# Shear Modulus (GPa) = 18.36299 32.71000 25.53649
#
# Velocity S-wave (km/s) = 2.91196 3.88646 3.43395
# Velocity P-wave (km/s) = 4.66038 6.54055 5.67882
#
# Compressibility (1/GPa) = 0.04434505
#
# Stress axis : x y z
#
# Youngs Moduli (GPa) = 69.33398 57.78604 66.13564
#
# Poissons Ratio (x) = 0.16419 -0.24266
# Poissons Ratio (y) = 0.19700 0.13754
# Poissons Ratio (z) = -0.25440 0.12018
#
# Static dielectric constant tensor:
#      x y z
#    x 4.516430 -0.168490 -0.023360 
#    y -0.168490 3.797760 -0.098590 
#    z -0.023360 -0.098590 3.913990 
# 
# 
# High freq. dielectric constant tensor:
#      x y z
#    x 1.873100 0.010790 0.001110 
#    y 0.010790 1.829530 -0.010410 
#    z 0.001110 -0.010410 1.852460 
# 
# From -- ./inp_files/428775.got.cif
#   From: 2010.06.25/outbox.cif.g09.slc.cpg/sg2_215_cif.got.tgz:428775.got - 2010.06.27 13:26:56.
