data_PCOD8025389
_publ_section_title
;
Structure prediction by ZEFSAII (Michael W. Deem and Ramdas Pophale) SiO2 
 PCOD8025389
Probable space group: P -1
;
_chemical_formula_sum "Si O2"
_cell_formula_units_Z 14
_cell_length_a 11.739594
_cell_length_b 11.468849
_cell_length_c 17.721256
_cell_angle_alpha 30.186179
_cell_angle_beta 38.727070
_cell_angle_gamma 28.190934
_cell_volume 565.071879
_symmetry_space_group_name_H-M "P -1"
_symmetry_group_IT_number 2
_symmetry_cell_setting 'triclinic'
loop_
_space_group_symop_operation_xyz
x,y,z
-x,-y,-z
loop_
_atom_site_type_symbol
_atom_site_label
_atom_site_fract_x
_atom_site_fract_y
_atom_site_fract_z
Si Si1 0.275187 0.770528 0.016862
Si Si2 0.121664 0.232724 0.406742
Si Si3 0.443255 0.254251 0.320874
Si Si4 0.256027 0.529936 0.416095
Si Si5 0.887948 0.664509 0.147013
Si Si6 0.288889 0.616192 0.694644
Si Si7 0.889114 0.161649 0.176390
O O1 0.314082 0.003789 0.893802
O O2 0.500000 0.500000 0.000000
O O3 0.267489 0.608477 0.183782
O O4 0.000000 0.000000 0.000000
O O5 0.383946 0.088894 0.386900
O O6 0.920640 0.474577 0.437853
O O7 0.071049 0.395572 0.262647
O O8 0.111654 0.961536 0.557733
O O9 0.376016 0.255977 0.443623
O O10 0.717094 0.116957 0.248959
O O11 0.441863 0.511007 0.384410
O O12 0.127898 0.837951 0.262536
O O13 0.740568 0.596660 0.215487
O O14 0.057097 0.674593 0.999749
O O15 0.247500 0.612111 0.807463
#
# Coordination Sequence:
#
# PCOD8025389 Si02
#       7
#     2   2   2   2   2   2   2
#     4  12  26  47  72 116 151 190 250 320 392 445
#     4  11  25  43  71 106 149 192 247 302 376 455
#     4  11  23  43  73 102 144 190 249 310 376 435
#     4  10  23  45  65 103 146 190 255 293 378 442
#     4  12  24  48  74 106 151 189 249 316 376 449
#     4  10  25  47  70 106 145 205 246 298 375 456
#     4  10  23  45  73 108 141 194 250 313 371 445
#
# _framework density 24.775611000000001
#
# number of rings (size 3 to 8) (size 9 to 14) (size 15 to 20)
#    0.000    1.143    2.857    2.143    0.000    8.571 
#   10.286    0.000    0.000    0.000    0.000    0.000 
#    0.000    0.000    0.000    0.000    0.000    0.000 
#
# Total GULP energy -173570.466995 kJ/mol
# GULP energy per Si atom -12397.890500 kJ/mol
# Density = 2.471922 g / cm^3
# Si number density = 24.775611 Si / 1000 Ang^3
#
#
#
# Elastic Constant Matrix: (Units=GPa)
#
#
# Indices 1 2 3 4 5 6 
#
# 1 160.6841 56.9879 53.4068 3.4018 -25.5394 4.3451
# 2 56.9879 103.3747 34.6961 -3.6142 -13.2414 5.9941
# 3 53.4068 34.6961 144.8503 12.3472 3.2656 7.9243
# 4 3.4018 -3.6142 12.3472 23.1859 4.4467 -3.7666
# 5 -25.5394 -13.2414 3.2656 4.4467 57.9599 -10.0453
# 6 4.3451 5.9941 7.9243 -3.7666 -10.0453 34.4552
#
#
#
# Elastic Compliance Matrix: (Units=1/GPa)
#
#
# Indices 1 2 3 4 5 6 
#
# 1 0.008904 -0.003748 -0.002422 -0.001106 0.003457 0.000973
# 2 -0.003748 0.012660 -0.001914 0.003248 0.000987 -0.000647
# 3 -0.002422 -0.001914 0.008836 -0.004657 -0.002080 -0.002509
# 4 -0.001106 0.003248 -0.004657 0.047550 -0.002231 0.005193
# 5 0.003457 0.000987 -0.002080 -0.002231 0.020249 0.005530
# 6 0.000973 -0.000647 -0.002509 0.005193 0.005530 0.031770
#
#
# Mechanical properties :
#
#
# Convention : Reuss Voigt Hill
#
# Bulk Modulus (GPa) = 70.26652 77.67674 73.97163
# Shear Modulus (GPa) = 33.13834 40.70808 36.92321
#
# Velocity S-wave (km/s) = 3.66121 4.05788 3.86463
# Velocity P-wave (km/s) = 6.80407 7.30584 7.05941
#
# Compressibility (1/GPa) = 0.01423153
#
# Stress axis : x y z
#
# Youngs Moduli (GPa) = 112.30490 78.99052 113.16731
#
# Poissons Ratio (x) = 0.29606 0.27412
# Poissons Ratio (y) = 0.42092 0.21663
# Poissons Ratio (z) = 0.27203 0.15121
#
# Static dielectric constant tensor:
#      x y z
#    x 4.534080 0.024590 0.170870 
#    y 0.024590 4.451720 -0.167660 
#    z 0.170870 -0.167660 4.754490 
# 
# 
# High freq. dielectric constant tensor:
#      x y z
#    x 1.985130 -0.009250 0.013810 
#    y -0.009250 1.982490 -0.010170 
#    z 0.013810 -0.010170 2.006510 
# 
# From -- ./inp_files/72436.got.cif
#   From: 2010.06.25/outbox.cif.g09.slc.cpg/sg2_37_cif.got.tgz:72436.got - 2010.06.27 13:26:56.
