data_PCOD8025431
_publ_section_title
;
Structure prediction by ZEFSAII (Michael W. Deem and Ramdas Pophale) SiO2 
 PCOD8025431
Probable space group: P -1
;
_chemical_formula_sum "Si O2"
_cell_formula_units_Z 12
_cell_length_a 12.106990
_cell_length_b 13.533075
_cell_length_c 6.651920
_cell_angle_alpha 72.158520
_cell_angle_beta 131.886155
_cell_angle_gamma 136.095363
_cell_volume 529.487845
_symmetry_space_group_name_H-M "P -1"
_symmetry_group_IT_number 2
_symmetry_cell_setting 'triclinic'
loop_
_space_group_symop_operation_xyz
x,y,z
-x,-y,-z
loop_
_atom_site_type_symbol
_atom_site_label
_atom_site_fract_x
_atom_site_fract_y
_atom_site_fract_z
Si Si1 0.003591 0.313750 0.295840
Si Si2 0.824916 0.991986 0.227019
Si Si3 0.455173 0.195017 0.349387
Si Si4 0.618494 0.450630 0.671826
Si Si5 0.781867 0.451078 0.285070
Si Si6 0.537837 0.129429 0.868999
O O1 0.137588 0.415149 0.198980
O O2 0.163354 0.412041 0.619015
O O3 0.926177 0.157022 0.275156
O O4 0.795794 0.285008 0.094612
O O5 0.611408 0.868623 0.183860
O O6 0.000000 0.000000 0.500000
O O7 0.768646 0.936685 0.960919
O O8 0.462942 0.297817 0.444239
O O9 0.641763 0.301868 0.345077
O O10 0.479549 0.105152 0.576132
O O11 0.500000 0.500000 0.500000
O O12 0.647500 0.413173 0.947791
O O13 0.000000 0.500000 0.500000
O O14 0.500000 0.000000 0.000000
#
# Coordination Sequence:
#
# PCOD8025431 Si02
#       6
#     2   2   2   2   2   2
#     4  10  24  42  69  99 135 175 227 275 343 400
#     4  11  26  42  68  99 137 178 226 279 340 403
#     4  11  24  42  70  96 138 177 226 278 343 401
#     4  11  26  42  68 102 139 180 227 284 343 404
#     4  11  23  43  71 100 136 180 231 282 338 409
#     4  10  23  45  67 101 136 176 225 279 337 411
#
# _framework density 22.663409000000001
#
# number of rings (size 3 to 8) (size 9 to 14) (size 15 to 20)
#    0.000    1.333    0.000    4.000    7.000   10.000 
#    0.000    0.000    0.000    0.000    0.000    0.000 
#    0.000    0.000    0.000    0.000    0.000    0.000 
#
# Total GULP energy -148681.104636 kJ/mol
# GULP energy per Si atom -12390.092053 kJ/mol
# Density = 2.261183 g / cm^3
# Si number density = 22.663409 Si / 1000 Ang^3
#
#
#
# Elastic Constant Matrix: (Units=GPa)
#
#
# Indices 1 2 3 4 5 6 
#
# 1 106.1740 55.3337 73.4221 -5.0138 1.9863 6.8959
# 2 55.3337 134.7839 76.9348 -9.6689 -14.3365 -1.7644
# 3 73.4221 76.9348 189.9303 -11.2303 -15.2395 -4.6997
# 4 -5.0138 -9.6689 -11.2303 45.2994 -6.3136 -12.2648
# 5 1.9863 -14.3365 -15.2395 -6.3136 45.3452 3.0184
# 6 6.8959 -1.7644 -4.6997 -12.2648 3.0184 34.6833
#
#
#
# Elastic Compliance Matrix: (Units=1/GPa)
#
#
# Indices 1 2 3 4 5 6 
#
# 1 0.015007 -0.004076 -0.004654 -0.001995 -0.003507 -0.004222
# 2 -0.004076 0.010997 -0.002474 0.002115 0.003017 0.001520
# 3 -0.004654 -0.002474 0.008439 0.002046 0.002379 0.002460
# 4 -0.001995 0.002115 0.002046 0.026030 0.004429 0.009601
# 5 -0.003507 0.003017 0.002379 0.004429 0.024537 0.000604
# 6 -0.004222 0.001520 0.002460 0.009601 0.000604 0.033425
#
#
# Mechanical properties :
#
#
# Convention : Reuss Voigt Hill
#
# Bulk Modulus (GPa) = 83.08996 93.58550 88.33773
# Shear Modulus (GPa) = 34.51742 40.07876 37.29809
#
# Velocity S-wave (km/s) = 3.90686 4.20984 4.06117
# Velocity P-wave (km/s) = 7.55603 8.06310 7.81368
#
# Compressibility (1/GPa) = 0.01203515
#
# Stress axis : x y z
#
# Youngs Moduli (GPa) = 66.63774 90.93062 118.49338
#
# Poissons Ratio (x) = 0.37059 0.55147
# Poissons Ratio (y) = 0.27159 0.29321
# Poissons Ratio (z) = 0.31013 0.22500
#
# Static dielectric constant tensor:
#      x y z
#    x 4.295410 0.098440 -0.086150 
#    y 0.098440 4.434320 0.085350 
#    z -0.086150 0.085350 4.355150 
# 
# 
# High freq. dielectric constant tensor:
#      x y z
#    x 1.894260 0.003680 -0.014810 
#    y 0.003680 1.911820 0.007040 
#    z -0.014810 0.007040 1.896810 
# 
# From -- ./inp_files/25279.got.cif
#   From: 2010.06.25/outbox.cif.g09.slc.cpg/sg2_13_cif.got.tgz:25279.got - 2010.06.27 13:26:56.
