data_PCOD8025342
_publ_section_title
;
Structure prediction by ZEFSAII (Michael W. Deem and Ramdas Pophale) SiO2 
 PCOD8025342
Probable space group: P -1
;
_chemical_formula_sum "Si O2"
_cell_formula_units_Z 12
_cell_length_a 5.270173
_cell_length_b 15.414719
_cell_length_c 9.152312
_cell_angle_alpha 52.738719
_cell_angle_beta 128.380065
_cell_angle_gamma 115.607624
_cell_volume 461.988443
_symmetry_space_group_name_H-M "P -1"
_symmetry_group_IT_number 2
_symmetry_cell_setting 'triclinic'
loop_
_space_group_symop_operation_xyz
x,y,z
-x,-y,-z
loop_
_atom_site_type_symbol
_atom_site_label
_atom_site_fract_x
_atom_site_fract_y
_atom_site_fract_z
Si Si1 0.575692 0.574037 0.755514
Si Si2 0.772407 0.931457 0.603231
Si Si3 0.809243 0.069499 0.976002
Si Si4 0.735419 0.250010 0.395037
Si Si5 0.552675 0.736614 0.329540
Si Si6 0.276676 0.655982 0.006045
O O1 0.282261 0.624682 0.685009
O O2 0.585305 0.625706 0.543856
O O3 0.501224 0.443429 0.850409
O O4 0.904657 0.604319 0.935181
O O5 0.572681 0.824756 0.568947
O O6 0.500000 0.000000 0.500000
O O7 0.000000 0.000000 0.500000
O O8 0.971991 0.890602 0.850322
O O9 0.676967 0.181774 0.751306
O O10 0.500000 0.000000 0.000000
O O11 0.000000 0.000000 0.000000
O O12 0.077018 0.205219 0.611373
O O13 0.699924 0.249858 0.205807
O O14 0.403736 0.712572 0.141898
#
# Coordination Sequence:
#
# PCOD8025342 Si02
#       6
#     2   2   2   2   2   2
#     4  10  23  44  74 108 155 196 253 313 376 459
#     4  12  29  49  76 107 149 197 255 316 380 450
#     4  12  29  49  75 109 148 196 257 314 380 453
#     4  11  26  44  74 108 153 198 254 313 382 453
#     4  11  26  44  74 109 154 197 255 312 383 453
#     4  10  23  46  73 111 149 203 250 312 381 454
#
# _framework density 25.974675999999999
#
# number of rings (size 3 to 8) (size 9 to 14) (size 15 to 20)
#    0.000    1.000    0.000    4.000   16.333    2.000 
#    0.000    0.000    0.000    0.000    0.000    0.000 
#    0.000    0.000    0.000    0.000    0.000    0.000 
#
# Total GULP energy -148771.234069 kJ/mol
# GULP energy per Si atom -12397.602839 kJ/mol
# Density = 2.591556 g / cm^3
# Si number density = 25.974676 Si / 1000 Ang^3
#
#
#
# Elastic Constant Matrix: (Units=GPa)
#
#
# Indices 1 2 3 4 5 6 
#
# 1 144.9719 51.1653 51.1040 1.6244 15.3656 -12.1701
# 2 51.1653 118.3604 68.9624 -1.0833 14.7847 -11.4325
# 3 51.1040 68.9624 156.1642 21.5030 18.7926 -11.9106
# 4 1.6244 -1.0833 21.5030 53.6132 -12.6167 4.3017
# 5 15.3656 14.7847 18.7926 -12.6167 42.7752 -9.9443
# 6 -12.1701 -11.4325 -11.9106 4.3017 -9.9443 43.2091
#
#
#
# Elastic Compliance Matrix: (Units=1/GPa)
#
#
# Indices 1 2 3 4 5 6 
#
# 1 0.008541 -0.002625 -0.001369 -0.000168 -0.001368 0.001036
# 2 -0.002625 0.012581 -0.004864 0.002108 -0.000428 0.000940
# 3 -0.001369 -0.004864 0.010192 -0.005059 -0.003609 0.000810
# 4 -0.000168 0.002108 -0.005059 0.022704 0.007945 -0.001316
# 5 -0.001368 -0.000428 -0.003609 0.007945 0.028965 0.004382
# 6 0.001036 0.000940 0.000810 -0.001316 0.004382 0.025046
#
#
# Mechanical properties :
#
#
# Convention : Reuss Voigt Hill
#
# Bulk Modulus (GPa) = 73.53999 84.66219 79.10109
# Shear Modulus (GPa) = 38.37963 44.47047 41.42505
#
# Velocity S-wave (km/s) = 3.84810 4.14221 3.99786
# Velocity P-wave (km/s) = 6.93668 7.45265 7.19929
#
# Compressibility (1/GPa) = 0.01359804
#
# Stress axis : x y z
#
# Youngs Moduli (GPa) = 117.08600 79.48469 98.11609
#
# Poissons Ratio (x) = 0.20865 0.13432
# Poissons Ratio (y) = 0.30735 0.47722
# Poissons Ratio (z) = 0.16029 0.38660
#
# Static dielectric constant tensor:
#      x y z
#    x 4.788330 -0.628930 0.327250 
#    y -0.628930 2.403490 -0.362340 
#    z 0.327250 -0.362340 5.062040 
# 
# 
# High freq. dielectric constant tensor:
#      x y z
#    x 2.038770 -0.015610 0.008850 
#    y -0.015610 2.032510 -0.003750 
#    z 0.008850 -0.003750 2.066420 
# 
# From -- ./inp_files/132969.got.cif
#   From: 2010.06.25/outbox.cif.g09.slc.cpg/sg2_67_cif.got.tgz:132969.got - 2010.06.27 13:26:56.
