data_PCOD8025492
_publ_section_title
;
Structure prediction by ZEFSAII (Michael W. Deem and Ramdas Pophale) SiO2 
 PCOD8025492
Probable space group: P -1
;
_chemical_formula_sum "Si O2"
_cell_formula_units_Z 14
_cell_length_a 8.378882
_cell_length_b 19.388716
_cell_length_c 19.127459
_cell_angle_alpha 158.334430
_cell_angle_beta 34.805217
_cell_angle_gamma 144.069156
_cell_volume 638.573942
_symmetry_space_group_name_H-M "P -1"
_symmetry_group_IT_number 2
_symmetry_cell_setting 'triclinic'
loop_
_space_group_symop_operation_xyz
x,y,z
-x,-y,-z
loop_
_atom_site_type_symbol
_atom_site_label
_atom_site_fract_x
_atom_site_fract_y
_atom_site_fract_z
Si Si1 0.405636 0.131713 0.256083
Si Si2 0.979508 0.177838 0.723992
Si Si3 0.376859 0.714473 0.825607
Si Si4 0.190381 0.038003 0.659793
Si Si5 0.326016 0.540561 0.439411
Si Si6 0.266474 0.400415 0.048097
Si Si7 0.411022 0.556381 0.887794
O O1 0.566090 0.234748 0.228065
O O2 0.564434 0.237127 0.366958
O O3 0.066232 0.142138 0.395587
O O4 0.415276 0.907273 0.040223
O O5 0.153451 0.375573 0.817817
O O6 0.086562 0.141345 0.727867
O O7 0.000000 0.000000 0.500000
O O8 0.666332 0.232019 0.887352
O O9 0.611969 0.595623 0.648926
O O10 0.060849 0.573380 0.818687
O O11 0.500000 0.000000 0.500000
O O12 0.237320 0.174177 0.838425
O O13 0.475265 0.480728 0.262549
O O14 0.000000 0.500000 0.500000
O O15 0.500000 0.500000 0.000000
O O16 0.365009 0.457759 0.144851
#
# Coordination Sequence:
#
# PCOD8025492 Si02
#       7
#     2   2   2   2   2   2   2
#     4  10  23  45  68  95 134 177 228 279 329 403
#     4  11  23  41  63  96 133 174 218 277 342 396
#     4  10  24  45  70  96 132 177 230 280 334 401
#     4  11  23  39  66  98 130 176 220 273 336 400
#     4  12  26  42  67  99 136 182 225 273 343 402
#     4  11  22  41  67  94 129 172 224 277 338 398
#     4  11  24  40  65  95 134 171 220 281 337 399
#
# _framework density 21.923850000000002
#
# number of rings (size 3 to 8) (size 9 to 14) (size 15 to 20)
#    0.000    1.143    1.429    4.714    4.000    1.714 
#    0.000    5.714    0.000    0.000    0.000    0.000 
#    0.000    0.000    0.000    0.000    0.000    0.000 
#
# Total GULP energy -173441.435063 kJ/mol
# GULP energy per Si atom -12388.673933 kJ/mol
# Density = 2.187395 g / cm^3
# Si number density = 21.923850 Si / 1000 Ang^3
#
#
#
# Elastic Constant Matrix: (Units=GPa)
#
#
# Indices 1 2 3 4 5 6 
#
# 1 93.6705 34.5272 57.2820 -0.4300 -1.5399 21.2067
# 2 34.5272 130.4382 37.4651 -13.7756 -3.9372 19.9105
# 3 57.2820 37.4651 128.8856 3.5935 14.5582 14.8070
# 4 -0.4300 -13.7756 3.5935 31.9124 5.0927 1.8497
# 5 -1.5399 -3.9372 14.5582 5.0927 45.5517 0.0781
# 6 21.2067 19.9105 14.8070 1.8497 0.0781 40.3368
#
#
#
# Elastic Compliance Matrix: (Units=1/GPa)
#
#
# Indices 1 2 3 4 5 6 
#
# 1 0.016557 -0.001554 -0.006559 0.000212 0.002507 -0.005544
# 2 -0.001554 0.009657 -0.001948 0.004420 0.000916 -0.003439
# 3 -0.006559 -0.001948 0.011710 -0.001629 -0.003951 0.000194
# 4 0.000212 0.004420 -0.001629 0.034081 -0.002895 -0.003253
# 5 0.002507 0.000916 -0.003951 -0.002895 0.023704 -0.000233
# 6 -0.005544 -0.003439 0.000194 -0.003253 -0.000233 0.029482
#
#
# Mechanical properties :
#
#
# Convention : Reuss Voigt Hill
#
# Bulk Modulus (GPa) = 56.17727 67.94922 62.06325
# Shear Modulus (GPa) = 33.05874 38.47483 35.76678
#
# Velocity S-wave (km/s) = 3.88737 4.19373 4.04345
# Velocity P-wave (km/s) = 6.76966 7.38312 7.08303
#
# Compressibility (1/GPa) = 0.01780079
#
# Stress axis : x y z
#
# Youngs Moduli (GPa) = 60.39704 103.55414 85.40064
#
# Poissons Ratio (x) = 0.16097 0.56014
# Poissons Ratio (y) = 0.09388 0.16635
# Poissons Ratio (z) = 0.39614 0.20171
#
# Static dielectric constant tensor:
#      x y z
#    x 3.953930 0.146860 0.188720 
#    y 0.146860 4.189240 -0.055120 
#    z 0.188720 -0.055120 4.176600 
# 
# 
# High freq. dielectric constant tensor:
#      x y z
#    x 1.857400 0.004100 0.017370 
#    y 0.004100 1.868590 -0.008380 
#    z 0.017370 -0.008380 1.873690 
# 
# From -- ./inp_files/319545.got.cif
#   From: 2010.06.25/outbox.cif.g09.slc.cpg/sg2_160_cif.got.tgz:319545.got - 2010.06.27 13:26:56.
