data_PCOD8025343
_publ_section_title
;
Structure prediction by ZEFSAII (Michael W. Deem and Ramdas Pophale) SiO2 
 PCOD8025343
Probable space group: P -1
;
_chemical_formula_sum "Si O2"
_cell_formula_units_Z 14
_cell_length_a 9.120454
_cell_length_b 13.281674
_cell_length_c 9.082674
_cell_angle_alpha 57.952466
_cell_angle_beta 53.756974
_cell_angle_gamma 44.797218
_cell_volume 613.164150
_symmetry_space_group_name_H-M "P -1"
_symmetry_group_IT_number 2
_symmetry_cell_setting 'triclinic'
loop_
_space_group_symop_operation_xyz
x,y,z
-x,-y,-z
loop_
_atom_site_type_symbol
_atom_site_label
_atom_site_fract_x
_atom_site_fract_y
_atom_site_fract_z
Si Si1 0.077849 0.771927 0.683705
Si Si2 0.188188 0.495193 0.299006
Si Si3 0.541302 0.702775 0.463577
Si Si4 0.666541 0.983245 0.592740
Si Si5 0.297389 0.951540 0.796695
Si Si6 0.902154 0.215560 0.992899
Si Si7 0.957536 0.472362 0.207183
O O1 0.299422 0.754208 0.510488
O O2 0.066588 0.658988 0.678360
O O3 0.078663 0.751330 0.874290
O O4 0.856219 0.927369 0.647500
O O5 0.413884 0.388293 0.340359
O O6 0.151941 0.649828 0.180105
O O7 0.000000 0.500000 0.500000
O O8 0.175860 0.433017 0.198244
O O9 0.530663 0.846725 0.392752
O O10 0.729835 0.613931 0.297786
O O11 0.548448 0.898425 0.730386
O O12 0.775339 0.967410 0.381269
O O13 0.132174 0.065263 0.929550
O O14 0.290931 0.810188 0.899741
O O15 0.000000 0.500000 0.000000
#
# Coordination Sequence:
#
# PCOD8025343 Si02
#       7
#     2   2   2   2   2   2   2
#     4  12  26  44  67 105 146 183 231 289 346 421
#     4  10  23  44  74  94 138 182 233 284 351 413
#     4  11  25  47  70 103 140 191 228 286 350 421
#     4  11  25  46  72 101 140 190 233 280 358 414
#     4  10  24  44  72 101 139 184 240 284 346 419
#     4  11  23  46  68 108 137 180 239 295 340 417
#     4  11  24  46  69 106 141 178 236 289 354 410
#
# _framework density 22.832384999999999
#
# number of rings (size 3 to 8) (size 9 to 14) (size 15 to 20)
#    0.000    1.143    2.857    2.571    8.000    1.143 
#    2.571    0.000    0.000    0.000    0.000    0.000 
#    0.000    0.000    0.000    0.000    0.000    0.000 
#
# Total GULP energy -173564.592678 kJ/mol
# GULP energy per Si atom -12397.470906 kJ/mol
# Density = 2.278042 g / cm^3
# Si number density = 22.832385 Si / 1000 Ang^3
#
#
#
# Elastic Constant Matrix: (Units=GPa)
#
#
# Indices 1 2 3 4 5 6 
#
# 1 150.2835 51.0469 59.0489 -18.0314 -6.4725 2.5981
# 2 51.0469 105.3739 36.7789 1.5345 4.6387 9.9977
# 3 59.0489 36.7789 113.4282 -1.8211 -3.5515 0.8188
# 4 -18.0314 1.5345 -1.8211 43.8002 11.1987 -0.3470
# 5 -6.4725 4.6387 -3.5515 11.1987 39.9657 -7.3881
# 6 2.5981 9.9977 0.8188 -0.3470 -7.3881 40.7461
#
#
#
# Elastic Compliance Matrix: (Units=1/GPa)
#
#
# Indices 1 2 3 4 5 6 
#
# 1 0.009882 -0.003552 -0.003913 0.003862 0.000671 0.000475
# 2 -0.003552 0.012432 -0.002257 -0.001398 -0.002424 -0.003230
# 3 -0.003913 -0.002257 0.011595 -0.001345 0.001178 0.000772
# 4 0.003862 -0.001398 -0.001345 0.026152 -0.006824 -0.000891
# 5 0.000671 -0.002424 0.001178 -0.006824 0.028470 0.005632
# 6 0.000475 -0.003230 0.000772 -0.000891 0.005632 0.026303
#
#
# Mechanical properties :
#
#
# Convention : Reuss Voigt Hill
#
# Bulk Modulus (GPa) = 69.13440 73.64834 71.39137
# Shear Modulus (GPa) = 35.94546 39.71645 37.83095
#
# Velocity S-wave (km/s) = 3.97207 4.17523 4.07492
# Velocity P-wave (km/s) = 7.16808 7.45450 7.31269
#
# Compressibility (1/GPa) = 0.01446458
#
# Stress axis : x y z
#
# Youngs Moduli (GPa) = 101.19038 80.43667 86.24567
#
# Poissons Ratio (x) = 0.28574 0.33750
# Poissons Ratio (y) = 0.35946 0.19464
# Poissons Ratio (z) = 0.39598 0.18153
#
# Static dielectric constant tensor:
#      x y z
#    x 2.848450 -0.310380 -0.195490 
#    y -0.310380 4.084380 -0.157940 
#    z -0.195490 -0.157940 4.077940 
# 
# 
# High freq. dielectric constant tensor:
#      x y z
#    x 1.911090 0.014780 -0.008650 
#    y 0.014780 1.902220 0.001840 
#    z -0.008650 0.001840 1.898350 
# 
# From -- ./inp_files/158069.got.cif
#   From: 2010.06.25/outbox.cif.g09.slc.cpg/sg2_80_cif.got.tgz:158069.got - 2010.06.27 13:26:56.
