data_PCOD8025041
_publ_section_title
;
Structure prediction by ZEFSAII (Michael W. Deem and Ramdas Pophale) SiO2 
 PCOD8025041
Probable space group: P -1
;
_chemical_formula_sum "Si O2"
_cell_formula_units_Z 12
_cell_length_a 13.138230
_cell_length_b 8.022208
_cell_length_c 10.865695
_cell_angle_alpha 98.358151
_cell_angle_beta 32.673189
_cell_angle_gamma 113.589191
_cell_volume 522.417932
_symmetry_space_group_name_H-M "P -1"
_symmetry_group_IT_number 2
_symmetry_cell_setting 'triclinic'
loop_
_space_group_symop_operation_xyz
x,y,z
-x,-y,-z
loop_
_atom_site_type_symbol
_atom_site_label
_atom_site_fract_x
_atom_site_fract_y
_atom_site_fract_z
Si Si1 0.839554 0.073383 0.706713
Si Si2 0.428308 0.590781 0.475162
Si Si3 0.034305 0.447604 0.703254
Si Si4 0.775433 0.102627 0.508615
Si Si5 0.207899 0.095411 0.015460
Si Si6 0.335757 0.816093 0.782631
O O1 0.979417 0.303895 0.627581
O O2 0.700476 0.052110 0.723168
O O3 0.698136 0.939497 0.953647
O O4 0.000000 0.000000 0.500000
O O5 0.500000 0.500000 0.500000
O O6 0.623551 0.689875 0.186658
O O7 0.373441 0.749804 0.604440
O O8 0.210490 0.428491 0.607797
O O9 0.139594 0.669704 0.575445
O O10 0.811596 0.376210 0.001980
O O11 0.572033 0.959397 0.617019
O O12 0.968590 0.062040 0.272977
O O13 0.202025 0.930015 0.912539
#
# Coordination Sequence:
#
# PCOD8025041 Si02
#       6
#     2   2   2   2   2   2
#     4   9  22  44  71 100 137 177 227 280 338 407
#     4  12  26  44  69 102 139 182 231 281 337 403
#     4  11  24  45  68 104 139 176 233 275 342 407
#     4  11  23  46  73 102 138 179 224 279 346 402
#     4  10  23  44  68 101 135 182 221 277 338 399
#     4  11  25  44  71 100 142 178 225 279 340 402
#
# _framework density 22.970116000000001
#
# number of rings (size 3 to 8) (size 9 to 14) (size 15 to 20)
#    0.000    1.333    1.667    2.500    7.000    3.333 
#    3.000    1.667    0.000    0.000    0.000    0.000 
#    0.000    0.000    0.000    0.000    0.000    0.000 
#
# Total GULP energy -148747.878623 kJ/mol
# GULP energy per Si atom -12395.656552 kJ/mol
# Density = 2.291783 g / cm^3
# Si number density = 22.970116 Si / 1000 Ang^3
#
#
#
# Elastic Constant Matrix: (Units=GPa)
#
#
# Indices 1 2 3 4 5 6 
#
# 1 89.1516 22.1459 24.6709 -6.8856 7.9938 -13.3550
# 2 22.1459 62.9919 19.3403 2.1708 -5.6261 4.9070
# 3 24.6709 19.3403 108.0653 -11.3737 21.5603 -7.3680
# 4 -6.8856 2.1708 -11.3737 39.6272 -7.1878 2.9748
# 5 7.9938 -5.6261 21.5603 -7.1878 37.1291 -4.4711
# 6 -13.3550 4.9070 -7.3680 2.9748 -4.4711 36.5593
#
#
#
# Elastic Compliance Matrix: (Units=1/GPa)
#
#
# Indices 1 2 3 4 5 6 
#
# 1 0.013935 -0.005129 -0.001334 0.001556 -0.002084 0.005129
# 2 -0.005129 0.019803 -0.003970 -0.001775 0.005523 -0.004512
# 3 -0.001334 -0.003970 0.011916 0.002089 -0.006653 0.001463
# 4 0.001556 -0.001775 0.002089 0.026845 0.003313 -0.000551
# 5 -0.002084 0.005523 -0.006653 0.003313 0.032832 0.000902
# 6 0.005129 -0.004512 0.001463 -0.000551 0.000902 0.030282
#
#
# Mechanical properties :
#
#
# Convention : Reuss Voigt Hill
#
# Bulk Modulus (GPa) = 40.34104 43.61365 41.97734
# Shear Modulus (GPa) = 30.35073 35.59991 32.97532
#
# Velocity S-wave (km/s) = 3.63893 3.94107 3.79301
# Velocity P-wave (km/s) = 5.93770 6.30378 6.12348
#
# Compressibility (1/GPa) = 0.02478865
#
# Stress axis : x y z
#
# Youngs Moduli (GPa) = 71.75947 50.49785 83.92327
#
# Poissons Ratio (x) = 0.25899 0.11198
# Poissons Ratio (y) = 0.36804 0.33313
# Poissons Ratio (z) = 0.09575 0.20045
#
# Static dielectric constant tensor:
#      x y z
#    x 4.482140 0.124340 0.381040 
#    y 0.124340 4.341260 0.312890 
#    z 0.381040 0.312890 4.546310 
# 
# 
# High freq. dielectric constant tensor:
#      x y z
#    x 1.909000 -0.004890 0.011890 
#    y -0.004890 1.908660 0.008920 
#    z 0.011890 0.008920 1.917180 
# 
# From -- ./inp_files/264906.got.cif
#   From: 2010.06.25/outbox.cif.g09.slc.cpg/sg2_133_cif.got.tgz:264906.got - 2010.06.27 13:26:56.
