data_PCOD8025253
_publ_section_title
;
Structure prediction by ZEFSAII (Michael W. Deem and Ramdas Pophale) SiO2 
 PCOD8025253
Probable space group: P -1
;
_chemical_formula_sum "Si O2"
_cell_formula_units_Z 16
_cell_length_a 14.485315
_cell_length_b 14.471905
_cell_length_c 6.749676
_cell_angle_alpha 61.132071
_cell_angle_beta 74.567635
_cell_angle_gamma 39.597045
_cell_volume 775.439954
_symmetry_space_group_name_H-M "P -1"
_symmetry_group_IT_number 2
_symmetry_cell_setting 'triclinic'
loop_
_space_group_symop_operation_xyz
x,y,z
-x,-y,-z
loop_
_atom_site_type_symbol
_atom_site_label
_atom_site_fract_x
_atom_site_fract_y
_atom_site_fract_z
Si Si1 0.781985 0.497586 0.808153
Si Si2 0.549108 0.215456 0.374586
Si Si3 0.272625 0.957301 0.937771
Si Si4 0.219764 0.867514 0.412488
Si Si5 0.850527 0.650491 0.820052
Si Si6 0.920887 0.231837 0.313147
Si Si7 0.374918 0.033003 0.125902
Si Si8 0.987576 0.712099 0.440347
O O1 0.619483 0.604777 0.712680
O O2 0.771771 0.611276 0.828089
O O3 0.890145 0.430442 0.633974
O O4 0.843359 0.345409 0.048092
O O5 0.600209 0.158341 0.178265
O O6 0.647089 0.222400 0.418610
O O7 0.560092 0.095588 0.606627
O O8 0.113472 0.109012 0.771942
O O9 0.267851 0.852691 0.174751
O O10 0.303402 0.027089 0.996371
O O11 0.177544 0.781178 0.536239
O O12 0.085092 0.057168 0.348891
O O13 0.748470 0.789087 0.897796
O O14 0.881304 0.703619 0.564906
O O15 0.000000 0.500000 0.000000
O O16 0.927656 0.316699 0.385735
O O17 0.500000 0.000000 0.000000
#
# Coordination Sequence:
#
# PCOD8025253 Si02
#       8
#     2   2   2   2   2   2   2   2
#     4  12  27  41  65  98 134 169 211 267 325 376
#     4  11  25  44  64  97 134 167 212 266 323 383
#     4  11  21  42  69  93 125 172 216 261 314 383
#     4  10  23  44  71  94 127 167 215 272 318 378
#     4  12  24  42  65  93 135 172 212 266 312 377
#     4  11  23  44  68  99 126 164 221 269 314 382
#     4  11  25  40  62  95 132 171 215 257 317 384
#     4  12  23  42  67  96 129 168 219 260 316 384
#
# _framework density 20.633448000000001
#
# number of rings (size 3 to 8) (size 9 to 14) (size 15 to 20)
#    0.000    0.750    5.000    2.625    3.500    5.000 
#    0.000    1.250    0.000    0.000    0.000    0.000 
#    0.000    0.000    0.000    0.000    0.000    0.000 
#
# Total GULP energy -198513.541417 kJ/mol
# GULP energy per Si atom -12407.096339 kJ/mol
# Density = 2.058649 g / cm^3
# Si number density = 20.633448 Si / 1000 Ang^3
#
#
#
# Elastic Constant Matrix: (Units=GPa)
#
#
# Indices 1 2 3 4 5 6 
#
# 1 92.5391 22.1761 41.6057 -8.5490 -13.9227 -19.7199
# 2 22.1761 88.6538 40.8560 7.8726 -1.8569 -24.8904
# 3 41.6057 40.8560 117.6507 13.1055 -9.0220 -10.7181
# 4 -8.5490 7.8726 13.1055 37.7437 -9.8654 -0.3847
# 5 -13.9227 -1.8569 -9.0220 -9.8654 35.3332 -4.3377
# 6 -19.7199 -24.8904 -10.7181 -0.3847 -4.3377 33.0079
#
#
#
# Elastic Compliance Matrix: (Units=1/GPa)
#
#
# Indices 1 2 3 4 5 6 
#
# 1 0.017583 0.000604 -0.005710 0.008325 0.009103 0.010400
# 2 0.000604 0.016682 -0.004737 -0.001333 0.000946 0.011511
# 3 -0.005710 -0.004737 0.012336 -0.004911 -0.001111 -0.003181
# 4 0.008325 -0.001333 -0.004911 0.033502 0.011841 0.004320
# 5 0.009103 0.000946 -0.001111 0.011841 0.036274 0.010696
# 6 0.010400 0.011511 -0.003181 0.004320 0.010696 0.045612
#
#
# Mechanical properties :
#
#
# Convention : Reuss Voigt Hill
#
# Bulk Modulus (GPa) = 37.15223 56.45767 46.80495
# Shear Modulus (GPa) = 26.22647 34.16404 30.19525
#
# Velocity S-wave (km/s) = 3.56907 4.07352 3.82961
# Velocity P-wave (km/s) = 5.91855 7.03892 6.50291
#
# Compressibility (1/GPa) = 0.02691628
#
# Stress axis : x y z
#
# Youngs Moduli (GPa) = 56.87176 59.94589 81.06325
#
# Poissons Ratio (x) = -0.03622 0.46285
# Poissons Ratio (y) = -0.03437 0.38399
# Poissons Ratio (z) = 0.32472 0.28396
#
# Static dielectric constant tensor:
#      x y z
#    x 3.755420 -0.167130 -0.091390 
#    y -0.167130 3.472260 0.089520 
#    z -0.091390 0.089520 4.042070 
# 
# 
# High freq. dielectric constant tensor:
#      x y z
#    x 1.808400 -0.008550 -0.001230 
#    y -0.008550 1.801530 0.006530 
#    z -0.001230 0.006530 1.825000 
# 
# From -- ./inp_files/39769.got.cif
#   From: 2010.06.25/outbox.cif.g09.slc.cpg/sg2_20_cif.got.tgz:39769.got - 2010.06.27 13:26:56.
