data_PCOD8025344
_publ_section_title
;
Structure prediction by ZEFSAII (Michael W. Deem and Ramdas Pophale) SiO2 
 PCOD8025344
Probable space group: P -1
;
_chemical_formula_sum "Si O2"
_cell_formula_units_Z 16
_cell_length_a 11.248014
_cell_length_b 8.423102
_cell_length_c 8.431098
_cell_angle_alpha 116.267754
_cell_angle_beta 74.297022
_cell_angle_gamma 112.962996
_cell_volume 654.879503
_symmetry_space_group_name_H-M "P -1"
_symmetry_group_IT_number 2
_symmetry_cell_setting 'triclinic'
loop_
_space_group_symop_operation_xyz
x,y,z
-x,-y,-z
loop_
_atom_site_type_symbol
_atom_site_label
_atom_site_fract_x
_atom_site_fract_y
_atom_site_fract_z
Si Si1 0.866406 0.472781 0.448067
Si Si2 0.843749 0.568953 0.152660
Si Si3 0.722218 0.257002 0.834937
Si Si4 0.638890 0.506354 0.743458
Si Si5 0.626504 0.724855 0.392504
Si Si6 0.307959 0.120044 0.218909
Si Si7 0.988893 0.048272 0.843711
Si Si8 0.201946 0.898726 0.572900
O O1 0.897778 0.561346 0.304724
O O2 0.776552 0.559536 0.625318
O O3 0.793066 0.249509 0.358930
O O4 0.000000 0.500000 0.500000
O O5 0.703214 0.598876 0.227661
O O6 0.950871 0.729046 0.090991
O O7 0.823448 0.377436 0.980192
O O8 0.640100 0.389218 0.852773
O O9 0.802765 0.200641 0.639796
O O10 0.636184 0.058100 0.861209
O O11 0.525936 0.377499 0.616297
O O12 0.626601 0.717794 0.866698
O O13 0.665649 0.758322 0.576205
O O14 0.668436 0.925199 0.377120
O O15 0.156517 0.022884 0.197638
O O16 0.071942 0.956614 0.659479
O O17 0.000000 0.000000 0.000000
#
# Coordination Sequence:
#
# PCOD8025344 Si02
#       8
#     2   2   2   2   2   2   2   2
#     4  11  24  40  72 105 141 184 232 296 350 419
#     4  11  25  44  69 104 143 178 239 287 358 421
#     4  10  25  43  66 104 135 184 226 294 352 417
#     4  11  23  47  72  98 143 182 245 286 354 415
#     4  10  23  44  74  95 131 197 234 291 345 421
#     4  11  23  42  69  99 136 182 234 288 346 424
#     4  11  25  44  70 102 142 188 236 290 354 424
#     4   9  23  44  68  97 140 182 234 278 362 407
#
# _framework density 24.431972999999999
#
# number of rings (size 3 to 8) (size 9 to 14) (size 15 to 20)
#    0.000    1.500    1.250    1.875    7.000    9.000 
#    0.000    0.625    0.000    0.000    0.000    0.000 
#    0.000    0.000    0.000    0.000    0.000    0.000 
#
# Total GULP energy -198264.709939 kJ/mol
# GULP energy per Si atom -12391.544371 kJ/mol
# Density = 2.437636 g / cm^3
# Si number density = 24.431973 Si / 1000 Ang^3
#
#
#
# Elastic Constant Matrix: (Units=GPa)
#
#
# Indices 1 2 3 4 5 6 
#
# 1 78.3844 47.5504 20.9713 -4.7186 27.9712 -0.3377
# 2 47.5504 202.9126 34.6857 12.6533 10.1136 -37.6427
# 3 20.9713 34.6857 84.7018 9.7152 16.0327 -0.6922
# 4 -4.7186 12.6533 9.7152 36.3565 -5.7053 -0.3376
# 5 27.9712 10.1136 16.0327 -5.7053 28.6592 2.0179
# 6 -0.3377 -37.6427 -0.6922 -0.3376 2.0179 44.3279
#
#
#
# Elastic Compliance Matrix: (Units=1/GPa)
#
#
# Indices 1 2 3 4 5 6 
#
# 1 0.023180 -0.005118 -0.000015 0.001584 -0.020265 -0.003235
# 2 -0.005118 0.007664 -0.002028 -0.002336 0.002516 0.006305
# 3 -0.000015 -0.002028 0.014731 -0.004551 -0.008335 -0.001148
# 4 0.001584 -0.002336 -0.004551 0.030999 0.008149 -0.002178
# 5 -0.020265 0.002516 -0.008335 0.008149 0.060127 -0.000823
# 6 -0.003235 0.006305 -0.001148 -0.002178 -0.000823 0.027892
#
#
# Mechanical properties :
#
#
# Convention : Reuss Voigt Hill
#
# Bulk Modulus (GPa) = 31.99836 63.60153 47.79994
# Shear Modulus (GPa) = 26.40850 39.38814 32.89832
#
# Velocity S-wave (km/s) = 3.29127 4.01952 3.67349
# Velocity P-wave (km/s) = 5.25058 6.90150 6.13186
#
# Compressibility (1/GPa) = 0.03125160
#
# Stress axis : x y z
#
# Youngs Moduli (GPa) = 43.14148 130.47475 67.88484
#
# Poissons Ratio (x) = 0.66779 0.00104
# Poissons Ratio (y) = 0.22080 0.13768
# Poissons Ratio (z) = 0.00066 0.26462
#
# Static dielectric constant tensor:
#      x y z
#    x 4.198450 -0.493680 -0.042410 
#    y -0.493680 5.588540 0.134320 
#    z -0.042410 0.134320 4.102380 
# 
# 
# High freq. dielectric constant tensor:
#      x y z
#    x 1.953060 -0.019730 0.007440 
#    y -0.019730 2.004500 0.013780 
#    z 0.007440 0.013780 1.949530 
# 
# From -- ./inp_files/245484.got.cif
#   From: 2010.06.25/outbox.cif.g09.slc.cpg/sg2_123_cif.got.tgz:245484.got - 2010.06.27 13:26:56.
