data_PCOD8025264
_publ_section_title
;
Structure prediction by ZEFSAII (Michael W. Deem and Ramdas Pophale) SiO2 
 PCOD8025264
Probable space group: P -1
;
_chemical_formula_sum "Si O2"
_cell_formula_units_Z 16
_cell_length_a 9.698602
_cell_length_b 7.807205
_cell_length_c 13.780638
_cell_angle_alpha 136.527183
_cell_angle_beta 90.201223
_cell_angle_gamma 94.016681
_cell_volume 713.896337
_symmetry_space_group_name_H-M "P -1"
_symmetry_group_IT_number 2
_symmetry_cell_setting 'triclinic'
loop_
_space_group_symop_operation_xyz
x,y,z
-x,-y,-z
loop_
_atom_site_type_symbol
_atom_site_label
_atom_site_fract_x
_atom_site_fract_y
_atom_site_fract_z
Si Si1 0.296181 0.195521 0.010044
Si Si2 0.088458 0.199704 0.702052
Si Si3 0.603788 0.248035 0.791410
Si Si4 0.729944 0.969942 0.849262
Si Si5 0.312845 0.005961 0.732787
Si Si6 0.992608 0.329290 0.025563
Si Si7 0.797845 0.935643 0.553965
Si Si8 0.665100 0.537767 0.527011
O O1 0.389462 0.454813 0.094384
O O2 0.336141 0.073241 0.061671
O O3 0.135971 0.245372 0.028853
O O4 0.334690 0.002534 0.847671
O O5 0.063253 0.492685 0.816886
O O6 0.180007 0.107554 0.576857
O O7 0.179876 0.158296 0.780190
O O8 0.944277 0.026367 0.641498
O O9 0.653298 0.162629 0.862832
O O10 0.445557 0.138501 0.731280
O O11 0.694311 0.144807 0.662299
O O12 0.715367 0.697757 0.687182
O O13 0.889909 0.079165 0.905695
O O14 0.277824 0.729498 0.575937
O O15 0.000000 0.500000 0.000000
O O16 0.733015 0.673436 0.488726
O O17 0.500000 0.500000 0.500000
#
# Coordination Sequence:
#
# PCOD8025264 Si02
#       8
#     2   2   2   2   2   2   2   2
#     4  12  26  43  73 107 137 187 235 286 353 420
#     4  11  24  42  73 104 136 187 238 291 351 413
#     4  11  23  49  68  99 149 179 229 295 347 415
#     4  11  25  43  73  99 135 193 231 281 358 417
#     4  12  26  42  70 108 137 183 239 283 355 425
#     4  12  21  46  70  97 149 181 226 301 351 401
#     4  10  23  44  71  98 138 192 228 289 358 406
#     4  11  24  48  68  96 145 185 226 294 351 413
#
# _framework density 22.412219
#
# number of rings (size 3 to 8) (size 9 to 14) (size 15 to 20)
#    0.000    0.750    6.250    1.500    3.500    2.500 
#    0.000    0.000    0.000    0.000    0.000    0.000 
#    0.000    0.000    0.000    0.000    0.000    0.000 
#
# Total GULP energy -198412.172158 kJ/mol
# GULP energy per Si atom -12400.760760 kJ/mol
# Density = 2.236121 g / cm^3
# Si number density = 22.412219 Si / 1000 Ang^3
#
#
#
# Elastic Constant Matrix: (Units=GPa)
#
#
# Indices 1 2 3 4 5 6 
#
# 1 70.8396 12.0626 31.7849 19.6328 -1.0640 17.7335
# 2 12.0626 87.3600 37.9517 2.1898 7.0194 23.6442
# 3 31.7849 37.9517 132.0990 6.8146 3.7823 23.9357
# 4 19.6328 2.1898 6.8146 33.5007 17.2325 4.8027
# 5 -1.0640 7.0194 3.7823 17.2325 34.2468 3.8343
# 6 17.7335 23.6442 23.9357 4.8027 3.8343 26.1086
#
#
#
# Elastic Compliance Matrix: (Units=1/GPa)
#
#
# Indices 1 2 3 4 5 6 
#
# 1 0.023230 0.001047 -0.003088 -0.016769 0.010672 -0.012378
# 2 0.001047 0.016062 -0.002559 0.002018 -0.002547 -0.012908
# 3 -0.003088 -0.002559 0.009872 0.000964 -0.000618 -0.004722
# 4 -0.016769 0.002018 0.000964 0.053467 -0.028280 0.002997
# 5 0.010672 -0.002547 -0.000618 -0.028280 0.044999 -0.005782
# 6 -0.012378 -0.012908 -0.004722 0.002997 -0.005782 0.063025
#
#
# Mechanical properties :
#
#
# Convention : Reuss Voigt Hill
#
# Bulk Modulus (GPa) = 25.02257 50.43301 37.72779
# Shear Modulus (GPa) = 21.44303 32.67119 27.05711
#
# Velocity S-wave (km/s) = 3.09650 3.82218 3.47832
# Velocity P-wave (km/s) = 4.89626 6.48306 5.74471
#
# Compressibility (1/GPa) = 0.03996393
#
# Stress axis : x y z
#
# Youngs Moduli (GPa) = 43.04780 62.26060 101.29874
#
# Poissons Ratio (x) = -0.06518 0.31280
# Poissons Ratio (y) = -0.04506 0.25919
# Poissons Ratio (z) = 0.13293 0.15930
#
# Static dielectric constant tensor:
#      x y z
#    x 4.011820 0.198650 0.025310 
#    y 0.198650 3.946130 0.086340 
#    z 0.025310 0.086340 4.322490 
# 
# 
# High freq. dielectric constant tensor:
#      x y z
#    x 1.886770 0.016450 0.001810 
#    y 0.016450 1.869450 0.002870 
#    z 0.001810 0.002870 1.898780 
# 
# From -- ./inp_files/495861.got.cif
#   From: 2010.06.25/outbox.cif.g09.slc.cpg/sg2_248_cif.got.tgz:495861.got - 2010.06.27 13:26:56.
