data_PCOD8025899
_publ_section_title
;
Structure prediction by ZEFSAII (Michael W. Deem and Ramdas Pophale) SiO2 
 PCOD8025899
Probable space group: P -1
;
_chemical_formula_sum "Si O2"
_cell_formula_units_Z 12
_cell_length_a 8.498323
_cell_length_b 5.595068
_cell_length_c 15.290262
_cell_angle_alpha 66.630797
_cell_angle_beta 61.672619
_cell_angle_gamma 55.722069
_cell_volume 520.380742
_symmetry_space_group_name_H-M "P -1"
_symmetry_group_IT_number 2
_symmetry_cell_setting 'triclinic'
loop_
_space_group_symop_operation_xyz
x,y,z
-x,-y,-z
loop_
_atom_site_type_symbol
_atom_site_label
_atom_site_fract_x
_atom_site_fract_y
_atom_site_fract_z
Si Si1 0.081575 0.557401 0.558451
Si Si2 0.005740 0.244500 0.902284
Si Si3 0.922606 0.933685 0.282250
Si Si4 0.651245 0.579123 0.208437
Si Si5 0.774621 0.116508 0.642241
Si Si6 0.401379 0.351528 0.983159
O O1 0.192306 0.257084 0.630179
O O2 0.228314 0.695330 0.471309
O O3 0.000000 0.500000 0.500000
O O4 0.889527 0.776437 0.634940
O O5 0.975042 0.164326 0.824305
O O6 0.215363 0.251998 0.856971
O O7 0.822246 0.556432 0.933825
O O8 0.000000 0.000000 0.000000
O O9 0.107002 0.842511 0.313215
O O10 0.763514 0.276233 0.276655
O O11 0.452055 0.792066 0.282978
O O12 0.604556 0.515754 0.131215
O O13 0.500000 0.500000 0.000000
O O14 0.500000 0.000000 0.000000
#
# Coordination Sequence:
#
# PCOD8025899 Si02
#       6
#     2   2   2   2   2   2
#     4   9  21  45  74 100 144 182 233 303 365 449
#     4  12  26  48  67 105 152 190 248 305 364 438
#     4  11  24  44  73 103 144 191 238 300 364 438
#     4  12  27  43  73 106 144 190 248 305 362 446
#     4  10  23  46  72 107 139 187 239 296 375 433
#     4  12  28  47  74 105 147 203 251 307 373 438
#
# _framework density 23.060039
#
# number of rings (size 3 to 8) (size 9 to 14) (size 15 to 20)
#    0.000    1.000    1.667    3.500    7.000    3.333 
#    0.000   11.667    0.000    0.000    0.000    0.000 
#    0.000    0.000    0.000    0.000    0.000    0.000 
#
# Total GULP energy -148774.113380 kJ/mol
# GULP energy per Si atom -12397.842782 kJ/mol
# Density = 2.300755 g / cm^3
# Si number density = 23.060039 Si / 1000 Ang^3
#
#
#
# Elastic Constant Matrix: (Units=GPa)
#
#
# Indices 1 2 3 4 5 6 
#
# 1 95.7028 68.2468 63.0203 5.4338 -21.0289 -2.9121
# 2 68.2468 140.7279 75.4797 3.9648 -10.7310 5.2213
# 3 63.0203 75.4797 159.4177 -1.7373 -4.8380 -4.0665
# 4 5.4338 3.9648 -1.7373 64.2620 -2.8266 -4.7790
# 5 -21.0289 -10.7310 -4.8380 -2.8266 34.6182 6.9454
# 6 -2.9121 5.2213 -4.0665 -4.7790 6.9454 36.4800
#
#
#
# Elastic Compliance Matrix: (Units=1/GPa)
#
#
# Indices 1 2 3 4 5 6 
#
# 1 0.020418 -0.006660 -0.004635 -0.001011 0.009586 0.000109
# 2 -0.006660 0.012144 -0.003197 -0.000480 -0.000237 -0.002644
# 3 -0.004635 -0.003197 0.009590 0.000861 -0.002756 0.001794
# 4 -0.001011 -0.000480 0.000861 0.015867 0.000228 0.002119
# 5 0.009586 -0.000237 -0.002756 0.000228 0.035522 -0.006241
# 6 0.000109 -0.002644 0.001794 0.002119 -0.006241 0.029465
#
#
# Mechanical properties :
#
#
# Convention : Reuss Voigt Hill
#
# Bulk Modulus (GPa) = 75.94465 89.92690 82.93578
# Shear Modulus (GPa) = 31.97322 39.67881 35.82602
#
# Velocity S-wave (km/s) = 3.72764 4.15260 3.94585
# Velocity P-wave (km/s) = 7.17858 7.87868 7.53677
#
# Compressibility (1/GPa) = 0.01316748
#
# Stress axis : x y z
#
# Youngs Moduli (GPa) = 48.97630 82.34554 104.27085
#
# Poissons Ratio (x) = 0.54843 0.48335
# Poissons Ratio (y) = 0.32619 0.33333
# Poissons Ratio (z) = 0.22703 0.26324
#
# Static dielectric constant tensor:
#      x y z
#    x 4.072520 -0.189550 -0.080910 
#    y -0.189550 2.408050 -0.245330 
#    z -0.080910 -0.245330 5.225080 
# 
# 
# High freq. dielectric constant tensor:
#      x y z
#    x 1.890650 0.014550 0.011160 
#    y 0.014550 1.922220 -0.000550 
#    z 0.011160 -0.000550 1.935160 
# 
# From -- ./inp_files/30539.got.cif
#   From: 2010.06.25/outbox.cif.g09.slc.cpg/sg2_16_cif.got.tgz:30539.got - 2010.06.27 13:26:56.
