data_PCOD8025838
_publ_section_title
;
Structure prediction by ZEFSAII (Michael W. Deem and Ramdas Pophale) SiO2 
 PCOD8025838
Probable space group: P -1
;
_chemical_formula_sum "Si O2"
_cell_formula_units_Z 16
_cell_length_a 14.493072
_cell_length_b 9.335715
_cell_length_c 9.308754
_cell_angle_alpha 107.728055
_cell_angle_beta 105.666116
_cell_angle_gamma 37.487989
_cell_volume 729.249775
_symmetry_space_group_name_H-M "P -1"
_symmetry_group_IT_number 2
_symmetry_cell_setting 'triclinic'
loop_
_space_group_symop_operation_xyz
x,y,z
-x,-y,-z
loop_
_atom_site_type_symbol
_atom_site_label
_atom_site_fract_x
_atom_site_fract_y
_atom_site_fract_z
Si Si1 0.526709 0.581710 0.667111
Si Si2 0.064796 0.409899 0.659135
Si Si3 0.305032 0.328377 0.634939
Si Si4 0.612649 0.811822 0.678131
Si Si5 0.875530 0.191520 0.182784
Si Si6 0.193795 0.183752 0.114475
Si Si7 0.800575 0.983871 0.222046
Si Si8 0.204401 0.861411 0.156157
O O1 0.500000 0.500000 0.500000
O O2 0.554826 0.717994 0.668847
O O3 0.377876 0.762696 0.759561
O O4 0.672765 0.350027 0.745701
O O5 0.213354 0.331749 0.702534
O O6 0.000000 0.500000 0.500000
O O7 0.959780 0.595913 0.798830
O O8 0.124362 0.168608 0.645474
O O9 0.272568 0.340061 0.455531
O O10 0.258077 0.555057 0.718755
O O11 0.480691 0.087644 0.663959
O O12 0.702001 0.793519 0.832928
O O13 0.894880 0.014606 0.225130
O O14 0.819249 0.230137 0.008933
O O15 0.037120 0.082148 0.225855
O O16 0.264518 0.948460 0.148577
O O17 0.170246 0.179152 0.935929
#
# Coordination Sequence:
#
# PCOD8025838 Si02
#       8
#     2   2   2   2   2   2   2   2
#     4  12  28  46  68 102 144 184 233 288 343 420
#     4  12  24  45  70 100 138 181 232 287 345 410
#     4  11  23  43  69  98 136 180 231 281 340 409
#     4  11  26  43  68 103 135 182 228 284 344 411
#     4  10  23  46  70 100 139 181 230 285 346 411
#     4  11  25  45  72 102 140 180 232 287 344 412
#     4  11  27  45  69 106 139 184 229 289 349 408
#     4  10  25  43  70 101 137 185 229 282 348 413
#
# _framework density 21.940355
#
# number of rings (size 3 to 8) (size 9 to 14) (size 15 to 20)
#    0.000    1.000    3.750    1.125   10.500    2.500 
#    0.000    1.875    0.000    0.000    0.000    0.000 
#    0.000    0.000    0.000    0.000    0.000    0.000 
#
# Total GULP energy -198383.190485 kJ/mol
# GULP energy per Si atom -12398.949405 kJ/mol
# Density = 2.189042 g / cm^3
# Si number density = 21.940355 Si / 1000 Ang^3
#
#
#
# Elastic Constant Matrix: (Units=GPa)
#
#
# Indices 1 2 3 4 5 6 
#
# 1 100.5637 18.0542 44.4036 1.0768 6.4030 7.7568
# 2 18.0542 117.7432 61.3615 -5.1862 1.3719 0.3693
# 3 44.4036 61.3615 99.9744 3.6658 1.2448 -1.7796
# 4 1.0768 -5.1862 3.6658 43.7349 -0.0688 -8.2998
# 5 6.4030 1.3719 1.2448 -0.0688 28.4399 9.9359
# 6 7.7568 0.3693 -1.7796 -8.2998 9.9359 37.7352
#
#
#
# Elastic Compliance Matrix: (Units=1/GPa)
#
#
# Indices 1 2 3 4 5 6 
#
# 1 0.012943 0.001542 -0.006715 -0.000056 -0.001812 -0.002528
# 2 0.001542 0.012874 -0.008664 0.002168 -0.000499 -0.000243
# 3 -0.006715 -0.008664 0.018404 -0.002073 0.000510 0.001743
# 4 -0.000056 0.002168 -0.002073 0.024390 -0.001959 0.005773
# 5 -0.001812 -0.000499 0.000510 -0.001959 0.039181 -0.010346
# 6 -0.002528 -0.000243 0.001743 0.005773 -0.010346 0.031098
#
#
# Mechanical properties :
#
#
# Convention : Reuss Voigt Hill
#
# Bulk Modulus (GPa) = 60.44006 62.87999 61.66003
# Shear Modulus (GPa) = 29.05613 34.94613 32.00113
#
# Velocity S-wave (km/s) = 3.64307 3.99529 3.82324
# Velocity P-wave (km/s) = 6.73077 7.07141 6.90319
#
# Compressibility (1/GPa) = 0.01654532
#
# Stress axis : x y z
#
# Youngs Moduli (GPa) = 77.26055 77.67625 54.33729
#
# Poissons Ratio (x) = -0.11975 0.36489
# Poissons Ratio (y) = -0.11911 0.47078
# Poissons Ratio (z) = 0.51883 0.67299
#
# Static dielectric constant tensor:
#      x y z
#    x 4.074100 0.054690 -0.121400 
#    y 0.054690 3.980750 0.148150 
#    z -0.121400 0.148150 3.928130 
# 
# 
# High freq. dielectric constant tensor:
#      x y z
#    x 1.873150 0.002910 -0.007140 
#    y 0.002910 1.869990 0.011300 
#    z -0.007140 0.011300 1.858790 
# 
# From -- ./inp_files/205635.got.cif
#   From: 2010.06.25/outbox.cif.g09.slc.cpg/sg2_103_cif.got.tgz:205635.got - 2010.06.27 13:26:56.
