data_PCOD8025449
_publ_section_title
;
Structure prediction by ZEFSAII (Michael W. Deem and Ramdas Pophale) SiO2 
 PCOD8025449
Probable space group: P -1
;
_chemical_formula_sum "Si O2"
_cell_formula_units_Z 16
_cell_length_a 9.015057
_cell_length_b 6.272986
_cell_length_c 18.183723
_cell_angle_alpha 99.150297
_cell_angle_beta 131.573413
_cell_angle_gamma 85.063838
_cell_volume 759.234002
_symmetry_space_group_name_H-M "P -1"
_symmetry_group_IT_number 2
_symmetry_cell_setting 'triclinic'
loop_
_space_group_symop_operation_xyz
x,y,z
-x,-y,-z
loop_
_atom_site_type_symbol
_atom_site_label
_atom_site_fract_x
_atom_site_fract_y
_atom_site_fract_z
Si Si1 0.290628 0.430308 0.300134
Si Si2 0.921499 0.677569 0.924507
Si Si3 0.000328 0.728327 0.286032
Si Si4 0.722532 0.002209 0.978939
Si Si5 0.010466 0.228269 0.553602
Si Si6 0.308048 0.098458 0.404019
Si Si7 0.615614 0.723094 0.070291
Si Si8 0.281385 0.429265 0.537615
O O1 0.196610 0.431414 0.187953
O O2 0.358557 0.206295 0.347179
O O3 0.486312 0.582415 0.369737
O O4 0.138525 0.522048 0.314797
O O5 0.098369 0.819571 0.953462
O O6 0.000000 0.500000 0.000000
O O7 0.761118 0.832840 0.917393
O O8 0.911847 0.784230 0.338962
O O9 0.814084 0.662818 0.172190
O O10 0.134100 0.931307 0.314719
O O11 0.697572 0.864627 0.037097
O O12 0.520383 0.134643 0.912439
O O13 0.169172 0.377331 0.572952
O O14 0.791404 0.330278 0.492936
O O15 0.000000 0.000000 0.500000
O O16 0.221634 0.266234 0.443688
O O17 0.500000 0.000000 0.500000
O O18 0.500000 0.500000 0.000000
#
# Coordination Sequence:
#
# PCOD8025449 Si02
#       8
#     2   2   2   2   2   2   2   2
#     4  12  25  41  69  99 129 177 231 269 340 407
#     4  11  24  45  70  99 138 177 224 291 338 404
#     4  12  24  41  69  96 129 180 225 269 345 399
#     4  10  23  45  67  96 139 173 225 280 343 397
#     4  11  24  42  62  92 136 175 216 280 334 397
#     4  12  23  43  68  97 136 173 224 284 328 401
#     4  11  24  44  69 100 136 179 226 283 339 409
#     4  11  24  42  62  95 133 171 220 277 332 397
#
# _framework density 21.073874
#
# number of rings (size 3 to 8) (size 9 to 14) (size 15 to 20)
#    0.000    0.750    3.750    4.125    0.000    5.000 
#    0.000    0.000    0.000    0.000    0.000    0.000 
#    0.000    0.000    0.000    0.000    0.000    0.000 
#
# Total GULP energy -198267.142562 kJ/mol
# GULP energy per Si atom -12391.696410 kJ/mol
# Density = 2.102591 g / cm^3
# Si number density = 21.073874 Si / 1000 Ang^3
#
#
#
# Elastic Constant Matrix: (Units=GPa)
#
#
# Indices 1 2 3 4 5 6 
#
# 1 116.7255 39.9711 43.5834 -3.6209 6.3537 -3.4891
# 2 39.9711 112.8931 51.0786 0.1538 4.2965 -5.4110
# 3 43.5834 51.0786 129.3477 3.6944 9.6723 7.8343
# 4 -3.6209 0.1538 3.6944 33.6379 1.7837 -1.4518
# 5 6.3537 4.2965 9.6723 1.7837 36.5413 -0.2986
# 6 -3.4891 -5.4110 7.8343 -1.4518 -0.2986 47.2090
#
#
#
# Elastic Compliance Matrix: (Units=1/GPa)
#
#
# Indices 1 2 3 4 5 6 
#
# 1 0.010508 -0.002465 -0.002601 0.001518 -0.000915 0.000967
# 2 -0.002465 0.011556 -0.003853 0.000177 0.000096 0.001788
# 3 -0.002601 -0.003853 0.010452 -0.001419 -0.001812 -0.002423
# 4 0.001518 0.000177 -0.001419 0.030175 -0.001372 0.001287
# 5 -0.000915 0.000096 -0.001812 -0.001372 0.028064 0.000379
# 6 0.000967 0.001788 -0.002423 0.001287 0.000379 0.021903
#
#
# Mechanical properties :
#
#
# Convention : Reuss Voigt Hill
#
# Bulk Modulus (GPa) = 68.12911 69.80363 68.96637
# Shear Modulus (GPa) = 36.93090 38.43320 37.68205
#
# Velocity S-wave (km/s) = 4.19077 4.27516 4.23317
# Velocity P-wave (km/s) = 7.47098 7.58713 7.52928
#
# Compressibility (1/GPa) = 0.01467801
#
# Stress axis : x y z
#
# Youngs Moduli (GPa) = 95.16547 86.53629 95.67616
#
# Poissons Ratio (x) = 0.21328 0.24884
# Poissons Ratio (y) = 0.23455 0.36868
# Poissons Ratio (z) = 0.24751 0.33346
#
# Static dielectric constant tensor:
#      x y z
#    x 4.269200 -0.034060 -0.173860 
#    y -0.034060 4.117080 -0.155960 
#    z -0.173860 -0.155960 3.927160 
# 
# 
# High freq. dielectric constant tensor:
#      x y z
#    x 1.844380 -0.004090 -0.001040 
#    y -0.004090 1.840120 -0.001920 
#    z -0.001040 -0.001920 1.811150 
# 
# From -- ./inp_files/37340.got.cif
#   From: 2010.06.25/outbox.cif.g09.slc.cpg/sg2_19_cif.got.tgz:37340.got - 2010.06.27 13:26:56.
