data_PCOD8025837
_publ_section_title
;
Structure prediction by ZEFSAII (Michael W. Deem and Ramdas Pophale) SiO2 
 PCOD8025837
Probable space group: P -1
;
_chemical_formula_sum "Si O2"
_cell_formula_units_Z 16
_cell_length_a 8.492229
_cell_length_b 17.911222
_cell_length_c 5.963513
_cell_angle_alpha 133.643287
_cell_angle_beta 97.169304
_cell_angle_gamma 78.014245
_cell_volume 641.884097
_symmetry_space_group_name_H-M "P -1"
_symmetry_group_IT_number 2
_symmetry_cell_setting 'triclinic'
loop_
_space_group_symop_operation_xyz
x,y,z
-x,-y,-z
loop_
_atom_site_type_symbol
_atom_site_label
_atom_site_fract_x
_atom_site_fract_y
_atom_site_fract_z
Si Si1 0.475631 0.775322 0.351504
Si Si2 0.240246 0.958210 0.527040
Si Si3 0.299850 0.662420 0.407373
Si Si4 0.860112 0.477520 0.208695
Si Si5 0.059792 0.068639 0.342185
Si Si6 0.425970 0.401123 0.351232
Si Si7 0.228498 0.167154 0.229818
Si Si8 0.984402 0.341775 0.345832
O O1 0.405177 0.874833 0.390604
O O2 0.317758 0.746469 0.391360
O O3 0.601679 0.802525 0.612409
O O4 0.563833 0.681769 0.019241
O O5 0.087211 0.900854 0.445202
O O6 0.213051 0.001988 0.360867
O O7 0.258727 0.051856 0.892853
O O8 0.475967 0.644740 0.508971
O O9 0.165173 0.701582 0.652679
O O10 0.254652 0.556424 0.072129
O O11 0.758786 0.558573 0.535760
O O12 0.944872 0.374156 0.146479
O O13 0.983936 0.552214 0.295555
O O14 0.118898 0.167789 0.438284
O O15 0.000000 0.000000 0.000000
O O16 0.500000 0.500000 0.500000
O O17 0.138830 0.249522 0.202356
#
# Coordination Sequence:
#
# PCOD8025837 Si02
#       8
#     2   2   2   2   2   2   2   2
#     4  12  27  43  70 102 137 182 227 277 342 401
#     4  10  23  46  70 100 136 177 226 277 330 407
#     4  12  24  43  71  95 136 178 226 278 342 404
#     4  11  25  45  67  97 137 177 230 281 339 403
#     4   9  21  42  71  96 138 172 222 276 335 393
#     4  12  25  44  65  99 137 178 227 277 337 405
#     4  11  25  43  67 102 137 178 225 277 337 400
#     4  11  25  42  68 100 131 175 230 283 337 398
#
# _framework density 24.926618999999999
#
# number of rings (size 3 to 8) (size 9 to 14) (size 15 to 20)
#    0.000    1.000    2.500    2.625    1.750   13.500 
#    0.000    0.000    0.000    0.000    0.000    0.000 
#    0.000    0.000    0.000    0.000    0.000    0.000 
#
# Total GULP energy -198369.695289 kJ/mol
# GULP energy per Si atom -12398.105956 kJ/mol
# Density = 2.486989 g / cm^3
# Si number density = 24.926619 Si / 1000 Ang^3
#
#
#
# Elastic Constant Matrix: (Units=GPa)
#
#
# Indices 1 2 3 4 5 6 
#
# 1 81.7170 29.4661 14.7781 6.8987 16.0744 -8.7649
# 2 29.4661 117.0950 14.0887 7.8377 0.3042 -17.2924
# 3 14.7781 14.0887 74.2684 5.1287 12.4746 -5.7634
# 4 6.8987 7.8377 5.1287 30.4583 -6.2353 1.7441
# 5 16.0744 0.3042 12.4746 -6.2353 33.6166 3.6476
# 6 -8.7649 -17.2924 -5.7634 1.7441 3.6476 50.4683
#
#
#
# Elastic Compliance Matrix: (Units=1/GPa)
#
#
# Indices 1 2 3 4 5 6 
#
# 1 0.015792 -0.003233 -0.000633 -0.004485 -0.008371 0.002323
# 2 -0.003233 0.009989 -0.001157 -0.001529 0.001310 0.002687
# 3 -0.000633 -0.001157 0.015229 -0.003492 -0.006181 0.001800
# 4 -0.004485 -0.001529 -0.003492 0.037250 0.010772 -0.003767
# 5 -0.008371 0.001310 -0.006181 0.010772 0.038558 -0.004870
# 6 0.002323 0.002687 0.001800 -0.003767 -0.004870 0.021826
#
#
# Mechanical properties :
#
#
# Convention : Reuss Voigt Hill
#
# Bulk Modulus (GPa) = 32.29643 43.30510 37.80077
# Shear Modulus (GPa) = 31.44419 37.22514 34.33467
#
# Velocity S-wave (km/s) = 3.55557 3.86863 3.71540
# Velocity P-wave (km/s) = 5.46268 6.11276 5.79684
#
# Compressibility (1/GPa) = 0.03096317
#
# Stress axis : x y z
#
# Youngs Moduli (GPa) = 63.32344 100.11409 65.66320
#
# Poissons Ratio (x) = 0.32365 0.04157
# Poissons Ratio (y) = 0.20471 0.07600
# Poissons Ratio (z) = 0.04009 0.11588
#
# Static dielectric constant tensor:
#      x y z
#    x 0.355430 4.029390 -1.406260 
#    y 4.029390 -0.273720 2.198000 
#    z -1.406260 2.198000 3.036670 
# 
# 
# High freq. dielectric constant tensor:
#      x y z
#    x 1.994230 0.004130 0.020370 
#    y 0.004130 2.004380 -0.006500 
#    z 0.020370 -0.006500 1.975860 
# 
# From -- ./inp_files/49396.got.cif
#   From: 2010.06.25/outbox.cif.g09.slc.cpg/sg2_25_cif.got.tgz:49396.got - 2010.06.27 13:26:56.
