data_PCOD8025235
_publ_section_title
;
Structure prediction by ZEFSAII (Michael W. Deem and Ramdas Pophale) SiO2 
 PCOD8025235
Probable space group: P -1
;
_chemical_formula_sum "Si O2"
_cell_formula_units_Z 16
_cell_length_a 9.388444
_cell_length_b 17.720025
_cell_length_c 11.477708
_cell_angle_alpha 150.199893
_cell_angle_beta 133.630642
_cell_angle_gamma 53.840334
_cell_volume 686.658343
_symmetry_space_group_name_H-M "P -1"
_symmetry_group_IT_number 2
_symmetry_cell_setting 'triclinic'
loop_
_space_group_symop_operation_xyz
x,y,z
-x,-y,-z
loop_
_atom_site_type_symbol
_atom_site_label
_atom_site_fract_x
_atom_site_fract_y
_atom_site_fract_z
Si Si1 0.197813 0.014554 0.057134
Si Si2 0.442194 0.109869 0.771024
Si Si3 0.749240 0.190121 0.765922
Si Si4 0.729847 0.467161 0.572788
Si Si5 0.082968 0.223419 0.834360
Si Si6 0.473630 0.283260 0.534054
Si Si7 0.205074 0.795593 0.565101
Si Si8 0.650134 0.387431 0.170333
O O1 0.355891 0.918488 0.087472
O O2 0.270634 0.189848 0.319025
O O3 0.172256 0.950116 0.825475
O O4 0.000000 0.000000 0.000000
O O5 0.281974 0.130683 0.811109
O O6 0.364163 0.963254 0.455704
O O7 0.465196 0.266140 0.920133
O O8 0.610667 0.280615 0.721046
O O9 0.948541 0.142026 0.748607
O O10 0.796759 0.304896 0.052806
O O11 0.500000 0.500000 0.500000
O O12 0.799953 0.339202 0.526473
O O13 0.769820 0.416158 0.394598
O O14 0.869493 0.609225 0.869026
O O15 0.976009 0.230374 0.659116
O O16 0.586798 0.203337 0.384032
O O17 0.433961 0.457784 0.718909
#
# Coordination Sequence:
#
# PCOD8025235 Si02
#       8
#     2   2   2   2   2   2   2   2
#     4  11  25  46  70 104 143 180 234 290 354 416
#     4  11  23  48  72  98 140 186 230 285 349 420
#     4  10  25  43  69 107 141 181 236 288 350 406
#     4  12  22  43  70 104 139 189 236 283 352 409
#     4  11  24  43  70 103 137 185 240 286 340 422
#     4  10  23  44  71 103 142 189 229 285 349 419
#     4  11  22  44  70 102 139 189 236 287 342 419
#     4  12  23  43  72  99 143 185 227 292 348 405
#
# _framework density 23.301254
#
# number of rings (size 3 to 8) (size 9 to 14) (size 15 to 20)
#    0.000    1.000    3.750    1.875    0.000    5.500 
#    4.500    0.000    0.000    0.000    0.000    0.000 
#    0.000    0.000    0.000    0.000    0.000    0.000 
#
# Total GULP energy -198421.067183 kJ/mol
# GULP energy per Si atom -12401.316699 kJ/mol
# Density = 2.324822 g / cm^3
# Si number density = 23.301254 Si / 1000 Ang^3
#
#
#
# Elastic Constant Matrix: (Units=GPa)
#
#
# Indices 1 2 3 4 5 6 
#
# 1 142.7614 44.1668 52.6871 0.2405 -2.7539 -12.1364
# 2 44.1668 87.9936 45.2664 15.4030 11.4993 0.6342
# 3 52.6871 45.2664 141.2528 7.5819 -2.9759 4.0327
# 4 0.2405 15.4030 7.5819 38.5897 8.9609 5.3049
# 5 -2.7539 11.4993 -2.9759 8.9609 48.4523 -0.7541
# 6 -12.1364 0.6342 4.0327 5.3049 -0.7541 31.9344
#
#
#
# Elastic Compliance Matrix: (Units=1/GPa)
#
#
# Indices 1 2 3 4 5 6 
#
# 1 0.009443 -0.003874 -0.002428 0.001175 0.001149 0.003804
# 2 -0.003874 0.016502 -0.003632 -0.004965 -0.003451 -0.000598
# 3 -0.002428 -0.003632 0.009254 -0.000399 0.001336 -0.001921
# 4 0.001175 -0.004965 -0.000399 0.029577 -0.004318 -0.004420
# 5 0.001149 -0.003451 0.001336 -0.004318 0.022428 0.001583
# 6 0.003804 -0.000598 -0.001921 -0.004420 0.001583 0.033786
#
#
# Mechanical properties :
#
#
# Convention : Reuss Voigt Hill
#
# Bulk Modulus (GPa) = 65.23307 72.91649 69.07478
# Shear Modulus (GPa) = 34.25390 39.12112 36.68751
#
# Velocity S-wave (km/s) = 3.83828 4.10192 3.97228
# Velocity P-wave (km/s) = 6.90648 7.33452 7.12372
#
# Compressibility (1/GPa) = 0.01532965
#
# Stress axis : x y z
#
# Youngs Moduli (GPa) = 105.89989 60.59919 108.06423
#
# Poissons Ratio (x) = 0.23474 0.26241
# Poissons Ratio (y) = 0.41022 0.39254
# Poissons Ratio (z) = 0.25715 0.22012
#
# Static dielectric constant tensor:
#      x y z
#    x 4.388680 0.186750 -0.035300 
#    y 0.186750 4.060810 0.046060 
#    z -0.035300 0.046060 4.472630 
# 
# 
# High freq. dielectric constant tensor:
#      x y z
#    x 1.926400 0.010110 -0.005220 
#    y 0.010110 1.913200 0.008680 
#    z -0.005220 0.008680 1.937230 
# 
# From -- ./inp_files/403657.got.cif
#   From: 2010.06.25/outbox.cif.g09.slc.cpg/sg2_202_cif.got.tgz:403657.got - 2010.06.27 13:26:56.
