data_PCOD8025869
_publ_section_title
;
Structure prediction by ZEFSAII (Michael W. Deem and Ramdas Pophale) SiO2 
 PCOD8025869
Probable space group: P -1
;
_chemical_formula_sum "Si O2"
_cell_formula_units_Z 16
_cell_length_a 6.834632
_cell_length_b 16.066619
_cell_length_c 17.608542
_cell_angle_alpha 149.949253
_cell_angle_beta 47.989604
_cell_angle_gamma 129.112821
_cell_volume 712.513806
_symmetry_space_group_name_H-M "P -1"
_symmetry_group_IT_number 2
_symmetry_cell_setting 'triclinic'
loop_
_space_group_symop_operation_xyz
x,y,z
-x,-y,-z
loop_
_atom_site_type_symbol
_atom_site_label
_atom_site_fract_x
_atom_site_fract_y
_atom_site_fract_z
Si Si1 0.232909 0.588953 0.958427
Si Si2 0.282314 0.941550 0.298170
Si Si3 0.749221 0.415331 0.695811
Si Si4 0.372459 0.157518 0.182126
Si Si5 0.799389 0.217852 0.374035
Si Si6 0.763134 0.103375 0.548493
Si Si7 0.790768 0.436169 0.226925
Si Si8 0.508934 0.651495 0.558355
O O1 0.464218 0.473023 0.808342
O O2 0.123856 0.586847 0.899400
O O3 0.327347 0.779273 0.109085
O O4 0.000000 0.500000 0.000000
O O5 0.248318 0.882547 0.346949
O O6 0.541449 0.078638 0.333286
O O7 0.022925 0.014994 0.391050
O O8 0.831482 0.330174 0.529981
O O9 0.767638 0.289260 0.661497
O O10 0.960635 0.579952 0.793646
O O11 0.526342 0.311120 0.216347
O O12 0.400940 0.179974 0.283725
O O13 0.060800 0.131647 0.223474
O O14 0.500000 0.000000 0.000000
O O15 0.770397 0.335153 0.400476
O O16 0.500000 0.000000 0.500000
O O17 0.715360 0.623167 0.414266
O O18 0.500000 0.500000 0.500000
#
# Coordination Sequence:
#
# PCOD8025869 Si02
#       8
#     2   2   2   2   2   2   2   2
#     4  12  28  47  71 110 150 191 246 315 365 433
#     4  11  27  43  72 110 148 191 250 308 368 440
#     4  12  25  44  78 105 143 199 249 299 369 447
#     4  11  28  47  71 108 148 192 245 309 372 439
#     4  12  25  45  77 107 146 196 248 304 377 447
#     4  11  23  45  73 104 148 197 247 299 375 443
#     4  11  25  47  72 101 148 193 245 297 365 442
#     4  10  23  46  71 102 139 188 247 296 360 440
#
# _framework density 22.455705999999999
#
# number of rings (size 3 to 8) (size 9 to 14) (size 15 to 20)
#    0.000    0.750    3.750    2.250    5.250    7.500 
#    0.000    0.000    0.000    0.000    0.000    0.000 
#    0.000    0.000    0.000    0.000    0.000    0.000 
#
# Total GULP energy -198329.507538 kJ/mol
# GULP energy per Si atom -12395.594221 kJ/mol
# Density = 2.240460 g / cm^3
# Si number density = 22.455706 Si / 1000 Ang^3
#
#
#
# Elastic Constant Matrix: (Units=GPa)
#
#
# Indices 1 2 3 4 5 6 
#
# 1 152.7326 50.3197 59.4022 -4.3446 1.7239 10.0790
# 2 50.3197 90.6638 39.4191 -6.7032 2.0938 16.0912
# 3 59.4022 39.4191 157.2985 -8.0610 9.0457 1.6619
# 4 -4.3446 -6.7032 -8.0610 31.6715 2.2579 -2.8056
# 5 1.7239 2.0938 9.0457 2.2579 48.3097 -6.4086
# 6 10.0790 16.0912 1.6619 -2.8056 -6.4086 44.9254
#
#
#
# Elastic Compliance Matrix: (Units=1/GPa)
#
#
# Indices 1 2 3 4 5 6 
#
# 1 0.008731 -0.003745 -0.002380 -0.000263 0.000241 -0.000511
# 2 -0.003745 0.014985 -0.002158 0.001770 -0.000785 -0.004449
# 3 -0.002380 -0.002158 0.007931 0.001406 -0.001250 0.000923
# 4 -0.000263 0.001770 0.001406 0.032494 -0.001695 0.001160
# 5 0.000241 -0.000785 -0.001250 -0.001695 0.021467 0.003230
# 6 -0.000511 -0.004449 0.000923 0.001160 0.003230 0.024466
#
#
# Mechanical properties :
#
#
# Convention : Reuss Voigt Hill
#
# Bulk Modulus (GPa) = 66.31342 77.66409 71.98876
# Shear Modulus (GPa) = 37.97421 41.75158 39.86290
#
# Velocity S-wave (km/s) = 4.11673 4.31662 4.21786
# Velocity P-wave (km/s) = 7.22436 7.71394 7.47316
#
# Compressibility (1/GPa) = 0.01507990
#
# Stress axis : x y z
#
# Youngs Moduli (GPa) = 114.54016 66.73271 126.08191
#
# Poissons Ratio (x) = 0.24990 0.30014
# Poissons Ratio (y) = 0.42894 0.27211
# Poissons Ratio (z) = 0.27266 0.14402
#
# Static dielectric constant tensor:
#      x y z
#    x 4.090280 -0.266660 -0.414160 
#    y -0.266660 3.802970 -0.624180 
#    z -0.414160 -0.624180 3.543470 
# 
# 
# High freq. dielectric constant tensor:
#      x y z
#    x 1.904740 0.006540 0.008670 
#    y 0.006540 1.884930 -0.006070 
#    z 0.008670 -0.006070 1.888410 
# 
# From -- ./inp_files/47967.got.cif
#   From: 2010.06.25/outbox.cif.g09.slc.cpg/sg2_24_cif.got.tgz:47967.got - 2010.06.27 13:26:56.
