data_PCOD8025528
_publ_section_title
;
Structure prediction by ZEFSAII (Michael W. Deem and Ramdas Pophale) SiO2 
 PCOD8025528
Probable space group: P -1
;
_chemical_formula_sum "Si O2"
_cell_formula_units_Z 16
_cell_length_a 14.403293
_cell_length_b 13.615031
_cell_length_c 13.058310
_cell_angle_alpha 149.403338
_cell_angle_beta 142.666375
_cell_angle_gamma 29.361383
_cell_volume 628.642571
_symmetry_space_group_name_H-M "P -1"
_symmetry_group_IT_number 2
_symmetry_cell_setting 'triclinic'
loop_
_space_group_symop_operation_xyz
x,y,z
-x,-y,-z
loop_
_atom_site_type_symbol
_atom_site_label
_atom_site_fract_x
_atom_site_fract_y
_atom_site_fract_z
Si Si1 0.060190 0.655136 0.778814
Si Si2 0.475434 0.235939 0.724369
Si Si3 0.911891 0.161330 0.376343
Si Si4 0.009946 0.739012 0.205231
Si Si5 0.843805 0.025984 0.763632
Si Si6 0.106315 0.393620 0.220943
Si Si7 0.407860 0.856484 0.025302
Si Si8 0.326423 0.237281 0.001254
O O1 0.260353 0.473347 0.732092
O O2 0.022502 0.522371 0.712657
O O3 0.034550 0.880057 0.013584
O O4 0.902097 0.788606 0.668263
O O5 0.617846 0.244014 0.779694
O O6 0.533473 0.240810 0.895946
O O7 0.500000 0.000000 0.500000
O O8 0.852281 0.414094 0.595118
O O9 0.980554 0.989438 0.383164
O O10 0.732328 0.200169 0.195667
O O11 0.102560 0.046664 0.372110
O O12 0.225565 0.496539 0.207407
O O13 0.985427 0.649864 0.993345
O O14 0.844042 0.793606 0.187683
O O15 0.310211 0.140380 0.197093
O O16 0.601019 0.734012 0.017224
O O17 0.500000 0.000000 0.000000
#
# Coordination Sequence:
#
# PCOD8025528 Si02
#       8
#     2   2   2   2   2   2   2   2
#     4  11  22  42  63  90 133 177 226 276 326 390
#     4  12  26  41  64  99 133 178 229 274 334 403
#     4  11  23  41  70  98 138 182 223 277 341 394
#     4  10  23  45  69 103 133 173 228 274 341 403
#     4  11  22  41  63  93 131 177 223 276 329 389
#     4  11  21  42  70  95 138 183 221 279 334 396
#     4  11  23  45  66 100 136 174 230 277 338 401
#     4  11  21  44  80  95 135 183 214 282 347 397
#
# _framework density 25.451665999999999
#
# number of rings (size 3 to 8) (size 9 to 14) (size 15 to 20)
#    0.000    1.000    6.250    2.625    1.750    1.000 
#    0.000    7.500    0.000    0.000    0.000    0.000 
#    0.000    0.000    0.000    0.000    0.000    0.000 
#
# Total GULP energy -198279.966868 kJ/mol
# GULP energy per Si atom -12392.497929 kJ/mol
# Density = 2.539374 g / cm^3
# Si number density = 25.451666 Si / 1000 Ang^3
#
#
#
# Elastic Constant Matrix: (Units=GPa)
#
#
# Indices 1 2 3 4 5 6 
#
# 1 159.5940 12.7749 20.1552 -9.1852 -4.1506 -33.9214
# 2 12.7749 98.7592 11.1538 17.7449 5.5184 -26.0389
# 3 20.1552 11.1538 63.8477 1.7905 11.3519 6.7429
# 4 -9.1852 17.7449 1.7905 29.6562 13.9251 0.8511
# 5 -4.1506 5.5184 11.3519 13.9251 40.7316 9.8150
# 6 -33.9214 -26.0389 6.7429 0.8511 9.8150 44.7978
#
#
#
# Elastic Compliance Matrix: (Units=1/GPa)
#
#
# Indices 1 2 3 4 5 6 
#
# 1 0.008356 0.000909 -0.003491 0.002494 -0.000970 0.007547
# 2 0.000909 0.014542 -0.003565 -0.008280 -0.000447 0.009933
# 3 -0.003491 -0.003565 0.018781 0.002089 -0.004217 -0.006658
# 4 0.002494 -0.008280 0.002089 0.046308 -0.014828 -0.000870
# 5 -0.000970 -0.000447 -0.004217 -0.014828 0.032491 -0.007196
# 6 0.007547 0.009933 -0.006658 -0.000870 -0.007196 0.036406
#
#
# Mechanical properties :
#
#
# Convention : Reuss Voigt Hill
#
# Bulk Modulus (GPa) = 34.02934 45.59655 39.81294
# Shear Modulus (GPa) = 27.93697 41.57825 34.75761
#
# Velocity S-wave (km/s) = 3.31667 4.04619 3.69945
# Velocity P-wave (km/s) = 5.29776 6.30735 5.82447
#
# Compressibility (1/GPa) = 0.02938641
#
# Stress axis : x y z
#
# Youngs Moduli (GPa) = 119.66961 68.76512 53.24391
#
# Poissons Ratio (x) = -0.06252 0.18589
# Poissons Ratio (y) = -0.10881 0.18981
# Poissons Ratio (z) = 0.41780 0.24514
#
# Static dielectric constant tensor:
#      x y z
#    x 5.024560 0.050210 0.127970 
#    y 0.050210 5.001030 0.350470 
#    z 0.127970 0.350470 4.530880 
# 
# 
# High freq. dielectric constant tensor:
#      x y z
#    x 2.034670 0.000750 -0.003200 
#    y 0.000750 2.013060 0.022540 
#    z -0.003200 0.022540 2.008260 
# 
# From -- ./inp_files/533940.got.cif
#   From: 2010.06.25/outbox.cif.g09.slc.cpg/sg2_267_cif.got.tgz:533940.got - 2010.06.27 13:26:56.
