data_PCOD8025124
_publ_section_title
;
Structure prediction by ZEFSAII (Michael W. Deem and Ramdas Pophale) SiO2 
 PCOD8025124
Probable space group: P -1
;
_chemical_formula_sum "Si O2"
_cell_formula_units_Z 14
_cell_length_a 11.813053
_cell_length_b 9.529169
_cell_length_c 8.628828
_cell_angle_alpha 42.298613
_cell_angle_beta 113.680342
_cell_angle_gamma 117.434006
_cell_volume 577.169736
_symmetry_space_group_name_H-M "P -1"
_symmetry_group_IT_number 2
_symmetry_cell_setting 'triclinic'
loop_
_space_group_symop_operation_xyz
x,y,z
-x,-y,-z
loop_
_atom_site_type_symbol
_atom_site_label
_atom_site_fract_x
_atom_site_fract_y
_atom_site_fract_z
Si Si1 0.353958 0.700640 0.979050
Si Si2 0.249741 0.660482 0.298264
Si Si3 0.416317 0.016454 0.291130
Si Si4 0.004545 0.293306 0.775656
Si Si5 0.144968 0.913029 0.615620
Si Si6 0.766956 0.736202 0.871104
Si Si7 0.092144 0.189110 0.609621
O O1 0.318849 0.699709 0.139572
O O2 0.340334 0.462972 0.098422
O O3 0.497213 0.845215 0.910452
O O4 0.257653 0.801195 0.744560
O O5 0.208246 0.404044 0.520789
O O6 0.128589 0.767014 0.152398
O O7 0.353478 0.775089 0.390499
O O8 0.303487 0.128703 0.170137
O O9 0.500000 0.000000 0.500000
O O10 0.021006 0.114413 0.799198
O O11 0.000000 0.500000 0.500000
O O12 0.127590 0.349858 0.907827
O O13 0.009428 0.753297 0.616141
O O14 0.162666 0.123420 0.347241
O O15 0.141557 0.992467 0.727158
#
# Coordination Sequence:
#
# PCOD8025124 Si02
#       7
#     2   2   2   2   2   2   2
#     4  12  26  48  71 107 145 198 246 298 356 436
#     4  11  25  47  74 106 147 193 242 303 365 428
#     4  12  28  49  74 105 147 199 252 297 352 436
#     4  10  24  43  74 109 141 181 234 302 367 431
#     4  11  24  43  73 111 150 186 240 300 370 442
#     4  12  26  49  78 107 148 191 241 304 376 424
#     4  10  23  44  69 112 148 187 234 306 370 434
#
# _framework density 24.256295999999999
#
# number of rings (size 3 to 8) (size 9 to 14) (size 15 to 20)
#    0.000    0.857    2.857    3.429   10.000    2.286 
#    0.000    1.429    0.000    0.000    0.000    0.000 
#    0.000    0.000    0.000    0.000    0.000    0.000 
#
# Total GULP energy -173618.908036 kJ/mol
# GULP energy per Si atom -12401.350574 kJ/mol
# Density = 2.420109 g / cm^3
# Si number density = 24.256296 Si / 1000 Ang^3
#
#
#
# Elastic Constant Matrix: (Units=GPa)
#
#
# Indices 1 2 3 4 5 6 
#
# 1 108.4289 30.3389 16.3473 12.0091 -26.8365 -7.9125
# 2 30.3389 166.9664 18.8289 13.0665 -15.5158 7.0672
# 3 16.3473 18.8289 74.6300 14.7242 -9.4919 1.1856
# 4 12.0091 13.0665 14.7242 24.7613 -2.3480 -1.8795
# 5 -26.8365 -15.5158 -9.4919 -2.3480 40.2989 5.8938
# 6 -7.9125 7.0672 1.1856 -1.8795 5.8938 42.7901
#
#
#
# Elastic Compliance Matrix: (Units=1/GPa)
#
#
# Indices 1 2 3 4 5 6 
#
# 1 0.011897 -0.001189 -0.000662 -0.003998 0.006887 0.001290
# 2 -0.001189 0.006710 -0.000690 -0.002516 0.001725 -0.001657
# 3 -0.000662 -0.000690 0.015760 -0.008522 0.002683 -0.001189
# 4 -0.003998 -0.002516 -0.008522 0.048608 -0.003170 0.002484
# 5 0.006887 0.001725 0.002683 -0.003170 0.031024 -0.003498
# 6 0.001290 -0.001657 -0.001189 0.002484 -0.003498 0.024506
#
#
# Mechanical properties :
#
#
# Convention : Reuss Voigt Hill
#
# Bulk Modulus (GPa) = 34.14700 53.45063 43.79881
# Shear Modulus (GPa) = 32.60540 40.53742 36.57141
#
# Velocity S-wave (km/s) = 3.67032 4.09248 3.88713
# Velocity P-wave (km/s) = 5.66302 6.66444 6.18404
#
# Compressibility (1/GPa) = 0.02928515
#
# Stress axis : x y z
#
# Youngs Moduli (GPa) = 84.05781 149.02088 63.45139
#
# Poissons Ratio (x) = 0.17716 0.04199
# Poissons Ratio (y) = 0.09993 0.04381
# Poissons Ratio (z) = 0.05562 0.10289
#
# Static dielectric constant tensor:
#      x y z
#    x 4.684210 -0.248720 -0.160870 
#    y -0.248720 4.538620 -0.015170 
#    z -0.160870 -0.015170 4.099760 
# 
# 
# High freq. dielectric constant tensor:
#      x y z
#    x 1.973790 -0.013450 -0.014170 
#    y -0.013450 1.975770 0.000010 
#    z -0.014170 0.000010 1.951280 
# 
# From -- ./inp_files/242307.got.cif
#   From: 2010.06.25/outbox.cif.g09.slc.cpg/sg2_122_cif.got.tgz:242307.got - 2010.06.27 13:26:56.
