data_PCOD8025774
_publ_section_title
;
Structure prediction by ZEFSAII (Michael W. Deem and Ramdas Pophale) SiO2 
 PCOD8025774
Probable space group: P -1
;
_chemical_formula_sum "Si O2"
_cell_formula_units_Z 16
_cell_length_a 15.138817
_cell_length_b 11.511778
_cell_length_c 12.671879
_cell_angle_alpha 104.604359
_cell_angle_beta 56.869789
_cell_angle_gamma 150.947508
_cell_volume 747.163001
_symmetry_space_group_name_H-M "P -1"
_symmetry_group_IT_number 2
_symmetry_cell_setting 'triclinic'
loop_
_space_group_symop_operation_xyz
x,y,z
-x,-y,-z
loop_
_atom_site_type_symbol
_atom_site_label
_atom_site_fract_x
_atom_site_fract_y
_atom_site_fract_z
Si Si1 0.223777 0.377949 0.920871
Si Si2 0.438609 0.088642 0.293315
Si Si3 0.167223 0.676203 0.826197
Si Si4 0.759211 0.281719 0.833346
Si Si5 0.801054 0.939587 0.446418
Si Si6 0.663616 0.886705 0.155515
Si Si7 0.281713 0.489271 0.139257
Si Si8 0.508323 0.556857 0.349681
O O1 0.378332 0.655258 0.849919
O O2 0.290164 0.332899 0.796502
O O3 0.290950 0.422340 0.009990
O O4 0.928455 0.092662 0.031562
O O5 0.617397 0.202750 0.284819
O O6 0.254784 0.988499 0.450955
O O7 0.258118 0.810380 0.284684
O O8 0.989510 0.467583 0.794198
O O9 0.307209 0.947870 0.785924
O O10 0.000000 0.500000 0.000000
O O11 0.815641 0.478350 0.816394
O O12 0.500000 0.000000 0.000000
O O13 0.612379 0.730807 0.424095
O O14 0.750688 0.780782 0.528221
O O15 0.088063 0.227937 0.287392
O O16 0.555285 0.773029 0.081069
O O17 0.468398 0.615952 0.299239
#
# Coordination Sequence:
#
# PCOD8025774 Si02
#       8
#     2   2   2   2   2   2   2   2
#     4  11  22  41  68  96 124 162 215 265 313 359
#     4  11  23  40  66  96 129 168 205 253 320 379
#     4  12  20  37  64  98 129 159 206 258 316 374
#     4  12  20  37  64  95 132 161 198 265 311 367
#     4  10  24  46  64  88 130 172 209 257 317 373
#     4  12  22  38  68  95 125 162 212 261 316 368
#     4  12  23  39  66  95 129 165 209 260 313 375
#     4  10  23  46  67  86 127 171 212 266 309 365
#
# _framework density 21.414335999999999
#
# number of rings (size 3 to 8) (size 9 to 14) (size 15 to 20)
#    0.000    0.750    7.500    0.375    0.000    1.500 
#    2.250    1.250    0.000    0.000    0.000    0.000 
#    0.000    0.000    0.000    0.000    0.000    0.000 
#
# Total GULP energy -198451.791044 kJ/mol
# GULP energy per Si atom -12403.236940 kJ/mol
# Density = 2.136560 g / cm^3
# Si number density = 21.414336 Si / 1000 Ang^3
#
#
#
# Elastic Constant Matrix: (Units=GPa)
#
#
# Indices 1 2 3 4 5 6 
#
# 1 82.4017 29.3100 16.4804 -3.9495 20.6897 8.0405
# 2 29.3100 95.1139 27.0056 11.9197 -0.8197 18.2780
# 3 16.4804 27.0056 76.3532 3.2333 18.2853 -6.1857
# 4 -3.9495 11.9197 3.2333 34.8137 -5.7661 5.4099
# 5 20.6897 -0.8197 18.2853 -5.7661 17.8823 -3.3955
# 6 8.0405 18.2780 -6.1857 5.4099 -3.3955 52.2898
#
#
#
# Elastic Compliance Matrix: (Units=1/GPa)
#
#
# Indices 1 2 3 4 5 6 
#
# 1 0.022328 -0.008423 0.005826 -0.000231 -0.032611 -0.001894
# 2 -0.008423 0.016812 -0.008635 -0.002307 0.017803 -0.004208
# 3 0.005826 -0.008635 0.022798 -0.004165 -0.031179 0.003226
# 4 -0.000231 -0.002307 -0.004165 0.032606 0.014540 -0.002080
# 5 -0.032611 0.017803 -0.031179 0.014540 0.131444 0.002134
# 6 -0.001894 -0.004208 0.003226 -0.002080 0.002134 0.021622
#
#
# Mechanical properties :
#
#
# Convention : Reuss Voigt Hill
#
# Bulk Modulus (GPa) = 25.33258 44.38456 34.85857
# Shear Modulus (GPa) = 17.65325 33.06867 25.36096
#
# Velocity S-wave (km/s) = 2.87429 3.93393 3.44510
# Velocity P-wave (km/s) = 4.78234 6.43475 5.66907
#
# Compressibility (1/GPa) = 0.03947486
#
# Stress axis : x y z
#
# Youngs Moduli (GPa) = 44.78607 59.48000 43.86289
#
# Poissons Ratio (x) = 0.50100 -0.25554
# Poissons Ratio (y) = 0.37723 0.37876
# Poissons Ratio (z) = -0.26092 0.51361
#
# Static dielectric constant tensor:
#      x y z
#    x 4.017390 -0.150280 0.361450 
#    y -0.150280 4.063960 -0.029350 
#    z 0.361450 -0.029350 3.778140 
# 
# 
# High freq. dielectric constant tensor:
#      x y z
#    x 1.837880 -0.010670 0.019040 
#    y -0.010670 1.854780 0.000700 
#    z 0.019040 0.000700 1.823450 
# 
# From -- ./inp_files/399077.got.cif
#   From: 2010.06.25/outbox.cif.g09.slc.cpg/sg2_200_cif.got.tgz:399077.got - 2010.06.27 13:26:56.
