data_PCOD8025911
_publ_section_title
;
Structure prediction by ZEFSAII (Michael W. Deem and Ramdas Pophale) SiO2 
 PCOD8025911
Probable space group: P -1
;
_chemical_formula_sum "Si O2"
_cell_formula_units_Z 16
_cell_length_a 8.861327
_cell_length_b 6.448711
_cell_length_c 17.433553
_cell_angle_alpha 44.380340
_cell_angle_beta 87.796628
_cell_angle_gamma 94.037428
_cell_volume 689.400102
_symmetry_space_group_name_H-M "P -1"
_symmetry_group_IT_number 2
_symmetry_cell_setting 'triclinic'
loop_
_space_group_symop_operation_xyz
x,y,z
-x,-y,-z
loop_
_atom_site_type_symbol
_atom_site_label
_atom_site_fract_x
_atom_site_fract_y
_atom_site_fract_z
Si Si1 0.409236 0.663178 0.105143
Si Si2 0.345859 0.436960 0.599866
Si Si3 0.844903 0.272207 0.356968
Si Si4 0.008544 0.948414 0.922986
Si Si5 0.638827 0.254304 0.226941
Si Si6 0.319183 0.379871 0.445539
Si Si7 0.152228 0.564420 0.261032
Si Si8 0.246793 0.574292 0.980923
O O1 0.501090 0.431069 0.211343
O O2 0.255823 0.655886 0.160635
O O3 0.357787 0.514465 0.063922
O O4 0.500000 0.000000 0.000000
O O5 0.208101 0.486253 0.645566
O O6 0.296553 0.519267 0.493019
O O7 0.502299 0.642500 0.567490
O O8 0.393762 0.102727 0.684351
O O9 0.783750 0.346081 0.254314
O O10 0.028808 0.259630 0.348857
O O11 0.769876 0.950843 0.473587
O O12 0.178083 0.879277 0.920385
O O13 0.981321 0.225617 0.797193
O O14 0.886240 0.692768 0.958183
O O15 0.000000 0.000000 0.000000
O O16 0.658495 0.395735 0.105740
O O17 0.255347 0.594850 0.326994
#
# Coordination Sequence:
#
# PCOD8025911 Si02
#       8
#     2   2   2   2   2   2   2   2
#     4  12  28  45  70 104 146 187 240 297 344 420
#     4  10  23  46  73 102 139 181 229 290 353 420
#     4  11  24  46  71 103 141 181 229 293 354 422
#     4  11  23  44  67 101 139 183 230 289 346 416
#     4  11  25  42  71  99 137 184 234 283 352 417
#     4  10  24  44  70 106 139 178 233 287 352 423
#     4  12  25  43  74  99 142 186 232 288 353 412
#     4  11  25  43  70  99 140 186 238 286 349 415
#
# _framework density 23.208586
#
# number of rings (size 3 to 8) (size 9 to 14) (size 15 to 20)
#    0.000    1.000    1.250    4.125    8.750    2.500 
#    0.000    0.000    0.000    0.000    0.000    0.000 
#    0.000    0.000    0.000    0.000    0.000    0.000 
#
# Total GULP energy -198261.623345 kJ/mol
# GULP energy per Si atom -12391.351459 kJ/mol
# Density = 2.315576 g / cm^3
# Si number density = 23.208586 Si / 1000 Ang^3
#
#
#
# Elastic Constant Matrix: (Units=GPa)
#
#
# Indices 1 2 3 4 5 6 
#
# 1 114.9213 36.4411 36.9856 13.1012 -6.5424 12.0207
# 2 36.4411 85.8314 26.5541 13.0085 4.1042 10.7967
# 3 36.9856 26.5541 90.9845 20.1454 5.9118 8.1615
# 4 13.1012 13.0085 20.1454 36.4628 6.0588 7.4952
# 5 -6.5424 4.1042 5.9118 6.0588 55.2076 8.0426
# 6 12.0207 10.7967 8.1615 7.4952 8.0426 35.3040
#
#
#
# Elastic Compliance Matrix: (Units=1/GPa)
#
#
# Indices 1 2 3 4 5 6 
#
# 1 0.011371 -0.003468 -0.003352 -0.000905 0.002412 -0.002394
# 2 -0.003468 0.014396 -0.002070 -0.002193 -0.000711 -0.002116
# 3 -0.003352 -0.002070 0.014313 -0.005765 -0.001136 -0.000052
# 4 -0.000905 -0.002193 -0.005765 0.032961 -0.002339 -0.004153
# 5 0.002412 -0.000711 -0.001136 -0.002339 0.019453 -0.004277
# 6 -0.002394 -0.002116 -0.000052 -0.004153 -0.004277 0.031655
#
#
# Mechanical properties :
#
#
# Convention : Reuss Voigt Hill
#
# Bulk Modulus (GPa) = 44.84346 54.63320 49.73833
# Shear Modulus (GPa) = 33.47573 38.17865 35.82719
#
# Velocity S-wave (km/s) = 3.80200 4.06029 3.93326
# Velocity P-wave (km/s) = 6.21590 6.75074 6.48883
#
# Compressibility (1/GPa) = 0.02229979
#
# Stress axis : x y z
#
# Youngs Moduli (GPa) = 87.94410 69.46346 69.86856
#
# Poissons Ratio (x) = 0.24088 0.23419
# Poissons Ratio (y) = 0.30497 0.14465
# Poissons Ratio (z) = 0.29477 0.14381
#
# Static dielectric constant tensor:
#      x y z
#    x 3.701110 -0.253080 1.255740 
#    y -0.253080 4.070170 0.420500 
#    z 1.255740 0.420500 2.141200 
# 
# 
# High freq. dielectric constant tensor:
#      x y z
#    x 1.930870 0.009930 -0.000440 
#    y 0.009930 1.908080 0.006200 
#    z -0.000440 0.006200 1.927360 
# 
# From -- ./inp_files/553159.got.cif
#   From: 2010.06.25/outbox.cif.g09.slc.cpg/sg2_277_cif.got.tgz:553159.got - 2010.06.27 13:26:56.
