data_PCOD8025572
_publ_section_title
;
Structure prediction by ZEFSAII (Michael W. Deem and Ramdas Pophale) SiO2 
 PCOD8025572
Probable space group: P -1
;
_chemical_formula_sum "Si O2"
_cell_formula_units_Z 16
_cell_length_a 8.459070
_cell_length_b 15.440569
_cell_length_c 10.991312
_cell_angle_alpha 118.696714
_cell_angle_beta 71.578784
_cell_angle_gamma 57.622631
_cell_volume 673.846293
_symmetry_space_group_name_H-M "P -1"
_symmetry_group_IT_number 2
_symmetry_cell_setting 'triclinic'
loop_
_space_group_symop_operation_xyz
x,y,z
-x,-y,-z
loop_
_atom_site_type_symbol
_atom_site_label
_atom_site_fract_x
_atom_site_fract_y
_atom_site_fract_z
Si Si1 0.618785 0.073542 0.908814
Si Si2 0.168706 0.631651 0.167714
Si Si3 0.099385 0.859341 0.456938
Si Si4 0.775857 0.537577 0.143773
Si Si5 0.366123 0.309188 0.463331
Si Si6 0.759692 0.545534 0.752385
Si Si7 0.614232 0.358809 0.290577
Si Si8 0.293585 0.035203 0.910206
O O1 0.667263 0.030009 0.009276
O O2 0.444315 0.259336 0.049340
O O3 0.441380 0.070086 0.887925
O O4 0.941658 0.928838 0.673270
O O5 0.991156 0.814749 0.378390
O O6 0.135637 0.553282 0.212138
O O7 0.500000 0.500000 0.000000
O O8 0.094237 0.633355 0.047570
O O9 0.446377 0.704530 0.283603
O O10 0.000000 0.000000 0.500000
O O11 0.754917 0.565537 0.310887
O O12 0.000000 0.500000 0.000000
O O13 0.582588 0.268564 0.301529
O O14 0.073974 0.423161 0.532720
O O15 0.546092 0.120823 0.326374
O O16 0.591273 0.543514 0.714056
O O17 0.500000 0.500000 0.500000
O O18 0.952845 0.211563 0.074348
#
# Coordination Sequence:
#
# PCOD8025572 Si02
#       8
#     2   2   2   2   2   2   2   2
#     4  11  24  44  74 101 148 187 235 294 362 432
#     4  10  23  45  69  99 136 187 231 292 347 418
#     4  11  25  47  74 104 139 190 238 297 364 418
#     4  11  24  45  72 102 139 186 242 291 351 421
#     4  12  25  46  72 100 148 189 234 299 357 426
#     4  12  25  45  72 100 145 187 239 288 361 428
#     4  12  28  43  69 111 139 191 237 292 359 430
#     4  11  26  46  70 109 147 186 236 296 362 423
#
# _framework density 23.744287
#
# number of rings (size 3 to 8) (size 9 to 14) (size 15 to 20)
#    0.000    0.750    2.500    4.500   10.500    0.000 
#    0.000    0.625    0.000    0.000    0.000    0.000 
#    0.000    0.000    0.000    0.000    0.000    0.000 
#
# Total GULP energy -198288.240361 kJ/mol
# GULP energy per Si atom -12393.015023 kJ/mol
# Density = 2.369024 g / cm^3
# Si number density = 23.744287 Si / 1000 Ang^3
#
#
#
# Elastic Constant Matrix: (Units=GPa)
#
#
# Indices 1 2 3 4 5 6 
#
# 1 136.4771 25.5451 54.4353 6.5872 -0.4360 -0.8534
# 2 25.5451 63.6909 20.2579 1.6281 10.0547 8.2935
# 3 54.4353 20.2579 130.4105 9.3797 7.7031 -0.6408
# 4 6.5872 1.6281 9.3797 36.6560 4.9105 1.2937
# 5 -0.4360 10.0547 7.7031 4.9105 57.0877 2.9121
# 6 -0.8534 8.2935 -0.6408 1.2937 2.9121 37.9294
#
#
#
# Elastic Compliance Matrix: (Units=1/GPa)
#
#
# Indices 1 2 3 4 5 6 
#
# 1 0.009280 -0.002875 -0.003427 -0.000833 0.001074 0.000725
# 2 -0.002875 0.018289 -0.001534 0.000621 -0.002891 -0.003889
# 3 -0.003427 -0.001534 0.009513 -0.001645 -0.000926 0.000546
# 4 -0.000833 0.000621 -0.001645 0.028162 -0.002267 -0.000969
# 5 0.001074 -0.002891 -0.000926 -0.002267 0.018390 -0.000694
# 6 0.000725 -0.003889 0.000546 -0.000969 -0.000694 0.027327
#
#
# Mechanical properties :
#
#
# Convention : Reuss Voigt Hill
#
# Bulk Modulus (GPa) = 46.70786 59.00613 52.85700
# Shear Modulus (GPa) = 37.37794 41.69063 39.53428
#
# Velocity S-wave (km/s) = 3.97191 4.19479 4.08487
# Velocity P-wave (km/s) = 6.38346 6.95459 6.67514
#
# Compressibility (1/GPa) = 0.02140967
#
# Stress axis : x y z
#
# Youngs Moduli (GPa) = 107.75300 54.67856 105.12293
#
# Poissons Ratio (x) = 0.15720 0.36028
# Poissons Ratio (y) = 0.30978 0.16125
# Poissons Ratio (z) = 0.36929 0.08387
#
# Static dielectric constant tensor:
#      x y z
#    x 8.098360 0.664750 2.359920 
#    y 0.664750 4.063420 0.277340 
#    z 2.359920 0.277340 6.184150 
# 
# 
# High freq. dielectric constant tensor:
#      x y z
#    x 1.968940 0.015650 0.004650 
#    y 0.015650 1.910540 -0.007720 
#    z 0.004650 -0.007720 1.955340 
# 
# From -- ./inp_files/399423.got.cif
#   From: 2010.06.25/outbox.cif.g09.slc.cpg/sg2_200_cif.got.tgz:399423.got - 2010.06.27 13:26:56.
