data_PCOD8025912
_publ_section_title
;
Structure prediction by ZEFSAII (Michael W. Deem and Ramdas Pophale) SiO2 
 PCOD8025912
Probable space group: P -1
;
_chemical_formula_sum "Si O2"
_cell_formula_units_Z 16
_cell_length_a 24.227259
_cell_length_b 8.800226
_cell_length_c 8.301995
_cell_angle_alpha 145.104613
_cell_angle_beta 114.532716
_cell_angle_gamma 50.306096
_cell_volume 755.061300
_symmetry_space_group_name_H-M "P -1"
_symmetry_group_IT_number 2
_symmetry_cell_setting 'triclinic'
loop_
_space_group_symop_operation_xyz
x,y,z
-x,-y,-z
loop_
_atom_site_type_symbol
_atom_site_label
_atom_site_fract_x
_atom_site_fract_y
_atom_site_fract_z
Si Si1 0.167456 0.213283 0.248141
Si Si2 0.418979 0.673268 0.621967
Si Si3 0.078372 0.204866 0.398625
Si Si4 0.131723 0.509202 0.937858
Si Si5 0.645561 0.715671 0.744747
Si Si6 0.740183 0.490905 0.340546
Si Si7 0.707575 0.718766 0.145744
Si Si8 0.048770 0.619206 0.223880
O O1 0.151586 0.094237 0.288406
O O2 0.203841 0.403974 0.493939
O O3 0.083316 0.463578 0.302225
O O4 0.217991 0.895592 0.921981
O O5 0.500000 0.500000 0.500000
O O6 0.407041 0.406098 0.436275
O O7 0.359212 0.899048 0.606712
O O8 0.407319 0.895808 0.955588
O O9 0.093211 0.328390 0.686786
O O10 0.000000 0.500000 0.500000
O O11 0.080083 0.883798 0.142830
O O12 0.214938 0.324023 0.816657
O O13 0.123922 0.504337 0.116120
O O14 0.685995 0.650641 0.566123
O O15 0.698805 0.555346 0.830648
O O16 0.701623 0.587399 0.199065
O O17 0.000000 0.000000 0.500000
O O18 0.000000 0.500000 0.000000
#
# Coordination Sequence:
#
# PCOD8025912 Si02
#       8
#     2   2   2   2   2   2   2   2
#     4  12  24  42  62  92 131 169 221 284 337 391
#     4  10  23  46  73 102 142 178 219 267 335 408
#     4  12  24  41  61  87 127 169 218 272 334 391
#     4  12  24  41  64  91 123 169 228 268 333 402
#     4  10  24  41  71  99 139 175 220 264 339 390
#     4  12  24  43  65 104 135 168 229 280 330 399
#     4  10  25  41  71 100 135 177 225 275 336 396
#     4  12  26  44  62  90 127 175 225 283 349 403
#
# _framework density 21.190332000000001
#
# number of rings (size 3 to 8) (size 9 to 14) (size 15 to 20)
#    0.750    0.000    2.500    5.250    5.250    0.000 
#    0.000    1.250    0.000    0.000    0.000    0.000 
#    0.000    0.000    0.000    0.000    0.000    0.000 
#
# Total GULP energy -198229.098537 kJ/mol
# GULP energy per Si atom -12389.318659 kJ/mol
# Density = 2.114210 g / cm^3
# Si number density = 21.190332 Si / 1000 Ang^3
#
#
#
# Elastic Constant Matrix: (Units=GPa)
#
#
# Indices 1 2 3 4 5 6 
#
# 1 116.4844 41.2607 34.7551 -11.3321 -14.3712 4.1390
# 2 41.2607 70.8119 29.2247 -2.2301 -14.0590 4.1219
# 3 34.7551 29.2247 120.6032 3.7930 0.3803 -2.2109
# 4 -11.3321 -2.2301 3.7930 26.3615 3.0098 -12.1841
# 5 -14.3712 -14.0590 0.3803 3.0098 42.3128 -0.8629
# 6 4.1390 4.1219 -2.2109 -12.1841 -0.8629 31.0193
#
#
#
# Elastic Compliance Matrix: (Units=1/GPa)
#
#
# Indices 1 2 3 4 5 6 
#
# 1 0.011925 -0.005549 -0.002243 0.005280 0.001874 0.001112
# 2 -0.005549 0.019714 -0.003178 -0.002100 0.004786 -0.002797
# 3 -0.002243 -0.003178 0.009793 -0.002211 -0.001738 0.000503
# 4 0.005280 -0.002100 -0.002211 0.049212 -0.002004 0.018691
# 5 0.001874 0.004786 -0.001738 -0.002004 0.025997 -0.001074
# 6 0.001112 -0.002797 0.000503 0.018691 -0.001074 0.039809
#
#
# Mechanical properties :
#
#
# Convention : Reuss Voigt Hill
#
# Bulk Modulus (GPa) = 51.30850 57.59784 54.45317
# Shear Modulus (GPa) = 27.04344 33.44931 30.24638
#
# Velocity S-wave (km/s) = 3.57629 3.97737 3.78215
# Velocity P-wave (km/s) = 6.42798 6.95218 6.69521
#
# Compressibility (1/GPa) = 0.01948995
#
# Stress axis : x y z
#
# Youngs Moduli (GPa) = 83.85687 50.72544 102.11804
#
# Poissons Ratio (x) = 0.28148 0.22910
# Poissons Ratio (y) = 0.46533 0.32456
# Poissons Ratio (z) = 0.18813 0.16122
#
# Static dielectric constant tensor:
#      x y z
#    x 3.885040 0.345580 -0.039740 
#    y 0.345580 3.445590 -0.188180 
#    z -0.039740 -0.188180 3.955540 
# 
# 
# High freq. dielectric constant tensor:
#      x y z
#    x 1.836600 0.014020 -0.002550 
#    y 0.014020 1.810150 -0.000170 
#    z -0.002550 -0.000170 1.844810 
# 
# From -- ./inp_files/226050.got.cif
#   From: 2010.06.25/outbox.cif.g09.slc.cpg/sg2_114_cif.got.tgz:226050.got - 2010.06.27 13:26:56.
