data_PCOD8025413
_publ_section_title
;
Structure prediction by ZEFSAII (Michael W. Deem and Ramdas Pophale) SiO2 
 PCOD8025413
Probable space group: P -1
;
_chemical_formula_sum "Si O2"
_cell_formula_units_Z 14
_cell_length_a 5.417966
_cell_length_b 8.771545
_cell_length_c 27.458928
_cell_angle_alpha 30.002873
_cell_angle_beta 114.211802
_cell_angle_gamma 121.317317
_cell_volume 555.010421
_symmetry_space_group_name_H-M "P -1"
_symmetry_group_IT_number 2
_symmetry_cell_setting 'triclinic'
loop_
_space_group_symop_operation_xyz
x,y,z
-x,-y,-z
loop_
_atom_site_type_symbol
_atom_site_label
_atom_site_fract_x
_atom_site_fract_y
_atom_site_fract_z
Si Si1 0.621873 0.854709 0.313422
Si Si2 0.413454 0.291414 0.929360
Si Si3 0.780598 0.289517 0.501836
Si Si4 0.008295 0.732424 0.849951
Si Si5 0.863006 0.882154 0.949784
Si Si6 0.925271 0.234810 0.763832
Si Si7 0.776513 0.037186 0.386900
O O1 0.731769 0.559718 0.387563
O O2 0.290928 0.726038 0.305125
O O3 0.644044 0.911490 0.357678
O O4 0.814749 0.189980 0.208277
O O5 0.658036 0.640913 0.836516
O O6 0.404124 0.270899 0.992985
O O7 0.097466 0.215156 0.900467
O O8 0.500000 0.000000 0.000000
O O9 0.000000 0.500000 0.500000
O O10 0.471126 0.092599 0.556331
O O11 0.940491 0.065880 0.550733
O O12 0.124782 0.055862 0.803761
O O13 0.018960 0.414285 0.966640
O O14 0.752294 0.989633 0.861154
O O15 0.123764 0.574270 0.709252
#
# Coordination Sequence:
#
# PCOD8025413 Si02
#       7
#     2   2   2   2   2   2   2
#     4  11  27  46  76 107 144 191 248 306 379 447
#     4   9  21  41  72  95 136 196 243 300 362 433
#     4  10  24  52  82 109 149 198 244 314 383 446
#     4  11  25  44  68 106 146 195 243 308 365 446
#     4  10  23  45  66 105 146 194 246 301 371 435
#     4  12  29  42  73 109 147 196 248 306 372 449
#     4  11  28  50  80 111 151 195 251 310 379 451
#
# _framework density 25.22475
#
# number of rings (size 3 to 8) (size 9 to 14) (size 15 to 20)
#    0.000    1.429    0.000    3.000   16.000    5.714 
#    0.000    0.000    0.000    0.000    0.000    0.000 
#    0.000    0.000    0.000    0.000    0.000    0.000 
#
# Total GULP energy -173477.606192 kJ/mol
# GULP energy per Si atom -12391.257585 kJ/mol
# Density = 2.516734 g / cm^3
# Si number density = 25.224750 Si / 1000 Ang^3
#
#
#
# Elastic Constant Matrix: (Units=GPa)
#
#
# Indices 1 2 3 4 5 6 
#
# 1 111.2710 19.4871 17.6851 -13.5757 -8.8614 2.0393
# 2 19.4871 77.2379 32.0747 -9.1912 14.0904 -1.6062
# 3 17.6851 32.0747 113.8745 -13.1834 7.9647 10.3372
# 4 -13.5757 -9.1912 -13.1834 34.4564 2.2798 7.9364
# 5 -8.8614 14.0904 7.9647 2.2798 40.2291 -8.5923
# 6 2.0393 -1.6062 10.3372 7.9364 -8.5923 25.3819
#
#
#
# Elastic Compliance Matrix: (Units=1/GPa)
#
#
# Indices 1 2 3 4 5 6 
#
# 1 0.010141 -0.002463 -0.000673 0.003040 0.002917 -0.000659
# 2 -0.002463 0.016372 -0.003548 0.002420 -0.005714 -0.000012
# 3 -0.000673 -0.003548 0.011349 0.005032 -0.003015 -0.007387
# 4 0.003040 0.002420 0.005032 0.036902 -0.006669 -0.015937
# 5 0.002917 -0.005714 -0.003015 -0.006669 0.031322 0.013321
# 6 -0.000659 -0.000012 -0.007387 -0.015937 0.013321 0.051951
#
#
# Mechanical properties :
#
#
# Convention : Reuss Voigt Hill
#
# Bulk Modulus (GPa) = 40.82706 48.98635 44.90671
# Shear Modulus (GPa) = 27.84428 35.55591 31.70010
#
# Velocity S-wave (km/s) = 3.32602 3.75849 3.54885
# Velocity P-wave (km/s) = 5.56510 6.18847 5.88504
#
# Compressibility (1/GPa) = 0.02449356
#
# Stress axis : x y z
#
# Youngs Moduli (GPa) = 98.61309 61.08009 88.10967
#
# Poissons Ratio (x) = 0.15043 0.05933
# Poissons Ratio (y) = 0.24287 0.31261
# Poissons Ratio (z) = 0.06640 0.21671
#
# Static dielectric constant tensor:
#      x y z
#    x 4.911190 0.020740 0.119200 
#    y 0.020740 4.753570 -0.288270 
#    z 0.119200 -0.288270 4.292450 
# 
# 
# High freq. dielectric constant tensor:
#      x y z
#    x 2.011300 -0.006690 0.006310 
#    y -0.006690 1.995970 -0.018090 
#    z 0.006310 -0.018090 2.009620 
# 
# From -- ./inp_files/615217.got.cif
#   From: 2010.06.25/outbox.cif.g09.slc.cpg/sg2_308_cif.got.tgz:615217.got - 2010.06.27 13:26:56.
