data_PCOD8025877
_publ_section_title
;
Structure prediction by ZEFSAII (Michael W. Deem and Ramdas Pophale) SiO2 
 PCOD8025877
Probable space group: P -1
;
_chemical_formula_sum "Si O2"
_cell_formula_units_Z 12
_cell_length_a 17.029349
_cell_length_b 8.640566
_cell_length_c 9.820054
_cell_angle_alpha 150.398148
_cell_angle_beta 44.735730
_cell_angle_gamma 139.866785
_cell_volume 455.325467
_symmetry_space_group_name_H-M "P -1"
_symmetry_group_IT_number 2
_symmetry_cell_setting 'triclinic'
loop_
_space_group_symop_operation_xyz
x,y,z
-x,-y,-z
loop_
_atom_site_type_symbol
_atom_site_label
_atom_site_fract_x
_atom_site_fract_y
_atom_site_fract_z
Si Si1 0.129624 0.806396 0.599921
Si Si2 0.024595 0.057047 0.707023
Si Si3 0.276146 0.378543 0.038380
Si Si4 0.613980 0.367256 0.620481
Si Si5 0.487443 0.626145 0.759873
Si Si6 0.133109 0.560089 0.724811
O O1 0.000000 0.500000 0.500000
O O2 0.163535 0.986993 0.850295
O O3 0.232014 0.684921 0.328136
O O4 0.121390 0.115166 0.754734
O O5 0.109253 0.251052 0.624748
O O6 0.948397 0.638413 0.458671
O O7 0.913589 0.169970 0.949428
O O8 0.351134 0.413509 0.113009
O O9 0.357301 0.408450 0.827351
O O10 0.590062 0.608624 0.722600
O O11 0.722879 0.270655 0.360282
O O12 0.500000 0.000000 0.500000
O O13 0.500000 0.500000 0.500000
O O14 0.500000 0.000000 0.000000
#
# Coordination Sequence:
#
# PCOD8025877 Si02
#       6
#     2   2   2   2   2   2
#     4  12  26  46  79 116 160 205 261 324 397 469
#     4  10  23  46  71 114 146 207 252 326 374 475
#     4  12  28  49  78 116 161 206 266 319 402 474
#     4  12  28  52  82 118 162 215 266 338 402 485
#     4  12  29  52  79 116 154 210 270 332 399 472
#     4  10  24  45  76 104 157 197 265 307 403 455
#
# _framework density 26.354776000000001
#
# number of rings (size 3 to 8) (size 9 to 14) (size 15 to 20)
#    0.000    0.667    0.000    6.000    4.667   10.667 
#    0.000    0.000    0.000    0.000    0.000    0.000 
#    0.000    0.000    0.000    0.000    0.000    0.000 
#
# Total GULP energy -148763.900324 kJ/mol
# GULP energy per Si atom -12396.991694 kJ/mol
# Density = 2.629479 g / cm^3
# Si number density = 26.354776 Si / 1000 Ang^3
#
#
#
# Elastic Constant Matrix: (Units=GPa)
#
#
# Indices 1 2 3 4 5 6 
#
# 1 241.2672 72.7506 82.9699 3.6207 2.0127 0.6364
# 2 72.7506 142.4621 45.7532 -11.1893 20.9142 -1.3253
# 3 82.9699 45.7532 156.7709 9.1733 13.6476 3.9832
# 4 3.6207 -11.1893 9.1733 54.6341 3.3131 9.3875
# 5 2.0127 20.9142 13.6476 3.3131 59.3210 3.0268
# 6 0.6364 -1.3253 3.9832 9.3875 3.0268 28.7416
#
#
#
# Elastic Compliance Matrix: (Units=1/GPa)
#
#
# Indices 1 2 3 4 5 6 
#
# 1 0.005674 -0.002348 -0.002394 -0.000554 0.001209 0.000152
# 2 -0.002348 0.009291 -0.001352 0.002436 -0.003031 0.000191
# 3 -0.002394 -0.001352 0.008241 -0.001326 -0.001234 -0.000588
# 4 -0.000554 0.002436 -0.001326 0.020200 -0.001350 -0.006147
# 5 0.001209 -0.003031 -0.001234 -0.001350 0.018320 -0.001484
# 6 0.000152 0.000191 -0.000588 -0.006147 -0.001484 0.037044
#
#
# Mechanical properties :
#
#
# Convention : Reuss Voigt Hill
#
# Bulk Modulus (GPa) = 90.77947 104.82750 97.80348
# Shear Modulus (GPa) = 43.61816 51.14109 47.37962
#
# Velocity S-wave (km/s) = 4.07263 4.40987 4.24460
# Velocity P-wave (km/s) = 7.52562 8.11118 7.82388
#
# Compressibility (1/GPa) = 0.01101571
#
# Stress axis : x y z
#
# Youngs Moduli (GPa) = 176.23944 107.63130 121.35135
#
# Poissons Ratio (x) = 0.25275 0.29056
# Poissons Ratio (y) = 0.41386 0.16411
# Poissons Ratio (z) = 0.42198 0.14555
#
# Static dielectric constant tensor:
#      x y z
#    x 6.455820 -0.348520 -0.637180 
#    y -0.348520 5.311410 0.112170 
#    z -0.637180 0.112170 5.062700 
# 
# 
# High freq. dielectric constant tensor:
#      x y z
#    x 2.089920 -0.016800 -0.010920 
#    y -0.016800 2.065440 0.007380 
#    z -0.010920 0.007380 2.075950 
# 
# From -- ./inp_files/541204.got.cif
#   From: 2010.06.25/outbox.cif.g09.slc.cpg/sg2_271_cif.got.tgz:541204.got - 2010.06.27 13:26:56.
