data_PCOD8025025
_publ_section_title
;
Structure prediction by ZEFSAII (Michael W. Deem and Ramdas Pophale) SiO2 
 PCOD8025025
Probable space group: P -1
;
_chemical_formula_sum "Si O2"
_cell_formula_units_Z 16
_cell_length_a 8.176330
_cell_length_b 12.739956
_cell_length_c 15.938589
_cell_angle_alpha 27.607037
_cell_angle_beta 103.261276
_cell_angle_gamma 100.843291
_cell_volume 748.434147
_symmetry_space_group_name_H-M "P -1"
_symmetry_group_IT_number 2
_symmetry_cell_setting 'triclinic'
loop_
_space_group_symop_operation_xyz
x,y,z
-x,-y,-z
loop_
_atom_site_type_symbol
_atom_site_label
_atom_site_fract_x
_atom_site_fract_y
_atom_site_fract_z
Si Si1 0.873395 0.098596 0.483550
Si Si2 0.483827 0.394681 0.480555
Si Si3 0.310754 0.750240 0.796721
Si Si4 0.952490 0.763959 0.295485
Si Si5 0.848166 0.837043 0.413935
Si Si6 0.301698 0.240057 0.176597
Si Si7 0.373492 0.194574 0.881341
Si Si8 0.273658 0.017331 0.165974
O O1 0.741923 0.253737 0.305223
O O2 0.978378 0.244603 0.460300
O O3 0.775301 0.897040 0.658911
O O4 0.000000 0.000000 0.500000
O O5 0.500000 0.500000 0.500000
O O6 0.291357 0.353063 0.461791
O O7 0.551139 0.562458 0.299680
O O8 0.589193 0.161399 0.654330
O O9 0.502418 0.818944 0.771962
O O10 0.207245 0.925494 0.718789
O O11 0.276010 0.505589 0.005166
O O12 0.886294 0.876894 0.293327
O O13 0.810431 0.812519 0.175714
O O14 0.000000 0.500000 0.500000
O O15 0.119186 0.888000 0.198244
O O16 0.211769 0.173913 0.125438
O O17 0.357972 0.168514 0.997704
O O18 0.500000 0.000000 0.000000
#
# Coordination Sequence:
#
# PCOD8025025 Si02
#       8
#     2   2   2   2   2   2   2   2
#     4  10  23  44  67  99 133 171 230 276 345 408
#     4  12  22  45  69  94 141 182 227 279 339 403
#     4  10  24  44  70  99 132 174 233 281 344 406
#     4  12  24  44  72  98 144 184 227 287 343 405
#     4  11  22  43  71  97 135 189 217 281 349 400
#     4  11  23  45  71  96 137 173 223 292 344 404
#     4  12  26  44  70 102 138 184 238 276 337 417
#     4  12  24  44  69 102 134 182 230 283 345 407
#
# _framework density 21.377967999999999
#
# number of rings (size 3 to 8) (size 9 to 14) (size 15 to 20)
#    0.000    0.750    6.250    0.750    0.000    4.000 
#   11.250    0.000    0.000    0.000    0.000    0.000 
#    0.000    0.000    0.000    0.000    0.000    0.000 
#
# Total GULP energy -198410.197934 kJ/mol
# GULP energy per Si atom -12400.637371 kJ/mol
# Density = 2.132931 g / cm^3
# Si number density = 21.377968 Si / 1000 Ang^3
#
#
#
# Elastic Constant Matrix: (Units=GPa)
#
#
# Indices 1 2 3 4 5 6 
#
# 1 76.7570 24.0066 51.0546 -4.5952 -17.2325 12.6536
# 2 24.0066 81.3089 38.0654 -7.1086 -0.6818 3.3891
# 3 51.0546 38.0654 122.3658 14.4783 -18.0468 1.6116
# 4 -4.5952 -7.1086 14.4783 24.1007 -0.6506 -5.0482
# 5 -17.2325 -0.6818 -18.0468 -0.6506 42.4193 2.6532
# 6 12.6536 3.3891 1.6116 -5.0482 2.6532 51.0242
#
#
#
# Elastic Compliance Matrix: (Units=1/GPa)
#
#
# Indices 1 2 3 4 5 6 
#
# 1 0.021740 -0.001376 -0.008743 0.008197 0.005497 -0.004499
# 2 -0.001376 0.016056 -0.005756 0.007939 -0.002652 0.000380
# 3 -0.008743 -0.005756 0.015472 -0.012442 0.002704 0.000690
# 4 0.008197 0.007939 -0.012442 0.053507 -0.001214 0.003190
# 5 0.005497 -0.002652 0.002704 -0.001214 0.027072 -0.002800
# 6 -0.004499 0.000380 0.000690 0.003190 -0.002800 0.021128
#
#
# Mechanical properties :
#
#
# Convention : Reuss Voigt Hill
#
# Bulk Modulus (GPa) = 46.46935 56.29832 51.38383
# Shear Modulus (GPa) = 25.78688 34.66251 30.22469
#
# Velocity S-wave (km/s) = 3.47686 4.03105 3.76416
# Velocity P-wave (km/s) = 6.15648 6.93236 6.55591
#
# Compressibility (1/GPa) = 0.02151956
#
# Stress axis : x y z
#
# Youngs Moduli (GPa) = 45.99822 62.28306 64.63131
#
# Poissons Ratio (x) = 0.08568 0.56504
# Poissons Ratio (y) = 0.06328 0.37202
# Poissons Ratio (z) = 0.40214 0.35851
#
# Static dielectric constant tensor:
#      x y z
#    x 4.235190 0.521180 -0.010640 
#    y 0.521180 4.785150 -0.020670 
#    z -0.010640 -0.020670 4.020610 
# 
# 
# High freq. dielectric constant tensor:
#      x y z
#    x 1.854030 0.010100 -0.006160 
#    y 0.010100 1.845260 0.004760 
#    z -0.006160 0.004760 1.829160 
# 
# From -- ./inp_files/107150.got.cif
#   From: 2010.06.25/outbox.cif.g09.slc.cpg/sg2_54_cif.got.tgz:107150.got - 2010.06.27 13:26:56.
