data_PCOD8025586
_publ_section_title
;
Structure prediction by ZEFSAII (Michael W. Deem and Ramdas Pophale) SiO2 
 PCOD8025586
Probable space group: P -1
;
_chemical_formula_sum "Si O2"
_cell_formula_units_Z 14
_cell_length_a 8.603901
_cell_length_b 9.577970
_cell_length_c 9.409670
_cell_angle_alpha 56.389145
_cell_angle_beta 68.646020
_cell_angle_gamma 83.625772
_cell_volume 597.345475
_symmetry_space_group_name_H-M "P -1"
_symmetry_group_IT_number 2
_symmetry_cell_setting 'triclinic'
loop_
_space_group_symop_operation_xyz
x,y,z
-x,-y,-z
loop_
_atom_site_type_symbol
_atom_site_label
_atom_site_fract_x
_atom_site_fract_y
_atom_site_fract_z
Si Si1 0.472296 0.807083 0.477437
Si Si2 0.105374 0.851904 0.593490
Si Si3 0.557644 0.190895 0.826853
Si Si4 0.820883 0.995263 0.241997
Si Si5 0.455293 0.484001 0.188175
Si Si6 0.100921 0.807694 0.166275
Si Si7 0.071967 0.456153 0.345653
O O1 0.303056 0.896910 0.467642
O O2 0.512358 0.754733 0.332182
O O3 0.632020 0.940406 0.393040
O O4 0.443501 0.648615 0.684726
O O5 0.037153 0.675026 0.645185
O O6 0.097126 0.853093 0.768940
O O7 0.000000 0.000000 0.500000
O O8 0.494134 0.325845 0.880450
O O9 0.760985 0.214079 0.745989
O O10 0.500000 0.000000 0.000000
O O11 0.936774 0.840340 0.295322
O O12 0.826332 0.043205 0.047236
O O13 0.261407 0.409805 0.318493
O O14 0.500000 0.500000 0.000000
O O15 0.072226 0.641222 0.169440
O O16 0.000000 0.500000 0.500000
#
# Coordination Sequence:
#
# PCOD8025586 Si02
#       7
#     2   2   2   2   2   2   2
#     4  12  25  45  75 107 147 196 247 299 376 444
#     4  12  26  44  72 104 141 191 250 296 369 434
#     4  11  23  44  72 104 146 197 244 294 367 445
#     4  11  24  43  72 106 142 189 244 302 358 435
#     4  11  27  46  72 111 151 188 248 314 369 431
#     4  10  23  45  70 102 146 189 241 298 367 434
#     4  11  24  48  73  96 151 195 241 296 377 435
#
# _framework density 23.437024000000001
#
# number of rings (size 3 to 8) (size 9 to 14) (size 15 to 20)
#    0.000    0.857    1.429    6.000    4.000    5.143 
#    0.000    0.000    0.000    0.000    0.000    0.000 
#    0.000    0.000    0.000    0.000    0.000    0.000 
#
# Total GULP energy -173467.856523 kJ/mol
# GULP energy per Si atom -12390.561180 kJ/mol
# Density = 2.338368 g / cm^3
# Si number density = 23.437024 Si / 1000 Ang^3
#
#
#
# Elastic Constant Matrix: (Units=GPa)
#
#
# Indices 1 2 3 4 5 6 
#
# 1 128.1395 67.4392 43.3033 -1.2623 -7.9611 -2.9999
# 2 67.4392 154.4840 39.6088 -0.1049 6.4057 22.1881
# 3 43.3033 39.6088 120.4945 7.2910 14.0627 4.9142
# 4 -1.2623 -0.1049 7.2910 37.3844 5.9710 3.3562
# 5 -7.9611 6.4057 14.0627 5.9710 40.0761 8.7875
# 6 -2.9999 22.1881 4.9142 3.3562 8.7875 42.4225
#
#
#
# Elastic Compliance Matrix: (Units=1/GPa)
#
#
# Indices 1 2 3 4 5 6 
#
# 1 0.011738 -0.004894 -0.003155 0.000163 0.003537 0.003010
# 2 -0.004894 0.009679 -0.001128 0.000718 -0.001111 -0.005104
# 3 -0.003155 -0.001128 0.010344 -0.001517 -0.003870 0.000090
# 4 0.000163 0.000718 -0.001517 0.027733 -0.003310 -0.001697
# 5 0.003537 -0.001111 -0.003870 -0.003310 0.028647 -0.004393
# 6 0.003010 -0.005104 0.000090 -0.001697 -0.004393 0.027488
#
#
# Mechanical properties :
#
#
# Convention : Reuss Voigt Hill
#
# Bulk Modulus (GPa) = 74.59674 78.20228 76.39951
# Shear Modulus (GPa) = 36.11379 40.82772 38.47076
#
# Velocity S-wave (km/s) = 3.92967 4.17828 4.05588
# Velocity P-wave (km/s) = 7.24482 7.53105 7.38932
#
# Compressibility (1/GPa) = 0.01340541
#
# Stress axis : x y z
#
# Youngs Moduli (GPa) = 85.19648 103.32174 96.67835
#
# Poissons Ratio (x) = 0.50564 0.30501
# Poissons Ratio (y) = 0.41694 0.10909
# Poissons Ratio (z) = 0.26879 0.11658
#
# Static dielectric constant tensor:
#      x y z
#    x 4.458860 0.010370 0.083080 
#    y 0.010370 4.872170 -0.254760 
#    z 0.083080 -0.254760 4.239560 
# 
# 
# High freq. dielectric constant tensor:
#      x y z
#    x 1.935980 -0.000840 0.005160 
#    y -0.000840 1.938650 0.008400 
#    z 0.005160 0.008400 1.921900 
# 
# From -- ./inp_files/157240.got.cif
#   From: 2010.06.25/outbox.cif.g09.slc.cpg/sg2_79_cif.got.tgz:157240.got - 2010.06.27 13:26:56.
