data_PCOD8025228
_publ_section_title
;
Structure prediction by ZEFSAII (Michael W. Deem and Ramdas Pophale) SiO2 
 PCOD8025228
Probable space group: P -1
;
_chemical_formula_sum "Si O2"
_cell_formula_units_Z 14
_cell_length_a 9.481734
_cell_length_b 7.910648
_cell_length_c 14.662855
_cell_angle_alpha 69.310846
_cell_angle_beta 141.963008
_cell_angle_gamma 96.086755
_cell_volume 605.010066
_symmetry_space_group_name_H-M "P -1"
_symmetry_group_IT_number 2
_symmetry_cell_setting 'triclinic'
loop_
_space_group_symop_operation_xyz
x,y,z
-x,-y,-z
loop_
_atom_site_type_symbol
_atom_site_label
_atom_site_fract_x
_atom_site_fract_y
_atom_site_fract_z
Si Si1 0.265500 0.967528 0.926389
Si Si2 0.088930 0.664095 0.788339
Si Si3 0.990194 0.316486 0.619676
Si Si4 0.281805 0.578632 0.706261
Si Si5 0.213994 0.401132 0.057685
Si Si6 0.625297 0.632510 0.484455
Si Si7 0.727538 0.018973 0.863465
O O1 0.185149 0.791191 0.882982
O O2 0.037208 0.145836 0.747687
O O3 0.500000 0.000000 0.000000
O O4 0.336597 0.946754 0.071033
O O5 0.239869 0.657198 0.773522
O O6 0.800884 0.724728 0.614641
O O7 0.138623 0.460452 0.903099
O O8 0.897362 0.268976 0.482550
O O9 0.789943 0.503412 0.516496
O O10 0.232854 0.375114 0.717488
O O11 0.550406 0.536385 0.813533
O O12 0.303302 0.174866 0.154620
O O13 0.000000 0.500000 0.000000
O O14 0.500000 0.500000 0.500000
O O15 0.423841 0.806711 0.306405
O O16 0.000000 0.000000 0.000000
#
# Coordination Sequence:
#
# PCOD8025228 Si02
#       7
#     2   2   2   2   2   2   2
#     4  12  26  44  75 109 147 186 241 293 363 432
#     4  11  25  44  72 107 142 191 239 296 361 431
#     4  10  24  43  72 102 146 190 237 294 361 420
#     4  10  23  44  71 101 144 188 240 289 358 422
#     4  12  26  45  73 106 144 186 242 297 362 427
#     4  11  26  48  74 102 148 190 244 302 361 426
#     4  12  27  48  70 104 144 191 239 298 362 430
#
# _framework density 23.140112999999999
#
# number of rings (size 3 to 8) (size 9 to 14) (size 15 to 20)
#    0.000    0.857    0.000    6.429   14.000    0.571 
#    0.000    2.143    0.000    0.000    0.000    0.000 
#    0.000    0.000    0.000    0.000    0.000    0.000 
#
# Total GULP energy -173512.136601 kJ/mol
# GULP energy per Si atom -12393.724043 kJ/mol
# Density = 2.308744 g / cm^3
# Si number density = 23.140113 Si / 1000 Ang^3
#
#
#
# Elastic Constant Matrix: (Units=GPa)
#
#
# Indices 1 2 3 4 5 6 
#
# 1 138.1071 61.4550 53.0771 10.3442 8.8242 16.8716
# 2 61.4550 114.6571 65.1829 -4.3910 1.5813 5.4250
# 3 53.0771 65.1829 158.6547 -14.0110 -8.6286 16.8228
# 4 10.3442 -4.3910 -14.0110 49.1156 10.8754 1.6200
# 5 8.8242 1.5813 -8.6286 10.8754 46.0150 8.1880
# 6 16.8716 5.4250 16.8228 1.6200 8.1880 36.7902
#
#
#
# Elastic Compliance Matrix: (Units=1/GPa)
#
#
# Indices 1 2 3 4 5 6 
#
# 1 0.010601 -0.004737 -0.001569 -0.002790 -0.000951 -0.003111
# 2 -0.004737 0.013597 -0.004194 0.001169 -0.001024 0.002261
# 3 -0.001569 -0.004194 0.009239 0.002202 0.002278 -0.003491
# 4 -0.002790 0.001169 0.002202 0.022666 -0.004466 0.000096
# 5 -0.000951 -0.001024 0.002278 -0.004466 0.024446 -0.005699
# 6 -0.003111 0.002261 -0.003491 0.000096 -0.005699 0.031135
#
#
# Mechanical properties :
#
#
# Convention : Reuss Voigt Hill
#
# Bulk Modulus (GPa) = 80.39482 85.64985 83.02234
# Shear Modulus (GPa) = 36.54179 41.83107 39.18643
#
# Velocity S-wave (km/s) = 3.97817 4.25635 4.11961
# Velocity P-wave (km/s) = 7.47791 7.82620 7.65403
#
# Compressibility (1/GPa) = 0.01243861
#
# Stress axis : x y z
#
# Youngs Moduli (GPa) = 94.32753 73.54787 108.23355
#
# Poissons Ratio (x) = 0.34839 0.16979
# Poissons Ratio (y) = 0.44682 0.45389
# Poissons Ratio (z) = 0.14798 0.30843
#
# Static dielectric constant tensor:
#      x y z
#    x 4.251560 0.176800 0.043650 
#    y 0.176800 4.047360 0.140010 
#    z 0.043650 0.140010 4.427600 
# 
# 
# High freq. dielectric constant tensor:
#      x y z
#    x 1.922480 0.017060 -0.005430 
#    y 0.017060 1.906690 0.007570 
#    z -0.005430 0.007570 1.937040 
# 
# From -- ./inp_files/494546.got.cif
#   From: 2010.06.25/outbox.cif.g09.slc.cpg/sg2_248_cif.got.tgz:494546.got - 2010.06.27 13:26:56.
