data_PCOD8025938
_publ_section_title
;
Structure prediction by ZEFSAII (Michael W. Deem and Ramdas Pophale) SiO2 
 PCOD8025938
Probable space group: P -1
;
_chemical_formula_sum "Si O2"
_cell_formula_units_Z 16
_cell_length_a 15.600090
_cell_length_b 15.170155
_cell_length_c 14.893641
_cell_angle_alpha 44.618221
_cell_angle_beta 150.456079
_cell_angle_gamma 154.311957
_cell_volume 709.090200
_symmetry_space_group_name_H-M "P -1"
_symmetry_group_IT_number 2
_symmetry_cell_setting 'triclinic'
loop_
_space_group_symop_operation_xyz
x,y,z
-x,-y,-z
loop_
_atom_site_type_symbol
_atom_site_label
_atom_site_fract_x
_atom_site_fract_y
_atom_site_fract_z
Si Si1 0.770401 0.360995 0.310510
Si Si2 0.591750 0.913859 0.661175
Si Si3 0.243744 0.365617 0.936116
Si Si4 0.487313 0.510258 0.727629
Si Si5 0.107107 0.458283 0.014103
Si Si6 0.370164 0.704707 0.433385
Si Si7 0.169179 0.867583 0.557904
Si Si8 0.404648 0.856343 0.096644
O O1 0.456500 0.157275 0.227053
O O2 0.788436 0.503127 0.170174
O O3 0.825562 0.280182 0.348206
O O4 0.000000 0.500000 0.500000
O O5 0.366981 0.706173 0.538805
O O6 0.500000 0.000000 0.500000
O O7 0.944993 0.118152 0.811257
O O8 0.500000 0.500000 0.000000
O O9 0.325540 0.343884 0.118920
O O10 0.662603 0.506854 0.837395
O O11 0.437637 0.598341 0.550221
O O12 0.165190 0.274272 0.640783
O O13 0.307570 0.666932 0.105608
O O14 0.931210 0.427940 0.795570
O O15 0.864630 0.248119 0.010513
O O16 0.651006 0.957450 0.483035
O O17 0.306243 0.986608 0.691802
O O18 0.500000 0.000000 0.000000
#
# Coordination Sequence:
#
# PCOD8025938 Si02
#       8
#     2   2   2   2   2   2   2   2
#     4  12  24  41  70  97 141 186 232 284 337 409
#     4  12  22  40  69  95 135 194 230 273 344 404
#     4  12  27  43  61 106 145 182 239 285 335 406
#     4  12  27  42  71 101 141 185 227 289 339 408
#     4  10  25  47  70 106 132 176 234 282 353 412
#     4  11  23  46  68  98 143 178 233 284 341 408
#     4  11  25  44  68 104 134 185 231 279 351 411
#     4  10  23  46  76  99 136 176 226 291 351 415
#
# _framework density 22.564122999999999
#
# number of rings (size 3 to 8) (size 9 to 14) (size 15 to 20)
#    0.000    0.750    2.500    4.500    5.250    4.500 
#    0.000    8.750    0.000    0.000    0.000    0.000 
#    0.000    0.000    0.000    0.000    0.000    0.000 
#
# Total GULP energy -198324.126976 kJ/mol
# GULP energy per Si atom -12395.257936 kJ/mol
# Density = 2.251277 g / cm^3
# Si number density = 22.564123 Si / 1000 Ang^3
#
#
#
# Elastic Constant Matrix: (Units=GPa)
#
#
# Indices 1 2 3 4 5 6 
#
# 1 124.5040 18.1828 59.3400 8.9387 4.0549 -5.8542
# 2 18.1828 77.6441 39.3665 -0.0305 -1.7077 -5.0964
# 3 59.3400 39.3665 123.6972 5.8096 6.0313 -15.1247
# 4 8.9387 -0.0305 5.8096 48.4855 -2.3906 -5.5703
# 5 4.0549 -1.7077 6.0313 -2.3906 42.0316 1.2887
# 6 -5.8542 -5.0964 -15.1247 -5.5703 1.2887 34.4133
#
#
#
# Elastic Compliance Matrix: (Units=1/GPa)
#
#
# Indices 1 2 3 4 5 6 
#
# 1 0.010518 0.000050 -0.005056 -0.001424 -0.000348 -0.000643
# 2 0.000050 0.015455 -0.005024 0.000688 0.001379 0.000149
# 3 -0.005056 -0.005024 0.012689 -0.000214 -0.001672 0.004001
# 4 -0.001424 0.000688 -0.000214 0.021342 0.001313 0.003171
# 5 -0.000348 0.001379 -0.001672 0.001313 0.024235 -0.001285
# 6 -0.000643 0.000149 0.004001 0.003171 -0.001285 0.031291
#
#
# Mechanical properties :
#
#
# Convention : Reuss Voigt Hill
#
# Bulk Modulus (GPa) = 53.75709 62.18044 57.96876
# Shear Modulus (GPa) = 35.26295 38.91647 37.08971
#
# Velocity S-wave (km/s) = 3.95750 4.15746 4.05871
# Velocity P-wave (km/s) = 6.69016 7.11780 6.90729
#
# Compressibility (1/GPa) = 0.01860220
#
# Stress axis : x y z
#
# Youngs Moduli (GPa) = 95.07683 64.70365 78.80534
#
# Poissons Ratio (x) = -0.00324 0.39846
# Poissons Ratio (y) = -0.00476 0.39591
# Poissons Ratio (z) = 0.48074 0.32506
#
# Static dielectric constant tensor:
#      x y z
#    x 0.097910 7.779910 -1.000780 
#    y 7.779910 -8.681580 2.035050 
#    z -1.000780 2.035050 3.579790 
# 
# 
# High freq. dielectric constant tensor:
#      x y z
#    x 1.888530 0.013090 -0.001760 
#    y 0.013090 1.906230 0.012710 
#    z -0.001760 0.012710 1.886320 
# 
# From -- ./inp_files/534338.got.cif
#   From: 2010.06.25/outbox.cif.g09.slc.cpg/sg2_268_cif.got.tgz:534338.got - 2010.06.27 13:26:56.
