data_PCOD8025963
_publ_section_title
;
Structure prediction by ZEFSAII (Michael W. Deem and Ramdas Pophale) SiO2 
 PCOD8025963
Probable space group: P -1
;
_chemical_formula_sum "Si O2"
_cell_formula_units_Z 12
_cell_length_a 15.491901
_cell_length_b 7.895390
_cell_length_c 15.123567
_cell_angle_alpha 50.369825
_cell_angle_beta 26.949241
_cell_angle_gamma 67.325083
_cell_volume 549.745605
_symmetry_space_group_name_H-M "P -1"
_symmetry_group_IT_number 2
_symmetry_cell_setting 'triclinic'
loop_
_space_group_symop_operation_xyz
x,y,z
-x,-y,-z
loop_
_atom_site_type_symbol
_atom_site_label
_atom_site_fract_x
_atom_site_fract_y
_atom_site_fract_z
Si Si1 0.534554 0.372160 0.595423
Si Si2 0.663369 0.975740 0.592471
Si Si3 0.996294 0.831392 0.640954
Si Si4 0.485950 0.451730 0.263027
Si Si5 0.798591 0.359389 0.607781
Si Si6 0.762785 0.154998 0.891155
O O1 0.500000 0.500000 0.500000
O O2 0.695797 0.262584 0.458201
O O3 0.613713 0.573793 0.538053
O O4 0.296998 0.126860 0.927598
O O5 0.873048 0.998178 0.448124
O O6 0.636491 0.839917 0.567327
O O7 0.428503 0.788044 0.921154
O O8 0.147981 0.717287 0.509453
O O9 0.753265 0.593686 0.968120
O O10 0.000000 0.000000 0.500000
O O11 0.421835 0.626061 0.204917
O O12 0.763292 0.153118 0.784255
O O13 0.999133 0.640377 0.357063
#
# Coordination Sequence:
#
# PCOD8025963 Si02
#       6
#     2   2   2   2   2   2
#     4  10  23  47  67  91 134 175 225 277 318 385
#     4  10  24  42  64 101 131 170 230 261 326 401
#     4  12  24  38  65 102 137 175 215 265 335 404
#     4  12  25  41  70  96 134 175 214 276 339 385
#     4  11  21  41  66 100 139 169 210 278 334 399
#     4   9  21  40  65  96 133 168 218 267 327 390
#
# _framework density 21.828277
#
# number of rings (size 3 to 8) (size 9 to 14) (size 15 to 20)
#    1.000    0.333    3.333    2.000    7.000    4.000 
#    0.000    1.667    0.000    0.000    0.000    0.000 
#    0.000    0.000    0.000    0.000    0.000    0.000 
#
# Total GULP energy -148711.045157 kJ/mol
# GULP energy per Si atom -12392.587096 kJ/mol
# Density = 2.177860 g / cm^3
# Si number density = 21.828277 Si / 1000 Ang^3
#
#
#
# Elastic Constant Matrix: (Units=GPa)
#
#
# Indices 1 2 3 4 5 6 
#
# 1 152.6010 62.1406 49.3315 -18.4947 1.3821 15.8039
# 2 62.1406 122.8591 26.4164 0.0292 2.1459 29.5950
# 3 49.3315 26.4164 60.2975 0.1981 -7.4227 -3.3144
# 4 -18.4947 0.0292 0.1981 22.0199 -6.8347 1.3749
# 5 1.3821 2.1459 -7.4227 -6.8347 30.7730 -1.3090
# 6 15.8039 29.5950 -3.3144 1.3749 -1.3090 43.6199
#
#
#
# Elastic Compliance Matrix: (Units=1/GPa)
#
#
# Indices 1 2 3 4 5 6 
#
# 1 0.012552 -0.003705 -0.008872 0.010760 -0.000185 -0.003053
# 2 -0.003705 0.012508 -0.003154 -0.003430 -0.002541 -0.007352
# 3 -0.008872 -0.003154 0.026398 -0.006334 0.005908 0.007737
# 4 0.010760 -0.003430 -0.006334 0.058146 0.010991 -0.003556
# 5 -0.000185 -0.002541 0.005908 0.010991 0.036675 0.002994
# 6 -0.003053 -0.007352 0.007737 -0.003556 0.002994 0.029809
#
#
# Mechanical properties :
#
#
# Convention : Reuss Voigt Hill
#
# Bulk Modulus (GPa) = 50.01101 67.94832 58.97966
# Shear Modulus (GPa) = 23.34116 32.47383 27.90749
#
# Velocity S-wave (km/s) = 3.27358 3.86125 3.57949
# Velocity P-wave (km/s) = 6.10322 7.14669 6.64546
#
# Compressibility (1/GPa) = 0.01999560
#
# Stress axis : x y z
#
# Youngs Moduli (GPa) = 79.67124 79.95188 37.88159
#
# Poissons Ratio (x) = 0.29621 0.33608
# Poissons Ratio (y) = 0.29517 0.11948
# Poissons Ratio (z) = 0.70683 0.25218
#
# Static dielectric constant tensor:
#      x y z
#    x 3.786590 0.316780 -0.196080 
#    y 0.316780 4.100870 0.222820 
#    z -0.196080 0.222820 3.633310 
# 
# 
# High freq. dielectric constant tensor:
#      x y z
#    x 1.848360 0.021190 -0.024910 
#    y 0.021190 1.868540 0.017160 
#    z -0.024910 0.017160 1.827860 
# 
# From -- ./inp_files/168995.got.cif
#   From: 2010.06.25/outbox.cif.g09.slc.cpg/sg2_85_cif.got.tgz:168995.got - 2010.06.27 13:26:56.
