data_PCOD8025902
_publ_section_title
;
Structure prediction by ZEFSAII (Michael W. Deem and Ramdas Pophale) SiO2 
 PCOD8025902
Probable space group: P -1
;
_chemical_formula_sum "Si O2"
_cell_formula_units_Z 16
_cell_length_a 18.782830
_cell_length_b 10.391570
_cell_length_c 14.025039
_cell_angle_alpha 147.685043
_cell_angle_beta 44.831986
_cell_angle_gamma 137.329757
_cell_volume 962.284918
_symmetry_space_group_name_H-M "P -1"
_symmetry_group_IT_number 2
_symmetry_cell_setting 'triclinic'
loop_
_space_group_symop_operation_xyz
x,y,z
-x,-y,-z
loop_
_atom_site_type_symbol
_atom_site_label
_atom_site_fract_x
_atom_site_fract_y
_atom_site_fract_z
Si Si1 0.643796 0.467304 0.387233
Si Si2 0.262992 0.716883 0.177356
Si Si3 0.176796 0.131621 0.435067
Si Si4 0.970894 0.897072 0.606635
Si Si5 0.283992 0.382743 0.785143
Si Si6 0.026680 0.398225 0.238065
Si Si7 0.419030 0.138045 0.407181
Si Si8 0.037663 0.062449 0.849098
O O1 0.737073 0.577089 0.447270
O O2 0.696437 0.438951 0.217312
O O3 0.547541 0.199769 0.343099
O O4 0.589252 0.685876 0.564781
O O5 0.156055 0.523669 0.209928
O O6 0.229264 0.918684 0.273321
O O7 0.353304 0.844251 0.252643
O O8 0.313556 0.561127 0.961723
O O9 0.136454 0.104676 0.347414
O O10 0.076735 0.092827 0.576786
O O11 0.970901 0.608331 0.425276
O O12 0.964808 0.994910 0.780818
O O13 0.361016 0.210937 0.599999
O O14 0.161645 0.186450 0.777939
O O15 0.975984 0.198366 0.245150
O O16 0.001857 0.256752 0.069934
#
# Coordination Sequence:
#
# PCOD8025902 Si02
#       8
#     2   2   2   2   2   2   2   2
#     4   8  14  28  39  59  88 112 132 175 203 242
#     4   9  16  28  41  64  87 109 140 170 208 249
#     4   9  17  29  41  61  91 112 143 170 196 259
#     4  10  17  30  44  59  86 121 138 165 213 248
#     4   9  15  26  43  61  84 113 133 169 215 243
#     4   9  19  29  44  66  85 108 143 181 201 248
#     4   8  15  26  40  58  88 109 137 172 204 248
#     4  10  17  30  45  64  87 108 143 175 211 243
#
# _framework density 16.627092999999999
#
# number of rings (size 3 to 8) (size 9 to 14) (size 15 to 20)
#    0.750    2.250    1.250    1.125    0.000    0.500 
#    2.250    2.500    0.000    0.000    0.000    3.500 
#    0.000    6.000    0.000    0.375    0.000    0.000 
#
# Total GULP energy -198227.513401 kJ/mol
# GULP energy per Si atom -12389.219588 kJ/mol
# Density = 1.658925 g / cm^3
# Si number density = 16.627093 Si / 1000 Ang^3
#
#
#
# Elastic Constant Matrix: (Units=GPa)
#
#
# Indices 1 2 3 4 5 6 
#
# 1 61.7924 32.0916 27.8546 -0.0273 17.3975 16.3289
# 2 32.0916 56.1337 34.8462 -3.4693 5.0797 16.9558
# 3 27.8546 34.8462 74.6856 0.7783 22.7727 13.5179
# 4 -0.0273 -3.4693 0.7783 21.0241 1.2294 6.1036
# 5 17.3975 5.0797 22.7727 1.2294 17.7358 2.5314
# 6 16.3289 16.9558 13.5179 6.1036 2.5314 20.0734
#
#
#
# Elastic Compliance Matrix: (Units=1/GPa)
#
#
# Indices 1 2 3 4 5 6 
#
# 1 0.038466 -0.019273 0.011607 0.004438 -0.044779 -0.018530
# 2 -0.019273 0.044111 -0.021684 0.010208 0.035484 -0.014559
# 3 0.011607 -0.021684 0.036251 0.000777 -0.050431 -0.009415
# 4 0.004438 0.010208 0.000777 0.058249 -0.008110 -0.029445
# 5 -0.044779 0.035484 -0.050431 -0.008110 0.152078 0.023703
# 6 -0.018530 -0.014559 -0.009415 -0.029445 0.023703 0.089492
#
#
# Mechanical properties :
#
#
# Convention : Reuss Voigt Hill
#
# Bulk Modulus (GPa) = 16.63075 42.46627 29.54851
# Shear Modulus (GPa) = 10.05250 18.28795 14.17022
#
# Velocity S-wave (km/s) = 2.46150 3.32005 2.92248
# Velocity P-wave (km/s) = 4.25471 6.34767 5.40349
#
# Compressibility (1/GPa) = 0.06012958
#
# Stress axis : x y z
#
# Youngs Moduli (GPa) = 25.99680 22.66999 27.58574
#
# Poissons Ratio (x) = 0.43692 -0.32020
# Poissons Ratio (y) = 0.50103 0.59816
# Poissons Ratio (z) = -0.30176 0.49157
#
# Static dielectric constant tensor:
#      x y z
#    x 2.882220 0.280620 0.262960 
#    y 0.280620 3.186410 0.044680 
#    z 0.262960 0.044680 3.015610 
# 
# 
# High freq. dielectric constant tensor:
#      x y z
#    x 1.596480 0.027590 0.028800 
#    y 0.027590 1.632420 0.000500 
#    z 0.028800 0.000500 1.630470 
# 
# From -- ./inp_files/523001.got.cif
#   From: 2010.06.25/outbox.cif.g09.slc.cpg/sg2_262_cif.got.tgz:523001.got - 2010.06.27 13:26:56.
