data_PCOD8025861
_publ_section_title
;
Structure prediction by ZEFSAII (Michael W. Deem and Ramdas Pophale) SiO2 
 PCOD8025861
Probable space group: P -1
;
_chemical_formula_sum "Si O2"
_cell_formula_units_Z 14
_cell_length_a 6.221277
_cell_length_b 8.176925
_cell_length_c 17.250384
_cell_angle_alpha 127.005089
_cell_angle_beta 66.411716
_cell_angle_gamma 120.247403
_cell_volume 599.372629
_symmetry_space_group_name_H-M "P -1"
_symmetry_group_IT_number 2
_symmetry_cell_setting 'triclinic'
loop_
_space_group_symop_operation_xyz
x,y,z
-x,-y,-z
loop_
_atom_site_type_symbol
_atom_site_label
_atom_site_fract_x
_atom_site_fract_y
_atom_site_fract_z
Si Si1 0.735185 0.445898 0.423566
Si Si2 0.097203 0.264838 0.749135
Si Si3 0.284601 0.530996 0.117670
Si Si4 0.832995 0.754880 0.088066
Si Si5 0.675218 0.872619 0.908588
Si Si6 0.489199 0.386526 0.289216
Si Si7 0.003557 0.220632 0.407928
O O1 0.500000 0.500000 0.500000
O O2 0.706152 0.387069 0.319895
O O3 0.969857 0.667515 0.478431
O O4 0.757541 0.234089 0.404145
O O5 0.076452 0.264107 0.844127
O O6 0.382294 0.389208 0.714417
O O7 0.910685 0.389076 0.783675
O O8 0.001765 0.024384 0.656422
O O9 0.542945 0.741962 0.128462
O O10 0.355775 0.344349 0.099540
O O11 0.164767 0.441686 0.025226
O O12 0.028108 0.980935 0.089371
O O13 0.582242 0.815527 0.817359
O O14 0.500000 0.000000 0.000000
O O15 0.237888 0.376463 0.366494
#
# Coordination Sequence:
#
# PCOD8025861 Si02
#       7
#     2   2   2   2   2   2   2
#     4   9  22  46  73  98 133 173 220 278 333 407
#     4  12  25  41  69 100 134 174 222 278 338 394
#     4  11  27  43  64  96 135 180 230 280 326 389
#     4  11  25  44  66  92 136 182 229 279 327 389
#     4  12  26  44  67  98 138 185 227 272 331 392
#     4  11  24  43  68 101 140 173 224 276 329 404
#     4  10  23  46  71 100 132 174 223 275 340 395
#
# _framework density 23.357754
#
# number of rings (size 3 to 8) (size 9 to 14) (size 15 to 20)
#    0.000    1.143    2.857    1.714    6.000    5.143 
#    0.000    6.429    0.000    0.000    0.000    0.000 
#    0.000    0.000    0.000    0.000    0.000    0.000 
#
# Total GULP energy -173455.462931 kJ/mol
# GULP energy per Si atom -12389.675924 kJ/mol
# Density = 2.330459 g / cm^3
# Si number density = 23.357754 Si / 1000 Ang^3
#
#
#
# Elastic Constant Matrix: (Units=GPa)
#
#
# Indices 1 2 3 4 5 6 
#
# 1 94.3659 38.0072 49.4120 16.0592 4.5573 1.0244
# 2 38.0072 104.7556 24.1490 11.5362 -6.5257 27.5812
# 3 49.4120 24.1490 111.8397 23.4335 22.6295 1.1563
# 4 16.0592 11.5362 23.4335 32.3795 -1.8827 -2.6897
# 5 4.5573 -6.5257 22.6295 -1.8827 49.4604 1.5635
# 6 1.0244 27.5812 1.1563 -2.6897 1.5635 40.4515
#
#
#
# Elastic Compliance Matrix: (Units=1/GPa)
#
#
# Indices 1 2 3 4 5 6 
#
# 1 0.015822 -0.005046 -0.005636 -0.001698 0.000293 0.003077
# 2 -0.005046 0.014767 -0.000882 -0.002793 0.003034 -0.010219
# 3 -0.005636 -0.000882 0.014591 -0.007827 -0.006573 0.000061
# 4 -0.001698 -0.002793 -0.007827 0.039040 0.004710 0.004585
# 5 0.000293 0.003034 -0.006573 0.004710 0.023857 -0.002497
# 6 0.003077 -0.010219 0.000061 0.004585 -0.002497 0.032010
#
#
# Mechanical properties :
#
#
# Convention : Reuss Voigt Hill
#
# Bulk Modulus (GPa) = 45.34820 59.34418 52.34619
# Shear Modulus (GPa) = 29.31390 37.75114 33.53252
#
# Velocity S-wave (km/s) = 3.54644 4.02458 3.79305
# Velocity P-wave (km/s) = 6.01884 6.85989 6.45308
#
# Compressibility (1/GPa) = 0.02205159
#
# Stress axis : x y z
#
# Youngs Moduli (GPa) = 63.20307 67.71754 68.53358
#
# Poissons Ratio (x) = 0.34171 0.38627
# Poissons Ratio (y) = 0.31893 0.06047
# Poissons Ratio (z) = 0.35622 0.05975
#
# Static dielectric constant tensor:
#      x y z
#    x 4.485190 0.161340 0.565850 
#    y 0.161340 4.056710 -0.085800 
#    z 0.565850 -0.085800 4.634110 
# 
# 
# High freq. dielectric constant tensor:
#      x y z
#    x 1.927700 0.013260 0.015790 
#    y 0.013260 1.901080 0.000400 
#    z 0.015790 0.000400 1.934340 
# 
# From -- ./inp_files/548394.got.cif
#   From: 2010.06.25/outbox.cif.g09.slc.cpg/sg2_275_cif.got.tgz:548394.got - 2010.06.27 13:26:56.
