data_PCOD8025518
_publ_section_title
;
Structure prediction by ZEFSAII (Michael W. Deem and Ramdas Pophale) SiO2 
 PCOD8025518
Probable space group: P -1
;
_chemical_formula_sum "Si O2"
_cell_formula_units_Z 16
_cell_length_a 6.732060
_cell_length_b 7.935531
_cell_length_c 17.623031
_cell_angle_alpha 51.391675
_cell_angle_beta 76.072432
_cell_angle_gamma 93.824687
_cell_volume 684.240564
_symmetry_space_group_name_H-M "P -1"
_symmetry_group_IT_number 2
_symmetry_cell_setting 'triclinic'
loop_
_space_group_symop_operation_xyz
x,y,z
-x,-y,-z
loop_
_atom_site_type_symbol
_atom_site_label
_atom_site_fract_x
_atom_site_fract_y
_atom_site_fract_z
Si Si1 0.558816 0.856625 0.917263
Si Si2 0.036476 0.922507 0.101105
Si Si3 0.336682 0.097642 0.759852
Si Si4 0.490497 0.420677 0.437601
Si Si5 0.178476 0.223157 0.401303
Si Si6 0.459965 0.960112 0.624239
Si Si7 0.945793 0.412334 0.252455
Si Si8 0.844730 0.536735 0.936260
O O1 0.702263 0.699477 0.922459
O O2 0.522201 0.031765 0.808745
O O3 0.323218 0.702952 0.006419
O O4 0.707562 0.005879 0.927519
O O5 0.900087 0.019482 0.149825
O O6 0.923818 0.659634 0.185657
O O7 0.000000 0.000000 0.000000
O O8 0.363880 0.367874 0.682332
O O9 0.361911 0.016088 0.695960
O O10 0.500000 0.500000 0.500000
O O11 0.259651 0.351762 0.437035
O O12 0.549825 0.183299 0.500421
O O13 0.351477 0.153249 0.352503
O O14 0.111239 0.400976 0.305631
O O15 0.000000 0.000000 0.500000
O O16 0.273732 0.770368 0.652993
O O17 0.012320 0.356431 0.178229
O O18 0.000000 0.500000 0.000000
#
# Coordination Sequence:
#
# PCOD8025518 Si02
#       8
#     2   2   2   2   2   2   2   2
#     4  11  23  43  68  98 139 176 235 288 352 420
#     4  12  27  43  67 102 144 188 232 294 357 426
#     4  11  24  44  68  99 141 186 237 289 356 427
#     4  10  23  45  69 100 142 189 227 295 359 422
#     4  12  25  43  72 103 139 181 240 295 351 428
#     4  11  24  45  71 100 139 185 236 292 353 418
#     4  12  25  42  71 101 139 187 235 288 360 417
#     4  11  24  44  72 101 136 184 237 295 352 427
#
# _framework density 23.383590000000002
#
# number of rings (size 3 to 8) (size 9 to 14) (size 15 to 20)
#    0.000    0.750    1.250    6.375    1.750    6.000 
#    0.000    1.250    0.000    0.000    0.000    0.000 
#    0.000    0.000    0.000    0.000    0.000    0.000 
#
# Total GULP energy -198234.495876 kJ/mol
# GULP energy per Si atom -12389.655992 kJ/mol
# Density = 2.333037 g / cm^3
# Si number density = 23.383590 Si / 1000 Ang^3
#
#
#
# Elastic Constant Matrix: (Units=GPa)
#
#
# Indices 1 2 3 4 5 6 
#
# 1 127.3815 36.0208 63.8464 -0.1549 4.5128 17.8762
# 2 36.0208 86.7742 45.7116 -13.3983 -0.7231 20.4921
# 3 63.8464 45.7116 147.1913 -4.0980 18.6038 6.2947
# 4 -0.1549 -13.3983 -4.0980 44.4044 -1.9978 5.8693
# 5 4.5128 -0.7231 18.6038 -1.9978 50.9498 0.0599
# 6 17.8762 20.4921 6.2947 5.8693 0.0599 43.1135
#
#
#
# Elastic Compliance Matrix: (Units=1/GPa)
#
#
# Indices 1 2 3 4 5 6 
#
# 1 0.010786 -0.001657 -0.004110 -0.000419 0.000509 -0.003028
# 2 -0.001657 0.017307 -0.004447 0.005925 0.002258 -0.007699
# 3 -0.004110 -0.004447 0.010269 -0.000888 -0.003486 0.002444
# 4 -0.000419 0.005925 -0.000888 0.025073 0.001436 -0.005928
# 5 0.000509 0.002258 -0.003486 0.001436 0.020945 -0.001000
# 6 -0.003028 -0.007699 0.002444 -0.005928 -0.001000 0.028561
#
#
# Mechanical properties :
#
#
# Convention : Reuss Voigt Hill
#
# Bulk Modulus (GPa) = 55.76509 72.50052 64.13280
# Shear Modulus (GPa) = 35.88182 42.07808 38.97995
#
# Velocity S-wave (km/s) = 3.92150 4.24662 4.08729
# Velocity P-wave (km/s) = 6.66363 7.42410 7.05412
#
# Compressibility (1/GPa) = 0.01793237
#
# Stress axis : x y z
#
# Youngs Moduli (GPa) = 92.71615 57.78146 97.37875
#
# Poissons Ratio (x) = 0.09576 0.40025
# Poissons Ratio (y) = 0.15366 0.43304
# Poissons Ratio (z) = 0.38108 0.25695
#
# Static dielectric constant tensor:
#      x y z
#    x 3.682410 1.730280 0.693290 
#    y 1.730280 0.731430 -1.783140 
#    z 0.693290 -1.783140 3.424290 
# 
# 
# High freq. dielectric constant tensor:
#      x y z
#    x 1.923340 0.004580 0.003360 
#    y 0.004580 1.938390 -0.012920 
#    z 0.003360 -0.012920 1.943740 
# 
# From -- ./inp_files/547772.got.cif
#   From: 2010.06.25/outbox.cif.g09.slc.cpg/sg2_274_cif.got.tgz:547772.got - 2010.06.27 13:26:56.
