data_PCOD8025549
_publ_section_title
;
Structure prediction by ZEFSAII (Michael W. Deem and Ramdas Pophale) SiO2 
 PCOD8025549
Probable space group: P -1
;
_chemical_formula_sum "Si O2"
_cell_formula_units_Z 16
_cell_length_a 14.440154
_cell_length_b 8.305821
_cell_length_c 13.422270
_cell_angle_alpha 57.681066
_cell_angle_beta 32.858809
_cell_angle_gamma 60.789967
_cell_volume 735.473912
_symmetry_space_group_name_H-M "P -1"
_symmetry_group_IT_number 2
_symmetry_cell_setting 'triclinic'
loop_
_space_group_symop_operation_xyz
x,y,z
-x,-y,-z
loop_
_atom_site_type_symbol
_atom_site_label
_atom_site_fract_x
_atom_site_fract_y
_atom_site_fract_z
Si Si1 0.314100 0.488176 0.883688
Si Si2 0.016524 0.744417 0.003659
Si Si3 0.283768 0.905106 0.151038
Si Si4 0.348010 0.228201 0.126307
Si Si5 0.881088 0.884817 0.287787
Si Si6 0.502867 0.866482 0.635177
Si Si7 0.308809 0.159495 0.862933
Si Si8 0.965306 0.720618 0.468173
O O1 0.408025 0.678894 0.756403
O O2 0.404907 0.332096 0.773711
O O3 0.293083 0.393208 0.041735
O O4 0.128762 0.541771 0.980293
O O5 0.986562 0.803321 0.125253
O O6 0.835150 0.740432 0.113542
O O7 0.133923 0.886130 0.790938
O O8 0.122187 0.791544 0.367388
O O9 0.329974 0.018603 0.169411
O O10 0.454443 0.762205 0.018909
O O11 0.228199 0.046506 0.063246
O O12 0.222553 0.240104 0.329558
O O13 0.700223 0.798089 0.498274
O O14 0.988896 0.823959 0.307472
O O15 0.500000 0.000000 0.500000
O O16 0.429567 0.999307 0.748581
O O17 0.000000 0.500000 0.500000
#
# Coordination Sequence:
#
# PCOD8025549 Si02
#       8
#     2   2   2   2   2   2   2   2
#     4  11  25  42  68  98 129 176 218 266 340 394
#     4  11  20  42  66  91 137 168 213 273 327 400
#     4  10  23  45  69  92 132 179 217 277 337 381
#     4  10  24  46  66  96 133 171 225 279 327 396
#     4  11  23  40  64  97 130 175 216 269 337 391
#     4  12  23  42  65  93 134 171 211 275 324 387
#     4  11  23  43  68  96 132 173 218 270 332 400
#     4  12  25  39  67 102 129 173 227 270 331 400
#
# _framework density 21.75468
#
# number of rings (size 3 to 8) (size 9 to 14) (size 15 to 20)
#    0.000    1.000    3.750    3.000    3.500    1.000 
#    0.000    0.000    0.000    0.000    0.000    0.000 
#    0.000    0.000    0.000    0.000    0.000    0.000 
#
# Total GULP energy -198238.111163 kJ/mol
# GULP energy per Si atom -12389.881948 kJ/mol
# Density = 2.170517 g / cm^3
# Si number density = 21.754680 Si / 1000 Ang^3
#
#
#
# Elastic Constant Matrix: (Units=GPa)
#
#
# Indices 1 2 3 4 5 6 
#
# 1 74.8459 36.3566 33.7036 -9.3715 9.3188 -4.3307
# 2 36.3566 112.8216 43.5457 -7.5622 -0.1042 7.6517
# 3 33.7036 43.5457 95.0907 1.8182 -4.8475 5.3636
# 4 -9.3715 -7.5622 1.8182 27.8405 -2.6190 -1.5497
# 5 9.3188 -0.1042 -4.8475 -2.6190 39.0263 3.4650
# 6 -4.3307 7.6517 5.3636 -1.5497 3.4650 45.9372
#
#
#
# Elastic Compliance Matrix: (Units=1/GPa)
#
#
# Indices 1 2 3 4 5 6 
#
# 1 0.019396 -0.003957 -0.005649 0.005532 -0.005304 0.003734
# 2 -0.003957 0.011939 -0.003958 0.002139 0.000796 -0.001887
# 3 -0.005649 -0.003958 0.014670 -0.003753 0.003081 -0.001945
# 4 0.005532 0.002139 -0.003753 0.038772 0.000655 0.001862
# 5 -0.005304 0.000796 0.003081 0.000655 0.027590 -0.003051
# 6 0.003734 -0.001887 -0.001945 0.001862 -0.003051 0.022955
#
#
# Mechanical properties :
#
#
# Convention : Reuss Voigt Hill
#
# Bulk Modulus (GPa) = 52.98102 56.66333 54.82217
# Shear Modulus (GPa) = 29.63069 33.83762 31.73416
#
# Velocity S-wave (km/s) = 3.69458 3.94816 3.82347
# Velocity P-wave (km/s) = 6.52738 6.84741 6.68931
#
# Compressibility (1/GPa) = 0.01887469
#
# Stress axis : x y z
#
# Youngs Moduli (GPa) = 51.55699 83.76092 68.16686
#
# Poissons Ratio (x) = 0.33146 0.38509
# Poissons Ratio (y) = 0.20402 0.26984
# Poissons Ratio (z) = 0.29126 0.33157
#
# Static dielectric constant tensor:
#      x y z
#    x 4.032870 -0.202980 -0.138350 
#    y -0.202980 4.673680 0.113550 
#    z -0.138350 0.113550 3.612830 
# 
# 
# High freq. dielectric constant tensor:
#      x y z
#    x 1.868020 -0.007000 -0.000760 
#    y -0.007000 1.856870 -0.000780 
#    z -0.000760 -0.000780 1.842760 
# 
# From -- ./inp_files/529349.got.cif
#   From: 2010.06.25/outbox.cif.g09.slc.cpg/sg2_265_cif.got.tgz:529349.got - 2010.06.27 13:26:56.
