data_PCOD8025882
_publ_section_title
;
Structure prediction by ZEFSAII (Michael W. Deem and Ramdas Pophale) SiO2 
 PCOD8025882
Probable space group: P -1
;
_chemical_formula_sum "Si O2"
_cell_formula_units_Z 16
_cell_length_a 14.831487
_cell_length_b 8.708616
_cell_length_c 7.424127
_cell_angle_alpha 58.959876
_cell_angle_beta 107.006935
_cell_angle_gamma 71.744273
_cell_volume 647.495239
_symmetry_space_group_name_H-M "P -1"
_symmetry_group_IT_number 2
_symmetry_cell_setting 'triclinic'
loop_
_space_group_symop_operation_xyz
x,y,z
-x,-y,-z
loop_
_atom_site_type_symbol
_atom_site_label
_atom_site_fract_x
_atom_site_fract_y
_atom_site_fract_z
Si Si1 0.646203 0.573193 0.494252
Si Si2 0.883273 0.771758 0.959236
Si Si3 0.800890 0.863284 0.255856
Si Si4 0.524657 0.701327 0.914394
Si Si5 0.662168 0.200884 0.540376
Si Si6 0.131661 0.465014 0.217798
Si Si7 0.582682 0.005475 0.893625
Si Si8 0.637892 0.333459 0.954661
O O1 0.660587 0.419734 0.429199
O O2 0.765843 0.518918 0.669763
O O3 0.551048 0.825296 0.222456
O O4 0.595430 0.518711 0.667295
O O5 0.871505 0.767474 0.170464
O O6 0.011741 0.699069 0.032282
O O7 0.856941 0.610980 0.937634
O O8 0.792818 0.012224 0.681997
O O9 0.876250 0.704850 0.558499
O O10 0.762768 0.111695 0.129169
O O11 0.685082 0.862952 0.184424
O O12 0.422636 0.795879 0.653700
O O13 0.579061 0.839277 0.858358
O O14 0.462272 0.714133 0.062307
O O15 0.626003 0.450710 0.069938
O O16 0.631709 0.135371 0.752097
#
# Coordination Sequence:
#
# PCOD8025882 Si02
#       8
#     2   2   2   2   2   2   2   2
#     4  12  23  41  65  96 137 172 214 265 333 390
#     4  10  23  46  71  96 126 173 223 277 324 378
#     4  11  23  45  68  97 134 171 217 271 328 389
#     4  11  24  38  65  97 138 173 219 262 326 398
#     4  11  21  40  63  94 131 170 216 271 321 387
#     4  11  26  44  72  97 127 173 226 272 324 392
#     4  11  22  38  65  97 128 174 213 260 327 392
#     4  11  23  39  58  97 134 171 207 270 323 391
#
# _framework density 24.710605999999999
#
# number of rings (size 3 to 8) (size 9 to 14) (size 15 to 20)
#    0.000    1.000    3.750    4.125    3.500    4.500 
#    0.000    0.000    0.000    2.250    0.000    0.000 
#    0.000    0.000    0.000    0.000    0.000    0.000 
#
# Total GULP energy -198272.726667 kJ/mol
# GULP energy per Si atom -12392.045417 kJ/mol
# Density = 2.465436 g / cm^3
# Si number density = 24.710606 Si / 1000 Ang^3
#
#
#
# Elastic Constant Matrix: (Units=GPa)
#
#
# Indices 1 2 3 4 5 6 
#
# 1 81.6001 43.8605 21.9721 -6.8510 25.8087 -5.7154
# 2 43.8605 109.9616 27.1600 -15.9269 23.0436 -12.0615
# 3 21.9721 27.1600 66.8138 -5.1645 27.3068 -9.3423
# 4 -6.8510 -15.9269 -5.1645 49.9702 -10.7239 1.4053
# 5 25.8087 23.0436 27.3068 -10.7239 38.1862 4.6137
# 6 -5.7154 -12.0615 -9.3423 1.4053 4.6137 51.6732
#
#
#
# Elastic Compliance Matrix: (Units=1/GPa)
#
#
# Indices 1 2 3 4 5 6 
#
# 1 0.018128 -0.005237 0.000380 -0.001330 -0.009952 0.001776
# 2 -0.005237 0.012771 -0.002056 0.002601 -0.002227 0.002158
# 3 0.000380 -0.002056 0.023100 -0.001953 -0.016722 0.005285
# 4 -0.001330 0.002601 -0.001953 0.021999 0.007039 -0.001120
# 5 -0.009952 -0.002227 -0.016722 0.007039 0.049308 -0.009238
# 6 0.001776 0.002158 0.005285 -0.001120 -0.009238 0.021863
#
#
# Mechanical properties :
#
#
# Convention : Reuss Voigt Hill
#
# Bulk Modulus (GPa) = 24.89253 49.37339 37.13296
# Shear Modulus (GPa) = 28.67214 38.99146 33.83180
#
# Velocity S-wave (km/s) = 3.41004 3.97662 3.70418
# Velocity P-wave (km/s) = 5.05964 6.41161 5.77532
#
# Compressibility (1/GPa) = 0.04017270
#
# Stress axis : x y z
#
# Youngs Moduli (GPa) = 55.16452 78.30236 43.29022
#
# Poissons Ratio (x) = 0.41006 -0.01646
# Poissons Ratio (y) = 0.28889 0.08901
# Poissons Ratio (z) = -0.02097 0.16101
#
# Static dielectric constant tensor:
#      x y z
#    x 4.186130 -0.187220 -0.113640 
#    y -0.187220 4.694820 0.008570 
#    z -0.113640 0.008570 4.794060 
# 
# 
# High freq. dielectric constant tensor:
#      x y z
#    x 1.953890 -0.011710 -0.004180 
#    y -0.011710 2.009140 0.007710 
#    z -0.004180 0.007710 2.001280 
# 
# From -- ./inp_files/297528.got.cif
#   From: 2010.06.25/outbox.cif.g09.slc.cpg/sg2_149_cif.got.tgz:297528.got - 2010.06.27 13:26:56.
