data_PCOD8025551
_publ_section_title
;
Structure prediction by ZEFSAII (Michael W. Deem and Ramdas Pophale) SiO2 
 PCOD8025551
Probable space group: P -1
;
_chemical_formula_sum "Si O2"
_cell_formula_units_Z 14
_cell_length_a 10.433424
_cell_length_b 14.827995
_cell_length_c 9.530822
_cell_angle_alpha 81.701030
_cell_angle_beta 89.143194
_cell_angle_gamma 151.990073
_cell_volume 652.246359
_symmetry_space_group_name_H-M "P -1"
_symmetry_group_IT_number 2
_symmetry_cell_setting 'triclinic'
loop_
_space_group_symop_operation_xyz
x,y,z
-x,-y,-z
loop_
_atom_site_type_symbol
_atom_site_label
_atom_site_fract_x
_atom_site_fract_y
_atom_site_fract_z
Si Si1 0.978796 0.748974 0.281926
Si Si2 0.765487 0.427753 0.484277
Si Si3 0.357454 0.621670 0.191054
Si Si4 0.674956 0.980527 0.546553
Si Si5 0.699902 0.672545 0.072135
Si Si6 0.248764 0.843427 0.737944
Si Si7 0.698997 0.006015 0.037105
O O1 0.917877 0.607436 0.362851
O O2 0.707952 0.618321 0.229895
O O3 0.054236 0.863140 0.388348
O O4 0.258244 0.925278 0.134711
O O5 0.624668 0.373642 0.642031
O O6 0.516567 0.230404 0.431324
O O7 0.000000 0.500000 0.500000
O O8 0.591009 0.703850 0.100426
O O9 0.041721 0.398460 0.191810
O O10 0.422070 0.765066 0.104922
O O11 0.497573 0.943611 0.641849
O O12 0.795508 0.095344 0.372186
O O13 0.500000 0.500000 0.000000
O O14 0.020240 0.877604 0.955440
O O15 0.334976 0.931199 0.871080
#
# Coordination Sequence:
#
# PCOD8025551 Si02
#       7
#     2   2   2   2   2   2   2
#     4  10  25  43  63 101 138 165 223 282 325 385
#     4  12  23  42  68  98 134 177 218 270 330 398
#     4  12  21  41  71  93 126 184 222 255 336 394
#     4  11  22  40  63  99 136 167 223 270 327 387
#     4  10  23  45  69  92 139 173 219 278 332 387
#     4  11  21  39  69  94 130 180 214 268 330 395
#     4  10  24  42  64  99 130 173 219 272 330 385
#
# _framework density 21.464282000000001
#
# number of rings (size 3 to 8) (size 9 to 14) (size 15 to 20)
#    0.857    0.286    5.714    1.286    0.000    3.429 
#    0.000    2.143    0.000    0.000    0.000    0.000 
#    0.000    0.000    0.000    0.000    0.000    0.000 
#
# Total GULP energy -173540.823508 kJ/mol
# GULP energy per Si atom -12395.773108 kJ/mol
# Density = 2.141543 g / cm^3
# Si number density = 21.464282 Si / 1000 Ang^3
#
#
#
# Elastic Constant Matrix: (Units=GPa)
#
#
# Indices 1 2 3 4 5 6 
#
# 1 28.0773 16.0953 -3.3162 4.2473 -4.1397 -10.3025
# 2 16.0953 162.3884 39.2599 -2.5532 17.9691 -27.6156
# 3 -3.3162 39.2599 84.4820 -8.2775 8.1179 -24.8514
# 4 4.2473 -2.5532 -8.2775 49.1785 -3.1624 1.4617
# 5 -4.1397 17.9691 8.1179 -3.1624 38.8865 2.5790
# 6 -10.3025 -27.6156 -24.8514 1.4617 2.5790 34.2051
#
#
#
# Elastic Compliance Matrix: (Units=1/GPa)
#
#
# Indices 1 2 3 4 5 6 
#
# 1 0.045796 -0.004190 0.007736 -0.003092 0.003892 0.015870
# 2 -0.004190 0.008285 -0.002471 0.000001 -0.004019 0.003935
# 3 0.007736 -0.002471 0.017569 0.001611 -0.002448 0.013216
# 4 -0.003092 0.000001 0.001611 0.020964 0.001088 -0.000739
# 5 0.003892 -0.004019 -0.002448 0.001088 0.028991 -0.006084
# 6 0.015870 0.003935 0.013216 -0.000739 -0.006084 0.047284
#
#
# Mechanical properties :
#
#
# Convention : Reuss Voigt Hill
#
# Bulk Modulus (GPa) = 13.54987 42.11397 27.83192
# Shear Modulus (GPa) = 26.13167 39.31461 32.72314
#
# Velocity S-wave (km/s) = 3.49298 4.28440 3.90877
# Velocity P-wave (km/s) = 4.75335 6.64363 5.77634
#
# Compressibility (1/GPa) = 0.07380147
#
# Stress axis : x y z
#
# Youngs Moduli (GPa) = 21.83574 120.70614 56.91733
#
# Poissons Ratio (x) = 0.50575 -0.44033
# Poissons Ratio (y) = 0.09149 0.14063
# Poissons Ratio (z) = -0.16893 0.29823
#
# Static dielectric constant tensor:
#      x y z
#    x 3.569480 -0.007580 -0.111810 
#    y -0.007580 4.069280 0.149610 
#    z -0.111810 0.149610 4.008160 
# 
# 
# High freq. dielectric constant tensor:
#      x y z
#    x 1.812850 -0.004160 -0.009100 
#    y -0.004160 1.855380 0.007900 
#    z -0.009100 0.007900 1.848250 
# 
# From -- ./inp_files/272912.got.cif
#   From: 2010.06.25/outbox.cif.g09.slc.cpg/sg2_137_cif.got.tgz:272912.got - 2010.06.27 13:26:56.
