data_PCOD8025987
_publ_section_title
;
Structure prediction by ZEFSAII (Michael W. Deem and Ramdas Pophale) SiO2 
 PCOD8025987
Probable space group: P -1
;
_chemical_formula_sum "Si O2"
_cell_formula_units_Z 14
_cell_length_a 9.262649
_cell_length_b 12.351410
_cell_length_c 19.049466
_cell_angle_alpha 26.506420
_cell_angle_beta 144.001003
_cell_angle_gamma 135.571856
_cell_volume 571.295734
_symmetry_space_group_name_H-M "P -1"
_symmetry_group_IT_number 2
_symmetry_cell_setting 'triclinic'
loop_
_space_group_symop_operation_xyz
x,y,z
-x,-y,-z
loop_
_atom_site_type_symbol
_atom_site_label
_atom_site_fract_x
_atom_site_fract_y
_atom_site_fract_z
Si Si1 0.074949 0.508469 0.224879
Si Si2 0.909871 0.952727 0.694617
Si Si3 0.306275 0.717820 0.888021
Si Si4 0.457432 0.743127 0.705310
Si Si5 0.021631 0.765281 0.192175
Si Si6 0.771182 0.003474 0.073536
Si Si7 0.521104 0.899946 0.365826
O O1 0.017857 0.539654 0.267718
O O2 0.263741 0.283907 0.418463
O O3 0.818080 0.435457 0.133456
O O4 0.181402 0.740456 0.093712
O O5 0.676369 0.787570 0.710672
O O6 0.108924 0.782733 0.832193
O O7 0.030582 0.049061 0.757019
O O8 0.809791 0.185514 0.474439
O O9 0.415957 0.965396 0.760088
O O10 0.530301 0.544792 0.105943
O O11 0.517631 0.899985 0.706043
O O12 0.278579 0.752121 0.343119
O O13 0.808152 0.788725 0.154416
O O14 0.000000 0.000000 0.000000
O O15 0.500000 0.000000 0.000000
#
# Coordination Sequence:
#
# PCOD8025987 Si02
#       7
#     2   2   2   2   2   2   2
#     4  11  24  46  73 105 144 191 234 301 356 422
#     4  11  24  44  69 105 146 180 244 289 359 419
#     4  12  25  44  74 111 143 183 241 300 357 425
#     4  11  23  43  72 103 145 191 228 301 363 414
#     4  10  23  47  69  98 141 191 241 293 354 423
#     4  11  25  48  73 102 144 194 241 290 358 435
#     4  12  24  46  70 108 142 186 245 295 358 427
#
# _framework density 24.505696
#
# number of rings (size 3 to 8) (size 9 to 14) (size 15 to 20)
#    0.000    0.857    4.286    2.571    4.000    0.000 
#    0.000    2.143    0.000    0.000    0.000    0.000 
#    0.000    0.000    0.000    0.000    0.000    0.000 
#
# Total GULP energy -173630.222975 kJ/mol
# GULP energy per Si atom -12402.158784 kJ/mol
# Density = 2.444992 g / cm^3
# Si number density = 24.505696 Si / 1000 Ang^3
#
#
#
# Elastic Constant Matrix: (Units=GPa)
#
#
# Indices 1 2 3 4 5 6 
#
# 1 134.3498 39.2042 20.6110 1.3762 17.4744 -17.5127
# 2 39.2042 76.9383 23.8930 8.5129 1.8570 -19.2111
# 3 20.6110 23.8930 157.1655 11.6374 11.3553 -10.2127
# 4 1.3762 8.5129 11.6374 28.2786 -5.7406 1.1174
# 5 17.4744 1.8570 11.3553 -5.7406 34.0120 0.0099
# 6 -17.5127 -19.2111 -10.2127 1.1174 0.0099 42.6881
#
#
#
# Elastic Compliance Matrix: (Units=1/GPa)
#
#
# Indices 1 2 3 4 5 6 
#
# 1 0.009559 -0.004196 -0.000135 -0.000173 -0.004666 0.002006
# 2 -0.004196 0.017553 -0.001463 -0.004526 0.000920 0.005946
# 3 -0.000135 -0.001463 0.007097 -0.003072 -0.002739 0.001065
# 4 -0.000173 -0.004526 -0.003072 0.039791 0.008079 -0.003886
# 5 -0.004666 0.000920 -0.002739 0.008079 0.034027 -0.002375
# 6 0.002006 0.005946 0.001065 -0.003886 -0.002375 0.027282
#
#
# Mechanical properties :
#
#
# Convention : Reuss Voigt Hill
#
# Bulk Modulus (GPa) = 44.20777 59.54112 51.87444
# Shear Modulus (GPa) = 32.37533 39.97878 36.17705
#
# Velocity S-wave (km/s) = 3.63869 4.04345 3.84640
# Velocity P-wave (km/s) = 5.97765 6.79330 6.39849
#
# Compressibility (1/GPa) = 0.02262046
#
# Stress axis : x y z
#
# Youngs Moduli (GPa) = 104.61714 56.96968 140.89548
#
# Poissons Ratio (x) = 0.23904 0.01907
# Poissons Ratio (y) = 0.43896 0.20616
# Poissons Ratio (z) = 0.01416 0.08336
#
# Static dielectric constant tensor:
#      x y z
#    x 4.849390 -0.454640 -0.031310 
#    y -0.454640 4.714550 0.249620 
#    z -0.031310 0.249620 4.557830 
# 
# 
# High freq. dielectric constant tensor:
#      x y z
#    x 1.991730 -0.010210 0.009190 
#    y -0.010210 1.966160 0.015300 
#    z 0.009190 0.015300 1.980680 
# 
# From -- ./inp_files/465043.got.cif
#   From: 2010.06.25/outbox.cif.g09.slc.cpg/sg2_233_cif.got.tgz:465043.got - 2010.06.27 13:26:56.
