data_PCOD8025425
_publ_section_title
;
Structure prediction by ZEFSAII (Michael W. Deem and Ramdas Pophale) SiO2 
 PCOD8025425
Probable space group: P -1
;
_chemical_formula_sum "Si O2"
_cell_formula_units_Z 14
_cell_length_a 21.710078
_cell_length_b 8.314645
_cell_length_c 13.401893
_cell_angle_alpha 60.414574
_cell_angle_beta 27.463018
_cell_angle_gamma 41.803629
_cell_volume 623.265503
_symmetry_space_group_name_H-M "P -1"
_symmetry_group_IT_number 2
_symmetry_cell_setting 'triclinic'
loop_
_space_group_symop_operation_xyz
x,y,z
-x,-y,-z
loop_
_atom_site_type_symbol
_atom_site_label
_atom_site_fract_x
_atom_site_fract_y
_atom_site_fract_z
Si Si1 0.632935 0.339581 0.161147
Si Si2 0.062357 0.706688 0.729512
Si Si3 0.886642 0.575741 0.889317
Si Si4 0.236908 0.173651 0.358806
Si Si5 0.665470 0.657521 0.363549
Si Si6 0.632067 0.770781 0.026297
Si Si7 0.591605 0.388207 0.794606
O O1 0.450418 0.416947 0.455270
O O2 0.587695 0.358848 0.102538
O O3 0.626849 0.561045 0.130415
O O4 0.853717 0.023428 0.973638
O O5 0.185356 0.480439 0.712619
O O6 0.204045 0.704849 0.472805
O O7 0.995055 0.636273 0.762247
O O8 0.684929 0.834040 0.030797
O O9 0.038082 0.325449 0.663810
O O10 0.816729 0.508450 0.096225
O O11 0.202515 0.363063 0.261863
O O12 0.337247 0.892701 0.246668
O O13 0.405265 0.078636 0.223589
O O14 0.500000 0.000000 0.500000
O O15 0.500000 0.500000 0.000000
#
# Coordination Sequence:
#
# PCOD8025425 Si02
#       7
#     2   2   2   2   2   2   2
#     4  10  23  45  66  98 136 175 227 278 326 401
#     4  11  25  41  69 102 132 173 232 277 334 398
#     4  12  25  39  72  98 132 180 220 278 334 395
#     4  10  24  44  66  98 140 172 226 272 331 402
#     4  11  25  45  68 100 133 175 234 280 329 394
#     4  10  24  44  66  97 138 176 219 277 335 399
#     4  10  24  43  69  98 137 179 221 275 332 400
#
# _framework density 22.462337000000002
#
# number of rings (size 3 to 8) (size 9 to 14) (size 15 to 20)
#    0.000    1.429    1.429    1.714   10.000    1.143 
#    0.000   10.000    0.000    0.000    0.000    0.000 
#    0.000    0.000    0.000    0.000    0.000    0.000 
#
# Total GULP energy -173536.492119 kJ/mol
# GULP energy per Si atom -12395.463723 kJ/mol
# Density = 2.241121 g / cm^3
# Si number density = 22.462337 Si / 1000 Ang^3
#
#
#
# Elastic Constant Matrix: (Units=GPa)
#
#
# Indices 1 2 3 4 5 6 
#
# 1 138.8469 38.0186 46.6246 -11.2461 -20.2077 -17.0610
# 2 38.0186 93.6193 33.9743 -10.4884 -9.7382 -2.6663
# 3 46.6246 33.9743 132.0453 -28.8318 -0.7221 3.8709
# 4 -11.2461 -10.4884 -28.8318 30.4131 2.6798 0.0496
# 5 -20.2077 -9.7382 -0.7221 2.6798 36.2523 3.4271
# 6 -17.0610 -2.6663 3.8709 0.0496 3.4271 20.3573
#
#
#
# Elastic Compliance Matrix: (Units=1/GPa)
#
#
# Indices 1 2 3 4 5 6 
#
# 1 0.010703 -0.002430 -0.003516 -0.000623 0.004479 0.008567
# 2 -0.002430 0.012783 -0.002122 0.001325 0.001967 -0.000293
# 3 -0.003516 -0.002122 0.011476 0.009075 -0.002499 -0.005009
# 4 -0.000623 0.001325 0.009075 0.041955 -0.002750 -0.001713
# 5 0.004479 0.001967 -0.002499 -0.002750 0.030829 -0.000697
# 6 0.008567 -0.000293 -0.005009 -0.001713 -0.000697 0.057338
#
#
# Mechanical properties :
#
#
# Convention : Reuss Voigt Hill
#
# Bulk Modulus (GPa) = 53.12426 66.86073 59.99249
# Shear Modulus (GPa) = 26.66722 33.79747 30.23234
#
# Velocity S-wave (km/s) = 3.44931 3.88316 3.67265
# Velocity P-wave (km/s) = 6.29010 7.06651 6.68958
#
# Compressibility (1/GPa) = 0.01882379
#
# Stress axis : x y z
#
# Youngs Moduli (GPa) = 93.43545 78.22726 87.14202
#
# Poissons Ratio (x) = 0.19009 0.30643
# Poissons Ratio (y) = 0.22705 0.18494
# Poissons Ratio (z) = 0.32856 0.16602
#
# Static dielectric constant tensor:
#      x y z
#    x 4.174100 -0.274310 -0.303770 
#    y -0.274310 4.020210 -0.145810 
#    z -0.303770 -0.145810 4.293470 
# 
# 
# High freq. dielectric constant tensor:
#      x y z
#    x 1.894770 -0.016490 -0.023290 
#    y -0.016490 1.872560 -0.016370 
#    z -0.023290 -0.016370 1.896640 
# 
# From -- ./inp_files/469883.got.cif
#   From: 2010.06.25/outbox.cif.g09.slc.cpg/sg2_235_cif.got.tgz:469883.got - 2010.06.27 13:26:56.
