data_PCOD8025727
_publ_section_title
;
Structure prediction by ZEFSAII (Michael W. Deem and Ramdas Pophale) SiO2 
 PCOD8025727
Probable space group: P -1
;
_chemical_formula_sum "Si O2"
_cell_formula_units_Z 16
_cell_length_a 8.111947
_cell_length_b 5.116320
_cell_length_c 17.847252
_cell_angle_alpha 78.866752
_cell_angle_beta 84.895696
_cell_angle_gamma 121.809465
_cell_volume 601.243821
_symmetry_space_group_name_H-M "P -1"
_symmetry_group_IT_number 2
_symmetry_cell_setting 'triclinic'
loop_
_space_group_symop_operation_xyz
x,y,z
-x,-y,-z
loop_
_atom_site_type_symbol
_atom_site_label
_atom_site_fract_x
_atom_site_fract_y
_atom_site_fract_z
Si Si1 0.131302 0.815825 0.053694
Si Si2 0.710251 0.591061 0.398276
Si Si3 0.806884 0.129556 0.470368
Si Si4 0.226546 0.167717 0.887779
Si Si5 0.866587 0.459620 0.676303
Si Si6 0.036862 0.926147 0.758067
Si Si7 0.684758 0.828614 0.646071
Si Si8 0.314481 0.405515 0.110124
O O1 0.226033 0.622553 0.086677
O O2 0.907274 0.683592 0.100524
O O3 0.287118 0.190663 0.051143
O O4 0.133301 0.844227 0.960952
O O5 0.707351 0.331409 0.466134
O O6 0.542113 0.384257 0.356420
O O7 0.676236 0.817919 0.439192
O O8 0.909920 0.809431 0.325988
O O9 0.026195 0.375865 0.415603
O O10 0.825821 0.022451 0.557814
O O11 0.459600 0.409485 0.881470
O O12 0.205369 0.057487 0.808061
O O13 0.725641 0.582044 0.694155
O O14 0.016554 0.614356 0.734454
O O15 0.723525 0.078876 0.696001
O O16 0.830493 0.845450 0.806490
#
# Coordination Sequence:
#
# PCOD8025727 Si02
#       8
#     2   2   2   2   2   2   2   2
#     4  10  24  44  72 113 140 177 246 300 336 422
#     4  11  24  42  66  96 140 171 229 292 339 424
#     4  11  22  43  66  96 131 174 227 295 351 404
#     4  10  23  45  75 103 146 193 228 292 365 406
#     4  11  24  41  64  95 139 169 232 289 337 425
#     4  10  26  45  64 102 143 184 232 282 343 430
#     4  12  23  41  70  97 125 185 228 284 361 405
#     4  11  24  45  74 103 146 186 240 287 355 420
#
# _framework density 26.611497
#
# number of rings (size 3 to 8) (size 9 to 14) (size 15 to 20)
#    0.000    1.250    0.000    5.250    1.750   12.500 
#    0.000    0.000    0.000    0.000    0.000    0.000 
#    0.000    0.000    0.000    0.000    0.000    0.000 
#
# Total GULP energy -198270.621426 kJ/mol
# GULP energy per Si atom -12391.913839 kJ/mol
# Density = 2.655093 g / cm^3
# Si number density = 26.611497 Si / 1000 Ang^3
#
#
#
# Elastic Constant Matrix: (Units=GPa)
#
#
# Indices 1 2 3 4 5 6 
#
# 1 131.5110 64.4383 11.7252 11.0600 24.3057 0.4456
# 2 64.4383 132.5382 24.1224 29.7195 20.9806 -26.6931
# 3 11.7252 24.1224 108.1089 15.3635 17.6958 -10.1946
# 4 11.0600 29.7195 15.3635 38.6097 2.5691 4.4323
# 5 24.3057 20.9806 17.6958 2.5691 29.8685 0.6685
# 6 0.4456 -26.6931 -10.1946 4.4323 0.6685 40.9045
#
#
#
# Elastic Compliance Matrix: (Units=1/GPa)
#
#
# Indices 1 2 3 4 5 6 
#
# 1 0.011347 -0.006047 0.000286 0.002115 -0.005245 -0.004142
# 2 -0.006047 0.016723 0.000988 -0.012550 -0.006616 0.012693
# 3 0.000286 0.000988 0.011343 -0.005350 -0.007280 0.004167
# 4 0.002115 -0.012550 -0.005350 0.038183 0.007289 -0.013803
# 5 -0.005245 -0.006616 -0.007280 0.007289 0.046252 -0.007620
# 6 -0.004142 0.012693 0.004167 -0.013803 -0.007620 0.035434
#
#
# Mechanical properties :
#
#
# Convention : Reuss Voigt Hill
#
# Bulk Modulus (GPa) = 33.48176 63.63666 48.55921
# Shear Modulus (GPa) = 27.96669 40.00137 33.98403
#
# Velocity S-wave (km/s) = 3.24531 3.88127 3.57745
# Velocity P-wave (km/s) = 5.16253 6.63708 5.94569
#
# Compressibility (1/GPa) = 0.02986701
#
# Stress axis : x y z
#
# Youngs Moduli (GPa) = 88.13086 59.79827 88.15666
#
# Poissons Ratio (x) = 0.36159 -0.02521
# Poissons Ratio (y) = 0.53291 -0.08708
# Poissons Ratio (z) = -0.02520 -0.05907
#
# Static dielectric constant tensor:
#      x y z
#    x 4.702500 0.020360 0.166350 
#    y 0.020360 5.168310 0.252280 
#    z 0.166350 0.252280 5.148720 
# 
# 
# High freq. dielectric constant tensor:
#      x y z
#    x 2.052740 0.005420 0.010460 
#    y 0.005420 2.085210 0.016550 
#    z 0.010460 0.016550 2.074990 
# 
# From -- ./inp_files/552586.got.cif
#   From: 2010.06.25/outbox.cif.g09.slc.cpg/sg2_277_cif.got.tgz:552586.got - 2010.06.27 13:26:56.
