data_PCOD8025377
_publ_section_title
;
Structure prediction by ZEFSAII (Michael W. Deem and Ramdas Pophale) SiO2 
 PCOD8025377
Probable space group: P -1
;
_chemical_formula_sum "Si O2"
_cell_formula_units_Z 16
_cell_length_a 8.920146
_cell_length_b 12.382285
_cell_length_c 17.137644
_cell_angle_alpha 30.218311
_cell_angle_beta 57.837042
_cell_angle_gamma 51.746460
_cell_volume 748.102809
_symmetry_space_group_name_H-M "P -1"
_symmetry_group_IT_number 2
_symmetry_cell_setting 'triclinic'
loop_
_space_group_symop_operation_xyz
x,y,z
-x,-y,-z
loop_
_atom_site_type_symbol
_atom_site_label
_atom_site_fract_x
_atom_site_fract_y
_atom_site_fract_z
Si Si1 0.906891 0.815228 0.125322
Si Si2 0.719234 0.891229 0.524393
Si Si3 0.541079 0.521602 0.594949
Si Si4 0.785238 0.322118 0.293886
Si Si5 0.116116 0.455241 0.173949
Si Si6 0.503748 0.132204 0.745431
Si Si7 0.124426 0.467646 0.411261
Si Si8 0.225190 0.392602 0.020515
O O1 0.677180 0.910637 0.139283
O O2 0.972693 0.705716 0.089064
O O3 0.991953 0.622282 0.285852
O O4 0.000000 0.000000 0.000000
O O5 0.748035 0.685791 0.706457
O O6 0.814985 0.791655 0.476974
O O7 0.500000 0.000000 0.500000
O O8 0.809998 0.065247 0.423509
O O9 0.334765 0.599221 0.642915
O O10 0.581455 0.284358 0.685378
O O11 0.552723 0.727709 0.408077
O O12 0.692177 0.472276 0.654531
O O13 0.994454 0.312482 0.262415
O O14 0.685066 0.492937 0.142090
O O15 0.248172 0.473486 0.052674
O O16 0.675024 0.885749 0.839835
O O17 0.000000 0.500000 0.500000
O O18 0.000000 0.500000 0.000000
#
# Coordination Sequence:
#
# PCOD8025377 Si02
#       8
#     2   2   2   2   2   2   2   2
#     4  11  25  43  67  98 137 179 217 274 347 400
#     4  11  23  38  66  94 128 173 221 270 334 397
#     4  11  23  42  73  99 131 173 230 281 324 396
#     4  11  22  42  67  95 127 179 224 271 337 389
#     4  10  23  45  63  94 135 170 226 279 328 399
#     4  11  24  44  71 101 131 179 229 275 336 399
#     4  11  24  41  62  99 139 168 226 274 334 397
#     4  10  25  43  64 100 134 169 225 274 338 398
#
# _framework density 21.387436000000001
#
# number of rings (size 3 to 8) (size 9 to 14) (size 15 to 20)
#    0.000    1.250    3.750    1.125    1.750    6.500 
#    0.000    1.250    0.000    0.000    0.000    0.000 
#    0.000    0.000    0.000    0.000    0.000    0.000 
#
# Total GULP energy -198327.869470 kJ/mol
# GULP energy per Si atom -12395.491842 kJ/mol
# Density = 2.133876 g / cm^3
# Si number density = 21.387436 Si / 1000 Ang^3
#
#
#
# Elastic Constant Matrix: (Units=GPa)
#
#
# Indices 1 2 3 4 5 6 
#
# 1 76.7986 27.3826 8.6719 -13.3579 1.6018 2.7376
# 2 27.3826 172.4883 59.1081 -11.0051 6.5762 16.8268
# 3 8.6719 59.1081 71.6277 -6.7847 -3.3891 -1.3674
# 4 -13.3579 -11.0051 -6.7847 37.7866 2.3920 4.4743
# 5 1.6018 6.5762 -3.3891 2.3920 30.2849 -2.4685
# 6 2.7376 16.8268 -1.3674 4.4743 -2.4685 35.3106
#
#
#
# Elastic Compliance Matrix: (Units=1/GPa)
#
#
# Indices 1 2 3 4 5 6 
#
# 1 0.014575 -0.001999 0.000285 0.004766 -0.000749 -0.000823
# 2 -0.001999 0.009464 -0.007683 0.001483 -0.003340 -0.005074
# 3 0.000285 -0.007683 0.020628 0.000746 0.004281 0.004642
# 4 0.004766 0.001483 0.000746 0.029513 -0.003230 -0.005013
# 5 -0.000749 -0.003340 0.004281 -0.003230 0.034899 0.004664
# 6 -0.000823 -0.005074 0.004642 -0.005013 0.004664 0.031943
#
#
# Mechanical properties :
#
#
# Convention : Reuss Voigt Hill
#
# Bulk Modulus (GPa) = 38.64632 56.80441 47.72536
# Shear Modulus (GPa) = 29.68404 35.72658 32.70531
#
# Velocity S-wave (km/s) = 3.72952 4.09154 3.91472
# Velocity P-wave (km/s) = 6.05431 6.99559 6.54190
#
# Compressibility (1/GPa) = 0.02587569
#
# Stress axis : x y z
#
# Youngs Moduli (GPa) = 68.60835 105.65967 48.47729
#
# Poissons Ratio (x) = 0.21117 -0.01382
# Poissons Ratio (y) = 0.13712 0.37243
# Poissons Ratio (z) = -0.01955 0.81174
#
# Static dielectric constant tensor:
#      x y z
#    x 3.574560 -0.255280 0.146680 
#    y -0.255280 7.958060 0.082720 
#    z 0.146680 0.082720 3.947210 
# 
# 
# High freq. dielectric constant tensor:
#      x y z
#    x 1.835090 0.010220 0.011290 
#    y 0.010220 1.863930 0.001480 
#    z 0.011290 0.001480 1.826150 
# 
# From -- ./inp_files/243961.got.cif
#   From: 2010.06.25/outbox.cif.g09.slc.cpg/sg2_122_cif.got.tgz:243961.got - 2010.06.27 13:26:56.
