data_PCOD8025644
_publ_section_title
;
Structure prediction by ZEFSAII (Michael W. Deem and Ramdas Pophale) SiO2 
 PCOD8025644
Probable space group: P -1
;
_chemical_formula_sum "Si O2"
_cell_formula_units_Z 16
_cell_length_a 11.694614
_cell_length_b 16.335761
_cell_length_c 9.315142
_cell_angle_alpha 126.205522
_cell_angle_beta 51.052992
_cell_angle_gamma 147.914691
_cell_volume 727.859707
_symmetry_space_group_name_H-M "P -1"
_symmetry_group_IT_number 2
_symmetry_cell_setting 'triclinic'
loop_
_space_group_symop_operation_xyz
x,y,z
-x,-y,-z
loop_
_atom_site_type_symbol
_atom_site_label
_atom_site_fract_x
_atom_site_fract_y
_atom_site_fract_z
Si Si1 0.660651 0.601339 0.340677
Si Si2 0.141312 0.582254 0.723852
Si Si3 0.663601 0.432271 0.926017
Si Si4 0.712418 0.889505 0.981261
Si Si5 0.426420 0.864678 0.002615
Si Si6 0.046288 0.729128 0.353575
Si Si7 0.899860 0.050080 0.289103
Si Si8 0.475801 0.288504 0.632036
O O1 0.500000 0.500000 0.500000
O O2 0.619425 0.691374 0.400763
O O3 0.914896 0.719148 0.318903
O O4 0.623820 0.505931 0.138261
O O5 0.308017 0.663571 0.540548
O O6 0.923006 0.534725 0.808048
O O7 0.089095 0.440506 0.666037
O O8 0.267999 0.703179 0.878410
O O9 0.553327 0.396754 0.819884
O O10 0.531047 0.268818 0.929469
O O11 0.854686 0.869073 0.789602
O O12 0.662180 0.936242 0.935740
O O13 0.855108 0.023951 0.127444
O O14 0.294511 0.830769 0.212383
O O15 0.500000 0.000000 0.000000
O O16 0.083205 0.823272 0.555219
O O17 0.714902 0.892120 0.362284
#
# Coordination Sequence:
#
# PCOD8025644 Si02
#       8
#     2   2   2   2   2   2   2   2
#     4  12  24  41  68 103 134 175 226 281 345 403
#     4  12  24  46  69 102 137 179 232 281 343 407
#     4  11  23  47  70  99 138 179 234 281 339 407
#     4  10  23  45  71  94 135 186 222 287 340 405
#     4  12  26  44  67 101 138 180 229 282 346 404
#     4  12  24  43  67  98 136 181 225 284 338 409
#     4  10  25  46  67  99 136 177 235 276 344 404
#     4  11  26  44  69 102 136 183 226 285 338 406
#
# _framework density 21.982258999999999
#
# number of rings (size 3 to 8) (size 9 to 14) (size 15 to 20)
#    0.000    0.750    3.750    3.375    3.500    1.000 
#    6.750    0.000    0.000    0.000    0.000    0.000 
#    0.000    0.000    0.000    0.000    0.000    0.000 
#
# Total GULP energy -198427.427777 kJ/mol
# GULP energy per Si atom -12401.714236 kJ/mol
# Density = 2.193223 g / cm^3
# Si number density = 21.982259 Si / 1000 Ang^3
#
#
#
# Elastic Constant Matrix: (Units=GPa)
#
#
# Indices 1 2 3 4 5 6 
#
# 1 91.2097 41.2000 3.3815 5.1454 -1.0649 0.0230
# 2 41.2000 93.7853 33.3005 2.7095 -10.2225 0.5993
# 3 3.3815 33.3005 110.9755 8.4652 -14.2552 -1.1626
# 4 5.1454 2.7095 8.4652 42.7745 -1.6847 -5.5904
# 5 -1.0649 -10.2225 -14.2552 -1.6847 26.4492 -2.7006
# 6 0.0230 0.5993 -1.1626 -5.5904 -2.7006 33.1938
#
#
#
# Elastic Compliance Matrix: (Units=1/GPa)
#
#
# Indices 1 2 3 4 5 6 
#
# 1 0.014072 -0.006839 0.001573 -0.001653 -0.001357 -0.000220
# 2 -0.006839 0.015466 -0.004032 0.000783 0.003580 0.000007
# 3 0.001573 -0.004032 0.010871 -0.001852 0.004296 0.000490
# 4 -0.001653 0.000783 -0.001852 0.024484 0.001221 0.004145
# 5 -0.001357 0.003580 0.004296 0.001221 0.041908 0.003702
# 6 -0.000220 0.000007 0.000490 0.004145 0.003702 0.031143
#
#
# Mechanical properties :
#
#
# Convention : Reuss Voigt Hill
#
# Bulk Modulus (GPa) = 45.84497 50.19272 48.01884
# Shear Modulus (GPa) = 30.52256 35.02272 32.77264
#
# Velocity S-wave (km/s) = 3.73031 3.99585 3.86536
# Velocity P-wave (km/s) = 6.28127 6.64620 6.46631
#
# Compressibility (1/GPa) = 0.02181265
#
# Stress axis : x y z
#
# Youngs Moduli (GPa) = 71.06213 64.65621 91.98480
#
# Poissons Ratio (x) = 0.44219 -0.14469
# Poissons Ratio (y) = 0.48601 0.37093
# Poissons Ratio (z) = -0.11178 0.26072
#
# Static dielectric constant tensor:
#      x y z
#    x 3.963220 0.243570 -0.074330 
#    y 0.243570 3.726580 0.101920 
#    z -0.074330 0.101920 3.981720 
# 
# 
# High freq. dielectric constant tensor:
#      x y z
#    x 1.865420 0.013930 -0.004740 
#    y 0.013930 1.863370 -0.003870 
#    z -0.004740 -0.003870 1.879810 
# 
# From -- ./inp_files/205254.got.cif
#   From: 2010.06.25/outbox.cif.g09.slc.cpg/sg2_103_cif.got.tgz:205254.got - 2010.06.27 13:26:56.
