data_PCOD8025229
_publ_section_title
;
Structure prediction by ZEFSAII (Michael W. Deem and Ramdas Pophale) SiO2 
 PCOD8025229
Probable space group: P -1
;
_chemical_formula_sum "Si O2"
_cell_formula_units_Z 16
_cell_length_a 14.357446
_cell_length_b 14.742741
_cell_length_c 14.740048
_cell_angle_alpha 160.198190
_cell_angle_beta 41.232172
_cell_angle_gamma 139.687292
_cell_volume 675.227114
_symmetry_space_group_name_H-M "P -1"
_symmetry_group_IT_number 2
_symmetry_cell_setting 'triclinic'
loop_
_space_group_symop_operation_xyz
x,y,z
-x,-y,-z
loop_
_atom_site_type_symbol
_atom_site_label
_atom_site_fract_x
_atom_site_fract_y
_atom_site_fract_z
Si Si1 0.210559 0.411563 0.510686
Si Si2 0.210372 0.999581 0.685995
Si Si3 0.312013 0.587792 0.091839
Si Si4 0.847693 0.840535 0.499408
Si Si5 0.921940 0.656972 0.635264
Si Si6 0.694978 0.295053 0.997513
Si Si7 0.357678 0.183317 0.931869
Si Si8 0.377140 0.992649 0.925339
O O1 0.121973 0.302963 0.564322
O O2 0.114156 0.500416 0.584310
O O3 0.340998 0.677892 0.692353
O O4 0.256253 0.147253 0.188756
O O5 0.247206 0.751260 0.369297
O O6 0.043465 0.938165 0.786985
O O7 0.319492 0.035256 0.724896
O O8 0.232871 0.266913 0.857860
O O9 0.484365 0.601907 0.990543
O O10 0.274629 0.700603 0.128139
O O11 0.755681 0.606020 0.280260
O O12 0.000000 0.000000 0.500000
O O13 0.762722 0.078203 0.798360
O O14 0.000000 0.500000 0.500000
O O15 0.772748 0.680445 0.814350
O O16 0.524462 0.183025 0.037434
O O17 0.379052 0.966902 0.789969
#
# Coordination Sequence:
#
# PCOD8025229 Si02
#       8
#     2   2   2   2   2   2   2   2
#     4  11  25  43  70 101 137 177 232 282 348 411
#     4  12  24  42  69 104 138 188 239 285 345 422
#     4  11  26  43  71 101 139 187 233 295 343 419
#     4  12  27  46  68 101 137 184 223 287 342 417
#     4  11  25  45  71 104 143 189 230 291 349 421
#     4  11  25  46  71  98 139 176 232 284 351 405
#     4  10  23  45  66 102 145 183 234 290 356 406
#     4  10  23  44  71 102 133 179 224 291 345 412
#
# _framework density 23.695732
#
# number of rings (size 3 to 8) (size 9 to 14) (size 15 to 20)
#    0.000    1.000    0.000    5.250    3.500   13.000 
#    0.000    0.000    0.000    0.000    0.000    0.000 
#    0.000    0.000    0.000    0.000    0.000    0.000 
#
# Total GULP energy -198336.289555 kJ/mol
# GULP energy per Si atom -12396.018097 kJ/mol
# Density = 2.364180 g / cm^3
# Si number density = 23.695732 Si / 1000 Ang^3
#
#
#
# Elastic Constant Matrix: (Units=GPa)
#
#
# Indices 1 2 3 4 5 6 
#
# 1 106.0396 51.6196 12.3546 2.4209 1.3043 -4.7428
# 2 51.6196 145.8367 38.5670 22.4041 0.6104 -6.8164
# 3 12.3546 38.5670 76.6039 12.6258 -6.6644 -3.0053
# 4 2.4209 22.4041 12.6258 39.7806 4.6419 6.8026
# 5 1.3043 0.6104 -6.6644 4.6419 32.6701 -3.9418
# 6 -4.7428 -6.8164 -3.0053 6.8026 -3.9418 26.9657
#
#
#
# Elastic Compliance Matrix: (Units=1/GPa)
#
#
# Indices 1 2 3 4 5 6 
#
# 1 0.011520 -0.004321 -0.000001 0.001729 -0.000575 0.000413
# 2 -0.004321 0.010182 -0.003499 -0.004854 0.000283 0.002690
# 3 -0.000001 -0.003499 0.015940 -0.004007 0.004190 0.002515
# 4 0.001729 -0.004854 -0.004007 0.031557 -0.006520 -0.010283
# 5 -0.000575 0.000283 0.004190 -0.006520 0.033245 0.006942
# 6 0.000413 0.002690 0.002515 -0.010283 0.006942 0.041726
#
#
# Mechanical properties :
#
#
# Convention : Reuss Voigt Hill
#
# Bulk Modulus (GPa) = 45.45763 59.28474 52.37119
# Shear Modulus (GPa) = 29.91372 34.94585 32.42978
#
# Velocity S-wave (km/s) = 3.55689 3.84444 3.70346
# Velocity P-wave (km/s) = 6.00785 6.69177 6.35901
#
# Compressibility (1/GPa) = 0.02199850
#
# Stress axis : x y z
#
# Youngs Moduli (GPa) = 86.80370 98.21157 62.73624
#
# Poissons Ratio (x) = 0.42440 0.00008
# Poissons Ratio (y) = 0.37510 0.21953
# Poissons Ratio (z) = 0.00011 0.34367
#
# Static dielectric constant tensor:
#      x y z
#    x 4.301070 -0.107720 0.245500 
#    y -0.107720 4.638740 0.119280 
#    z 0.245500 0.119280 3.946280 
# 
# 
# High freq. dielectric constant tensor:
#      x y z
#    x 1.949580 -0.005240 0.008660 
#    y -0.005240 1.959610 0.006270 
#    z 0.008660 0.006270 1.921220 
# 
# From -- ./inp_files/139529.got.cif
#   From: 2010.06.25/outbox.cif.g09.slc.cpg/sg2_70_cif.got.tgz:139529.got - 2010.06.27 13:26:56.
