data_PCOD8025740
_publ_section_title
;
Structure prediction by ZEFSAII (Michael W. Deem and Ramdas Pophale) SiO2 
 PCOD8025740
Probable space group: P -1
;
_chemical_formula_sum "Si O2"
_cell_formula_units_Z 14
_cell_length_a 9.206093
_cell_length_b 5.522646
_cell_length_c 18.518526
_cell_angle_alpha 68.298397
_cell_angle_beta 40.234685
_cell_angle_gamma 63.975529
_cell_volume 545.499351
_symmetry_space_group_name_H-M "P -1"
_symmetry_group_IT_number 2
_symmetry_cell_setting 'triclinic'
loop_
_space_group_symop_operation_xyz
x,y,z
-x,-y,-z
loop_
_atom_site_type_symbol
_atom_site_label
_atom_site_fract_x
_atom_site_fract_y
_atom_site_fract_z
Si Si1 0.960712 0.367130 0.657336
Si Si2 0.115443 0.571600 0.160394
Si Si3 0.435268 0.861001 0.945957
Si Si4 0.689735 0.533774 0.249991
Si Si5 0.432366 0.479695 0.854213
Si Si6 0.695410 0.150428 0.422736
Si Si7 0.783787 0.248591 0.535674
O O1 0.007396 0.439518 0.714561
O O2 0.691260 0.462461 0.731060
O O3 0.106321 0.496345 0.530638
O O4 0.046290 0.048692 0.648256
O O5 0.303374 0.280614 0.109876
O O6 0.914097 0.647679 0.167507
O O7 0.255575 0.805201 0.080964
O O8 0.371657 0.701197 0.916701
O O9 0.399095 0.181194 0.917647
O O10 0.725020 0.412799 0.168649
O O11 0.693711 0.318812 0.333383
O O12 0.431272 0.747123 0.328410
O O13 0.660586 0.287683 0.499091
O O14 0.500000 0.000000 0.500000
O O15 0.000000 0.000000 0.500000
#
# Coordination Sequence:
#
# PCOD8025740 Si02
#       7
#     2   2   2   2   2   2   2
#     4  11  24  45  69 101 138 194 232 294 355 436
#     4  10  23  45  77  99 142 184 242 297 361 421
#     4  10  25  50  72 107 139 191 241 301 358 434
#     4  12  25  43  69 107 140 191 231 300 355 426
#     4  11  27  44  73 104 145 188 242 291 367 423
#     4  12  24  41  66  99 142 182 239 289 350 418
#     4  12  27  44  68 101 147 185 237 286 355 434
#
# _framework density 25.664560000000002
#
# number of rings (size 3 to 8) (size 9 to 14) (size 15 to 20)
#    0.000    0.857    2.857    3.000    8.000    9.714 
#    0.000    0.000    0.000    0.000    0.000    0.000 
#    0.000    0.000    0.000    0.000    0.000    0.000 
#
# Total GULP energy -173446.344068 kJ/mol
# GULP energy per Si atom -12389.024576 kJ/mol
# Density = 2.560615 g / cm^3
# Si number density = 25.664560 Si / 1000 Ang^3
#
#
#
# Elastic Constant Matrix: (Units=GPa)
#
#
# Indices 1 2 3 4 5 6 
#
# 1 144.6066 24.8664 16.6237 -5.4795 10.4672 -0.0515
# 2 24.8664 75.2225 11.8855 -13.2211 3.0662 4.6216
# 3 16.6237 11.8855 89.1120 -1.1847 -14.6723 4.5480
# 4 -5.4795 -13.2211 -1.1847 26.8311 0.5952 -3.0887
# 5 10.4672 3.0662 -14.6723 0.5952 32.4622 0.0115
# 6 -0.0515 4.6216 4.5480 -3.0887 0.0115 35.8434
#
#
#
# Elastic Compliance Matrix: (Units=1/GPa)
#
#
# Indices 1 2 3 4 5 6 
#
# 1 0.007712 -0.002086 -0.001685 0.000604 -0.003062 0.000547
# 2 -0.002086 0.015669 -0.001837 0.007118 -0.001768 -0.001176
# 3 -0.001685 -0.001837 0.012927 -0.000996 0.006578 -0.001494
# 4 0.000604 0.007118 -0.000996 0.041221 -0.002074 0.002762
# 5 -0.003062 -0.001768 0.006578 -0.002074 0.034971 -0.000801
# 6 0.000547 -0.001176 -0.001494 0.002762 -0.000801 0.028479
#
#
# Mechanical properties :
#
#
# Convention : Reuss Voigt Hill
#
# Bulk Modulus (GPa) = 39.85149 46.18803 43.01976
# Shear Modulus (GPa) = 31.14102 36.06504 33.60303
#
# Velocity S-wave (km/s) = 3.48715 3.75273 3.62237
# Velocity P-wave (km/s) = 5.63694 6.06739 5.85612
#
# Compressibility (1/GPa) = 0.02509317
#
# Stress axis : x y z
#
# Youngs Moduli (GPa) = 129.66090 63.81997 77.35592
#
# Poissons Ratio (x) = 0.13313 0.13032
# Poissons Ratio (y) = 0.27047 0.14212
# Poissons Ratio (z) = 0.21843 0.11725
#
# Static dielectric constant tensor:
#      x y z
#    x 3.975400 -0.030620 1.041520 
#    y -0.030620 4.559210 0.125460 
#    z 1.041520 0.125460 3.786770 
# 
# 
# High freq. dielectric constant tensor:
#      x y z
#    x 2.044690 -0.005700 -0.004510 
#    y -0.005700 2.000630 -0.002440 
#    z -0.004510 -0.002440 2.038670 
# 
# From -- ./inp_files/38178.got.cif
#   From: 2010.06.25/outbox.cif.g09.slc.cpg/sg2_20_cif.got.tgz:38178.got - 2010.06.27 13:26:56.
