data_PCOD8025182
_publ_section_title
;
Structure prediction by ZEFSAII (Michael W. Deem and Ramdas Pophale) SiO2 
 PCOD8025182
Probable space group: P -1
;
_chemical_formula_sum "Si O2"
_cell_formula_units_Z 16
_cell_length_a 14.144599
_cell_length_b 8.933467
_cell_length_c 9.437104
_cell_angle_alpha 81.619539
_cell_angle_beta 109.565112
_cell_angle_gamma 47.669409
_cell_volume 702.856372
_symmetry_space_group_name_H-M "P -1"
_symmetry_group_IT_number 2
_symmetry_cell_setting 'triclinic'
loop_
_space_group_symop_operation_xyz
x,y,z
-x,-y,-z
loop_
_atom_site_type_symbol
_atom_site_label
_atom_site_fract_x
_atom_site_fract_y
_atom_site_fract_z
Si Si1 0.661848 0.725571 0.580925
Si Si2 0.858358 0.727877 0.494730
Si Si3 0.196987 0.625851 0.054935
Si Si4 0.321289 0.372357 0.871500
Si Si5 0.683434 0.189425 0.839759
Si Si6 0.310488 0.051421 0.892248
Si Si7 0.669653 0.457037 0.409744
Si Si8 0.865212 0.964811 0.699961
O O1 0.777368 0.688853 0.546582
O O2 0.756912 0.564975 0.791001
O O3 0.616159 0.630297 0.484340
O O4 0.500000 0.000000 0.500000
O O5 0.731292 0.948747 0.289730
O O6 0.912337 0.790287 0.626415
O O7 0.000000 0.500000 0.500000
O O8 0.230107 0.749977 0.121745
O O9 0.304280 0.487581 0.988789
O O10 0.015016 0.825446 0.892366
O O11 0.237782 0.304545 0.849962
O O12 0.248312 0.549676 0.678461
O O13 0.505307 0.144528 0.959657
O O14 0.494672 0.435217 0.730057
O O15 0.728035 0.065705 0.725075
O O16 0.755824 0.995164 0.024486
O O17 0.805474 0.184867 0.563022
#
# Coordination Sequence:
#
# PCOD8025182 Si02
#       8
#     2   2   2   2   2   2   2   2
#     4  12  27  48  79 107 146 194 252 306 364 438
#     4  12  28  47  73 107 148 195 246 300 372 440
#     4  12  28  45  71 104 150 189 241 300 375 425
#     4  10  23  44  70 104 140 188 239 297 363 430
#     4  11  26  45  73 106 145 190 245 301 363 438
#     4  10  23  44  72 100 143 185 243 300 356 433
#     4  11  25  47  75 107 143 193 248 301 363 440
#     4  12  28  47  71 105 150 190 240 304 367 439
#
# _framework density 22.764250000000001
#
# number of rings (size 3 to 8) (size 9 to 14) (size 15 to 20)
#    0.000    0.750    2.500    3.000   12.250    2.000 
#    0.000    0.000    0.000    0.000    0.000    0.000 
#    0.000    0.000    0.000    0.000    0.000    0.000 
#
# Total GULP energy -198407.896176 kJ/mol
# GULP energy per Si atom -12400.493511 kJ/mol
# Density = 2.271244 g / cm^3
# Si number density = 22.764250 Si / 1000 Ang^3
#
#
#
# Elastic Constant Matrix: (Units=GPa)
#
#
# Indices 1 2 3 4 5 6 
#
# 1 96.2003 53.4513 53.1941 -19.0060 -19.6481 -2.1092
# 2 53.4513 128.8530 51.7776 5.0789 -12.6623 -3.3661
# 3 53.1941 51.7776 169.5478 -16.8275 -30.3875 4.9072
# 4 -19.0060 5.0789 -16.8275 40.8161 4.1095 -6.1906
# 5 -19.6481 -12.6623 -30.3875 4.1095 48.5522 10.2095
# 6 -2.1092 -3.3661 4.9072 -6.1906 10.2095 25.5849
#
#
#
# Elastic Compliance Matrix: (Units=1/GPa)
#
#
# Indices 1 2 3 4 5 6 
#
# 1 0.017313 -0.006247 -0.002272 0.007880 0.002913 0.001785
# 2 -0.006247 0.011362 -0.002123 -0.005087 -0.000541 0.000372
# 3 -0.002272 -0.002123 0.008290 0.001684 0.004279 -0.003357
# 4 0.007880 -0.005087 0.001684 0.030783 -0.001292 0.007621
# 5 0.002913 -0.000541 0.004279 -0.001292 0.026880 -0.011690
# 6 0.001785 0.000372 -0.003357 0.007621 -0.011690 0.046434
#
#
# Mechanical properties :
#
#
# Convention : Reuss Voigt Hill
#
# Bulk Modulus (GPa) = 63.76181 79.04966 71.40574
# Shear Modulus (GPa) = 29.83806 38.73586 34.28696
#
# Velocity S-wave (km/s) = 3.62434 4.12953 3.88516
# Velocity P-wave (km/s) = 6.75166 7.58539 7.18064
#
# Compressibility (1/GPa) = 0.01568337
#
# Stress axis : x y z
#
# Youngs Moduli (GPa) = 57.76091 88.01251 120.62494
#
# Poissons Ratio (x) = 0.54978 0.27401
# Poissons Ratio (y) = 0.36081 0.25603
# Poissons Ratio (z) = 0.13121 0.18681
#
# Static dielectric constant tensor:
#      x y z
#    x 4.338380 0.156290 -0.281840 
#    y 0.156290 4.156260 0.042120 
#    z -0.281840 0.042120 4.477130 
# 
# 
# High freq. dielectric constant tensor:
#      x y z
#    x 1.896760 -0.001560 -0.010100 
#    y -0.001560 1.896950 0.003220 
#    z -0.010100 0.003220 1.918960 
# 
# From -- ./inp_files/243697.got.cif
#   From: 2010.06.25/outbox.cif.g09.slc.cpg/sg2_122_cif.got.tgz:243697.got - 2010.06.27 13:26:56.
