data_PCOD8025222
_publ_section_title
;
Structure prediction by ZEFSAII (Michael W. Deem and Ramdas Pophale) SiO2 
 PCOD8025222
Probable space group: P -1
;
_chemical_formula_sum "Si O2"
_cell_formula_units_Z 16
_cell_length_a 12.038040
_cell_length_b 11.980218
_cell_length_c 10.236651
_cell_angle_alpha 118.394360
_cell_angle_beta 109.269407
_cell_angle_gamma 34.276758
_cell_volume 725.493139
_symmetry_space_group_name_H-M "P -1"
_symmetry_group_IT_number 2
_symmetry_cell_setting 'triclinic'
loop_
_space_group_symop_operation_xyz
x,y,z
-x,-y,-z
loop_
_atom_site_type_symbol
_atom_site_label
_atom_site_fract_x
_atom_site_fract_y
_atom_site_fract_z
Si Si1 0.513401 0.727145 0.570414
Si Si2 0.659535 0.757567 0.887102
Si Si3 0.699492 0.760411 0.485629
Si Si4 0.117247 0.765366 0.920306
Si Si5 0.894618 0.988169 0.364796
Si Si6 0.368796 0.620031 0.699692
Si Si7 0.054820 0.352596 0.247533
Si Si8 0.739960 0.441188 0.863729
O O1 0.572520 0.738217 0.735114
O O2 0.632512 0.685076 0.475513
O O3 0.272949 0.943585 0.580217
O O4 0.574476 0.526085 0.476970
O O5 0.852633 0.662504 0.853583
O O6 0.706676 0.623902 0.954476
O O7 0.500000 0.000000 0.000000
O O8 0.805477 0.754965 0.631846
O O9 0.844364 0.605449 0.333945
O O10 0.500000 0.000000 0.500000
O O11 0.274238 0.625768 0.786476
O O12 0.964333 0.781116 0.856820
O O13 0.240674 0.637013 0.029616
O O14 0.000000 0.000000 0.000000
O O15 0.789445 0.142253 0.284073
O O16 0.000000 0.000000 0.500000
O O17 0.056925 0.749008 0.244319
O O18 0.563239 0.523195 0.768846
#
# Coordination Sequence:
#
# PCOD8025222 Si02
#       8
#     2   2   2   2   2   2   2   2
#     4  11  23  45  71 102 141 184 236 303 357 419
#     4  11  27  48  74 101 150 195 239 303 356 437
#     4  10  23  44  71 100 136 184 237 298 352 422
#     4  12  27  47  74 104 148 190 236 302 362 433
#     4  12  24  41  73 108 141 183 238 299 364 428
#     4  12  24  49  71 106 147 179 247 300 357 437
#     4  10  25  47  69 102 139 185 244 291 355 427
#     4  12  27  46  73 105 142 200 236 293 372 427
#
# _framework density 22.053965000000002
#
# number of rings (size 3 to 8) (size 9 to 14) (size 15 to 20)
#    0.000    0.750    5.000    1.500    5.250    4.500 
#    0.000    0.000    0.000    0.000    0.000    0.000 
#    0.000    0.000    0.000    0.000    0.000    0.000 
#
# Total GULP energy -198394.035329 kJ/mol
# GULP energy per Si atom -12399.627208 kJ/mol
# Density = 2.200377 g / cm^3
# Si number density = 22.053965 Si / 1000 Ang^3
#
#
#
# Elastic Constant Matrix: (Units=GPa)
#
#
# Indices 1 2 3 4 5 6 
#
# 1 153.4211 59.2001 57.3448 5.8956 10.5940 -9.2838
# 2 59.2001 145.1838 53.1900 12.7491 5.9539 5.7462
# 3 57.3448 53.1900 103.1115 13.0446 6.7581 6.8746
# 4 5.8956 12.7491 13.0446 31.5537 -1.5804 2.0893
# 5 10.5940 5.9539 6.7581 -1.5804 39.5569 6.9442
# 6 -9.2838 5.7462 6.8746 2.0893 6.9442 44.4561
#
#
#
# Elastic Compliance Matrix: (Units=1/GPa)
#
#
# Indices 1 2 3 4 5 6 
#
# 1 0.009265 -0.002380 -0.004085 0.000613 -0.001954 0.003150
# 2 -0.002380 0.009213 -0.003105 -0.001926 -0.000102 -0.001101
# 3 -0.004085 -0.003105 0.014244 -0.003743 -0.000603 -0.002384
# 4 0.000613 -0.001926 -0.003743 0.034085 0.002304 -0.001006
# 5 -0.001954 -0.000102 -0.000603 0.002304 0.026821 -0.004599
# 6 0.003150 -0.001101 -0.002384 -0.001006 -0.004599 0.024429
#
#
# Mechanical properties :
#
#
# Convention : Reuss Voigt Hill
#
# Bulk Modulus (GPa) = 73.62396 82.35404 77.98900
# Shear Modulus (GPa) = 35.28012 38.57876 36.92944
#
# Velocity S-wave (km/s) = 4.00399 4.18699 4.09651
# Velocity P-wave (km/s) = 7.40486 7.79728 7.60360
#
# Compressibility (1/GPa) = 0.01358254
#
# Stress axis : x y z
#
# Youngs Moduli (GPa) = 107.93297 108.54547 70.20707
#
# Poissons Ratio (x) = 0.25832 0.28676
# Poissons Ratio (y) = 0.25686 0.21800
# Poissons Ratio (z) = 0.44085 0.33704
#
# Static dielectric constant tensor:
#      x y z
#    x 4.200120 -0.194940 -0.072750 
#    y -0.194940 3.956390 0.069010 
#    z -0.072750 0.069010 3.985440 
# 
# 
# High freq. dielectric constant tensor:
#      x y z
#    x 1.891020 -0.008190 -0.001210 
#    y -0.008190 1.863470 0.006420 
#    z -0.001210 0.006420 1.871510 
# 
# From -- ./inp_files/428757.got.cif
#   From: 2010.06.25/outbox.cif.g09.slc.cpg/sg2_215_cif.got.tgz:428757.got - 2010.06.27 13:26:56.
