data_PCOD8025934
_publ_section_title
;
Structure prediction by ZEFSAII (Michael W. Deem and Ramdas Pophale) SiO2 
 PCOD8025934
Probable space group: P -1
;
_chemical_formula_sum "Si O2"
_cell_formula_units_Z 14
_cell_length_a 6.381271
_cell_length_b 23.743099
_cell_length_c 17.522952
_cell_angle_alpha 160.393569
_cell_angle_beta 57.483039
_cell_angle_gamma 130.394107
_cell_volume 650.292654
_symmetry_space_group_name_H-M "P -1"
_symmetry_group_IT_number 2
_symmetry_cell_setting 'triclinic'
loop_
_space_group_symop_operation_xyz
x,y,z
-x,-y,-z
loop_
_atom_site_type_symbol
_atom_site_label
_atom_site_fract_x
_atom_site_fract_y
_atom_site_fract_z
Si Si1 0.189403 0.204127 0.181633
Si Si2 0.265984 0.556781 0.877636
Si Si3 0.151865 0.207725 0.012815
Si Si4 0.688005 0.205560 0.689359
Si Si5 0.858136 0.440307 0.369561
Si Si6 0.628890 0.384196 0.784580
Si Si7 0.191758 0.209568 0.525105
O O1 0.125856 0.175954 0.067908
O O2 0.520276 0.280360 0.235185
O O3 0.107064 0.366722 0.433567
O O4 0.000000 0.000000 0.000000
O O5 0.511095 0.699185 0.953354
O O6 0.251924 0.349493 0.618898
O O7 0.959081 0.531639 0.883111
O O8 0.334246 0.637407 0.053736
O O9 0.031395 0.343278 0.174738
O O10 0.963989 0.007214 0.750849
O O11 0.595313 0.217280 0.636371
O O12 0.009244 0.243548 0.669489
O O13 0.500000 0.000000 0.500000
O O14 0.000000 0.500000 0.500000
O O15 0.485291 0.270540 0.589615
O O16 0.500000 0.500000 0.000000
#
# Coordination Sequence:
#
# PCOD8025934 Si02
#       7
#     2   2   2   2   2   2   2
#     4  10  23  46  75  97 127 171 210 258 338 413
#     4  11  23  41  61  91 137 172 222 279 319 370
#     4  11  25  42  65  99 136 167 215 277 325 383
#     4  11  21  40  63  87 128 179 224 268 321 381
#     4   9  22  44  69  99 126 162 211 257 331 403
#     4  11  21  40  66  88 124 186 231 262 319 378
#     4  11  23  40  62  96 129 176 226 272 320 370
#
# _framework density 21.528769
#
# number of rings (size 3 to 8) (size 9 to 14) (size 15 to 20)
#    0.000    1.429    4.286    0.857    0.000   10.857 
#    2.571    0.000    0.000    0.000    0.000    0.000 
#    0.000    0.000    0.000    0.000    0.000    0.000 
#
# Total GULP energy -173505.655359 kJ/mol
# GULP energy per Si atom -12393.261097 kJ/mol
# Density = 2.147977 g / cm^3
# Si number density = 21.528769 Si / 1000 Ang^3
#
#
#
# Elastic Constant Matrix: (Units=GPa)
#
#
# Indices 1 2 3 4 5 6 
#
# 1 126.4350 50.5072 53.3800 12.8664 6.7788 18.4029
# 2 50.5072 92.3281 68.9697 5.8462 10.6505 6.4756
# 3 53.3800 68.9697 139.3346 28.6193 -11.3567 12.1484
# 4 12.8664 5.8462 28.6193 24.1817 15.0805 -0.3701
# 5 6.7788 10.6505 -11.3567 15.0805 25.1912 2.6095
# 6 18.4029 6.4756 12.1484 -0.3701 2.6095 24.8404
#
#
#
# Elastic Compliance Matrix: (Units=1/GPa)
#
#
# Indices 1 2 3 4 5 6 
#
# 1 0.010817 0.000709 -0.007533 0.010961 -0.012857 -0.003001
# 2 0.000709 -0.022060 0.040501 -0.099087 0.089347 -0.025444
# 3 -0.007533 0.040501 -0.044702 0.114070 -0.106621 0.029784
# 4 0.010961 -0.099087 0.114070 -0.218776 0.228100 -0.065297
# 5 -0.012857 0.089347 -0.106621 0.228100 -0.185583 0.061271
# 6 -0.003001 -0.025444 0.029784 -0.065297 0.061271 0.027137
#
#
# Mechanical properties :
#
#
# Convention : Reuss Voigt Hill
#
# Bulk Modulus (GPa) = 87.64055 78.20130 82.92093
# Shear Modulus (GPa) = -10.06609 27.19204 8.56297
#
# Velocity S-wave (km/s) = -2.16467 3.55781 1.99652
# Velocity P-wave (km/s) = 5.87786 7.29933 6.62682
#
# Compressibility (1/GPa) = 0.01141024
#
# Stress axis : x y z
#
# Youngs Moduli (GPa) = 92.44880 -45.33194 -22.37044
#
# Poissons Ratio (x) = 0.03216 -0.16851
# Poissons Ratio (y) = -0.06559 0.90602
# Poissons Ratio (z) = 0.69641 1.83598
#
# Static dielectric constant tensor:
#      x y z
#    x 4.226980 0.192430 -0.309350 
#    y 0.192430 3.674190 -0.176430 
#    z -0.309350 -0.176430 3.629940 
# 
# 
# High freq. dielectric constant tensor:
#      x y z
#    x 1.853950 0.009070 0.000680 
#    y 0.009070 1.824910 0.006570 
#    z 0.000680 0.006570 1.856310 
# 
# From -- ./inp_files/47261.got.cif
#   From: 2010.06.25/outbox.cif.g09.slc.cpg/sg2_24_cif.got.tgz:47261.got - 2010.06.27 13:26:56.
