data_PCOD8025890
_publ_section_title
;
Structure prediction by ZEFSAII (Michael W. Deem and Ramdas Pophale) SiO2 
 PCOD8025890
Probable space group: P -1
;
_chemical_formula_sum "Si O2"
_cell_formula_units_Z 14
_cell_length_a 8.831213
_cell_length_b 9.274848
_cell_length_c 22.265925
_cell_angle_alpha 28.561834
_cell_angle_beta 43.372527
_cell_angle_gamma 56.002714
_cell_volume 581.082317
_symmetry_space_group_name_H-M "P -1"
_symmetry_group_IT_number 2
_symmetry_cell_setting 'triclinic'
loop_
_space_group_symop_operation_xyz
x,y,z
-x,-y,-z
loop_
_atom_site_type_symbol
_atom_site_label
_atom_site_fract_x
_atom_site_fract_y
_atom_site_fract_z
Si Si1 0.625635 0.435704 0.094556
Si Si2 0.970649 0.600496 0.832612
Si Si3 0.142137 0.558732 0.309639
Si Si4 0.381861 0.742893 0.411894
Si Si5 0.611172 0.522305 0.198330
Si Si6 0.808139 0.192981 0.673249
Si Si7 0.259831 0.787635 0.059975
O O1 0.703282 0.599320 0.075778
O O2 0.460702 0.625015 0.040848
O O3 0.496687 0.082767 0.278771
O O4 0.835529 0.435848 0.990435
O O5 0.939278 0.353238 0.877990
O O6 0.241074 0.694824 0.734619
O O7 0.890731 0.906358 0.725912
O O8 0.338368 0.364857 0.333944
O O9 0.216772 0.839948 0.234917
O O10 0.171755 0.710570 0.180659
O O11 0.889851 0.342307 0.466273
O O12 0.500000 0.500000 0.500000
O O13 0.401953 0.758533 0.326436
O O14 0.658460 0.843586 0.104706
O O15 0.000000 0.500000 0.500000
#
# Coordination Sequence:
#
# PCOD8025890 Si02
#       7
#     2   2   2   2   2   2   2
#     4  11  24  44  71  99 140 183 234 280 336 413
#     4  12  24  42  74 107 135 177 237 276 344 414
#     4  10  24  46  69  95 146 173 228 281 351 399
#     4  11  26  44  73 101 131 186 236 285 337 404
#     4  11  25  40  68 104 141 180 219 285 352 397
#     4  10  23  46  71  99 137 181 226 282 341 413
#     4  11  23  43  68 104 140 183 218 296 344 395
#
# _framework density 24.092974000000002
#
# number of rings (size 3 to 8) (size 9 to 14) (size 15 to 20)
#    0.000    1.143    1.429    4.714    8.000    3.429 
#    0.000    2.857    0.000    0.000    0.000    0.000 
#    0.000    0.000    0.000    0.000    0.000    0.000 
#
# Total GULP energy -173439.005468 kJ/mol
# GULP energy per Si atom -12388.500391 kJ/mol
# Density = 2.403814 g / cm^3
# Si number density = 24.092974 Si / 1000 Ang^3
#
#
#
# Elastic Constant Matrix: (Units=GPa)
#
#
# Indices 1 2 3 4 5 6 
#
# 1 144.3119 65.1493 25.0798 7.0868 -7.4746 -20.2804
# 2 65.1493 99.4002 39.0379 -0.8189 1.6190 8.2068
# 3 25.0798 39.0379 74.6355 -4.7707 -13.8375 -15.4367
# 4 7.0868 -0.8189 -4.7707 40.3101 -2.2576 -0.0272
# 5 -7.4746 1.6190 -13.8375 -2.2576 28.1649 -3.1069
# 6 -20.2804 8.2068 -15.4367 -0.0272 -3.1069 43.9444
#
#
#
# Elastic Compliance Matrix: (Units=1/GPa)
#
#
# Indices 1 2 3 4 5 6 
#
# 1 0.013387 -0.011912 0.005351 -0.001510 0.007941 0.010843
# 2 -0.011912 0.025516 -0.015390 -0.000006 -0.014028 -0.016661
# 3 0.005351 -0.015390 0.026284 0.002831 0.017187 0.015794
# 4 -0.001510 -0.000006 0.002831 0.025582 0.003100 0.000533
# 5 0.007941 -0.014028 0.017187 0.003100 0.048852 0.015778
# 6 0.010843 -0.016661 0.015794 0.000533 0.015778 0.037535
#
#
# Mechanical properties :
#
#
# Convention : Reuss Voigt Hill
#
# Bulk Modulus (GPa) = 46.98509 64.09795 55.54152
# Shear Modulus (GPa) = 21.91495 35.08925 28.50210
#
# Velocity S-wave (km/s) = 3.01923 3.82043 3.44321
# Velocity P-wave (km/s) = 5.63012 6.79140 6.23784
#
# Compressibility (1/GPa) = 0.02128335
#
# Stress axis : x y z
#
# Youngs Moduli (GPa) = 74.70207 39.19067 38.04542
#
# Poissons Ratio (x) = 0.46685 -0.20357
# Poissons Ratio (y) = 0.88987 0.58553
# Poissons Ratio (z) = -0.39971 0.60316
#
# Static dielectric constant tensor:
#      x y z
#    x -1.356150 -10.792780 -0.506620 
#    y -10.792780 -15.650310 -0.667850 
#    z -0.506620 -0.667850 4.097800 
# 
# 
# High freq. dielectric constant tensor:
#      x y z
#    x 1.973820 0.016780 -0.006920 
#    y 0.016780 1.950670 0.002100 
#    z -0.006920 0.002100 1.938600 
# 
# From -- ./inp_files/206004.got.cif
#   From: 2010.06.25/outbox.cif.g09.slc.cpg/sg2_104_cif.got.tgz:206004.got - 2010.06.27 13:26:56.
