data_PCOD8025537
_publ_section_title
;
Structure prediction by ZEFSAII (Michael W. Deem and Ramdas Pophale) SiO2 
 PCOD8025537
Probable space group: P -1
;
_chemical_formula_sum "Si O2"
_cell_formula_units_Z 14
_cell_length_a 8.748512
_cell_length_b 11.643107
_cell_length_c 9.019942
_cell_angle_alpha 85.503578
_cell_angle_beta 113.662672
_cell_angle_gamma 129.537383
_cell_volume 628.263251
_symmetry_space_group_name_H-M "P -1"
_symmetry_group_IT_number 2
_symmetry_cell_setting 'triclinic'
loop_
_space_group_symop_operation_xyz
x,y,z
-x,-y,-z
loop_
_atom_site_type_symbol
_atom_site_label
_atom_site_fract_x
_atom_site_fract_y
_atom_site_fract_z
Si Si1 0.478116 0.962889 0.165642
Si Si2 0.120130 0.941501 0.494410
Si Si3 0.357719 0.124486 0.273426
Si Si4 0.741994 0.621478 0.230928
Si Si5 0.093687 0.656496 0.951453
Si Si6 0.820447 0.405057 0.316443
Si Si7 0.266903 0.327263 0.106854
O O1 0.716194 0.044062 0.324676
O O2 0.332780 0.000236 0.174965
O O3 0.317915 0.778105 0.123078
O O4 0.500000 0.000000 0.000000
O O5 0.278825 0.050958 0.411476
O O6 0.000000 0.000000 0.500000
O O7 0.926223 0.761224 0.396802
O O8 0.615626 0.274911 0.352452
O O9 0.227251 0.179219 0.165205
O O10 0.801029 0.518668 0.215504
O O11 0.498113 0.498427 0.226546
O O12 0.735229 0.690959 0.070058
O O13 0.139085 0.668420 0.790820
O O14 0.930544 0.689362 0.900957
O O15 0.000000 0.500000 0.000000
O O16 0.000000 0.500000 0.500000
#
# Coordination Sequence:
#
# PCOD8025537 Si02
#       7
#     2   2   2   2   2   2   2
#     4  12  28  49  74 106 150 195 244 297 368 436
#     4  12  30  46  75 110 150 190 244 305 365 433
#     4  11  26  47  72 104 149 190 238 303 364 431
#     4  10  23  45  69 105 148 187 240 296 366 426
#     4  12  26  44  75 106 142 192 249 293 358 440
#     4  11  24  43  70 101 143 189 239 299 362 426
#     4  10  24  44  77 107 142 195 240 299 362 432
#
# _framework density 22.283652
#
# number of rings (size 3 to 8) (size 9 to 14) (size 15 to 20)
#    0.000    0.857    2.857    2.143    8.000    1.143 
#    0.000    2.857    0.000    0.000    0.000    0.000 
#    0.000    0.000    0.000    0.000    0.000    0.000 
#
# Total GULP energy -173517.595313 kJ/mol
# GULP energy per Si atom -12394.113951 kJ/mol
# Density = 2.223293 g / cm^3
# Si number density = 22.283652 Si / 1000 Ang^3
#
#
#
# Elastic Constant Matrix: (Units=GPa)
#
#
# Indices 1 2 3 4 5 6 
#
# 1 142.8747 35.0056 53.2268 5.9382 -6.0290 -6.7005
# 2 35.0056 129.1298 62.3952 20.6663 -1.1939 -4.4066
# 3 53.2268 62.3952 145.4730 16.6843 4.4230 1.4020
# 4 5.9382 20.6663 16.6843 51.7462 2.5836 -1.6852
# 5 -6.0290 -1.1939 4.4230 2.5836 33.5508 -0.6024
# 6 -6.7005 -4.4066 1.4020 -1.6852 -0.6024 31.0645
#
#
#
# Elastic Compliance Matrix: (Units=1/GPa)
#
#
# Indices 1 2 3 4 5 6 
#
# 1 0.008416 -0.000888 -0.002803 0.000260 0.001864 0.001866
# 2 -0.000888 0.010336 -0.003829 -0.002796 0.000952 0.001314
# 3 -0.002803 -0.003829 0.009759 -0.001258 -0.001860 -0.001693
# 4 0.000260 -0.002796 -0.001258 0.020918 -0.001483 0.000822
# 5 0.001864 0.000952 -0.001860 -0.001483 0.030554 0.001133
# 6 0.001866 0.001314 -0.001693 0.000822 0.001133 0.032923
#
#
# Mechanical properties :
#
#
# Convention : Reuss Voigt Hill
#
# Bulk Modulus (GPa) = 74.23229 79.85919 77.04574
# Shear Modulus (GPa) = 37.75326 41.06229 39.40777
#
# Velocity S-wave (km/s) = 4.12055 4.29734 4.20987
# Velocity P-wave (km/s) = 7.48487 7.78063 7.63418
#
# Compressibility (1/GPa) = 0.01347123
#
# Stress axis : x y z
#
# Youngs Moduli (GPa) = 118.81700 96.74555 102.46537
#
# Poissons Ratio (x) = 0.08589 0.28722
# Poissons Ratio (y) = 0.10549 0.39239
# Poissons Ratio (z) = 0.33306 0.37048
#
# Static dielectric constant tensor:
#      x y z
#    x 3.535000 -1.327660 -1.235670 
#    y -1.327660 2.024080 -2.439110 
#    z -1.235670 -2.439110 1.067280 
# 
# 
# High freq. dielectric constant tensor:
#      x y z
#    x 1.884350 0.000490 0.005310 
#    y 0.000490 1.905900 0.003580 
#    z 0.005310 0.003580 1.871050 
# 
# From -- ./inp_files/157653.got.cif
#   From: 2010.06.25/outbox.cif.g09.slc.cpg/sg2_79_cif.got.tgz:157653.got - 2010.06.27 13:26:56.
