data_PCOD8025593
_publ_section_title
;
Structure prediction by ZEFSAII (Michael W. Deem and Ramdas Pophale) SiO2 
 PCOD8025593
Probable space group: P -1
;
_chemical_formula_sum "Si O2"
_cell_formula_units_Z 12
_cell_length_a 8.646228
_cell_length_b 6.930396
_cell_length_c 13.660048
_cell_angle_alpha 117.069750
_cell_angle_beta 131.520224
_cell_angle_gamma 80.811849
_cell_volume 533.199288
_symmetry_space_group_name_H-M "P -1"
_symmetry_group_IT_number 2
_symmetry_cell_setting 'triclinic'
loop_
_space_group_symop_operation_xyz
x,y,z
-x,-y,-z
loop_
_atom_site_type_symbol
_atom_site_label
_atom_site_fract_x
_atom_site_fract_y
_atom_site_fract_z
Si Si1 0.713497 0.451962 0.625704
Si Si2 0.304382 0.455637 0.982844
Si Si3 0.415277 0.336482 0.212383
Si Si4 0.800204 0.083245 0.892457
Si Si5 0.113601 0.897944 0.296972
Si Si6 0.146798 0.389015 0.471360
O O1 0.500000 0.500000 0.500000
O O2 0.768980 0.585481 0.782363
O O3 0.706880 0.194292 0.588055
O O4 0.891878 0.542585 0.640861
O O5 0.376706 0.341054 0.082732
O O6 0.223611 0.676033 0.027293
O O7 0.500000 0.500000 0.000000
O O8 0.106188 0.277823 0.817260
O O9 0.621402 0.516056 0.368585
O O10 0.409207 0.086340 0.191007
O O11 0.815166 0.070449 0.778499
O O12 0.000000 0.000000 0.000000
O O13 0.092147 0.123957 0.392656
O O14 0.000000 0.500000 0.500000
#
# Coordination Sequence:
#
# PCOD8025593 Si02
#       6
#     2   2   2   2   2   2
#     4  10  23  45  70 105 140 187 244 292 355 432
#     4  12  29  45  72 111 148 188 244 306 366 424
#     4  11  24  47  72 104 144 191 241 295 361 431
#     4  12  24  45  78 106 144 192 247 298 356 442
#     4  12  25  46  77 104 144 196 245 297 364 441
#     4  11  28  45  70 106 150 189 239 300 368 434
#
# _framework density 22.505655999999998
#
# number of rings (size 3 to 8) (size 9 to 14) (size 15 to 20)
#    0.000    0.667    5.000    1.500    4.667    6.667 
#    0.000    0.000    0.000    0.000    0.000    0.000 
#    0.000    0.000    0.000    0.000    0.000    0.000 
#
# Total GULP energy -148688.484261 kJ/mol
# GULP energy per Si atom -12390.707022 kJ/mol
# Density = 2.245443 g / cm^3
# Si number density = 22.505656 Si / 1000 Ang^3
#
#
#
# Elastic Constant Matrix: (Units=GPa)
#
#
# Indices 1 2 3 4 5 6 
#
# 1 149.7444 71.6740 47.1055 3.8529 -16.1217 7.2567
# 2 71.6740 191.3289 69.3449 15.1327 -4.8263 2.8837
# 3 47.1055 69.3449 102.8332 26.1334 3.8751 -3.5417
# 4 3.8529 15.1327 26.1334 53.3018 6.6090 -7.0157
# 5 -16.1217 -4.8263 3.8751 6.6090 27.8098 5.2871
# 6 7.2567 2.8837 -3.5417 -7.0157 5.2871 36.9601
#
#
#
# Elastic Compliance Matrix: (Units=1/GPa)
#
#
# Indices 1 2 3 4 5 6 
#
# 1 0.009560 -0.002218 -0.003322 0.000449 0.006046 -0.002802
# 2 -0.002218 0.007592 -0.004115 -0.000165 0.000776 -0.000694
# 3 -0.003322 -0.004115 0.015637 -0.005516 -0.003884 0.001980
# 4 0.000449 -0.000165 -0.005516 0.022718 -0.005246 0.004459
# 5 0.006046 0.000776 -0.003884 -0.005246 0.043054 -0.008775
# 6 -0.002802 -0.000694 0.001980 0.004459 -0.008775 0.029952
#
#
# Mechanical properties :
#
#
# Convention : Reuss Voigt Hill
#
# Bulk Modulus (GPa) = 74.18438 91.12836 82.65637
# Shear Modulus (GPa) = 32.82674 40.66648 36.74661
#
# Velocity S-wave (km/s) = 3.82331 4.25543 4.04514
# Velocity P-wave (km/s) = 7.24737 8.04513 7.65665
#
# Compressibility (1/GPa) = 0.01347993
#
# Stress axis : x y z
#
# Youngs Moduli (GPa) = 104.60508 131.71910 63.94974
#
# Poissons Ratio (x) = 0.29215 0.21243
# Poissons Ratio (y) = 0.23202 0.26313
# Poissons Ratio (z) = 0.34748 0.54198
#
# Static dielectric constant tensor:
#      x y z
#    x 3.868170 0.105580 -0.280200 
#    y 0.105580 4.528800 0.057360 
#    z -0.280200 0.057360 4.180000 
# 
# 
# High freq. dielectric constant tensor:
#      x y z
#    x 1.884350 0.015220 -0.007360 
#    y 0.015220 1.906210 0.006560 
#    z -0.007360 0.006560 1.888920 
# 
# From -- ./inp_files/28951.got.cif
#   From: 2010.06.25/outbox.cif.g09.slc.cpg/sg2_15_cif.got.tgz:28951.got - 2010.06.27 13:26:56.
