data_PCOD8025686
_publ_section_title
;
Structure prediction by ZEFSAII (Michael W. Deem and Ramdas Pophale) SiO2 
 PCOD8025686
Probable space group: P -1
;
_chemical_formula_sum "Si O2"
_cell_formula_units_Z 16
_cell_length_a 6.819864
_cell_length_b 15.844030
_cell_length_c 22.370705
_cell_angle_alpha 20.360139
_cell_angle_beta 77.998583
_cell_angle_gamma 89.855624
_cell_volume 678.497730
_symmetry_space_group_name_H-M "P -1"
_symmetry_group_IT_number 2
_symmetry_cell_setting 'triclinic'
loop_
_space_group_symop_operation_xyz
x,y,z
-x,-y,-z
loop_
_atom_site_type_symbol
_atom_site_label
_atom_site_fract_x
_atom_site_fract_y
_atom_site_fract_z
Si Si1 0.559132 0.623764 0.685455
Si Si2 0.213936 0.834770 0.120098
Si Si3 0.820712 0.698236 0.497758
Si Si4 0.367860 0.209111 0.662898
Si Si5 0.050329 0.199178 0.955600
Si Si6 0.603299 0.318600 0.995272
Si Si7 0.925363 0.282000 0.237031
Si Si8 0.783897 0.667725 0.928958
O O1 0.712442 0.636605 0.611534
O O2 0.710060 0.949480 0.489232
O O3 0.287093 0.514468 0.753746
O O4 0.530760 0.389164 0.890508
O O5 0.096769 0.524292 0.368390
O O6 0.141070 0.026516 0.030109
O O7 0.122010 0.768312 0.100745
O O8 0.500000 0.000000 0.000000
O O9 0.619950 0.655959 0.492227
O O10 0.045834 0.023695 0.253742
O O11 0.500000 0.500000 0.500000
O O12 0.489488 0.024609 0.772104
O O13 0.099153 0.984898 0.854884
O O14 0.480882 0.385349 0.014246
O O15 0.898410 0.531060 0.842716
O O16 0.114063 0.304089 0.162106
O O17 0.783304 0.418247 0.131439
#
# Coordination Sequence:
#
# PCOD8025686 Si02
#       8
#     2   2   2   2   2   2   2   2
#     4  11  25  44  75 102 142 188 236 298 357 424
#     4  11  23  45  74  98 142 182 242 292 358 423
#     4  11  23  45  68 101 141 189 237 295 357 425
#     4  12  28  44  70 105 147 189 236 295 353 429
#     4  11  26  46  68 106 139 189 235 299 352 423
#     4  12  25  47  71 106 144 191 241 292 358 426
#     4  10  23  49  71 106 144 180 245 298 361 419
#     4  10  23  45  73 105 139 187 232 303 357 431
#
# _framework density 23.581507999999999
#
# number of rings (size 3 to 8) (size 9 to 14) (size 15 to 20)
#    0.000    1.000    2.500    3.000    5.250    1.000 
#    6.750    0.000    0.000    0.000    0.000    0.000 
#    0.000    0.000    0.000    0.000    0.000    0.000 
#
# Total GULP energy -198313.759343 kJ/mol
# GULP energy per Si atom -12394.609959 kJ/mol
# Density = 2.352784 g / cm^3
# Si number density = 23.581508 Si / 1000 Ang^3
#
#
#
# Elastic Constant Matrix: (Units=GPa)
#
#
# Indices 1 2 3 4 5 6 
#
# 1 115.1773 32.1415 46.8542 -9.8619 6.3536 3.9850
# 2 32.1415 51.1106 32.0982 -9.2477 8.4863 15.1398
# 3 46.8542 32.0982 124.7122 -18.9996 22.4169 5.8622
# 4 -9.8619 -9.2477 -18.9996 44.4048 5.2504 -3.1155
# 5 6.3536 8.4863 22.4169 5.2504 42.4736 2.6376
# 6 3.9850 15.1398 5.8622 -3.1155 2.6376 39.3245
#
#
#
# Elastic Compliance Matrix: (Units=1/GPa)
#
#
# Indices 1 2 3 4 5 6 
#
# 1 0.011458 -0.005908 -0.003028 0.000009 0.000970 0.001500
# 2 -0.005908 0.029679 -0.004065 0.002751 -0.002630 -0.009827
# 3 -0.003028 -0.004065 0.011807 0.004246 -0.005542 0.000820
# 4 0.000009 0.002751 0.004246 0.025675 -0.006012 0.000744
# 5 0.000970 -0.002630 -0.005542 -0.006012 0.027629 -0.000589
# 6 0.001500 -0.009827 0.000820 0.000744 -0.000589 0.029037
#
#
# Mechanical properties :
#
#
# Convention : Reuss Voigt Hill
#
# Bulk Modulus (GPa) = 37.11652 57.02088 47.06870
# Shear Modulus (GPa) = 29.36558 37.23434 33.29996
#
# Velocity S-wave (km/s) = 3.53268 3.97793 3.76190
# Velocity P-wave (km/s) = 5.69330 6.73286 6.23478
#
# Compressibility (1/GPa) = 0.02694218
#
# Stress axis : x y z
#
# Youngs Moduli (GPa) = 87.27560 33.69353 84.69779
#
# Poissons Ratio (x) = 0.19906 0.25643
# Poissons Ratio (y) = 0.51562 0.34433
# Poissons Ratio (z) = 0.26424 0.13698
#
# Static dielectric constant tensor:
#      x y z
#    x 4.680220 0.028150 0.312030 
#    y 0.028150 4.313900 -0.259060 
#    z 0.312030 -0.259060 4.686460 
# 
# 
# High freq. dielectric constant tensor:
#      x y z
#    x 1.934790 0.001280 0.003810 
#    y 0.001280 1.938750 -0.010050 
#    z 0.003810 -0.010050 1.938920 
# 
# From -- ./inp_files/604955.got.cif
#   From: 2010.06.25/outbox.cif.g09.slc.cpg/sg2_303_cif.got.tgz:604955.got - 2010.06.27 13:26:56.
