data_PCOD8025335
_publ_section_title
;
Structure prediction by ZEFSAII (Michael W. Deem and Ramdas Pophale) SiO2 
 PCOD8025335
Probable space group: P -1
;
_chemical_formula_sum "Si O2"
_cell_formula_units_Z 14
_cell_length_a 28.321438
_cell_length_b 9.467057
_cell_length_c 5.506993
_cell_angle_alpha 65.703218
_cell_angle_beta 102.779418
_cell_angle_gamma 150.045250
_cell_volume 641.572699
_symmetry_space_group_name_H-M "P -1"
_symmetry_group_IT_number 2
_symmetry_cell_setting 'triclinic'
loop_
_space_group_symop_operation_xyz
x,y,z
-x,-y,-z
loop_
_atom_site_type_symbol
_atom_site_label
_atom_site_fract_x
_atom_site_fract_y
_atom_site_fract_z
Si Si1 0.013038 0.791858 0.847176
Si Si2 0.720554 0.788273 0.595409
Si Si3 0.548070 0.245620 0.072285
Si Si4 0.081667 0.693732 0.259862
Si Si5 0.182958 0.655414 0.870881
Si Si6 0.352335 0.687199 0.473438
Si Si7 0.195478 0.509412 0.487164
O O1 0.944176 0.544542 0.719972
O O2 0.934478 0.631999 0.072125
O O3 0.085229 0.131534 0.612902
O O4 0.079728 0.831306 0.972397
O O5 0.700646 0.565367 0.612329
O O6 0.809213 0.012661 0.724215
O O7 0.751038 0.003611 0.282433
O O8 0.621529 0.568710 0.784681
O O9 0.619734 0.348987 0.253894
O O10 0.454219 0.058929 0.237355
O O11 0.500000 0.000000 0.000000
O O12 0.000000 0.500000 0.500000
O O13 0.208009 0.642333 0.654032
O O14 0.211930 0.643456 0.155790
O O15 0.277877 0.608454 0.536053
#
# Coordination Sequence:
#
# PCOD8025335 Si02
#       7
#     2   2   2   2   2   2   2
#     4  11  25  42  64  99 139 189 231 283 328 409
#     4  11  23  42  71  98 138 177 227 290 338 405
#     4   9  21  42  76 101 127 167 230 292 343 400
#     4  11  22  38  69 103 131 173 243 286 329 381
#     4  12  28  44  65 102 147 187 226 274 352 407
#     4  10  23  44  74 102 127 175 237 281 343 408
#     4  12  28  45  69  99 144 188 227 280 341 411
#
# _framework density 21.821379
#
# number of rings (size 3 to 8) (size 9 to 14) (size 15 to 20)
#    0.000    1.143    1.429    3.429   14.000    0.000 
#    0.000    1.429    0.000    0.000    0.000    0.000 
#    0.000    0.000    0.000    0.000    0.000    0.000 
#
# Total GULP energy -173528.861885 kJ/mol
# GULP energy per Si atom -12394.918706 kJ/mol
# Density = 2.177171 g / cm^3
# Si number density = 21.821379 Si / 1000 Ang^3
#
#
#
# Elastic Constant Matrix: (Units=GPa)
#
#
# Indices 1 2 3 4 5 6 
#
# 1 103.1451 39.4299 24.2996 -9.1676 -18.7736 3.3037
# 2 39.4299 116.9072 42.5929 -3.9948 -10.3330 11.1317
# 3 24.2996 42.5929 107.5614 -17.0550 -15.4779 4.1601
# 4 -9.1676 -3.9948 -17.0550 48.8837 1.4719 -14.8764
# 5 -18.7736 -10.3330 -15.4779 1.4719 27.4033 -2.4198
# 6 3.3037 11.1317 4.1601 -14.8764 -2.4198 26.7114
#
#
#
# Elastic Compliance Matrix: (Units=1/GPa)
#
#
# Indices 1 2 3 4 5 6 
#
# 1 0.012591 -0.003704 -0.000023 0.002443 0.007262 0.002009
# 2 -0.003704 0.011654 -0.004128 -0.002798 -0.000801 -0.005386
# 3 -0.000023 -0.004128 0.012345 0.004685 0.005405 0.002899
# 4 0.002443 -0.002798 0.004685 0.026915 0.003180 0.015412
# 5 0.007262 -0.000801 0.005405 0.003180 0.044435 0.004390
# 6 0.002009 -0.005386 0.002899 0.015412 0.004390 0.047963
#
#
# Mechanical properties :
#
#
# Convention : Reuss Voigt Hill
#
# Bulk Modulus (GPa) = 47.89416 60.02871 53.96144
# Shear Modulus (GPa) = 27.99948 35.35243 31.67595
#
# Velocity S-wave (km/s) = 3.58595 4.02939 3.81412
# Velocity P-wave (km/s) = 6.25631 7.01547 6.64674
#
# Compressibility (1/GPa) = 0.02087937
#
# Stress axis : x y z
#
# Youngs Moduli (GPa) = 79.42061 85.80946 81.00131
#
# Poissons Ratio (x) = 0.31786 0.00186
# Poissons Ratio (y) = 0.29419 0.33440
# Poissons Ratio (z) = 0.00182 0.35425
#
# Static dielectric constant tensor:
#      x y z
#    x 4.081670 0.270710 -0.222950 
#    y 0.270710 3.731890 -0.340150 
#    z -0.222950 -0.340150 4.282140 
# 
# 
# High freq. dielectric constant tensor:
#      x y z
#    x 1.843610 0.008420 -0.018490 
#    y 0.008420 1.865810 -0.001860 
#    z -0.018490 -0.001860 1.871580 
# 
# From -- ./inp_files/27843.got.cif
#   From: 2010.06.25/outbox.cif.g09.slc.cpg/sg2_14_cif.got.tgz:27843.got - 2010.06.27 13:26:56.
