data_PCOD8025491
_publ_section_title
;
Structure prediction by ZEFSAII (Michael W. Deem and Ramdas Pophale) SiO2 
 PCOD8025491
Probable space group: P -1
;
_chemical_formula_sum "Si O2"
_cell_formula_units_Z 16
_cell_length_a 17.789259
_cell_length_b 11.985515
_cell_length_c 8.952702
_cell_angle_alpha 95.975740
_cell_angle_beta 41.585406
_cell_angle_gamma 127.668756
_cell_volume 742.828537
_symmetry_space_group_name_H-M "P -1"
_symmetry_group_IT_number 2
_symmetry_cell_setting 'triclinic'
loop_
_space_group_symop_operation_xyz
x,y,z
-x,-y,-z
loop_
_atom_site_type_symbol
_atom_site_label
_atom_site_fract_x
_atom_site_fract_y
_atom_site_fract_z
Si Si1 0.433402 0.040610 0.309848
Si Si2 0.549742 0.357083 0.669115
Si Si3 0.873948 0.906837 0.821740
Si Si4 0.362976 0.018900 0.080102
Si Si5 0.287606 0.625945 0.856685
Si Si6 0.121109 0.305259 0.581182
Si Si7 0.120671 0.685272 0.936252
Si Si8 0.933640 0.717396 0.671365
O O1 0.359022 0.034226 0.265868
O O2 0.528461 0.216741 0.287656
O O3 0.257940 0.854186 0.638656
O O4 0.590785 0.071584 0.043668
O O5 0.665328 0.414068 0.358718
O O6 0.683938 0.551476 0.589894
O O7 0.348657 0.249486 0.904562
O O8 0.519285 0.223414 0.798570
O O9 0.890084 0.793301 0.849125
O O10 0.000000 0.000000 0.500000
O O11 0.975552 0.083544 0.797664
O O12 0.153877 0.885559 0.312663
O O13 0.234356 0.710040 0.899972
O O14 0.117171 0.432488 0.177514
O O15 0.182796 0.365342 0.323616
O O16 0.016525 0.335481 0.786462
O O17 0.000000 0.500000 0.000000
#
# Coordination Sequence:
#
# PCOD8025491 Si02
#       8
#     2   2   2   2   2   2   2   2
#     4  11  24  38  66  99 135 175 217 270 337 398
#     4  12  23  43  69  99 131 174 225 269 329 402
#     4  10  23  45  68  95 133 174 226 279 323 381
#     4  11  22  42  65  98 136 172 224 271 325 406
#     4  12  25  40  66  99 137 173 217 275 335 395
#     4  11  23  42  71 100 130 179 220 269 338 393
#     4  12  22  40  66  99 137 170 211 273 337 397
#     4  11  25  45  65  96 136 174 224 280 323 384
#
# _framework density 21.539290000000001
#
# number of rings (size 3 to 8) (size 9 to 14) (size 15 to 20)
#    0.000    0.750    5.000    3.375    0.000    6.500 
#    2.250    0.625    0.000    0.000    0.000    0.000 
#    0.000    0.000    0.000    0.000    0.000    0.000 
#
# Total GULP energy -198407.254846 kJ/mol
# GULP energy per Si atom -12400.453428 kJ/mol
# Density = 2.149027 g / cm^3
# Si number density = 21.539290 Si / 1000 Ang^3
#
#
#
# Elastic Constant Matrix: (Units=GPa)
#
#
# Indices 1 2 3 4 5 6 
#
# 1 50.2465 25.4777 21.3793 -10.1568 8.9633 10.4224
# 2 25.4777 123.9771 33.6006 -9.7728 -2.5201 20.2149
# 3 21.3793 33.6006 91.9577 -11.4497 -0.7331 4.6125
# 4 -10.1568 -9.7728 -11.4497 28.8723 1.8285 -11.4916
# 5 8.9633 -2.5201 -0.7331 1.8285 43.1513 -0.2557
# 6 10.4224 20.2149 4.6125 -11.4916 -0.2557 32.7697
#
#
#
# Elastic Compliance Matrix: (Units=1/GPa)
#
#
# Indices 1 2 3 4 5 6 
#
# 1 0.026291 -0.003367 -0.004072 0.005324 -0.005976 -0.003892
# 2 -0.003367 0.010330 -0.002841 -0.000978 0.001265 -0.005235
# 3 -0.004072 -0.002841 0.013212 0.003803 0.000758 0.002528
# 4 0.005324 -0.000978 0.003803 0.043246 -0.002851 0.013518
# 5 -0.005976 0.001265 0.000758 -0.002851 0.024624 0.000206
# 6 -0.003892 -0.005235 0.002528 0.013518 0.000206 0.039369
#
#
# Mechanical properties :
#
#
# Convention : Reuss Voigt Hill
#
# Bulk Modulus (GPa) = 34.15965 47.45516 40.80740
# Shear Modulus (GPa) = 26.68244 33.34024 30.01134
#
# Velocity S-wave (km/s) = 3.52345 3.93858 3.73678
# Velocity P-wave (km/s) = 5.69619 6.53934 6.13227
#
# Compressibility (1/GPa) = 0.02927431
#
# Stress axis : x y z
#
# Youngs Moduli (GPa) = 38.03616 96.80569 75.68818
#
# Poissons Ratio (x) = 0.32590 0.30819
# Poissons Ratio (y) = 0.12805 0.21502
# Poissons Ratio (z) = 0.15488 0.27502
#
# Static dielectric constant tensor:
#      x y z
#    x 4.161780 -0.249880 -0.142130 
#    y -0.249880 4.671730 -0.022380 
#    z -0.142130 -0.022380 3.873790 
# 
# 
# High freq. dielectric constant tensor:
#      x y z
#    x 1.836970 0.005660 -0.002600 
#    y 0.005660 1.854520 -0.004150 
#    z -0.002600 -0.004150 1.845590 
# 
# From -- ./inp_files/307307.got.cif
#   From: 2010.06.25/outbox.cif.g09.slc.cpg/sg2_154_cif.got.tgz:307307.got - 2010.06.27 13:26:56.
