data_PCOD8025907
_publ_section_title
;
Structure prediction by ZEFSAII (Michael W. Deem and Ramdas Pophale) SiO2 
 PCOD8025907
Probable space group: P -1
;
_chemical_formula_sum "Si O2"
_cell_formula_units_Z 16
_cell_length_a 12.174227
_cell_length_b 11.812394
_cell_length_c 5.917783
_cell_angle_alpha 64.777356
_cell_angle_beta 111.323424
_cell_angle_gamma 93.418193
_cell_volume 712.572462
_symmetry_space_group_name_H-M "P -1"
_symmetry_group_IT_number 2
_symmetry_cell_setting 'triclinic'
loop_
_space_group_symop_operation_xyz
x,y,z
-x,-y,-z
loop_
_atom_site_type_symbol
_atom_site_label
_atom_site_fract_x
_atom_site_fract_y
_atom_site_fract_z
Si Si1 0.345978 0.292775 0.550940
Si Si2 0.981674 0.325588 0.050463
Si Si3 0.912267 0.469434 0.266015
Si Si4 0.048210 0.041380 0.248986
Si Si5 0.521721 0.382633 0.280661
Si Si6 0.313295 0.060971 0.449600
Si Si7 0.753370 0.462688 0.526458
Si Si8 0.489527 0.153494 0.159021
O O1 0.403870 0.379597 0.340751
O O2 0.280813 0.183099 0.480231
O O3 0.253640 0.390108 0.534171
O O4 0.450616 0.226445 0.841301
O O5 0.958772 0.335732 0.294993
O O6 0.019737 0.190353 0.096460
O O7 0.855109 0.378598 0.806271
O O8 0.087213 0.413909 0.007048
O O9 0.783066 0.461284 0.280787
O O10 0.000000 0.500000 0.500000
O O11 0.189796 0.002408 0.370992
O O12 0.000000 0.000000 0.500000
O O13 0.000000 0.000000 0.000000
O O14 0.630980 0.402034 0.512211
O O15 0.547311 0.248843 0.287765
O O16 0.500000 0.500000 0.000000
O O17 0.373826 0.100057 0.228291
O O18 0.408084 0.958685 0.729837
#
# Coordination Sequence:
#
# PCOD8025907 Si02
#       8
#     2   2   2   2   2   2   2   2
#     4  11  24  41  69 106 130 187 236 296 364 431
#     4  10  25  44  68 100 140 180 243 289 361 434
#     4   9  22  41  68  99 130 178 233 288 356 422
#     4  12  32  51  75 109 149 201 247 303 371 442
#     4  11  24  39  61 103 142 175 229 289 365 434
#     4  10  26  46  74  99 140 186 250 300 360 435
#     4  11  24  37  69  99 142 179 222 295 362 430
#     4  10  23  46  72  99 137 187 242 302 364 427
#
# _framework density 22.453858
#
# number of rings (size 3 to 8) (size 9 to 14) (size 15 to 20)
#    0.000    1.500    1.250    0.750   15.750    1.000 
#    0.000    0.000    0.000    0.000    0.000    0.000 
#    0.000    0.000    0.000    0.000    0.000    0.000 
#
# Total GULP energy -198251.558795 kJ/mol
# GULP energy per Si atom -12390.722425 kJ/mol
# Density = 2.240275 g / cm^3
# Si number density = 22.453858 Si / 1000 Ang^3
#
#
#
# Elastic Constant Matrix: (Units=GPa)
#
#
# Indices 1 2 3 4 5 6 
#
# 1 95.7742 33.4633 28.4351 6.2454 1.9922 -1.0355
# 2 33.4633 93.8616 15.7025 8.5321 -9.1194 -14.3614
# 3 28.4351 15.7025 93.6887 2.2977 -4.1571 -2.6364
# 4 6.2454 8.5321 2.2977 41.1184 -3.6370 1.4983
# 5 1.9922 -9.1194 -4.1571 -3.6370 35.4595 6.1097
# 6 -1.0355 -14.3614 -2.6364 1.4983 6.1097 35.1118
#
#
#
# Elastic Compliance Matrix: (Units=1/GPa)
#
#
# Indices 1 2 3 4 5 6 
#
# 1 0.013069 -0.004408 -0.003333 -0.001029 -0.002149 -0.001250
# 2 -0.004408 0.013533 -0.000624 -0.002057 0.002583 0.004997
# 3 -0.003333 -0.000624 0.011857 0.000084 0.001375 0.000294
# 4 -0.001029 -0.002057 0.000084 0.025209 0.002535 -0.002382
# 5 -0.002149 0.002583 0.001375 0.002535 0.030141 -0.004257
# 6 -0.001250 0.004997 0.000294 -0.002382 -0.004257 0.031352
#
#
# Mechanical properties :
#
#
# Convention : Reuss Voigt Hill
#
# Bulk Modulus (GPa) = 46.02531 48.72513 47.37522
# Shear Modulus (GPa) = 33.52667 36.05285 34.78976
#
# Velocity S-wave (km/s) = 3.86830 4.01139 3.94050
# Velocity P-wave (km/s) = 6.36348 6.57284 6.46901
#
# Compressibility (1/GPa) = 0.02172717
#
# Stress axis : x y z
#
# Youngs Moduli (GPa) = 76.51497 73.89582 84.33753
#
# Poissons Ratio (x) = 0.32576 0.28110
# Poissons Ratio (y) = 0.33731 0.05266
# Poissons Ratio (z) = 0.25503 0.04614
#
# Static dielectric constant tensor:
#      x y z
#    x 4.776750 -0.049700 -0.491450 
#    y -0.049700 4.296650 0.210510 
#    z -0.491450 0.210510 4.282550 
# 
# 
# High freq. dielectric constant tensor:
#      x y z
#    x 1.886970 -0.008280 -0.002000 
#    y -0.008280 1.893290 0.009110 
#    z -0.002000 0.009110 1.882860 
# 
# From -- ./inp_files/69327.got.cif
#   From: 2010.06.25/outbox.cif.g09.slc.cpg/sg2_35_cif.got.tgz:69327.got - 2010.06.27 13:26:56.
