data_PCOD8025026
_publ_section_title
;
Structure prediction by ZEFSAII (Michael W. Deem and Ramdas Pophale) SiO2 
 PCOD8025026
Probable space group: P -1
;
_chemical_formula_sum "Si O2"
_cell_formula_units_Z 16
_cell_length_a 14.280234
_cell_length_b 14.660280
_cell_length_c 11.259417
_cell_angle_alpha 41.843173
_cell_angle_beta 57.821798
_cell_angle_gamma 29.631808
_cell_volume 728.682905
_symmetry_space_group_name_H-M "P -1"
_symmetry_group_IT_number 2
_symmetry_cell_setting 'triclinic'
loop_
_space_group_symop_operation_xyz
x,y,z
-x,-y,-z
loop_
_atom_site_type_symbol
_atom_site_label
_atom_site_fract_x
_atom_site_fract_y
_atom_site_fract_z
Si Si1 0.950564 0.235931 0.790098
Si Si2 0.305701 0.206688 0.160785
Si Si3 0.037238 0.120614 0.112646
Si Si4 0.351116 0.467225 0.880475
Si Si5 0.122458 0.324761 0.921076
Si Si6 0.691543 0.661132 0.392549
Si Si7 0.690797 0.398391 0.481825
Si Si8 0.656995 0.310387 0.971824
O O1 0.868849 0.456855 0.568252
O O2 0.748416 0.351935 0.811419
O O3 0.030805 0.171446 0.930893
O O4 0.143264 0.977891 0.835776
O O5 0.116753 0.388702 0.202616
O O6 0.477292 0.915946 0.354158
O O7 0.408351 0.248953 0.057320
O O8 0.221058 0.278200 0.017618
O O9 0.810445 0.334701 0.101287
O O10 0.137506 0.871395 0.312670
O O11 0.149484 0.131720 0.090113
O O12 0.256166 0.607589 0.681537
O O13 0.551875 0.342974 0.900043
O O14 0.242405 0.270839 0.786309
O O15 0.661102 0.563002 0.422413
O O16 0.500000 0.500000 0.500000
O O17 0.500000 0.500000 0.000000
#
# Coordination Sequence:
#
# PCOD8025026 Si02
#       8
#     2   2   2   2   2   2   2   2
#     4  11  25  44  65  99 136 179 228 265 334 409
#     4  10  23  44  67  99 136 174 221 274 338 401
#     4  11  24  45  67  99 137 174 228 276 332 403
#     4  11  23  43  70  98 131 177 223 281 342 392
#     4  10  23  44  69  95 137 179 219 275 334 398
#     4  12  25  42  69  98 139 177 222 275 331 400
#     4  12  24  40  68 106 131 169 228 284 340 395
#     4  11  23  44  68  94 137 181 219 279 338 394
#
# _framework density 21.957424
#
# number of rings (size 3 to 8) (size 9 to 14) (size 15 to 20)
#    0.000    1.000    2.500    4.500    3.500    1.500 
#    2.250    1.250    0.000    0.000    0.000    0.000 
#    0.000    0.000    0.000    0.000    0.000    0.000 
#
# Total GULP energy -198347.959384 kJ/mol
# GULP energy per Si atom -12396.747462 kJ/mol
# Density = 2.190745 g / cm^3
# Si number density = 21.957424 Si / 1000 Ang^3
#
#
#
# Elastic Constant Matrix: (Units=GPa)
#
#
# Indices 1 2 3 4 5 6 
#
# 1 96.7436 22.8887 12.4493 -9.0621 -2.9241 -3.7314
# 2 22.8887 107.9032 36.1993 -20.0502 -1.2708 1.5038
# 3 12.4493 36.1993 93.2417 -22.9805 4.8919 6.2283
# 4 -9.0621 -20.0502 -22.9805 29.3551 5.8185 -2.1271
# 5 -2.9241 -1.2708 4.8919 5.8185 33.3746 1.0158
# 6 -3.7314 1.5038 6.2283 -2.1271 1.0158 27.9668
#
#
#
# Elastic Compliance Matrix: (Units=1/GPa)
#
#
# Indices 1 2 3 4 5 6 
#
# 1 0.011097 -0.001885 -0.000461 0.001789 0.000601 0.001799
# 2 -0.001885 0.011611 -0.003020 0.005030 -0.000163 0.000185
# 3 -0.000461 -0.003020 0.014785 0.009995 -0.003995 -0.002286
# 4 0.001789 0.005030 0.009995 0.047890 -0.009519 0.001730
# 5 0.000601 -0.000163 -0.003995 -0.009519 0.032282 -0.000918
# 6 0.001799 0.000185 -0.002286 0.001730 -0.000918 0.036661
#
#
# Mechanical properties :
#
#
# Convention : Reuss Voigt Hill
#
# Bulk Modulus (GPa) = 37.36811 48.99590 43.18201
# Shear Modulus (GPa) = 28.73932 33.22936 30.98434
#
# Velocity S-wave (km/s) = 3.62175 3.89441 3.76055
# Velocity P-wave (km/s) = 5.87748 6.52567 6.21004
#
# Compressibility (1/GPa) = 0.02676078
#
# Stress axis : x y z
#
# Youngs Moduli (GPa) = 90.11479 86.12709 67.63780
#
# Poissons Ratio (x) = 0.16235 0.03116
# Poissons Ratio (y) = 0.16986 0.20427
# Poissons Ratio (z) = 0.04151 0.26011
#
# Static dielectric constant tensor:
#      x y z
#    x 4.007910 -0.023450 -0.027550 
#    y -0.023450 4.184390 -0.171380 
#    z -0.027550 -0.171380 4.080770 
# 
# 
# High freq. dielectric constant tensor:
#      x y z
#    x 1.874440 -0.002790 -0.002610 
#    y -0.002790 1.873560 -0.010110 
#    z -0.002610 -0.010110 1.849320 
# 
# From -- ./inp_files/455462.got.cif
#   From: 2010.06.25/outbox.cif.g09.slc.cpg/sg2_228_cif.got.tgz:455462.got - 2010.06.27 13:26:56.
