data_PCOD8025664
_publ_section_title
;
Structure prediction by ZEFSAII (Michael W. Deem and Ramdas Pophale) SiO2 
 PCOD8025664
Probable space group: P -1
;
_chemical_formula_sum "Si O2"
_cell_formula_units_Z 16
_cell_length_a 10.804356
_cell_length_b 7.898089
_cell_length_c 15.668888
_cell_angle_alpha 58.659498
_cell_angle_beta 68.970008
_cell_angle_gamma 116.150197
_cell_volume 657.666906
_symmetry_space_group_name_H-M "P -1"
_symmetry_group_IT_number 2
_symmetry_cell_setting 'triclinic'
loop_
_space_group_symop_operation_xyz
x,y,z
-x,-y,-z
loop_
_atom_site_type_symbol
_atom_site_label
_atom_site_fract_x
_atom_site_fract_y
_atom_site_fract_z
Si Si1 0.228608 0.751190 0.590536
Si Si2 0.971799 0.737176 0.097765
Si Si3 0.427444 0.163722 0.815922
Si Si4 0.394916 0.317849 0.483284
Si Si5 0.373722 0.217825 0.168084
Si Si6 0.819713 0.392449 0.694522
Si Si7 0.991349 0.925693 0.423420
Si Si8 0.570516 0.139792 0.256004
O O1 0.138102 0.439284 0.736419
O O2 0.017506 0.634492 0.649130
O O3 0.372518 0.052180 0.543561
O O4 0.379966 0.878064 0.440091
O O5 0.811943 0.442379 0.149887
O O6 0.000000 0.000000 0.000000
O O7 0.204060 0.904054 0.990453
O O8 0.482566 0.449780 0.691891
O O9 0.608465 0.277236 0.803948
O O10 0.421353 0.031352 0.765598
O O11 0.500000 0.500000 0.500000
O O12 0.153479 0.117529 0.593566
O O13 0.527449 0.294783 0.177627
O O14 0.235916 0.899743 0.231302
O O15 0.500000 0.500000 0.000000
O O16 0.229075 0.206908 0.255241
O O17 0.899636 0.590914 0.534618
O O18 0.000000 0.000000 0.500000
#
# Coordination Sequence:
#
# PCOD8025664 Si02
#       8
#     2   2   2   2   2   2   2   2
#     4  12  25  47  75 104 142 197 246 296 361 448
#     4  12  28  46  67 104 148 188 237 308 369 429
#     4  10  25  45  72 102 145 187 239 310 363 425
#     4  11  24  42  72 109 143 190 244 297 365 442
#     4  11  25  42  69 106 144 187 238 304 360 421
#     4  10  23  45  72 102 141 192 244 292 360 431
#     4  11  21  44  72 104 144 190 244 297 352 436
#     4  11  24  48  71 102 143 192 249 289 364 443
#
# _framework density 24.328424999999999
#
# number of rings (size 3 to 8) (size 9 to 14) (size 15 to 20)
#    0.000    1.000    2.500    2.625    5.250    5.500 
#    0.000    0.000    0.000    0.000    0.000    0.000 
#    0.000    0.000    0.000    0.000    0.000    0.000 
#
# Total GULP energy -198274.031766 kJ/mol
# GULP energy per Si atom -12392.126985 kJ/mol
# Density = 2.427305 g / cm^3
# Si number density = 24.328425 Si / 1000 Ang^3
#
#
#
# Elastic Constant Matrix: (Units=GPa)
#
#
# Indices 1 2 3 4 5 6 
#
# 1 93.7148 12.9314 51.0687 -0.8462 -0.5879 11.1761
# 2 12.9314 87.3919 27.7096 -3.0895 -1.6368 -2.5320
# 3 51.0687 27.7096 174.1695 -1.3360 -0.9203 -20.9864
# 4 -0.8462 -3.0895 -1.3360 27.7853 0.5169 -1.6928
# 5 -0.5879 -1.6368 -0.9203 0.5169 51.4032 -13.6108
# 6 11.1761 -2.5320 -20.9864 -1.6928 -13.6108 41.4926
#
#
#
# Elastic Compliance Matrix: (Units=1/GPa)
#
#
# Indices 1 2 3 4 5 6 
#
# 1 0.014276 -0.000801 -0.004911 -0.000282 -0.001795 -0.006978
# 2 -0.000801 0.012145 -0.001648 0.001258 0.000418 0.000312
# 3 -0.004911 -0.001648 0.008165 0.000389 0.001593 0.005890
# 4 -0.000282 0.001258 0.000389 0.036252 0.000179 0.001887
# 5 -0.001795 0.000418 0.001593 0.000179 0.021709 0.008443
# 6 -0.006978 0.000312 0.005890 0.001887 0.008443 0.031825
#
#
# Mechanical properties :
#
#
# Convention : Reuss Voigt Hill
#
# Bulk Modulus (GPa) = 50.33747 59.85508 55.09628
# Shear Modulus (GPa) = 34.31385 41.70731 38.01058
#
# Velocity S-wave (km/s) = 3.75966 4.14496 3.95700
# Velocity P-wave (km/s) = 6.29146 6.89666 6.60100
#
# Compressibility (1/GPa) = 0.01986592
#
# Stress axis : x y z
#
# Youngs Moduli (GPa) = 70.04897 82.33783 122.47709
#
# Poissons Ratio (x) = 0.06596 0.60147
# Poissons Ratio (y) = 0.05611 0.20183
# Poissons Ratio (z) = 0.34400 0.13569
#
# Static dielectric constant tensor:
#      x y z
#    x 4.779220 0.078480 -0.020670 
#    y 0.078480 4.358520 -0.341430 
#    z -0.020670 -0.341430 4.482320 
# 
# 
# High freq. dielectric constant tensor:
#      x y z
#    x 1.987480 0.004880 -0.002820 
#    y 0.004880 1.961300 -0.023440 
#    z -0.002820 -0.023440 1.959960 
# 
# From -- ./inp_files/515199.got.cif
#   From: 2010.06.25/outbox.cif.g09.slc.cpg/sg2_258_cif.got.tgz:515199.got - 2010.06.27 13:26:56.
