data_PCOD8025724
_publ_section_title
;
Structure prediction by ZEFSAII (Michael W. Deem and Ramdas Pophale) SiO2 
 PCOD8025724
Probable space group: P -1
;
_chemical_formula_sum "Si O2"
_cell_formula_units_Z 16
_cell_length_a 8.659096
_cell_length_b 12.635682
_cell_length_c 14.092017
_cell_angle_alpha 66.222684
_cell_angle_beta 148.656552
_cell_angle_gamma 102.573831
_cell_volume 707.493921
_symmetry_space_group_name_H-M "P -1"
_symmetry_group_IT_number 2
_symmetry_cell_setting 'triclinic'
loop_
_space_group_symop_operation_xyz
x,y,z
-x,-y,-z
loop_
_atom_site_type_symbol
_atom_site_label
_atom_site_fract_x
_atom_site_fract_y
_atom_site_fract_z
Si Si1 0.687287 0.969545 0.368594
Si Si2 0.283009 0.273830 0.435943
Si Si3 0.967387 0.685425 0.920722
Si Si4 0.880862 0.933273 0.871802
Si Si5 0.823006 0.489028 0.218903
Si Si6 0.731735 0.943627 0.062386
Si Si7 0.116779 0.687139 0.332669
Si Si8 0.496936 0.539853 0.752488
O O1 0.757412 0.828790 0.476433
O O2 0.493103 0.036362 0.333581
O O3 0.459974 0.024010 0.145185
O O4 0.000000 0.000000 0.500000
O O5 0.166513 0.261504 0.271740
O O6 0.644501 0.272188 0.626477
O O7 0.088380 0.393673 0.338894
O O8 0.006871 0.789407 0.976516
O O9 0.738342 0.617441 0.876484
O O10 0.306315 0.596262 0.116029
O O11 0.000000 0.000000 0.000000
O O12 0.987597 0.993397 0.813385
O O13 0.770418 0.457178 0.311971
O O14 0.905460 0.614079 0.197412
O O15 0.500000 0.500000 0.000000
O O16 0.875135 0.803108 0.207455
O O17 0.500000 0.000000 0.000000
O O18 0.312371 0.595311 0.543532
#
# Coordination Sequence:
#
# PCOD8025724 Si02
#       8
#     2   2   2   2   2   2   2   2
#     4  11  27  45  69 103 138 185 243 292 361 426
#     4  11  25  47  70 107 141 194 237 293 369 427
#     4  10  23  45  75 101 150 178 241 296 357 427
#     4  10  24  47  71 103 141 190 234 294 363 430
#     4  12  26  43  74 107 144 183 244 300 360 416
#     4  11  27  46  70 103 140 187 240 296 367 425
#     4  11  26  48  69 100 150 188 242 293 364 437
#     4  10  24  46  70 112 133 195 233 296 359 420
#
# _framework density 22.615034000000001
#
# number of rings (size 3 to 8) (size 9 to 14) (size 15 to 20)
#    0.000    1.250    2.500    0.750    8.750    4.500 
#    0.000    0.000    0.000    0.000    0.000    0.000 
#    0.000    0.000    0.000    0.000    0.000    0.000 
#
# Total GULP energy -198242.250916 kJ/mol
# GULP energy per Si atom -12390.140682 kJ/mol
# Density = 2.256356 g / cm^3
# Si number density = 22.615034 Si / 1000 Ang^3
#
#
#
# Elastic Constant Matrix: (Units=GPa)
#
#
# Indices 1 2 3 4 5 6 
#
# 1 123.0570 52.8414 33.4865 11.6516 52.3331 8.2793
# 2 52.8414 172.9520 47.7302 -6.5594 26.7842 -4.1290
# 3 33.4865 47.7302 103.8189 -5.2660 23.5756 3.3938
# 4 11.6516 -6.5594 -5.2660 31.1110 -1.3942 11.9130
# 5 52.3331 26.7842 23.5756 -1.3942 38.7705 -6.0414
# 6 8.2793 -4.1290 3.3938 11.9130 -6.0414 42.3434
#
#
#
# Elastic Compliance Matrix: (Units=1/GPa)
#
#
# Indices 1 2 3 4 5 6 
#
# 1 0.024552 -0.003119 0.000825 -0.008304 -0.032960 -0.007537
# 2 -0.003119 0.007397 -0.002536 0.001908 0.000886 0.001124
# 3 0.000825 -0.002536 0.012393 0.002088 -0.007295 -0.003030
# 4 -0.008304 0.001908 0.002088 0.039555 0.008761 -0.008236
# 5 -0.032960 0.000886 -0.007295 0.008761 0.076855 0.015616
# 6 -0.007537 0.001124 -0.003030 -0.008236 0.015616 0.029988
#
#
# Mechanical properties :
#
#
# Convention : Reuss Voigt Hill
#
# Bulk Modulus (GPa) = 28.83371 74.21603 51.52487
# Shear Modulus (GPa) = 23.58924 40.16298 31.87611
#
# Velocity S-wave (km/s) = 3.23317 4.21876 3.75842
# Velocity P-wave (km/s) = 5.16869 7.52456 6.45501
#
# Compressibility (1/GPa) = 0.03468163
#
# Stress axis : x y z
#
# Youngs Moduli (GPa) = 40.73002 135.19499 80.68830
#
# Poissons Ratio (x) = 0.42173 -0.06656
# Poissons Ratio (y) = 0.12705 0.20460
# Poissons Ratio (z) = -0.03360 0.34281
#
# Static dielectric constant tensor:
#      x y z
#    x 4.812700 0.634880 0.102370 
#    y 0.634880 4.299450 0.066240 
#    z 0.102370 0.066240 4.030430 
# 
# 
# High freq. dielectric constant tensor:
#      x y z
#    x 1.907450 0.013790 0.018580 
#    y 0.013790 1.891250 -0.011560 
#    z 0.018580 -0.011560 1.895070 
# 
# From -- ./inp_files/500333.got.cif
#   From: 2010.06.25/outbox.cif.g09.slc.cpg/sg2_251_cif.got.tgz:500333.got - 2010.06.27 13:26:56.
