data_PCOD8025618
_publ_section_title
;
Structure prediction by ZEFSAII (Michael W. Deem and Ramdas Pophale) SiO2 
 PCOD8025618
Probable space group: P -1
;
_chemical_formula_sum "Si O2"
_cell_formula_units_Z 14
_cell_length_a 8.668056
_cell_length_b 12.708342
_cell_length_c 8.650425
_cell_angle_alpha 87.176416
_cell_angle_beta 49.673472
_cell_angle_gamma 66.029448
_cell_volume 631.817039
_symmetry_space_group_name_H-M "P -1"
_symmetry_group_IT_number 2
_symmetry_cell_setting 'triclinic'
loop_
_space_group_symop_operation_xyz
x,y,z
-x,-y,-z
loop_
_atom_site_type_symbol
_atom_site_label
_atom_site_fract_x
_atom_site_fract_y
_atom_site_fract_z
Si Si1 0.520158 0.939605 0.325873
Si Si2 0.650013 0.247072 0.608701
Si Si3 0.369194 0.482072 0.941543
Si Si4 0.001929 0.882414 0.066363
Si Si5 0.075997 0.402006 0.591246
Si Si6 0.085080 0.156171 0.528788
Si Si7 0.587412 0.344201 0.322849
O O1 0.454367 0.834231 0.382248
O O2 0.792582 0.877019 0.109118
O O3 0.500000 0.000000 0.500000
O O4 0.344325 0.049566 0.318882
O O5 0.482290 0.339468 0.842582
O O6 0.677187 0.320703 0.442300
O O7 0.904270 0.160991 0.519109
O O8 0.402613 0.541185 0.760105
O O9 0.500000 0.500000 0.000000
O O10 0.098009 0.540475 0.154716
O O11 0.970522 0.885621 0.270031
O O12 0.250124 0.769031 0.880198
O O13 0.000000 0.000000 0.000000
O O14 0.069133 0.285854 0.539036
O O15 0.329584 0.363695 0.488957
O O16 0.000000 0.500000 0.500000
#
# Coordination Sequence:
#
# PCOD8025618 Si02
#       7
#     2   2   2   2   2   2   2
#     4  10  23  45  70  99 137 183 232 288 346 408
#     4  12  25  44  71 106 143 184 228 293 349 415
#     4  12  24  48  69 104 144 182 236 287 346 418
#     4  11  22  44  73 100 137 187 236 289 347 412
#     4  12  24  44  77 103 139 191 229 286 353 414
#     4  11  22  45  71 101 145 179 234 290 345 416
#     4  12  24  43  69 106 142 184 235 285 348 416
#
# _framework density 22.158313
#
# number of rings (size 3 to 8) (size 9 to 14) (size 15 to 20)
#    0.000    0.571    4.286    5.143    0.000    0.571 
#    5.143    1.429    0.000    0.000    0.000    0.000 
#    0.000    0.000    0.000    0.000    0.000    0.000 
#
# Total GULP energy -173616.159764 kJ/mol
# GULP energy per Si atom -12401.154269 kJ/mol
# Density = 2.210788 g / cm^3
# Si number density = 22.158313 Si / 1000 Ang^3
#
#
#
# Elastic Constant Matrix: (Units=GPa)
#
#
# Indices 1 2 3 4 5 6 
#
# 1 141.6131 53.3505 59.5105 -3.7519 -17.8068 -18.4371
# 2 53.3505 133.0327 32.3087 -10.9229 0.2646 -3.2595
# 3 59.5105 32.3087 94.0927 -0.4999 -20.7472 -8.1757
# 4 -3.7519 -10.9229 -0.4999 46.3666 -4.9486 0.5056
# 5 -17.8068 0.2646 -20.7472 -4.9486 39.8266 7.5634
# 6 -18.4371 -3.2595 -8.1757 0.5056 7.5634 45.5898
#
#
#
# Elastic Compliance Matrix: (Units=1/GPa)
#
#
# Indices 1 2 3 4 5 6 
#
# 1 0.011052 -0.003049 -0.005315 0.000262 0.001652 0.003021
# 2 -0.003049 0.009295 -0.001748 0.001715 -0.002015 -0.000567
# 3 -0.005315 -0.001748 0.015871 -0.000028 0.005979 -0.000420
# 4 0.000262 0.001715 -0.000028 0.022314 0.002962 -0.000515
# 5 0.001652 -0.002015 0.005979 0.002962 0.029992 -0.003412
# 6 0.003021 -0.000567 -0.000420 -0.000515 -0.003412 0.023613
#
#
# Mechanical properties :
#
#
# Convention : Reuss Voigt Hill
#
# Bulk Modulus (GPa) = 62.51915 73.23087 67.87501
# Shear Modulus (GPa) = 36.31336 41.26119 38.78728
#
# Velocity S-wave (km/s) = 4.05262 4.31990 4.18839
# Velocity P-wave (km/s) = 7.08338 7.61595 7.35449
#
# Compressibility (1/GPa) = 0.01599510
#
# Stress axis : x y z
#
# Youngs Moduli (GPa) = 90.48492 107.58351 63.00760
#
# Poissons Ratio (x) = 0.32803 0.33487
# Poissons Ratio (y) = 0.27589 0.11011
# Poissons Ratio (z) = 0.48090 0.18801
#
# Static dielectric constant tensor:
#      x y z
#    x 4.121810 -0.396240 -0.443660 
#    y -0.396240 4.311970 0.268340 
#    z -0.443660 0.268340 4.317460 
# 
# 
# High freq. dielectric constant tensor:
#      x y z
#    x 1.871750 -0.013960 -0.016250 
#    y -0.013960 1.893930 0.010610 
#    z -0.016250 0.010610 1.865010 
# 
# From -- ./inp_files/182021.got.cif
#   From: 2010.06.25/outbox.cif.g09.slc.cpg/sg2_92_cif.got.tgz:182021.got - 2010.06.27 13:26:56.
