data_PCOD8025394
_publ_section_title
;
Structure prediction by ZEFSAII (Michael W. Deem and Ramdas Pophale) SiO2 
 PCOD8025394
Probable space group: P -1
;
_chemical_formula_sum "Si O2"
_cell_formula_units_Z 16
_cell_length_a 12.588914
_cell_length_b 9.112914
_cell_length_c 9.962833
_cell_angle_alpha 137.537332
_cell_angle_beta 76.140330
_cell_angle_gamma 91.351320
_cell_volume 728.420927
_symmetry_space_group_name_H-M "P -1"
_symmetry_group_IT_number 2
_symmetry_cell_setting 'triclinic'
loop_
_space_group_symop_operation_xyz
x,y,z
-x,-y,-z
loop_
_atom_site_type_symbol
_atom_site_label
_atom_site_fract_x
_atom_site_fract_y
_atom_site_fract_z
Si Si1 0.718630 0.065705 0.951462
Si Si2 0.229657 0.095148 0.723430
Si Si3 0.604419 0.245665 0.379094
Si Si4 0.079845 0.846489 0.475234
Si Si5 0.640461 0.681356 0.574900
Si Si6 0.034190 0.161379 0.208194
Si Si7 0.210532 0.504782 0.832329
Si Si8 0.964622 0.591364 0.866128
O O1 0.649120 0.918187 0.791820
O O2 0.832298 0.903350 0.857539
O O3 0.639003 0.173701 0.169047
O O4 0.749223 0.268320 0.991738
O O5 0.261672 0.310760 0.792699
O O6 0.335765 0.945436 0.665836
O O7 0.193343 0.934880 0.513587
O O8 0.121806 0.179284 0.909358
O O9 0.634248 0.488576 0.558289
O O10 0.471073 0.274001 0.453932
O O11 0.102163 0.605033 0.234306
O O12 0.027170 0.835027 0.630254
O O13 0.000000 0.000000 0.500000
O O14 0.749461 0.584559 0.387119
O O15 0.002652 0.396551 0.294332
O O16 0.000000 0.000000 0.000000
O O17 0.074275 0.551715 0.902257
#
# Coordination Sequence:
#
# PCOD8025394 Si02
#       8
#     2   2   2   2   2   2   2   2
#     4  11  21  40  66  91 121 165 212 261 323 377
#     4  12  25  42  62  95 134 171 209 266 322 383
#     4  10  23  45  65  93 121 159 221 271 322 367
#     4  12  26  39  62  96 135 176 212 252 322 391
#     4  10  24  43  68  90 120 165 215 276 315 376
#     4  12  22  40  64  94 132 169 212 261 312 382
#     4  11  24  39  63  92 133 167 205 259 328 379
#     4  12  24  41  62  95 135 168 210 263 314 385
#
# _framework density 21.965320999999999
#
# number of rings (size 3 to 8) (size 9 to 14) (size 15 to 20)
#    0.000    0.750    5.000    1.875    5.250    0.500 
#    0.000    0.625    0.000    0.000    0.000    0.000 
#    0.000    0.000    0.000    0.000    0.000    0.000 
#
# Total GULP energy -198322.785738 kJ/mol
# GULP energy per Si atom -12395.174109 kJ/mol
# Density = 2.191533 g / cm^3
# Si number density = 21.965321 Si / 1000 Ang^3
#
#
#
# Elastic Constant Matrix: (Units=GPa)
#
#
# Indices 1 2 3 4 5 6 
#
# 1 89.9034 42.9493 23.4091 17.6688 10.6272 -3.2084
# 2 42.9493 160.5925 21.2971 30.8758 26.2187 -10.0127
# 3 23.4091 21.2971 58.3856 26.4069 23.2108 10.5346
# 4 17.6688 30.8758 26.4069 34.8788 7.1892 3.7943
# 5 10.6272 26.2187 23.2108 7.1892 34.3915 11.7873
# 6 -3.2084 -10.0127 10.5346 3.7943 11.7873 39.9970
#
#
#
# Elastic Compliance Matrix: (Units=1/GPa)
#
#
# Indices 1 2 3 4 5 6 
#
# 1 0.013902 -0.002861 -0.004383 -0.001486 0.000638 0.001506
# 2 -0.002861 0.010090 0.004819 -0.009657 -0.009687 0.004798
# 3 -0.004383 0.004819 0.037819 -0.026061 -0.022383 -0.000037
# 4 -0.001486 -0.009657 -0.026061 0.055049 0.015806 -0.005553
# 5 0.000638 -0.009687 -0.022383 0.015806 0.052697 -0.013508
# 6 0.001506 0.004798 -0.000037 -0.005553 -0.013508 0.030841
#
#
# Mechanical properties :
#
#
# Convention : Reuss Voigt Hill
#
# Bulk Modulus (GPa) = 17.55591 53.79915 35.67753
# Shear Modulus (GPa) = 22.29800 36.60186 29.44993
#
# Velocity S-wave (km/s) = 3.18959 4.08652 3.66559
# Velocity P-wave (km/s) = 4.64484 6.84194 5.84751
#
# Compressibility (1/GPa) = 0.05696089
#
# Stress axis : x y z
#
# Youngs Moduli (GPa) = 71.93393 99.10511 26.44165
#
# Poissons Ratio (x) = 0.28355 0.11591
# Poissons Ratio (y) = 0.20581 -0.12744
# Poissons Ratio (z) = 0.31532 -0.47764
#
# Static dielectric constant tensor:
#      x y z
#    x 3.855040 0.191730 0.160810 
#    y 0.191730 3.917240 0.292970 
#    z 0.160810 0.292970 4.069460 
# 
# 
# High freq. dielectric constant tensor:
#      x y z
#    x 1.845350 0.009980 0.005890 
#    y 0.009980 1.880390 0.017390 
#    z 0.005890 0.017390 1.859200 
# 
# From -- ./inp_files/245864.got.cif
#   From: 2010.06.25/outbox.cif.g09.slc.cpg/sg2_123_cif.got.tgz:245864.got - 2010.06.27 13:26:56.
