data_PCOD8025771
_publ_section_title
;
Structure prediction by ZEFSAII (Michael W. Deem and Ramdas Pophale) SiO2 
 PCOD8025771
Probable space group: P -1
;
_chemical_formula_sum "Si O2"
_cell_formula_units_Z 16
_cell_length_a 11.373962
_cell_length_b 11.260741
_cell_length_c 6.796870
_cell_angle_alpha 124.660494
_cell_angle_beta 84.626106
_cell_angle_gamma 86.912504
_cell_volume 706.776210
_symmetry_space_group_name_H-M "P -1"
_symmetry_group_IT_number 2
_symmetry_cell_setting 'triclinic'
loop_
_space_group_symop_operation_xyz
x,y,z
-x,-y,-z
loop_
_atom_site_type_symbol
_atom_site_label
_atom_site_fract_x
_atom_site_fract_y
_atom_site_fract_z
Si Si1 0.475249 0.208193 0.301074
Si Si2 0.026089 0.720849 0.192933
Si Si3 0.806859 0.861341 0.143268
Si Si4 0.702813 0.610265 0.747713
Si Si5 0.697019 0.011092 0.938429
Si Si6 0.420219 0.618597 0.245147
Si Si7 0.084735 0.464602 0.642455
Si Si8 0.245135 0.868727 0.343868
O O1 0.424116 0.297702 0.200839
O O2 0.385683 0.092507 0.258242
O O3 0.480915 0.322346 0.580024
O O4 0.610063 0.131336 0.183629
O O5 0.124410 0.805480 0.361365
O O6 0.939166 0.835485 0.185208
O O7 0.957705 0.660779 0.331882
O O8 0.087555 0.600836 0.916724
O O9 0.732597 0.987142 0.403051
O O10 0.758974 0.703227 0.998412
O O11 0.796011 0.920249 0.976041
O O12 0.681753 0.453859 0.688949
O O13 0.784762 0.587086 0.516643
O O14 0.768661 0.091736 0.845577
O O15 0.357949 0.747692 0.241521
O O16 0.500000 0.500000 0.000000
O O17 0.000000 0.500000 0.500000
#
# Coordination Sequence:
#
# PCOD8025771 Si02
#       8
#     2   2   2   2   2   2   2   2
#     4  10  23  46  67 101 138 181 232 283 346 413
#     4  11  27  43  72 107 137 184 237 286 347 411
#     4  11  25  48  68 104 138 184 235 282 349 414
#     4  11  25  44  76  98 141 187 228 289 354 410
#     4  10  24  46  71 100 139 185 227 288 350 408
#     4  12  27  43  69 110 142 179 235 290 344 418
#     4  11  24  47  71 102 143 182 229 291 350 412
#     4  12  27  44  72 102 143 183 231 291 342 417
#
# _framework density 22.638000999999999
#
# number of rings (size 3 to 8) (size 9 to 14) (size 15 to 20)
#    0.000    1.000    2.500    2.250   10.500    2.000 
#    0.000    0.000    0.000    0.000    0.000    0.000 
#    0.000    0.000    0.000    0.000    0.000    0.000 
#
# Total GULP energy -198377.752926 kJ/mol
# GULP energy per Si atom -12398.609558 kJ/mol
# Density = 2.258648 g / cm^3
# Si number density = 22.638001 Si / 1000 Ang^3
#
#
#
# Elastic Constant Matrix: (Units=GPa)
#
#
# Indices 1 2 3 4 5 6 
#
# 1 72.8023 29.4543 41.2308 -3.3723 -5.0244 -7.5608
# 2 29.4543 104.7484 41.7512 -2.7520 -12.9106 -4.8786
# 3 41.2308 41.7512 127.1348 13.7043 -0.6414 8.8582
# 4 -3.3723 -2.7520 13.7043 37.9385 -1.8633 -5.3533
# 5 -5.0244 -12.9106 -0.6414 -1.8633 34.3707 -6.4629
# 6 -7.5608 -4.8786 8.8582 -5.3533 -6.4629 35.0337
#
#
#
# Elastic Compliance Matrix: (Units=1/GPa)
#
#
# Indices 1 2 3 4 5 6 
#
# 1 0.019571 -0.001882 -0.006773 0.005238 0.003656 0.007149
# 2 -0.001882 0.012617 -0.004099 0.003027 0.005270 0.003822
# 3 -0.006773 -0.004099 0.012587 -0.006622 -0.003962 -0.006958
# 4 0.005238 0.003027 -0.006622 0.030944 0.005130 0.008901
# 5 0.003656 0.005270 -0.003962 0.005130 0.033600 0.009507
# 6 0.007149 0.003822 -0.006958 0.008901 0.009507 0.035492
#
#
# Mechanical properties :
#
#
# Convention : Reuss Voigt Hill
#
# Bulk Modulus (GPa) = 51.90509 58.83981 55.37245
# Shear Modulus (GPa) = 28.29001 34.28522 31.28762
#
# Velocity S-wave (km/s) = 3.53890 3.89588 3.72167
# Velocity P-wave (km/s) = 6.29893 6.80332 6.55598
#
# Compressibility (1/GPa) = 0.01926594
#
# Stress axis : x y z
#
# Youngs Moduli (GPa) = 51.09725 79.25925 79.44746
#
# Poissons Ratio (x) = 0.14919 0.53810
# Poissons Ratio (y) = 0.09618 0.32565
# Poissons Ratio (z) = 0.34608 0.32487
#
# Static dielectric constant tensor:
#      x y z
#    x 3.998710 -0.036880 0.200560 
#    y -0.036880 4.326680 0.146250 
#    z 0.200560 0.146250 4.197410 
# 
# 
# High freq. dielectric constant tensor:
#      x y z
#    x 1.882530 -0.012480 0.010680 
#    y -0.012480 1.905820 0.011670 
#    z 0.010680 0.011670 1.895590 
# 
# From -- ./inp_files/72276.got.cif
#   From: 2010.06.25/outbox.cif.g09.slc.cpg/sg2_37_cif.got.tgz:72276.got - 2010.06.27 13:26:56.
