data_PCOD8025520
_publ_section_title
;
Structure prediction by ZEFSAII (Michael W. Deem and Ramdas Pophale) SiO2 
 PCOD8025520
Probable space group: P -1
;
_chemical_formula_sum "Si O2"
_cell_formula_units_Z 14
_cell_length_a 25.461028
_cell_length_b 6.183652
_cell_length_c 8.610832
_cell_angle_alpha 117.140445
_cell_angle_beta 150.534453
_cell_angle_gamma 69.079238
_cell_volume 590.949876
_symmetry_space_group_name_H-M "P -1"
_symmetry_group_IT_number 2
_symmetry_cell_setting 'triclinic'
loop_
_space_group_symop_operation_xyz
x,y,z
-x,-y,-z
loop_
_atom_site_type_symbol
_atom_site_label
_atom_site_fract_x
_atom_site_fract_y
_atom_site_fract_z
Si Si1 0.022756 0.769223 0.384190
Si Si2 0.650733 0.653289 0.485618
Si Si3 0.572538 0.123618 0.590601
Si Si4 0.098538 0.098983 0.178932
Si Si5 0.847422 0.400494 0.836826
Si Si6 0.784170 0.410182 0.324861
Si Si7 0.491241 0.270217 0.120374
O O1 0.148020 0.753424 0.669259
O O2 0.000000 0.000000 0.500000
O O3 0.952262 0.765760 0.047028
O O4 0.968193 0.513362 0.228822
O O5 0.771985 0.586052 0.783630
O O6 0.587814 0.448718 0.361313
O O7 0.636506 0.919421 0.604392
O O8 0.615765 0.640159 0.207213
O O9 0.496983 0.260071 0.319912
O O10 0.500000 0.000000 0.500000
O O11 0.658265 0.332580 0.948489
O O12 0.184999 0.303326 0.545035
O O13 0.161932 0.873256 0.206091
O O14 0.000000 0.000000 0.000000
O O15 0.816562 0.350231 0.562345
O O16 0.500000 0.000000 0.000000
#
# Coordination Sequence:
#
# PCOD8025520 Si02
#       7
#     2   2   2   2   2   2   2
#     4  11  23  42  67 103 141 168 226 286 336 416
#     4  10  23  45  69 101 136 183 234 287 348 409
#     4  11  26  47  70 103 142 182 233 289 344 410
#     4  11  21  45  70  95 133 183 225 271 348 415
#     4  11  23  42  71 100 136 179 227 279 345 416
#     4  11  24  42  69 102 139 176 230 287 340 408
#     4   9  22  44  71  94 137 177 237 283 345 407
#
# _framework density 23.690670999999998
#
# number of rings (size 3 to 8) (size 9 to 14) (size 15 to 20)
#    0.000    1.429    2.857    1.714    6.000    8.000 
#    2.571    0.000    0.000    0.000    0.000    0.000 
#    0.000    0.000    0.000    0.000    0.000    0.000 
#
# Total GULP energy -173469.967525 kJ/mol
# GULP energy per Si atom -12390.711966 kJ/mol
# Density = 2.363675 g / cm^3
# Si number density = 23.690671 Si / 1000 Ang^3
#
#
#
# Elastic Constant Matrix: (Units=GPa)
#
#
# Indices 1 2 3 4 5 6 
#
# 1 70.0795 27.4609 34.1336 0.5522 0.6298 4.7332
# 2 27.4609 112.5322 29.4132 16.2686 1.7540 2.9946
# 3 34.1336 29.4132 124.4653 21.6498 10.6028 16.5157
# 4 0.5522 16.2686 21.6498 45.7886 -1.1398 0.1510
# 5 0.6298 1.7540 10.6028 -1.1398 32.2451 0.6503
# 6 4.7332 2.9946 16.5157 0.1510 0.6503 45.6140
#
#
#
# Elastic Compliance Matrix: (Units=1/GPa)
#
#
# Indices 1 2 3 4 5 6 
#
# 1 0.017994 -0.003652 -0.004803 0.003390 0.001545 0.000079
# 2 -0.003652 0.010486 -0.000883 -0.003272 -0.000325 0.000026
# 3 -0.004803 -0.000883 0.011196 -0.005002 -0.003647 -0.003429
# 4 0.003390 -0.003272 -0.005002 0.025386 0.002622 0.001553
# 5 0.001545 -0.000325 -0.003647 0.002622 0.032278 0.000713
# 6 0.000079 0.000026 -0.003429 0.001553 0.000713 0.023139
#
#
# Mechanical properties :
#
#
# Convention : Reuss Voigt Hill
#
# Bulk Modulus (GPa) = 47.62050 54.34360 50.98205
# Shear Modulus (GPa) = 34.21014 39.13416 36.67215
#
# Velocity S-wave (km/s) = 3.80417 4.06874 3.93868
# Velocity P-wave (km/s) = 6.28014 6.71279 6.50006
#
# Compressibility (1/GPa) = 0.02099936
#
# Stress axis : x y z
#
# Youngs Moduli (GPa) = 55.57344 95.36783 89.31750
#
# Poissons Ratio (x) = 0.34826 0.42903
# Poissons Ratio (y) = 0.20294 0.07887
# Poissons Ratio (z) = 0.26694 0.08421
#
# Static dielectric constant tensor:
#      x y z
#    x 4.073760 0.111080 -0.071710 
#    y 0.111080 4.168490 0.009160 
#    z -0.071710 0.009160 4.359250 
# 
# 
# High freq. dielectric constant tensor:
#      x y z
#    x 1.925960 -0.001510 0.003890 
#    y -0.001510 1.956770 0.015910 
#    z 0.003890 0.015910 1.933440 
# 
# From -- ./inp_files/138749.got.cif
#   From: 2010.06.25/outbox.cif.g09.slc.cpg/sg2_70_cif.got.tgz:138749.got - 2010.06.27 13:26:56.
