data_PCOD8025817
_publ_section_title
;
Structure prediction by ZEFSAII (Michael W. Deem and Ramdas Pophale) SiO2 
 PCOD8025817
Probable space group: P -1
;
_chemical_formula_sum "Si O2"
_cell_formula_units_Z 12
_cell_length_a 7.694903
_cell_length_b 16.310919
_cell_length_c 6.699643
_cell_angle_alpha 49.447551
_cell_angle_beta 115.391885
_cell_angle_gamma 118.389588
_cell_volume 552.986758
_symmetry_space_group_name_H-M "P -1"
_symmetry_group_IT_number 2
_symmetry_cell_setting 'triclinic'
loop_
_space_group_symop_operation_xyz
x,y,z
-x,-y,-z
loop_
_atom_site_type_symbol
_atom_site_label
_atom_site_fract_x
_atom_site_fract_y
_atom_site_fract_z
Si Si1 0.833504 0.544564 0.242062
Si Si2 0.640706 0.691183 0.132183
Si Si3 0.324777 0.680662 0.684947
Si Si4 0.575218 0.209961 0.845718
Si Si5 0.929133 0.248521 0.230877
Si Si6 0.861309 0.880926 0.185997
O O1 0.699139 0.576457 0.301939
O O2 0.703163 0.448930 0.183706
O O3 0.000000 0.500000 0.500000
O O4 0.924233 0.657560 0.982110
O O5 0.480993 0.680874 0.254271
O O6 0.838765 0.793171 0.127780
O O7 0.537837 0.724700 0.830826
O O8 0.327641 0.757956 0.371989
O O9 0.140395 0.689194 0.716555
O O10 0.364045 0.109922 0.886859
O O11 0.737653 0.176978 0.119796
O O12 0.045755 0.162831 0.505188
O O13 0.000000 0.000000 0.000000
#
# Coordination Sequence:
#
# PCOD8025817 Si02
#       6
#     2   2   2   2   2   2
#     4  12  22  38  66  95 131 176 206 247 322 379
#     4   9  23  40  61  94 128 162 220 260 306 381
#     4  11  21  42  63  96 137 169 203 258 318 379
#     4   9  22  41  64  93 131 161 216 263 312 373
#     4  11  23  42  65  95 134 162 218 260 302 393
#     4  10  23  46  69  89 125 169 215 270 325 363
#
# _framework density 21.700339
#
# number of rings (size 3 to 8) (size 9 to 14) (size 15 to 20)
#    1.000    0.667    1.667    3.000    0.000    1.333 
#    0.000    4.167    0.000    0.000    0.000    0.000 
#    0.000    0.000    0.000    0.000    0.000    0.000 
#
# Total GULP energy -148698.431318 kJ/mol
# GULP energy per Si atom -12391.535943 kJ/mol
# Density = 2.165095 g / cm^3
# Si number density = 21.700339 Si / 1000 Ang^3
#
#
#
# Elastic Constant Matrix: (Units=GPa)
#
#
# Indices 1 2 3 4 5 6 
#
# 1 38.8715 -1.3937 12.8482 13.5465 4.3612 13.6806
# 2 -1.3937 57.6786 33.4718 7.8158 11.2377 26.6562
# 3 12.8482 33.4718 127.7938 11.8580 14.9649 23.4351
# 4 13.5465 7.8158 11.8580 33.4370 7.9202 -4.2385
# 5 4.3612 11.2377 14.9649 7.9202 32.9186 7.7429
# 6 13.6806 26.6562 23.4351 -4.2385 7.7429 37.1257
#
#
#
# Elastic Compliance Matrix: (Units=1/GPa)
#
#
# Indices 1 2 3 4 5 6 
#
# 1 0.051968 0.024437 -0.001672 -0.031824 0.002552 -0.039806
# 2 0.024437 0.041351 -0.003981 -0.022813 -0.000980 -0.038582
# 3 -0.001672 -0.003981 0.009895 -0.001783 -0.001881 -0.002583
# 4 -0.031824 -0.022813 -0.001783 0.055763 -0.009438 0.037567
# 5 0.002552 -0.000980 -0.001881 -0.009438 0.035260 -0.007480
# 6 -0.039806 -0.038582 -0.002583 0.037567 -0.007480 0.076786
#
#
# Mechanical properties :
#
#
# Convention : Reuss Voigt Hill
#
# Bulk Modulus (GPa) = 7.10302 34.91072 21.00687
# Shear Modulus (GPa) = 17.83286 32.65743 25.24515
#
# Velocity S-wave (km/s) = 2.86978 3.88355 3.41450
# Velocity P-wave (km/s) = 3.77640 6.01929 5.02459
#
# Compressibility (1/GPa) = 0.14078521
#
# Stress axis : x y z
#
# Youngs Moduli (GPa) = 19.24246 24.18311 101.05770
#
# Poissons Ratio (x) = -0.59097 0.16893
# Poissons Ratio (y) = -0.47024 0.40228
# Poissons Ratio (z) = 0.03217 0.09627
#
# Static dielectric constant tensor:
#      x y z
#    x 3.979950 0.056000 0.081810 
#    y 0.056000 3.896630 0.354350 
#    z 0.081810 0.354350 3.865210 
# 
# 
# High freq. dielectric constant tensor:
#      x y z
#    x 1.858860 0.008010 0.005910 
#    y 0.008010 1.827970 0.036170 
#    z 0.005910 0.036170 1.845300 
# 
# From -- ./inp_files/46423.got.cif
#   From: 2010.06.25/outbox.cif.g09.slc.cpg/sg2_24_cif.got.tgz:46423.got - 2010.06.27 13:26:56.
