data_PCOD8025308
_publ_section_title
;
Structure prediction by ZEFSAII (Michael W. Deem and Ramdas Pophale) SiO2 
 PCOD8025308
Probable space group: P -1
;
_chemical_formula_sum "Si O2"
_cell_formula_units_Z 14
_cell_length_a 17.006515
_cell_length_b 8.681103
_cell_length_c 10.639529
_cell_angle_alpha 135.745692
_cell_angle_beta 138.643232
_cell_angle_gamma 73.809114
_cell_volume 599.452179
_symmetry_space_group_name_H-M "P -1"
_symmetry_group_IT_number 2
_symmetry_cell_setting 'triclinic'
loop_
_space_group_symop_operation_xyz
x,y,z
-x,-y,-z
loop_
_atom_site_type_symbol
_atom_site_label
_atom_site_fract_x
_atom_site_fract_y
_atom_site_fract_z
Si Si1 0.006968 0.335361 0.638542
Si Si2 0.186956 0.930268 0.252312
Si Si3 0.694881 0.120064 0.146796
Si Si4 0.260627 0.357406 0.390088
Si Si5 0.447216 0.437009 0.260348
Si Si6 0.993216 0.103783 0.749056
Si Si7 0.552821 0.092629 0.478599
O O1 0.846133 0.207683 0.319508
O O2 0.006332 0.293050 0.763002
O O3 0.069646 0.192179 0.553547
O O4 0.096959 0.651310 0.905478
O O5 0.117566 0.918527 0.294898
O O6 0.345539 0.995367 0.502684
O O7 0.192938 0.158979 0.311347
O O8 0.715176 0.362100 0.390238
O O9 0.649534 0.883229 0.056521
O O10 0.583025 0.035408 0.851156
O O11 0.414957 0.414106 0.578280
O O12 0.151731 0.229275 0.068365
O O13 0.500000 0.500000 0.500000
O O14 0.363009 0.582227 0.224882
O O15 0.500000 0.000000 0.500000
#
# Coordination Sequence:
#
# PCOD8025308 Si02
#       7
#     2   2   2   2   2   2   2
#     4  11  27  48  77 107 146 199 244 299 366 438
#     4  12  27  47  75 111 151 188 244 309 364 436
#     4  11  26  46  75 106 143 198 246 299 367 432
#     4  12  25  48  72 110 150 189 244 309 362 435
#     4  10  23  44  73 101 143 192 245 291 362 429
#     4  11  26  47  74 110 149 192 248 296 368 436
#     4  11  25  49  72 107 149 190 244 304 366 439
#
# _framework density 23.354655999999999
#
# number of rings (size 3 to 8) (size 9 to 14) (size 15 to 20)
#    0.000    0.857    2.857    3.000    8.000    3.429 
#    0.000    0.000    0.000    0.000    0.000    0.000 
#    0.000    0.000    0.000    0.000    0.000    0.000 
#
# Total GULP energy -173601.987946 kJ/mol
# GULP energy per Si atom -12400.141996 kJ/mol
# Density = 2.330150 g / cm^3
# Si number density = 23.354656 Si / 1000 Ang^3
#
#
#
# Elastic Constant Matrix: (Units=GPa)
#
#
# Indices 1 2 3 4 5 6 
#
# 1 86.6195 7.4965 13.0657 15.2318 -13.7891 -12.3031
# 2 7.4965 99.9853 42.7727 19.8435 -13.4419 -4.4402
# 3 13.0657 42.7727 89.4096 16.5051 -14.7099 4.8406
# 4 15.2318 19.8435 16.5051 52.0949 -10.2526 2.5022
# 5 -13.7891 -13.4419 -14.7099 -10.2526 30.8750 -0.2554
# 6 -12.3031 -4.4402 4.8406 2.5022 -0.2554 32.9680
#
#
#
# Elastic Compliance Matrix: (Units=1/GPa)
#
#
# Indices 1 2 3 4 5 6 
#
# 1 0.013870 0.001180 -0.001477 -0.003345 0.004942 0.005844
# 2 0.001180 0.013552 -0.005800 -0.003323 0.002588 0.003389
# 3 -0.001477 -0.005800 0.015192 -0.001300 0.003593 -0.003436
# 4 -0.003345 -0.003323 -0.001300 0.022789 0.003981 -0.003204
# 5 0.004942 0.002588 0.003593 0.003981 0.038770 0.001664
# 6 0.005844 0.003389 -0.003436 -0.003204 0.001664 0.033730
#
#
# Mechanical properties :
#
#
# Convention : Reuss Voigt Hill
#
# Bulk Modulus (GPa) = 32.87282 44.74268 38.80775
# Shear Modulus (GPa) = 31.20343 37.36620 34.28482
#
# Velocity S-wave (km/s) = 3.65919 4.00427 3.83562
# Velocity P-wave (km/s) = 5.65323 6.37012 6.02235
#
# Compressibility (1/GPa) = 0.03042027
#
# Stress axis : x y z
#
# Youngs Moduli (GPa) = 72.09557 73.78928 65.82363
#
# Poissons Ratio (x) = -0.08705 0.09723
# Poissons Ratio (y) = -0.08505 0.38177
# Poissons Ratio (z) = 0.10649 0.42797
#
# Static dielectric constant tensor:
#      x y z
#    x 4.050890 -0.229030 -0.051120 
#    y -0.229030 5.046090 0.968850 
#    z -0.051120 0.968850 5.199690 
# 
# 
# High freq. dielectric constant tensor:
#      x y z
#    x 1.924400 -0.015370 0.000490 
#    y -0.015370 1.938850 0.010240 
#    z 0.000490 0.010240 1.926620 
# 
# From -- ./inp_files/398310.got.cif
#   From: 2010.06.25/outbox.cif.g09.slc.cpg/sg2_200_cif.got.tgz:398310.got - 2010.06.27 13:26:56.
