data_PCOD8025328
_publ_section_title
;
Structure prediction by ZEFSAII (Michael W. Deem and Ramdas Pophale) SiO2 
 PCOD8025328
Probable space group: P -1
;
_chemical_formula_sum "Si O2"
_cell_formula_units_Z 16
_cell_length_a 21.878256
_cell_length_b 9.921598
_cell_length_c 18.684580
_cell_angle_alpha 39.319235
_cell_angle_beta 16.681422
_cell_angle_gamma 38.714763
_cell_volume 720.361598
_symmetry_space_group_name_H-M "P -1"
_symmetry_group_IT_number 2
_symmetry_cell_setting 'triclinic'
loop_
_space_group_symop_operation_xyz
x,y,z
-x,-y,-z
loop_
_atom_site_type_symbol
_atom_site_label
_atom_site_fract_x
_atom_site_fract_y
_atom_site_fract_z
Si Si1 0.230235 0.370601 0.896696
Si Si2 0.238326 0.465126 0.584167
Si Si3 0.349633 0.907079 0.260319
Si Si4 0.933165 0.714177 0.395850
Si Si5 0.140191 0.104406 0.743878
Si Si6 0.067079 0.765114 0.381224
Si Si7 0.502073 0.311212 0.481931
Si Si8 0.531606 0.066699 0.130862
O O1 0.298667 0.407459 0.723173
O O2 0.335509 0.522613 0.768576
O O3 0.322167 0.115388 0.909279
O O4 0.972476 0.427757 0.175863
O O5 0.351475 0.653875 0.349156
O O6 0.189224 0.326107 0.629307
O O7 0.406786 0.304650 0.512166
O O8 0.441079 0.940386 0.221592
O O9 0.102759 0.037813 0.473454
O O10 0.500000 0.000000 0.000000
O O11 0.995724 0.827256 0.205916
O O12 0.998232 0.453118 0.427225
O O13 0.671321 0.783061 0.663917
O O14 0.052696 0.786650 0.301449
O O15 0.363206 0.929085 0.548912
O O16 0.000000 0.000000 0.000000
O O17 0.306958 0.775176 0.136944
#
# Coordination Sequence:
#
# PCOD8025328 Si02
#       8
#     2   2   2   2   2   2   2   2
#     4  11  22  41  73  97 128 178 227 281 327 399
#     4  12  25  44  67 100 138 180 223 276 343 400
#     4  11  26  42  66 102 135 175 227 278 340 404
#     4  10  24  45  65 102 134 171 229 276 339 408
#     4  12  26  45  67 100 142 183 222 276 341 409
#     4  10  23  44  73  97 130 179 223 288 337 396
#     4  11  24  45  66 100 136 178 226 276 334 403
#     4  11  21  43  71  96 129 173 231 277 335 403
#
# _framework density 22.211067
#
# number of rings (size 3 to 8) (size 9 to 14) (size 15 to 20)
#    0.000    1.000    5.000    1.125    1.750    3.500 
#    2.250    0.000    0.000    0.000    0.000    0.000 
#    0.000    0.000    0.000    0.000    0.000    0.000 
#
# Total GULP energy -198396.881951 kJ/mol
# GULP energy per Si atom -12399.805122 kJ/mol
# Density = 2.216051 g / cm^3
# Si number density = 22.211067 Si / 1000 Ang^3
#
#
#
# Elastic Constant Matrix: (Units=GPa)
#
#
# Indices 1 2 3 4 5 6 
#
# 1 75.2536 26.2596 20.7557 -3.2752 10.5457 -11.7003
# 2 26.2596 99.7980 15.2726 -7.7648 -0.5581 -0.6328
# 3 20.7557 15.2726 97.9101 -12.8552 2.4044 3.7752
# 4 -3.2752 -7.7648 -12.8552 31.5899 -3.5705 -2.5947
# 5 10.5457 -0.5581 2.4044 -3.5705 30.8387 -3.6496
# 6 -11.7003 -0.6328 3.7752 -2.5947 -3.6496 34.2928
#
#
#
# Elastic Compliance Matrix: (Units=1/GPa)
#
#
# Indices 1 2 3 4 5 6 
#
# 1 0.017127 -0.004065 -0.003168 -0.000635 -0.005103 0.005526
# 2 -0.004065 0.011368 -0.000631 0.002261 0.001819 -0.000743
# 3 -0.003168 -0.000631 0.011591 0.004114 0.000406 -0.002014
# 4 -0.000635 0.002261 0.004114 0.034496 0.004219 0.002431
# 5 -0.005103 0.001819 0.000406 0.004219 0.034932 0.002285
# 6 0.005526 -0.000743 -0.002014 0.002431 0.002285 0.031681
#
#
# Mechanical properties :
#
#
# Convention : Reuss Voigt Hill
#
# Bulk Modulus (GPa) = 41.05209 44.17085 42.61147
# Shear Modulus (GPa) = 30.29535 33.38921 31.84228
#
# Velocity S-wave (km/s) = 3.69721 3.88141 3.79043
# Velocity P-wave (km/s) = 6.06207 6.32591 6.19539
#
# Compressibility (1/GPa) = 0.02435929
#
# Stress axis : x y z
#
# Youngs Moduli (GPa) = 58.38666 87.96878 86.27228
#
# Poissons Ratio (x) = 0.35757 0.27330
# Poissons Ratio (y) = 0.23733 0.05441
# Poissons Ratio (z) = 0.18496 0.05548
#
# Static dielectric constant tensor:
#      x y z
#    x 3.895950 -0.090370 -0.076350 
#    y -0.090370 4.018500 0.029950 
#    z -0.076350 0.029950 3.906140 
# 
# 
# High freq. dielectric constant tensor:
#      x y z
#    x 1.864860 -0.004170 -0.004640 
#    y -0.004170 1.885640 -0.002520 
#    z -0.004640 -0.002520 1.868340 
# 
# From -- ./inp_files/288989.got.cif
#   From: 2010.06.25/outbox.cif.g09.slc.cpg/sg2_145_cif.got.tgz:288989.got - 2010.06.27 13:26:56.
