data_PCOD8025424
_publ_section_title
;
Structure prediction by ZEFSAII (Michael W. Deem and Ramdas Pophale) SiO2 
 PCOD8025424
Probable space group: P -1
;
_chemical_formula_sum "Si O2"
_cell_formula_units_Z 16
_cell_length_a 5.181309
_cell_length_b 17.097064
_cell_length_c 22.689201
_cell_angle_alpha 22.237837
_cell_angle_beta 66.217815
_cell_angle_gamma 66.702137
_cell_volume 694.632207
_symmetry_space_group_name_H-M "P -1"
_symmetry_group_IT_number 2
_symmetry_cell_setting 'triclinic'
loop_
_space_group_symop_operation_xyz
x,y,z
-x,-y,-z
loop_
_atom_site_type_symbol
_atom_site_label
_atom_site_fract_x
_atom_site_fract_y
_atom_site_fract_z
Si Si1 0.637227 0.851958 0.495168
Si Si2 0.268564 0.361139 0.591767
Si Si3 0.926849 0.886678 0.666616
Si Si4 0.816996 0.850669 0.961177
Si Si5 0.821153 0.012530 0.065657
Si Si6 0.218133 0.067733 0.700343
Si Si7 0.295530 0.561032 0.799767
Si Si8 0.582900 0.644622 0.944959
O O1 0.789408 0.814009 0.444136
O O2 0.546047 0.637613 0.681576
O O3 0.371059 0.014903 0.397480
O O4 0.861522 0.940451 0.456994
O O5 0.500000 0.500000 0.500000
O O6 0.170407 0.222401 0.750607
O O7 0.377490 0.213273 0.630177
O O8 0.000000 0.500000 0.500000
O O9 0.876589 0.742107 0.829818
O O10 0.061032 0.751104 0.695267
O O11 0.497912 0.899102 0.978134
O O12 0.853352 0.624828 0.087141
O O13 0.032877 0.843184 0.001094
O O14 0.903857 0.027547 0.782727
O O15 0.000000 0.000000 0.000000
O O16 0.364282 0.838053 0.843251
O O17 0.400721 0.494226 0.901526
O O18 0.500000 0.500000 0.000000
#
# Coordination Sequence:
#
# PCOD8025424 Si02
#       8
#     2   2   2   2   2   2   2   2
#     4  11  26  41  65  94 133 178 218 278 335 380
#     4  11  24  42  68  96 128 175 219 266 331 402
#     4  11  24  43  61  92 136 181 219 267 334 396
#     4  11  24  42  70 100 131 175 215 273 337 396
#     4  11  25  46  70  99 134 168 215 277 338 396
#     4  10  23  45  66  97 137 174 222 275 331 400
#     4  12  23  40  66 100 132 171 230 279 323 397
#     4  11  23  43  72 100 133 184 230 273 331 403
#
# _framework density 23.033773
#
# number of rings (size 3 to 8) (size 9 to 14) (size 15 to 20)
#    0.000    1.000    0.000    7.500    0.000   10.000 
#    0.000    0.000    0.000    1.500    0.000    0.000 
#    0.000    0.000    0.000    0.000    0.000    0.000 
#
# Total GULP energy -198399.220732 kJ/mol
# GULP energy per Si atom -12399.951296 kJ/mol
# Density = 2.298135 g / cm^3
# Si number density = 23.033773 Si / 1000 Ang^3
#
#
#
# Elastic Constant Matrix: (Units=GPa)
#
#
# Indices 1 2 3 4 5 6 
#
# 1 106.8968 39.9092 26.1119 -8.2460 -33.0612 7.5090
# 2 39.9092 144.7445 54.2307 8.1833 -25.4586 15.0323
# 3 26.1119 54.2307 103.4866 14.2656 -30.5854 25.5139
# 4 -8.2460 8.1833 14.2656 55.8507 0.4693 -8.0453
# 5 -33.0612 -25.4586 -30.5854 0.4693 37.1877 -6.7781
# 6 7.5090 15.0323 25.5139 -8.0453 -6.7781 34.3856
#
#
#
# Elastic Compliance Matrix: (Units=1/GPa)
#
#
# Indices 1 2 3 4 5 6 
#
# 1 0.013604 -0.002177 0.000681 0.002083 0.011169 0.000164
# 2 -0.002177 0.009210 -0.003556 -0.000898 0.001299 -0.000867
# 3 0.000681 -0.003556 0.018229 -0.005751 0.011184 -0.011261
# 4 0.002083 -0.000898 -0.005751 0.021086 -0.002171 0.008710
# 5 0.011169 0.001299 0.011184 -0.002171 0.046451 -0.002657
# 6 0.000164 -0.000867 -0.011261 0.008710 -0.002657 0.039295
#
#
# Mechanical properties :
#
#
# Convention : Reuss Voigt Hill
#
# Bulk Modulus (GPa) = 32.31944 66.18129 49.25037
# Shear Modulus (GPa) = 29.71024 41.14321 35.42672
#
# Velocity S-wave (km/s) = 3.59535 4.23095 3.92603
# Velocity P-wave (km/s) = 5.59439 7.25690 6.47919
#
# Compressibility (1/GPa) = 0.03094113
#
# Stress axis : x y z
#
# Youngs Moduli (GPa) = 73.50514 108.57224 54.85742
#
# Poissons Ratio (x) = 0.23633 -0.03736
# Poissons Ratio (y) = 0.16000 0.19507
# Poissons Ratio (z) = -0.05007 0.38607
#
# Static dielectric constant tensor:
#      x y z
#    x 4.281890 -0.003440 -0.343940 
#    y -0.003440 4.530350 0.215440 
#    z -0.343940 0.215440 4.535080 
# 
# 
# High freq. dielectric constant tensor:
#      x y z
#    x 1.907780 0.001710 -0.014050 
#    y 0.001710 1.917980 0.006930 
#    z -0.014050 0.006930 1.918240 
# 
# From -- ./inp_files/604931.got.cif
#   From: 2010.06.25/outbox.cif.g09.slc.cpg/sg2_303_cif.got.tgz:604931.got - 2010.06.27 13:26:56.
