data_PCOD8025183
_publ_section_title
;
Structure prediction by ZEFSAII (Michael W. Deem and Ramdas Pophale) SiO2 
 PCOD8025183
Probable space group: P -1
;
_chemical_formula_sum "Si O2"
_cell_formula_units_Z 16
_cell_length_a 8.394149
_cell_length_b 6.388248
_cell_length_c 18.008756
_cell_angle_alpha 133.080722
_cell_angle_beta 77.237374
_cell_angle_gamma 91.702815
_cell_volume 677.887477
_symmetry_space_group_name_H-M "P -1"
_symmetry_group_IT_number 2
_symmetry_cell_setting 'triclinic'
loop_
_space_group_symop_operation_xyz
x,y,z
-x,-y,-z
loop_
_atom_site_type_symbol
_atom_site_label
_atom_site_fract_x
_atom_site_fract_y
_atom_site_fract_z
Si Si1 0.097064 0.684420 0.679509
Si Si2 0.324758 0.409025 0.711454
Si Si3 0.353161 0.760436 0.554255
Si Si4 0.374866 0.392086 0.217650
Si Si5 0.810727 0.147225 0.053168
Si Si6 0.861868 0.281672 0.576622
Si Si7 0.178797 0.890236 0.123246
Si Si8 0.374358 0.384852 0.044632
O O1 0.217943 0.441889 0.655298
O O2 0.202781 0.816215 0.640302
O O3 0.960516 0.546250 0.614758
O O4 0.008179 0.937205 0.805339
O O5 0.474150 0.590800 0.737952
O O6 0.209808 0.552910 0.825895
O O7 0.412379 0.072150 0.627347
O O8 0.500000 0.500000 0.500000
O O9 0.279453 0.711188 0.469287
O O10 0.227171 0.659244 0.319205
O O11 0.434517 0.403684 0.128512
O O12 0.316629 0.092539 0.171118
O O13 0.779665 0.239533 0.993855
O O14 0.680592 0.931207 0.040328
O O15 0.000000 0.000000 0.000000
O O16 0.000000 0.000000 0.500000
O O17 0.206022 0.622344 0.112970
O O18 0.500000 0.500000 0.000000
#
# Coordination Sequence:
#
# PCOD8025183 Si02
#       8
#     2   2   2   2   2   2   2   2
#     4  11  25  43  72 104 136 187 243 295 358 437
#     4  12  25  45  69 102 148 182 240 294 368 424
#     4  12  29  46  72 106 142 186 246 303 363 424
#     4  10  25  43  70 101 142 187 237 291 367 426
#     4  11  24  43  71 105 148 191 232 299 370 428
#     4  11  24  47  75  97 140 192 237 300 368 422
#     4  10  23  44  70 104 141 187 240 291 354 441
#     4  11  24  43  73 104 145 190 242 288 362 441
#
# _framework density 23.602737999999999
#
# number of rings (size 3 to 8) (size 9 to 14) (size 15 to 20)
#    0.000    1.000    2.500    2.625    5.250    8.500 
#    0.000    0.000    0.000    0.000    0.000    0.000 
#    0.000    0.000    0.000    0.000    0.000    0.000 
#
# Total GULP energy -198249.277342 kJ/mol
# GULP energy per Si atom -12390.579834 kJ/mol
# Density = 2.354902 g / cm^3
# Si number density = 23.602738 Si / 1000 Ang^3
#
#
#
# Elastic Constant Matrix: (Units=GPa)
#
#
# Indices 1 2 3 4 5 6 
#
# 1 87.9441 16.4592 23.6161 -7.2088 14.1732 -8.2251
# 2 16.4592 88.4915 38.8541 0.6108 4.6473 -12.7138
# 3 23.6161 38.8541 121.8047 -2.4041 7.0639 -7.3342
# 4 -7.2088 0.6108 -2.4041 30.4753 0.8318 -18.4612
# 5 14.1732 4.6473 7.0639 0.8318 38.4963 -1.3965
# 6 -8.2251 -12.7138 -7.3342 -18.4612 -1.3965 37.2233
#
#
#
# Elastic Compliance Matrix: (Units=1/GPa)
#
#
# Indices 1 2 3 4 5 6 
#
# 1 0.013781 -0.000836 -0.001673 0.006630 -0.004608 0.005545
# 2 -0.000836 0.013876 -0.003900 0.002162 -0.000523 0.004839
# 3 -0.001673 -0.003900 0.009877 0.000876 -0.000721 0.000652
# 4 0.006630 0.002162 0.000876 0.051261 -0.002966 0.027688
# 5 -0.004608 -0.000523 -0.000721 -0.002966 0.027869 -0.001764
# 6 0.005545 0.004839 0.000652 0.027688 -0.001764 0.043537
#
#
# Mechanical properties :
#
#
# Convention : Reuss Voigt Hill
#
# Bulk Modulus (GPa) = 40.45936 50.67768 45.56852
# Shear Modulus (GPa) = 27.58504 35.85972 31.72238
#
# Velocity S-wave (km/s) = 3.42237 3.90205 3.67006
# Velocity P-wave (km/s) = 5.72676 6.46677 6.10798
#
# Compressibility (1/GPa) = 0.02471616
#
# Stress axis : x y z
#
# Youngs Moduli (GPa) = 72.56200 72.06652 101.24891
#
# Poissons Ratio (x) = 0.06022 0.16944
# Poissons Ratio (y) = 0.06063 0.39486
# Poissons Ratio (z) = 0.12143 0.28105
#
# Static dielectric constant tensor:
#      x y z
#    x 4.481850 -0.102890 -0.046980 
#    y -0.102890 4.132650 -0.100850 
#    z -0.046980 -0.100850 4.763370 
# 
# 
# High freq. dielectric constant tensor:
#      x y z
#    x 1.951460 -0.002890 -0.012290 
#    y -0.002890 1.911860 0.003330 
#    z -0.012290 0.003330 1.953340 
# 
# From -- ./inp_files/488510.got.cif
#   From: 2010.06.25/outbox.cif.g09.slc.cpg/sg2_245_cif.got.tgz:488510.got - 2010.06.27 13:26:56.
