data_PCOD8025720
_publ_section_title
;
Structure prediction by ZEFSAII (Michael W. Deem and Ramdas Pophale) SiO2 
 PCOD8025720
Probable space group: P -1
;
_chemical_formula_sum "Si O2"
_cell_formula_units_Z 16
_cell_length_a 11.288411
_cell_length_b 11.927535
_cell_length_c 13.024369
_cell_angle_alpha 141.665640
_cell_angle_beta 103.620650
_cell_angle_gamma 105.105984
_cell_volume 712.458810
_symmetry_space_group_name_H-M "P -1"
_symmetry_group_IT_number 2
_symmetry_cell_setting 'triclinic'
loop_
_space_group_symop_operation_xyz
x,y,z
-x,-y,-z
loop_
_atom_site_type_symbol
_atom_site_label
_atom_site_fract_x
_atom_site_fract_y
_atom_site_fract_z
Si Si1 0.280378 0.404128 0.832735
Si Si2 0.072077 0.380126 0.936497
Si Si3 0.302835 0.077828 0.715054
Si Si4 0.198287 0.188288 0.451506
Si Si5 0.884955 0.258741 0.155406
Si Si6 0.553605 0.718603 0.590839
Si Si7 0.939580 0.188447 0.339108
Si Si8 0.225683 0.578532 0.323411
O O1 0.172641 0.444590 0.897398
O O2 0.207578 0.131061 0.666205
O O3 0.255254 0.393873 0.698322
O O4 0.489184 0.666638 0.082232
O O5 0.205004 0.484024 0.135106
O O6 0.890019 0.070774 0.691196
O O7 0.000000 0.500000 0.000000
O O8 0.238109 0.038805 0.790955
O O9 0.252466 0.821335 0.488030
O O10 0.367363 0.297340 0.502613
O O11 0.056863 0.135486 0.311147
O O12 0.866250 0.148812 0.183588
O O13 0.930869 0.518481 0.372052
O O14 0.042882 0.340083 0.178827
O O15 0.695635 0.015710 0.883740
O O16 0.500000 0.500000 0.500000
O O17 0.385227 0.654432 0.472515
#
# Coordination Sequence:
#
# PCOD8025720 Si02
#       8
#     2   2   2   2   2   2   2   2
#     4  11  26  43  67 106 139 182 238 293 343 427
#     4  12  27  45  74 103 143 191 232 292 356 424
#     4  10  24  44  69  99 142 184 232 293 348 417
#     4  12  26  42  71 102 141 189 234 287 361 412
#     4  10  24  49  72 102 140 180 240 291 361 412
#     4  12  29  45  74 107 145 186 235 295 355 427
#     4  10  23  45  74  98 134 190 230 298 351 427
#     4  11  26  47  71 105 141 189 236 289 356 420
#
# _framework density 22.457438
#
# number of rings (size 3 to 8) (size 9 to 14) (size 15 to 20)
#    0.000    1.000    2.500    1.875   14.000    1.500 
#    0.000    2.500    0.000    0.000    0.000    0.000 
#    0.000    0.000    0.000    0.000    0.000    0.000 
#
# Total GULP energy -198357.573045 kJ/mol
# GULP energy per Si atom -12397.348315 kJ/mol
# Density = 2.240632 g / cm^3
# Si number density = 22.457438 Si / 1000 Ang^3
#
#
#
# Elastic Constant Matrix: (Units=GPa)
#
#
# Indices 1 2 3 4 5 6 
#
# 1 116.3520 31.0287 29.7706 -2.3183 1.8277 -1.2898
# 2 31.0287 95.2853 31.0676 -6.3482 2.4144 15.1334
# 3 29.7706 31.0676 91.0141 -15.8102 3.5871 9.2734
# 4 -2.3183 -6.3482 -15.8102 38.8530 3.1483 -0.2435
# 5 1.8277 2.4144 3.5871 3.1483 30.0606 -0.6284
# 6 -1.2898 15.1334 9.2734 -0.2435 -0.6284 35.4013
#
#
#
# Elastic Compliance Matrix: (Units=1/GPa)
#
#
# Indices 1 2 3 4 5 6 
#
# 1 0.010047 -0.002810 -0.002730 -0.000964 0.000089 0.002277
# 2 -0.002810 0.013228 -0.002912 0.000837 -0.000736 -0.005002
# 3 -0.002730 -0.002912 0.014120 0.005244 -0.001887 -0.002551
# 4 -0.000964 0.000837 0.005244 0.028235 -0.003626 -0.001637
# 5 0.000089 -0.000736 -0.001887 -0.003626 0.033954 0.001390
# 6 0.002277 -0.005002 -0.002551 -0.001637 0.001390 0.031150
#
#
# Mechanical properties :
#
#
# Convention : Reuss Voigt Hill
#
# Bulk Modulus (GPa) = 48.80352 54.04280 51.42316
# Shear Modulus (GPa) = 32.36913 34.91527 33.64220
#
# Velocity S-wave (km/s) = 3.80064 3.94729 3.87465
# Velocity P-wave (km/s) = 6.40613 6.70011 6.55477
#
# Compressibility (1/GPa) = 0.02049033
#
# Stress axis : x y z
#
# Youngs Moduli (GPa) = 99.53100 75.59669 70.82322
#
# Poissons Ratio (x) = 0.21240 0.19336
# Poissons Ratio (y) = 0.27965 0.20626
# Poissons Ratio (z) = 0.27174 0.22016
#
# Static dielectric constant tensor:
#      x y z
#    x 4.037930 0.007690 -0.064970 
#    y 0.007690 4.326230 -0.121170 
#    z -0.064970 -0.121170 4.431830 
# 
# 
# High freq. dielectric constant tensor:
#      x y z
#    x 1.888050 0.001660 -0.006590 
#    y 0.001660 1.900660 0.000550 
#    z -0.006590 0.000550 1.888230 
# 
# From -- ./inp_files/429085.got.cif
#   From: 2010.06.25/outbox.cif.g09.slc.cpg/sg2_215_cif.got.tgz:429085.got - 2010.06.27 13:26:56.
