data_PCOD8025726
_publ_section_title
;
Structure prediction by ZEFSAII (Michael W. Deem and Ramdas Pophale) SiO2 
 PCOD8025726
Probable space group: P -1
;
_chemical_formula_sum "Si O2"
_cell_formula_units_Z 16
_cell_length_a 19.345246
_cell_length_b 5.239977
_cell_length_c 9.002560
_cell_angle_alpha 117.648094
_cell_angle_beta 53.715612
_cell_angle_gamma 123.852542
_cell_volume 598.478180
_symmetry_space_group_name_H-M "P -1"
_symmetry_group_IT_number 2
_symmetry_cell_setting 'triclinic'
loop_
_space_group_symop_operation_xyz
x,y,z
-x,-y,-z
loop_
_atom_site_type_symbol
_atom_site_label
_atom_site_fract_x
_atom_site_fract_y
_atom_site_fract_z
Si Si1 0.941941 0.712965 0.600407
Si Si2 0.230182 0.298532 0.330784
Si Si3 0.236875 0.830593 0.969128
Si Si4 0.876870 0.875200 0.003436
Si Si5 0.521529 0.694295 0.875297
Si Si6 0.324394 0.962170 0.425771
Si Si7 0.421487 0.135345 0.648225
Si Si8 0.874402 0.073080 0.370074
O O1 0.831864 0.618920 0.691875
O O2 0.947883 0.372778 0.455721
O O3 0.958469 0.842128 0.786001
O O4 0.000000 0.000000 0.500000
O O5 0.325713 0.611721 0.317138
O O6 0.167405 0.212939 0.538302
O O7 0.251743 0.015005 0.157429
O O8 0.199953 0.467100 0.956089
O O9 0.168774 0.910846 0.964407
O O10 0.336838 0.901487 0.789794
O O11 0.922620 0.022130 0.144027
O O12 0.458688 0.479395 0.766001
O O13 0.631539 0.826076 0.720084
O O14 0.500000 0.500000 0.000000
O O15 0.500000 0.000000 0.000000
O O16 0.215626 0.878888 0.565162
O O17 0.385577 0.160672 0.536684
O O18 0.500000 0.000000 0.500000
#
# Coordination Sequence:
#
# PCOD8025726 Si02
#       8
#     2   2   2   2   2   2   2   2
#     4  10  24  46  71 111 150 183 237 300 362 435
#     4  10  23  45  75 102 139 196 238 297 363 439
#     4  11  24  45  70 102 143 189 249 297 354 450
#     4  11  24  45  73 105 142 196 243 288 364 435
#     4  12  29  48  67  99 141 188 244 308 381 432
#     4  11  25  45  67  98 137 185 246 297 359 441
#     4  12  27  45  72 104 145 190 246 319 379 423
#     4  11  23  43  74 100 140 194 239 291 358 434
#
# _framework density 26.734476000000001
#
# number of rings (size 3 to 8) (size 9 to 14) (size 15 to 20)
#    0.000    1.000    2.500    2.625    8.750    3.000 
#    0.000    0.625    0.000    0.000    0.000    0.000 
#    0.000    0.000    0.000    0.000    0.000    0.000 
#
# Total GULP energy -198378.508259 kJ/mol
# GULP energy per Si atom -12398.656766 kJ/mol
# Density = 2.667363 g / cm^3
# Si number density = 26.734476 Si / 1000 Ang^3
#
#
#
# Elastic Constant Matrix: (Units=GPa)
#
#
# Indices 1 2 3 4 5 6 
#
# 1 95.7059 34.8199 60.0091 18.0953 23.9700 10.3146
# 2 34.8199 178.1529 70.3394 -3.4212 29.7619 2.1700
# 3 60.0091 70.3394 213.2549 -7.0881 23.6583 10.7931
# 4 18.0953 -3.4212 -7.0881 55.7741 4.1227 11.4964
# 5 23.9700 29.7619 23.6583 4.1227 51.9978 10.5013
# 6 10.3146 2.1700 10.7931 11.4964 10.5013 40.2521
#
#
#
# Elastic Compliance Matrix: (Units=1/GPa)
#
#
# Indices 1 2 3 4 5 6 
#
# 1 0.015124 -0.000887 -0.003634 -0.005044 -0.004355 -0.000277
# 2 -0.000887 0.006981 -0.001748 0.000519 -0.003026 0.000961
# 3 -0.003634 -0.001748 0.006444 0.002166 -0.000170 -0.001277
# 4 -0.005044 0.000519 0.002166 0.020956 0.000477 -0.005426
# 5 -0.004355 -0.003026 -0.000170 0.000477 0.024037 -0.005082
# 6 -0.000277 0.000961 -0.001277 -0.005426 -0.005082 0.028081
#
#
# Mechanical properties :
#
#
# Convention : Reuss Voigt Hill
#
# Bulk Modulus (GPa) = 62.46151 90.82783 76.64467
# Shear Modulus (GPa) = 41.84149 51.06782 46.45465
#
# Velocity S-wave (km/s) = 3.96040 4.37531 4.17301
# Velocity P-wave (km/s) = 6.65788 7.71831 7.20762
#
# Compressibility (1/GPa) = 0.01600986
#
# Stress axis : x y z
#
# Youngs Moduli (GPa) = 66.11944 143.25109 155.18467
#
# Poissons Ratio (x) = 0.12710 0.56390
# Poissons Ratio (y) = 0.05867 0.27134
# Poissons Ratio (z) = 0.24026 0.25047
#
# Static dielectric constant tensor:
#      x y z
#    x 5.089090 0.396780 0.102310 
#    y 0.396780 4.829570 0.223590 
#    z 0.102310 0.223590 5.504320 
# 
# 
# High freq. dielectric constant tensor:
#      x y z
#    x 2.097190 0.010370 0.003810 
#    y 0.010370 2.078520 0.004370 
#    z 0.003810 0.004370 2.097900 
# 
# From -- ./inp_files/47568.got.cif
#   From: 2010.06.25/outbox.cif.g09.slc.cpg/sg2_24_cif.got.tgz:47568.got - 2010.06.27 13:26:56.
