data_PCOD8025367
_publ_section_title
;
Structure prediction by ZEFSAII (Michael W. Deem and Ramdas Pophale) SiO2 
 PCOD8025367
Probable space group: P -1
;
_chemical_formula_sum "Si O2"
_cell_formula_units_Z 16
_cell_length_a 11.811064
_cell_length_b 8.175344
_cell_length_c 9.210402
_cell_angle_alpha 99.791237
_cell_angle_beta 96.895827
_cell_angle_gamma 124.142311
_cell_volume 699.566346
_symmetry_space_group_name_H-M "P -1"
_symmetry_group_IT_number 2
_symmetry_cell_setting 'triclinic'
loop_
_space_group_symop_operation_xyz
x,y,z
-x,-y,-z
loop_
_atom_site_type_symbol
_atom_site_label
_atom_site_fract_x
_atom_site_fract_y
_atom_site_fract_z
Si Si1 0.389354 0.286111 0.103697
Si Si2 0.904935 0.913455 0.110662
Si Si3 0.916376 0.823539 0.576521
Si Si4 0.416345 0.674617 0.099326
Si Si5 0.140715 0.569806 0.611149
Si Si6 0.398751 0.001830 0.596102
Si Si7 0.369340 0.264702 0.415584
Si Si8 0.884195 0.506771 0.074407
O O1 0.409174 0.500328 0.167146
O O2 0.387140 0.196385 0.247988
O O3 0.250490 0.149620 0.960094
O O4 0.522848 0.318933 0.048930
O O5 0.914159 0.729210 0.137466
O O6 0.966715 0.098236 0.265841
O O7 0.000000 0.000000 0.000000
O O8 0.844337 0.608898 0.451312
O O9 0.783541 0.786954 0.631240
O O10 0.000000 0.000000 0.500000
O O11 0.518412 0.890433 0.227158
O O12 0.264796 0.633672 0.054801
O O13 0.130743 0.591496 0.785266
O O14 0.000000 0.500000 0.500000
O O15 0.267579 0.776389 0.586045
O O16 0.348250 0.122335 0.524438
O O17 0.500000 0.000000 0.500000
O O18 0.500000 0.500000 0.500000
O O19 0.000000 0.500000 0.000000
#
# Coordination Sequence:
#
# PCOD8025367 Si02
#       8
#     2   2   2   2   2   2   2   2
#     4  10  23  44  77 107 140 184 255 305 357 431
#     4  11  24  44  75 108 137 192 249 306 363 434
#     4  12  26  47  75 105 143 192 256 302 364 438
#     4  10  25  47  73 106 143 192 245 306 364 441
#     4  12  30  48  72 109 153 197 241 311 377 443
#     4  12  29  47  72 108 155 195 242 302 382 442
#     4  12  25  45  78 107 144 197 247 306 363 444
#     4  11  28  49  74 107 151 195 245 306 380 447
#
# _framework density 22.871310999999999
#
# number of rings (size 3 to 8) (size 9 to 14) (size 15 to 20)
#    0.000    0.750    3.750    1.500   10.500    0.500 
#    0.000    0.000    0.000    0.000    0.000    0.000 
#    0.000    0.000    0.000    0.000    0.000    0.000 
#
# Total GULP energy -198331.334999 kJ/mol
# GULP energy per Si atom -12395.708437 kJ/mol
# Density = 2.281925 g / cm^3
# Si number density = 22.871311 Si / 1000 Ang^3
#
#
#
# Elastic Constant Matrix: (Units=GPa)
#
#
# Indices 1 2 3 4 5 6 
#
# 1 110.2865 37.0429 40.9790 2.9396 1.1852 25.2731
# 2 37.0429 163.4359 64.9606 -1.0527 2.4506 23.6147
# 3 40.9790 64.9606 147.1426 -1.7694 -2.9465 12.1135
# 4 2.9396 -1.0527 -1.7694 47.0019 7.8642 -0.2579
# 5 1.1852 2.4506 -2.9465 7.8642 30.9928 -1.1428
# 6 25.2731 23.6147 12.1135 -0.2579 -1.1428 36.5694
#
#
#
# Elastic Compliance Matrix: (Units=1/GPa)
#
#
# Indices 1 2 3 4 5 6 
#
# 1 0.011827 -0.000705 -0.002434 -0.000770 -0.000688 -0.006939
# 2 -0.000705 0.008057 -0.003072 0.000274 -0.001109 -0.003731
# 3 -0.002434 -0.003072 0.008791 0.000227 0.001143 0.000792
# 4 -0.000770 0.000274 0.000227 0.022279 -0.005614 0.000262
# 5 -0.000688 -0.001109 0.001143 -0.005614 0.033981 0.001836
# 6 -0.006939 -0.003731 0.000792 0.000262 0.001836 0.034347
#
#
# Mechanical properties :
#
#
# Convention : Reuss Voigt Hill
#
# Bulk Modulus (GPa) = 61.53450 78.53666 70.03558
# Shear Modulus (GPa) = 36.46400 41.43832 38.95116
#
# Velocity S-wave (km/s) = 3.99721 4.26115 4.13129
# Velocity P-wave (km/s) = 6.94742 7.65656 7.31059
#
# Compressibility (1/GPa) = 0.01625104
#
# Stress axis : x y z
#
# Youngs Moduli (GPa) = 84.55545 124.11502 113.75340
#
# Poissons Ratio (x) = 0.08751 0.27690
# Poissons Ratio (y) = 0.05962 0.34950
# Poissons Ratio (z) = 0.20583 0.38134
#
# Static dielectric constant tensor:
#      x y z
#    x 3.906300 0.161730 -0.125980 
#    y 0.161730 4.061620 -0.235040 
#    z -0.125980 -0.235040 3.457060 
# 
# 
# High freq. dielectric constant tensor:
#      x y z
#    x 1.903020 0.018210 0.000340 
#    y 0.018210 1.909070 -0.001740 
#    z 0.000340 -0.001740 1.921480 
# 
# From -- ./inp_files/244133.got.cif
#   From: 2010.06.25/outbox.cif.g09.slc.cpg/sg2_123_cif.got.tgz:244133.got - 2010.06.27 13:26:56.
