data_PCOD8025288
_publ_section_title
;
Structure prediction by ZEFSAII (Michael W. Deem and Ramdas Pophale) SiO2 
 PCOD8025288
Probable space group: P -1
;
_chemical_formula_sum "Si O2"
_cell_formula_units_Z 14
_cell_length_a 21.132506
_cell_length_b 9.101594
_cell_length_c 4.860635
_cell_angle_alpha 99.300791
_cell_angle_beta 80.888788
_cell_angle_gamma 41.481295
_cell_volume 552.457030
_symmetry_space_group_name_H-M "P -1"
_symmetry_group_IT_number 2
_symmetry_cell_setting 'triclinic'
loop_
_space_group_symop_operation_xyz
x,y,z
-x,-y,-z
loop_
_atom_site_type_symbol
_atom_site_label
_atom_site_fract_x
_atom_site_fract_y
_atom_site_fract_z
Si Si1 0.505386 0.838590 0.121329
Si Si2 0.106319 0.710516 0.802682
Si Si3 0.377266 0.998595 0.793105
Si Si4 0.730962 0.502406 0.960676
Si Si5 0.069813 0.587572 0.289463
Si Si6 0.784397 0.948945 0.010630
Si Si7 0.170324 0.950958 0.468038
O O1 0.573059 0.024465 0.524248
O O2 0.623572 0.601114 0.083614
O O3 0.500000 0.000000 0.000000
O O4 0.465084 0.795147 0.905204
O O5 0.209234 0.608643 0.818403
O O6 0.121953 0.622236 0.453907
O O7 0.093050 0.586646 0.958283
O O8 0.000000 0.000000 0.000000
O O9 0.296903 0.275903 0.044590
O O10 0.313460 0.964832 0.774423
O O11 0.803118 0.276182 0.620282
O O12 0.119698 0.334878 0.232067
O O13 0.946055 0.811148 0.503753
O O14 0.822100 0.000789 0.218317
O O15 0.751968 0.102054 0.807674
#
# Coordination Sequence:
#
# PCOD8025288 Si02
#       7
#     2   2   2   2   2   2   2
#     4  10  23  44  72 107 133 175 231 293 344 408
#     4  12  25  41  71 107 141 174 233 291 344 401
#     4  11  24  46  74 101 136 179 239 280 345 414
#     4  11  25  45  73 104 139 177 229 294 347 397
#     4  12  25  46  68  99 141 193 232 275 336 423
#     4  12  26  47  69 101 140 190 228 282 341 415
#     4  12  27  44  69 103 143 180 233 281 348 409
#
# _framework density 25.341335999999998
#
# number of rings (size 3 to 8) (size 9 to 14) (size 15 to 20)
#    0.000    0.571    2.857    5.571    2.000    4.571 
#    0.000    4.286    0.000    0.000    0.000    0.000 
#    0.000    0.000    0.000    0.000    0.000    0.000 
#
# Total GULP energy -173549.697544 kJ/mol
# GULP energy per Si atom -12396.406967 kJ/mol
# Density = 2.528366 g / cm^3
# Si number density = 25.341336 Si / 1000 Ang^3
#
#
#
# Elastic Constant Matrix: (Units=GPa)
#
#
# Indices 1 2 3 4 5 6 
#
# 1 124.4198 38.7218 33.5167 2.4263 16.1303 -16.7162
# 2 38.7218 63.9891 13.6872 -6.8899 6.6357 -13.1720
# 3 33.5167 13.6872 104.0336 -8.3404 15.7873 -1.8882
# 4 2.4263 -6.8899 -8.3404 32.2034 0.9758 0.6167
# 5 16.1303 6.6357 15.7873 0.9758 48.1563 -1.1724
# 6 -16.7162 -13.1720 -1.8882 0.6167 -1.1724 54.7387
#
#
#
# Elastic Compliance Matrix: (Units=1/GPa)
#
#
# Indices 1 2 3 4 5 6 
#
# 1 0.011158 -0.005881 -0.002716 -0.002780 -0.001934 0.001888
# 2 -0.005881 0.020456 -0.000243 0.004722 -0.000791 0.003048
# 3 -0.002716 -0.000243 0.011186 0.003146 -0.002802 -0.000597
# 4 -0.002780 0.004722 0.003146 0.033130 -0.001423 -0.000008
# 5 -0.001934 -0.000791 -0.002802 -0.001423 0.022461 -0.000381
# 6 0.001888 0.003048 -0.000597 -0.000008 -0.000381 0.019550
#
#
# Mechanical properties :
#
#
# Convention : Reuss Voigt Hill
#
# Bulk Modulus (GPa) = 39.80825 51.58824 45.69824
# Shear Modulus (GPa) = 34.72349 40.78748 37.75549
#
# Velocity S-wave (km/s) = 3.70568 4.01624 3.86408
# Velocity P-wave (km/s) = 5.83544 6.47367 6.16282
#
# Compressibility (1/GPa) = 0.02512042
#
# Stress axis : x y z
#
# Youngs Moduli (GPa) = 89.62192 48.88470 89.39838
#
# Poissons Ratio (x) = 0.28749 0.24281
# Poissons Ratio (y) = 0.52707 0.02170
# Poissons Ratio (z) = 0.24342 0.01186
#
# Static dielectric constant tensor:
#      x y z
#    x 5.056970 -0.534220 0.100320 
#    y -0.534220 4.866310 -0.118220 
#    z 0.100320 -0.118220 4.347140 
# 
# 
# High freq. dielectric constant tensor:
#      x y z
#    x 2.030050 -0.011840 -0.003660 
#    y -0.011840 2.000850 -0.011410 
#    z -0.003660 -0.011410 2.009960 
# 
# From -- ./inp_files/104155.got.cif
#   From: 2010.06.25/outbox.cif.g09.slc.cpg/sg2_53_cif.got.tgz:104155.got - 2010.06.27 13:26:56.
