data_PCOD8025384
_publ_section_title
;
Structure prediction by ZEFSAII (Michael W. Deem and Ramdas Pophale) SiO2 
 PCOD8025384
Probable space group: P -1
;
_chemical_formula_sum "Si O2"
_cell_formula_units_Z 16
_cell_length_a 14.514936
_cell_length_b 11.480937
_cell_length_c 5.454370
_cell_angle_alpha 76.479099
_cell_angle_beta 95.115256
_cell_angle_gamma 51.777938
_cell_volume 660.965443
_symmetry_space_group_name_H-M "P -1"
_symmetry_group_IT_number 2
_symmetry_cell_setting 'triclinic'
loop_
_space_group_symop_operation_xyz
x,y,z
-x,-y,-z
loop_
_atom_site_type_symbol
_atom_site_label
_atom_site_fract_x
_atom_site_fract_y
_atom_site_fract_z
Si Si1 0.897574 0.658267 0.753072
Si Si2 0.243409 0.377665 0.605489
Si Si3 0.171548 0.865783 0.566904
Si Si4 0.639140 0.877795 0.851422
Si Si5 0.477002 0.208432 0.472064
Si Si6 0.907954 0.973122 0.022938
Si Si7 0.557003 0.400535 0.309950
Si Si8 0.050905 0.721368 0.526187
O O1 0.871730 0.594306 0.548195
O O2 0.767338 0.787537 0.788046
O O3 0.949070 0.744968 0.657909
O O4 0.000000 0.500000 0.000000
O O5 0.340621 0.360405 0.460937
O O6 0.178904 0.538712 0.665400
O O7 0.326568 0.206249 0.839132
O O8 0.176947 0.928022 0.801969
O O9 0.299452 0.689421 0.627290
O O10 0.068979 0.844364 0.561812
O O11 0.160056 0.972267 0.284115
O O12 0.543582 0.865881 0.717258
O O13 0.568302 0.065665 0.762042
O O14 0.542243 0.270546 0.360105
O O15 0.989883 0.784053 0.204782
O O16 0.000000 0.000000 0.000000
O O17 0.500000 0.500000 0.500000
O O18 0.500000 0.500000 0.000000
#
# Coordination Sequence:
#
# PCOD8025384 Si02
#       8
#     2   2   2   2   2   2   2   2
#     4  11  24  39  63 103 137 172 227 283 352 431
#     4  11  23  43  66 101 131 181 232 291 357 422
#     4  11  25  46  68 102 142 187 234 289 355 427
#     4  10  23  46  69  99 136 183 238 293 359 423
#     4  10  25  45  72  98 136 185 241 300 354 423
#     4  10  23  45  65 100 137 182 236 278 348 431
#     4  12  28  48  74 109 142 188 249 300 361 428
#     4  11  23  39  68  95 138 181 219 287 354 425
#
# _framework density 24.207014000000001
#
# number of rings (size 3 to 8) (size 9 to 14) (size 15 to 20)
#    0.000    1.250    1.250    3.750    5.250    5.000 
#    0.000    0.000    0.000    0.000    0.000    0.000 
#    0.000    0.000    0.000    0.000    0.000    0.000 
#
# Total GULP energy -198215.060541 kJ/mol
# GULP energy per Si atom -12388.441284 kJ/mol
# Density = 2.415192 g / cm^3
# Si number density = 24.207014 Si / 1000 Ang^3
#
#
#
# Elastic Constant Matrix: (Units=GPa)
#
#
# Indices 1 2 3 4 5 6 
#
# 1 107.6821 25.9861 32.2744 -10.4444 -14.8888 6.0073
# 2 25.9861 101.9400 35.9888 -9.7844 -5.9697 -1.5451
# 3 32.2744 35.9888 165.0830 -18.2216 -5.0942 3.8665
# 4 -10.4444 -9.7844 -18.2216 46.0988 -3.8906 -5.1491
# 5 -14.8888 -5.9697 -5.0942 -3.8906 33.1294 -6.3886
# 6 6.0073 -1.5451 3.8665 -5.1491 -6.3886 26.2579
#
#
#
# Elastic Compliance Matrix: (Units=1/GPa)
#
#
# Indices 1 2 3 4 5 6 
#
# 1 0.010998 -0.001901 -0.001377 0.001804 0.004408 -0.000999
# 2 -0.001901 0.011233 -0.001909 0.001548 0.001450 0.002033
# 3 -0.001377 -0.001909 0.006984 0.002027 0.000279 -0.000360
# 4 0.001804 0.001548 0.002027 0.024285 0.005301 0.005432
# 5 0.004408 0.001450 0.000279 0.005301 0.034737 0.008527
# 6 -0.000999 0.002033 -0.000360 0.005432 0.008527 0.041625
#
#
# Mechanical properties :
#
#
# Convention : Reuss Voigt Hill
#
# Bulk Modulus (GPa) = 53.07923 62.57819 57.82871
# Shear Modulus (GPa) = 34.12590 39.79428 36.96009
#
# Velocity S-wave (km/s) = 3.75874 4.05892 3.91171
# Velocity P-wave (km/s) = 6.38845 6.91909 6.65906
#
# Compressibility (1/GPa) = 0.01883976
#
# Stress axis : x y z
#
# Youngs Moduli (GPa) = 90.92259 89.02605 143.18992
#
# Poissons Ratio (x) = 0.16927 0.19719
# Poissons Ratio (y) = 0.17287 0.27336
# Poissons Ratio (z) = 0.12521 0.16995
#
# Static dielectric constant tensor:
#      x y z
#    x 4.271780 -0.457790 0.292340 
#    y -0.457790 4.382000 -0.121160 
#    z 0.292340 -0.121160 4.766330 
# 
# 
# High freq. dielectric constant tensor:
#      x y z
#    x 1.961830 -0.014890 -0.008600 
#    y -0.014890 1.962660 -0.018740 
#    z -0.008600 -0.018740 1.966960 
# 
# From -- ./inp_files/94614.got.cif
#   From: 2010.06.25/outbox.cif.g09.slc.cpg/sg2_48_cif.got.tgz:94614.got - 2010.06.27 13:26:56.
