data_PCOD8025534
_publ_section_title
;
Structure prediction by ZEFSAII (Michael W. Deem and Ramdas Pophale) SiO2 
 PCOD8025534
Probable space group: P -1
;
_chemical_formula_sum "Si O2"
_cell_formula_units_Z 16
_cell_length_a 8.962111
_cell_length_b 9.472756
_cell_length_c 15.535656
_cell_angle_alpha 109.645432
_cell_angle_beta 34.849656
_cell_angle_gamma 103.139431
_cell_volume 706.892421
_symmetry_space_group_name_H-M "P -1"
_symmetry_group_IT_number 2
_symmetry_cell_setting 'triclinic'
loop_
_space_group_symop_operation_xyz
x,y,z
-x,-y,-z
loop_
_atom_site_type_symbol
_atom_site_label
_atom_site_fract_x
_atom_site_fract_y
_atom_site_fract_z
Si Si1 0.797221 0.767413 0.194396
Si Si2 0.061515 0.238462 0.676895
Si Si3 0.191058 0.017573 0.333116
Si Si4 0.122706 0.696618 0.864191
Si Si5 0.100225 0.322401 0.331952
Si Si6 0.576269 0.474908 0.663232
Si Si7 0.213003 0.450559 0.136810
Si Si8 0.443014 0.924317 0.686907
O O1 0.908551 0.741122 0.231468
O O2 0.605080 0.642795 0.232416
O O3 0.636146 0.929679 0.302149
O O4 0.039581 0.753132 0.010497
O O5 0.329837 0.175840 0.491467
O O6 0.972333 0.402291 0.713699
O O7 0.830511 0.128077 0.746604
O O8 0.119898 0.163502 0.338152
O O9 0.473104 0.028140 0.246061
O O10 0.000000 0.000000 0.500000
O O11 0.394930 0.591302 0.715568
O O12 0.185877 0.835658 0.802526
O O13 0.888633 0.611355 0.917596
O O14 0.276463 0.440015 0.316332
O O15 0.203352 0.316319 0.183783
O O16 0.794662 0.382708 0.482812
O O17 0.500000 0.500000 0.000000
#
# Coordination Sequence:
#
# PCOD8025534 Si02
#       8
#     2   2   2   2   2   2   2   2
#     4  12  26  45  72 101 144 190 232 298 359 415
#     4  11  26  45  73 103 139 188 239 293 354 420
#     4  10  23  45  69 104 141 181 231 297 353 412
#     4  12  26  47  70 101 147 187 238 294 358 423
#     4  11  25  43  74 107 138 190 240 294 355 422
#     4  11  23  43  73 101 137 186 241 291 350 421
#     4  12  29  46  70 106 149 188 236 294 363 424
#     4  11  25  46  73 101 140 185 242 290 353 425
#
# _framework density 22.634278999999999
#
# number of rings (size 3 to 8) (size 9 to 14) (size 15 to 20)
#    0.000    0.750    2.500    4.125   14.000    1.000 
#    0.000    1.250    0.000    0.000    0.000    0.000 
#    0.000    0.000    0.000    0.000    0.000    0.000 
#
# Total GULP energy -198408.591558 kJ/mol
# GULP energy per Si atom -12400.536972 kJ/mol
# Density = 2.258276 g / cm^3
# Si number density = 22.634279 Si / 1000 Ang^3
#
#
#
# Elastic Constant Matrix: (Units=GPa)
#
#
# Indices 1 2 3 4 5 6 
#
# 1 106.0685 29.4706 30.7520 -3.3449 2.5309 3.3916
# 2 29.4706 134.3210 29.5743 -4.3675 7.3949 -8.5836
# 3 30.7520 29.5743 58.5204 -14.9508 10.3743 0.6057
# 4 -3.3449 -4.3675 -14.9508 25.6865 -4.4257 2.5747
# 5 2.5309 7.3949 10.3743 -4.4257 30.4616 -1.9030
# 6 3.3916 -8.5836 0.6057 2.5747 -1.9030 47.4637
#
#
#
# Elastic Compliance Matrix: (Units=1/GPa)
#
#
# Indices 1 2 3 4 5 6 
#
# 1 0.011498 -0.001371 -0.006040 -0.001979 0.001095 -0.000841
# 2 -0.001371 0.008716 -0.003893 -0.001269 -0.000750 0.001763
# 3 -0.006040 -0.003893 0.026653 0.013221 -0.005807 -0.001563
# 4 -0.001979 -0.001269 0.013221 0.046873 0.002611 -0.002695
# 5 0.001095 -0.000750 -0.005807 0.002611 0.035347 0.001136
# 6 -0.000841 0.001763 -0.001563 -0.002695 0.001136 0.021659
#
#
# Mechanical properties :
#
#
# Convention : Reuss Voigt Hill
#
# Bulk Modulus (GPa) = 41.22454 53.16708 47.19581
# Shear Modulus (GPa) = 27.55700 34.66322 31.11011
#
# Velocity S-wave (km/s) = 3.49304 3.91762 3.71140
# Velocity P-wave (km/s) = 5.87548 6.63357 6.26600
#
# Compressibility (1/GPa) = 0.02425740
#
# Stress axis : x y z
#
# Youngs Moduli (GPa) = 86.96810 114.73632 37.51920
#
# Poissons Ratio (x) = 0.15733 0.22662
# Poissons Ratio (y) = 0.11926 0.14608
# Poissons Ratio (z) = 0.52530 0.44672
#
# Static dielectric constant tensor:
#      x y z
#    x 4.287140 0.248470 -0.079870 
#    y 0.248470 4.398440 0.033180 
#    z -0.079870 0.033180 3.855710 
# 
# 
# High freq. dielectric constant tensor:
#      x y z
#    x 1.898770 0.003980 -0.005170 
#    y 0.003980 1.910470 -0.006980 
#    z -0.005170 -0.006980 1.876410 
# 
# From -- ./inp_files/495369.got.cif
#   From: 2010.06.25/outbox.cif.g09.slc.cpg/sg2_248_cif.got.tgz:495369.got - 2010.06.27 13:26:56.
