data_PCOD8025446
_publ_section_title
;
Structure prediction by ZEFSAII (Michael W. Deem and Ramdas Pophale) SiO2 
 PCOD8025446
Probable space group: P -1
;
_chemical_formula_sum "Si O2"
_cell_formula_units_Z 14
_cell_length_a 13.913441
_cell_length_b 15.839438
_cell_length_c 14.115023
_cell_angle_alpha 36.186223
_cell_angle_beta 159.593966
_cell_angle_gamma 141.123438
_cell_volume 636.680055
_symmetry_space_group_name_H-M "P -1"
_symmetry_group_IT_number 2
_symmetry_cell_setting 'triclinic'
loop_
_space_group_symop_operation_xyz
x,y,z
-x,-y,-z
loop_
_atom_site_type_symbol
_atom_site_label
_atom_site_fract_x
_atom_site_fract_y
_atom_site_fract_z
Si Si1 0.726263 0.574285 0.713373
Si Si2 0.384886 0.268243 0.867599
Si Si3 0.844659 0.892724 0.526985
Si Si4 0.290746 0.492480 0.728638
Si Si5 0.981941 0.410953 0.248017
Si Si6 0.280685 0.943123 0.038848
Si Si7 0.321448 0.656009 0.429011
O O1 0.500000 0.500000 0.500000
O O2 0.863777 0.728071 0.660872
O O3 0.566687 0.606800 0.633893
O O4 0.959166 0.467131 0.064932
O O5 0.274870 0.344384 0.788952
O O6 0.235290 0.314964 0.589880
O O7 0.324775 0.099544 0.984420
O O8 0.709866 0.312351 0.116773
O O9 0.986311 0.919296 0.736129
O O10 0.525646 0.924337 0.207409
O O11 0.000000 0.000000 0.500000
O O12 0.383469 0.626189 0.622954
O O13 0.000000 0.500000 0.500000
O O14 0.500000 0.500000 0.000000
O O15 0.036095 0.556917 0.227921
O O16 0.283941 0.823476 0.232058
#
# Coordination Sequence:
#
# PCOD8025446 Si02
#       7
#     2   2   2   2   2   2   2
#     4  11  24  41  68  97 129 175 228 272 320 383
#     4  11  24  41  69  96 129 170 218 266 332 392
#     4  11  25  42  62  93 133 176 226 272 322 379
#     4  11  23  40  70 101 128 164 216 273 333 392
#     4  11  20  42  64  93 128 170 220 268 320 377
#     4  11  24  45  65  90 131 183 212 266 338 387
#     4  10  23  45  67  94 134 173 217 271 330 392
#
# _framework density 21.989066000000001
#
# number of rings (size 3 to 8) (size 9 to 14) (size 15 to 20)
#    0.000    1.143    4.286    3.000    2.000    1.714 
#    5.143    1.429    0.000    0.000    0.000    0.000 
#    0.000    0.000    0.000    0.000    0.000    0.000 
#
# Total GULP energy -173617.270907 kJ/mol
# GULP energy per Si atom -12401.233636 kJ/mol
# Density = 2.193902 g / cm^3
# Si number density = 21.989066 Si / 1000 Ang^3
#
#
#
# Elastic Constant Matrix: (Units=GPa)
#
#
# Indices 1 2 3 4 5 6 
#
# 1 116.9952 45.9837 43.9424 -9.0138 -29.0819 13.0482
# 2 45.9837 194.4248 57.6383 -20.1446 -19.7156 21.7072
# 3 43.9424 57.6383 129.7371 4.4257 -19.2577 3.6583
# 4 -9.0138 -20.1446 4.4257 44.1642 4.1431 -0.0608
# 5 -29.0819 -19.7156 -19.2577 4.1431 43.1039 -2.8073
# 6 13.0482 21.7072 3.6583 -0.0608 -2.8073 32.3025
#
#
#
# Elastic Compliance Matrix: (Units=1/GPa)
#
#
# Indices 1 2 3 4 5 6 
#
# 1 0.011921 -0.000832 -0.002734 0.001755 0.006050 -0.003418
# 2 -0.000832 0.007006 -0.002699 0.003209 0.000869 -0.003984
# 3 -0.002734 -0.002699 0.010158 -0.002980 0.001871 0.001924
# 4 0.001755 0.003209 -0.002980 0.024876 -0.001239 -0.002589
# 5 0.006050 0.000869 0.001871 -0.001239 0.028585 -0.000758
# 6 -0.003418 -0.003984 0.001924 -0.002589 -0.000758 0.034727
#
#
# Mechanical properties :
#
#
# Convention : Reuss Voigt Hill
#
# Bulk Modulus (GPa) = 60.40055 81.80956 71.10506
# Shear Modulus (GPa) = 36.94933 43.48695 40.21814
#
# Velocity S-wave (km/s) = 4.10365 4.45192 4.28133
# Velocity P-wave (km/s) = 7.06975 7.98195 7.53966
#
# Compressibility (1/GPa) = 0.01655614
#
# Stress axis : x y z
#
# Youngs Moduli (GPa) = 83.88248 142.73990 98.44613
#
# Poissons Ratio (x) = 0.11880 0.26911
# Poissons Ratio (y) = 0.06981 0.26567
# Poissons Ratio (z) = 0.22930 0.38521
#
# Static dielectric constant tensor:
#      x y z
#    x 3.981440 0.177790 -0.073430 
#    y 0.177790 4.112620 -0.004850 
#    z -0.073430 -0.004850 4.350260 
# 
# 
# High freq. dielectric constant tensor:
#      x y z
#    x 1.846330 0.017300 -0.001130 
#    y 0.017300 1.869920 0.002670 
#    z -0.001130 0.002670 1.891900 
# 
# From -- ./inp_files/533724.got.cif
#   From: 2010.06.25/outbox.cif.g09.slc.cpg/sg2_267_cif.got.tgz:533724.got - 2010.06.27 13:26:56.
