data_PCOD8025273
_publ_section_title
;
Structure prediction by ZEFSAII (Michael W. Deem and Ramdas Pophale) SiO2 
 PCOD8025273
Probable space group: P -1
;
_chemical_formula_sum "Si O2"
_cell_formula_units_Z 16
_cell_length_a 18.535927
_cell_length_b 5.322627
_cell_length_c 8.265899
_cell_angle_alpha 114.589213
_cell_angle_beta 95.878880
_cell_angle_gamma 63.264204
_cell_volume 658.659358
_symmetry_space_group_name_H-M "P -1"
_symmetry_group_IT_number 2
_symmetry_cell_setting 'triclinic'
loop_
_space_group_symop_operation_xyz
x,y,z
-x,-y,-z
loop_
_atom_site_type_symbol
_atom_site_label
_atom_site_fract_x
_atom_site_fract_y
_atom_site_fract_z
Si Si1 0.757589 0.899794 0.599167
Si Si2 0.474744 0.355608 0.607545
Si Si3 0.171605 0.724195 0.124637
Si Si4 0.394516 0.775933 0.146749
Si Si5 0.300980 0.842677 0.673826
Si Si6 0.165591 0.734124 0.745721
Si Si7 0.995757 0.183621 0.884985
Si Si8 0.339292 0.255390 0.998797
O O1 0.804330 0.559796 0.443984
O O2 0.819687 0.965756 0.745120
O O3 0.675154 0.960822 0.689757
O O4 0.726225 0.151024 0.514791
O O5 0.500000 0.500000 0.500000
O O6 0.518553 0.388081 0.789171
O O7 0.378075 0.521194 0.647706
O O8 0.500000 0.000000 0.500000
O O9 0.254023 0.432422 0.125595
O O10 0.090948 0.741957 0.198985
O O11 0.165118 0.669248 0.917875
O O12 0.372923 0.497153 0.022994
O O13 0.400581 0.960642 0.039165
O O14 0.225539 0.890761 0.783121
O O15 0.323880 0.123235 0.790462
O O16 0.073170 0.968806 0.734018
O O17 0.000000 0.500000 0.000000
O O18 0.000000 0.000000 0.000000
#
# Coordination Sequence:
#
# PCOD8025273 Si02
#       8
#     2   2   2   2   2   2   2   2
#     4  11  24  41  70 101 136 186 233 280 350 410
#     4  12  26  44  69 100 140 181 232 289 351 407
#     4  10  23  46  70 102 139 187 226 287 347 412
#     4  11  25  45  67 102 135 184 230 285 347 418
#     4  12  25  43  71 100 138 183 233 287 347 413
#     4  11  24  45  71 103 141 180 240 282 346 415
#     4  10  23  44  72 100 140 184 227 284 348 408
#     4  11  24  43  71  98 139 177 233 287 345 408
#
# _framework density 24.291767
#
# number of rings (size 3 to 8) (size 9 to 14) (size 15 to 20)
#    0.000    1.000    2.500    3.750    7.000    3.500 
#    0.000    0.625    0.000    0.000    0.000    0.000 
#    0.000    0.000    0.000    0.000    0.000    0.000 
#
# Total GULP energy -198338.954073 kJ/mol
# GULP energy per Si atom -12396.184630 kJ/mol
# Density = 2.423648 g / cm^3
# Si number density = 24.291767 Si / 1000 Ang^3
#
#
#
# Elastic Constant Matrix: (Units=GPa)
#
#
# Indices 1 2 3 4 5 6 
#
# 1 75.9249 11.1335 -7.7692 8.3839 0.4596 -8.6130
# 2 11.1335 93.5004 6.2741 15.6707 4.1729 13.3651
# 3 -7.7692 6.2741 65.8603 24.2335 12.3770 8.3332
# 4 8.3839 15.6707 24.2335 45.6532 2.7970 -0.4775
# 5 0.4596 4.1729 12.3770 2.7970 36.7965 6.3573
# 6 -8.6130 13.3651 8.3332 -0.4775 6.3573 43.0746
#
#
#
# Elastic Compliance Matrix: (Units=1/GPa)
#
#
# Indices 1 2 3 4 5 6 
#
# 1 0.014473 -0.001696 0.003047 -0.003585 -0.001255 0.002976
# 2 -0.001696 0.012203 0.000892 -0.004359 -0.000596 -0.004259
# 3 0.003047 0.000892 0.021309 -0.011849 -0.005879 -0.003054
# 4 -0.003585 -0.004359 -0.011849 0.030276 0.001703 0.003012
# 5 -0.001255 -0.000596 -0.005879 0.001703 0.029676 -0.003290
# 6 0.002976 -0.004259 -0.003054 0.003012 -0.003290 0.026242
#
#
# Mechanical properties :
#
#
# Convention : Reuss Voigt Hill
#
# Bulk Modulus (GPa) = 19.05830 28.28470 23.67150
# Shear Modulus (GPa) = 33.97146 40.14800 37.05973
#
# Velocity S-wave (km/s) = 3.74368 4.06980 3.91014
# Velocity P-wave (km/s) = 5.15261 5.80977 5.49103
#
# Compressibility (1/GPa) = 0.05247059
#
# Stress axis : x y z
#
# Youngs Moduli (GPa) = 69.09628 81.94619 46.92834
#
# Poissons Ratio (x) = 0.13901 -0.14300
# Poissons Ratio (y) = 0.11721 -0.04186
# Poissons Ratio (z) = -0.21055 -0.07310
#
# Static dielectric constant tensor:
#      x y z
#    x 4.911240 -0.563460 0.013160 
#    y -0.563460 4.576190 0.171470 
#    z 0.013160 0.171470 4.271890 
# 
# 
# High freq. dielectric constant tensor:
#      x y z
#    x 1.972250 -0.010990 0.004730 
#    y -0.010990 1.968810 0.015090 
#    z 0.004730 0.015090 1.957290 
# 
# From -- ./inp_files/324129.got.cif
#   From: 2010.06.25/outbox.cif.g09.slc.cpg/sg2_163_cif.got.tgz:324129.got - 2010.06.27 13:26:56.
