data_PCOD8025356
_publ_section_title
;
Structure prediction by ZEFSAII (Michael W. Deem and Ramdas Pophale) SiO2 
 PCOD8025356
Probable space group: P -1
;
_chemical_formula_sum "Si O2"
_cell_formula_units_Z 16
_cell_length_a 9.209076
_cell_length_b 11.968584
_cell_length_c 9.135050
_cell_angle_alpha 67.386475
_cell_angle_beta 131.721314
_cell_angle_gamma 99.967654
_cell_volume 688.707369
_symmetry_space_group_name_H-M "P -1"
_symmetry_group_IT_number 2
_symmetry_cell_setting 'triclinic'
loop_
_space_group_symop_operation_xyz
x,y,z
-x,-y,-z
loop_
_atom_site_type_symbol
_atom_site_label
_atom_site_fract_x
_atom_site_fract_y
_atom_site_fract_z
Si Si1 0.206553 0.593268 0.350824
Si Si2 0.863620 0.681544 0.580163
Si Si3 0.491389 0.768287 0.909283
Si Si4 0.737450 0.079302 0.568802
Si Si5 0.074561 0.236526 0.739755
Si Si6 0.425542 0.398376 0.198120
Si Si7 0.756508 0.340906 0.980606
Si Si8 0.365570 0.171933 0.433615
O O1 0.195689 0.453271 0.375959
O O2 0.377562 0.601382 0.576769
O O3 0.258240 0.661360 0.203011
O O4 0.004634 0.657984 0.251440
O O5 0.939946 0.701978 0.459890
O O6 0.679671 0.781166 0.453643
O O7 0.027875 0.706663 0.795327
O O8 0.356913 0.866829 0.673607
O O9 0.515182 0.635395 0.912668
O O10 0.702142 0.815457 0.049523
O O11 0.396180 0.746243 0.013946
O O12 0.594987 0.121637 0.588861
O O13 0.947237 0.123794 0.716652
O O14 0.766951 0.933381 0.648272
O O15 0.286673 0.523073 0.052196
O O16 0.307592 0.288771 0.231001
#
# Coordination Sequence:
#
# PCOD8025356 Si02
#       8
#     2   2   2   2   2   2   2   2
#     4  12  24  40  68 105 140 180 224 279 348 410
#     4  12  25  43  68 105 141 180 225 284 342 411
#     4  11  24  44  69 101 137 184 226 281 342 403
#     4  10  23  50  69  98 136 183 229 286 334 399
#     4  12  25  44  71 102 139 181 230 279 346 402
#     4  11  22  43  67  97 143 179 221 282 341 406
#     4  12  24  40  67 106 141 177 226 280 344 412
#     4  10  23  44  75  93 135 186 226 281 342 395
#
# _framework density 23.231926000000001
#
# number of rings (size 3 to 8) (size 9 to 14) (size 15 to 20)
#    0.000    0.750    5.000    3.000    5.250    0.500 
#    0.000    7.500    0.000    0.000    0.000    0.000 
#    0.000    0.000    0.000    0.000    0.000    0.000 
#
# Total GULP energy -198430.424603 kJ/mol
# GULP energy per Si atom -12401.901538 kJ/mol
# Density = 2.317905 g / cm^3
# Si number density = 23.231926 Si / 1000 Ang^3
#
#
#
# Elastic Constant Matrix: (Units=GPa)
#
#
# Indices 1 2 3 4 5 6 
#
# 1 159.4317 59.2930 38.8467 16.8083 -11.8446 7.0464
# 2 59.2930 112.9544 13.8468 7.0788 17.2761 12.7706
# 3 38.8467 13.8468 77.8183 24.4109 12.5343 10.8576
# 4 16.8083 7.0788 24.4109 26.9916 3.9469 6.8880
# 5 -11.8446 17.2761 12.5343 3.9469 29.9300 9.6316
# 6 7.0464 12.7706 10.8576 6.8880 9.6316 29.2760
#
#
#
# Elastic Compliance Matrix: (Units=1/GPa)
#
#
# Indices 1 2 3 4 5 6 
#
# 1 0.011121 -0.006643 -0.005528 -0.001546 0.011080 -0.001010
# 2 -0.006643 0.013919 0.002928 -0.000042 -0.011294 -0.001833
# 3 -0.005528 0.002928 0.021686 -0.015144 -0.010667 -0.000917
# 4 -0.001546 -0.000042 -0.015144 0.053330 0.000925 -0.006845
# 5 0.011080 -0.011294 -0.010667 0.000925 0.052263 -0.011196
# 6 -0.001010 -0.001833 -0.000917 -0.006845 -0.011196 0.040834
#
#
# Mechanical properties :
#
#
# Convention : Reuss Voigt Hill
#
# Bulk Modulus (GPa) = 35.41392 63.79748 49.60570
# Shear Modulus (GPa) = 22.61911 33.12072 27.86992
#
# Velocity S-wave (km/s) = 3.12368 3.77988 3.46734
# Velocity P-wave (km/s) = 5.31851 6.82428 6.11790
#
# Compressibility (1/GPa) = 0.02823748
#
# Stress axis : x y z
#
# Youngs Moduli (GPa) = 89.92271 71.84531 46.11331
#
# Poissons Ratio (x) = 0.47730 0.25492
# Poissons Ratio (y) = 0.59739 -0.13501
# Poissons Ratio (z) = 0.49710 -0.21034
#
# Static dielectric constant tensor:
#      x y z
#    x 4.489040 -0.009680 -0.085010 
#    y -0.009680 4.257640 0.085920 
#    z -0.085010 0.085920 3.915570 
# 
# 
# High freq. dielectric constant tensor:
#      x y z
#    x 1.937590 0.005120 -0.003150 
#    y 0.005120 1.906720 0.009730 
#    z -0.003150 0.009730 1.902560 
# 
# From -- ./inp_files/187101.got.cif
#   From: 2010.06.25/outbox.cif.g09.slc.cpg/sg2_94_cif.got.tgz:187101.got - 2010.06.27 13:26:56.
