data_PCOD8025053
_publ_section_title
;
Structure prediction by ZEFSAII (Michael W. Deem and Ramdas Pophale) SiO2 
 PCOD8025053
Probable space group: P -1
;
_chemical_formula_sum "Si O2"
_cell_formula_units_Z 16
_cell_length_a 12.547609
_cell_length_b 8.639926
_cell_length_c 14.660987
_cell_angle_alpha 73.155384
_cell_angle_beta 49.382238
_cell_angle_gamma 110.416149
_cell_volume 776.883103
_symmetry_space_group_name_H-M "P -1"
_symmetry_group_IT_number 2
_symmetry_cell_setting 'triclinic'
loop_
_space_group_symop_operation_xyz
x,y,z
-x,-y,-z
loop_
_atom_site_type_symbol
_atom_site_label
_atom_site_fract_x
_atom_site_fract_y
_atom_site_fract_z
Si Si1 0.315358 0.743911 0.192042
Si Si2 0.145628 0.895709 0.985212
Si Si3 0.407225 0.228446 0.317498
Si Si4 0.960393 0.635726 0.319006
Si Si5 0.414350 0.865417 0.324845
Si Si6 0.938026 0.983696 0.326675
Si Si7 0.302444 0.371579 0.192803
Si Si8 0.854630 0.745357 0.015741
O O1 0.345595 0.763146 0.279169
O O2 0.323388 0.570944 0.180163
O O3 0.095920 0.638288 0.309034
O O4 0.500000 0.000000 0.000000
O O5 0.058541 0.721570 0.149075
O O6 0.966857 0.745635 0.034281
O O7 0.345719 0.976405 0.818879
O O8 0.212251 0.132619 0.936833
O O9 0.294450 0.161422 0.489045
O O10 0.292839 0.244612 0.305539
O O11 0.650418 0.474351 0.147547
O O12 0.379350 0.022654 0.336131
O O13 0.729122 0.362635 0.488162
O O14 0.951966 0.804187 0.339254
O O15 0.094172 0.175915 0.284531
O O16 0.988215 0.113415 0.181214
O O17 0.500000 0.500000 0.000000
#
# Coordination Sequence:
#
# PCOD8025053 Si02
#       8
#     2   2   2   2   2   2   2   2
#     4  12  23  39  64  95 130 165 206 254 315 380
#     4  10  23  44  68  92 122 165 216 266 315 371
#     4  12  25  41  64  94 130 168 209 259 315 375
#     4  11  23  41  66  94 128 167 210 259 313 375
#     4  12  25  41  64  94 130 168 209 259 315 375
#     4  11  23  41  66  94 128 167 210 259 313 375
#     4  12  23  39  64  95 130 165 206 254 315 380
#     4  10  23  44  68  92 122 165 216 266 315 371
#
# _framework density 20.595120000000001
#
# number of rings (size 3 to 8) (size 9 to 14) (size 15 to 20)
#    0.000    0.750    2.500    6.000    0.000    2.500 
#    0.000    5.000    0.000    0.000    0.000    0.000 
#    0.000    0.000    0.000    0.000    0.000    0.000 
#
# Total GULP energy -198522.745456 kJ/mol
# GULP energy per Si atom -12407.671591 kJ/mol
# Density = 2.054824 g / cm^3
# Si number density = 20.595120 Si / 1000 Ang^3
#
#
#
# Elastic Constant Matrix: (Units=GPa)
#
#
# Indices 1 2 3 4 5 6 
#
# 1 78.7575 25.9301 10.0080 1.5768 -2.2780 -5.4833
# 2 25.9301 126.4683 29.2846 -5.6342 4.6913 -22.3278
# 3 10.0080 29.2846 102.3376 2.1499 2.3273 -20.8524
# 4 1.5768 -5.6342 2.1499 43.7611 -7.2943 -2.7116
# 5 -2.2780 4.6913 2.3273 -7.2943 19.0842 2.6395
# 6 -5.4833 -22.3278 -20.8524 -2.7116 2.6395 30.8368
#
#
#
# Elastic Compliance Matrix: (Units=1/GPa)
#
#
# Indices 1 2 3 4 5 6 
#
# 1 0.013765 -0.002827 -0.000633 -0.000466 0.002273 -0.000263
# 2 -0.002827 0.010067 -0.001281 0.001349 -0.003011 0.006296
# 3 -0.000633 -0.001281 0.011699 -0.000685 -0.002420 0.007018
# 4 -0.000466 0.001349 -0.000685 0.024668 0.008870 0.001840
# 5 0.002273 -0.003011 -0.002420 0.008870 0.058149 -0.007610
# 6 -0.000263 0.006296 0.007018 0.001840 -0.007610 0.042500
#
#
# Mechanical properties :
#
#
# Convention : Reuss Voigt Hill
#
# Bulk Modulus (GPa) = 38.38832 48.66763 43.52798
# Shear Modulus (GPa) = 27.93084 34.89250 31.41167
#
# Velocity S-wave (km/s) = 3.68664 4.12055 3.90962
# Velocity P-wave (km/s) = 6.06644 6.80592 6.44679
#
# Compressibility (1/GPa) = 0.02604959
#
# Stress axis : x y z
#
# Youngs Moduli (GPa) = 72.64670 99.33559 85.47380
#
# Poissons Ratio (x) = 0.28086 0.05407
# Poissons Ratio (y) = 0.20540 0.10950
# Poissons Ratio (z) = 0.04595 0.12726
#
# Static dielectric constant tensor:
#      x y z
#    x 3.745810 -0.024400 0.059920 
#    y -0.024400 3.761810 0.050570 
#    z 0.059920 0.050570 4.074430 
# 
# 
# High freq. dielectric constant tensor:
#      x y z
#    x 1.800470 -0.006220 0.002680 
#    y -0.006220 1.812620 0.000880 
#    z 0.002680 0.000880 1.825070 
# 
# From -- ./inp_files/272603.got.cif
#   From: 2010.06.25/outbox.cif.g09.slc.cpg/sg2_137_cif.got.tgz:272603.got - 2010.06.27 13:26:56.
