data_PCOD8025924
_publ_section_title
;
Structure prediction by ZEFSAII (Michael W. Deem and Ramdas Pophale) SiO2 
 PCOD8025924
Probable space group: P -1
;
_chemical_formula_sum "Si O2"
_cell_formula_units_Z 16
_cell_length_a 7.240839
_cell_length_b 9.465499
_cell_length_c 13.020884
_cell_angle_alpha 134.460992
_cell_angle_beta 88.030922
_cell_angle_gamma 84.495667
_cell_volume 627.503017
_symmetry_space_group_name_H-M "P -1"
_symmetry_group_IT_number 2
_symmetry_cell_setting 'triclinic'
loop_
_space_group_symop_operation_xyz
x,y,z
-x,-y,-z
loop_
_atom_site_type_symbol
_atom_site_label
_atom_site_fract_x
_atom_site_fract_y
_atom_site_fract_z
Si Si1 0.826384 0.095538 0.858640
Si Si2 0.549400 0.585900 0.360689
Si Si3 0.170020 0.565340 0.095330
Si Si4 0.129546 0.780607 0.418880
Si Si5 0.238787 0.133024 0.857136
Si Si6 0.857560 0.680381 0.543201
Si Si7 0.676384 0.883404 0.378716
Si Si8 0.647739 0.134034 0.094466
O O1 0.708230 0.287333 0.895253
O O2 0.024284 0.137226 0.833510
O O3 0.793751 0.872485 0.716634
O O4 0.802204 0.122809 0.995329
O O5 0.333571 0.696231 0.423989
O O6 0.662066 0.613767 0.478447
O O7 0.673959 0.655153 0.298869
O O8 0.541096 0.355428 0.226937
O O9 0.100520 0.674433 0.258016
O O10 0.289427 0.343843 0.007733
O O11 0.000000 0.500000 0.000000
O O12 0.962585 0.745656 0.476655
O O13 0.140240 0.023718 0.537484
O O14 0.356701 0.086678 0.726902
O O15 0.265988 0.951082 0.843721
O O16 0.000000 0.500000 0.500000
O O17 0.500000 0.000000 0.500000
O O18 0.500000 0.000000 0.000000
#
# Coordination Sequence:
#
# PCOD8025924 Si02
#       8
#     2   2   2   2   2   2   2   2
#     4  11  25  47  70 109 144 194 249 303 371 443
#     4  11  27  47  76 109 149 196 251 308 371 445
#     4  10  24  42  77 107 143 193 245 305 368 438
#     4  11  25  48  74 111 150 197 248 311 368 444
#     4  11  23  45  74 105 146 193 247 304 369 441
#     4  12  28  45  78 109 154 195 249 307 379 441
#     4  10  23  46  74 109 145 194 246 308 369 440
#     4  12  28  46  71 104 153 194 247 309 372 445
#
# _framework density 25.497886000000001
#
# number of rings (size 3 to 8) (size 9 to 14) (size 15 to 20)
#    0.000    1.000    1.250    3.375   10.500    5.500 
#    0.000    4.375    0.000    0.000    0.000    0.000 
#    0.000    0.000    0.000    0.000    0.000    0.000 
#
# Total GULP energy -198245.021766 kJ/mol
# GULP energy per Si atom -12390.313860 kJ/mol
# Density = 2.543985 g / cm^3
# Si number density = 25.497886 Si / 1000 Ang^3
#
#
#
# Elastic Constant Matrix: (Units=GPa)
#
#
# Indices 1 2 3 4 5 6 
#
# 1 74.1805 -1.9601 6.4090 3.7412 13.7706 1.2003
# 2 -1.9601 142.6037 39.4402 14.0972 -6.5296 0.4447
# 3 6.4090 39.4402 131.0945 14.0064 3.5110 2.8802
# 4 3.7412 14.0972 14.0064 56.6463 11.1430 6.0707
# 5 13.7706 -6.5296 3.5110 11.1430 40.1809 -5.9255
# 6 1.2003 0.4447 2.8802 6.0707 -5.9255 25.7094
#
#
#
# Elastic Compliance Matrix: (Units=1/GPa)
#
#
# Indices 1 2 3 4 5 6 
#
# 1 0.014531 0.000086 -0.000596 0.000420 -0.005316 -0.001938
# 2 0.000086 0.007928 -0.002261 -0.001959 0.002158 0.001072
# 3 -0.000596 -0.002261 0.008510 -0.001294 -0.000656 -0.000732
# 4 0.000420 -0.001959 -0.001294 0.020474 -0.006953 -0.006278
# 5 -0.005316 0.002158 -0.000656 -0.006953 0.030361 0.008924
# 6 -0.001938 0.001072 -0.000732 -0.006278 0.008924 0.042589
#
#
# Mechanical properties :
#
#
# Convention : Reuss Voigt Hill
#
# Bulk Modulus (GPa) = 39.33055 48.40630 43.86842
# Shear Modulus (GPa) = 36.12390 44.77330 40.44860
#
# Velocity S-wave (km/s) = 3.76805 4.19497 3.98722
# Velocity P-wave (km/s) = 5.86425 6.51838 6.19995
#
# Compressibility (1/GPa) = 0.02542553
#
# Stress axis : x y z
#
# Youngs Moduli (GPa) = 68.81613 126.13212 117.51511
#
# Poissons Ratio (x) = -0.01081 0.07005
# Poissons Ratio (y) = -0.00590 0.26576
# Poissons Ratio (z) = 0.04102 0.28524
#
# Static dielectric constant tensor:
#      x y z
#    x 4.666710 0.394970 0.073200 
#    y 0.394970 5.052510 0.444920 
#    z 0.073200 0.444920 5.042430 
# 
# 
# High freq. dielectric constant tensor:
#      x y z
#    x 2.016640 -0.001790 0.005610 
#    y -0.001790 2.047660 0.014930 
#    z 0.005610 0.014930 2.025970 
# 
# From -- ./inp_files/383550.got.cif
#   From: 2010.06.25/outbox.cif.g09.slc.cpg/sg2_192_cif.got.tgz:383550.got - 2010.06.27 13:26:56.
