data_PCOD8025478
_publ_section_title
;
Structure prediction by ZEFSAII (Michael W. Deem and Ramdas Pophale) SiO2 
 PCOD8025478
Probable space group: P -1
;
_chemical_formula_sum "Si O2"
_cell_formula_units_Z 14
_cell_length_a 5.411928
_cell_length_b 8.562298
_cell_length_c 14.274188
_cell_angle_alpha 107.678130
_cell_angle_beta 67.708294
_cell_angle_gamma 86.292372
_cell_volume 570.846834
_symmetry_space_group_name_H-M "P -1"
_symmetry_group_IT_number 2
_symmetry_cell_setting 'triclinic'
loop_
_space_group_symop_operation_xyz
x,y,z
-x,-y,-z
loop_
_atom_site_type_symbol
_atom_site_label
_atom_site_fract_x
_atom_site_fract_y
_atom_site_fract_z
Si Si1 0.628581 0.038595 0.843338
Si Si2 0.940293 0.453793 0.105106
Si Si3 0.853346 0.308122 0.564807
Si Si4 0.405205 0.213230 0.727619
Si Si5 0.622425 0.629641 0.565120
Si Si6 0.490847 0.748257 0.930483
Si Si7 0.799387 0.087874 0.353802
O O1 0.416662 0.134543 0.815115
O O2 0.501272 0.899488 0.887123
O O3 0.672011 0.177846 0.938459
O O4 0.902096 0.948469 0.737395
O O5 0.827568 0.619380 0.212855
O O6 0.689536 0.359250 0.118671
O O7 0.207528 0.353107 0.101829
O O8 0.000000 0.500000 0.000000
O O9 0.706568 0.247640 0.665186
O O10 0.768629 0.512819 0.606705
O O11 0.774474 0.194934 0.471684
O O12 0.180409 0.282261 0.513755
O O13 0.309774 0.082822 0.646167
O O14 0.500000 0.500000 0.500000
O O15 0.398188 0.785062 0.666095
#
# Coordination Sequence:
#
# PCOD8025478 Si02
#       7
#     2   2   2   2   2   2   2
#     4  11  27  45  73 108 145 193 248 299 382 437
#     4  12  26  50  78 110 151 192 254 305 379 437
#     4  10  23  45  68 104 144 190 244 305 365 441
#     4  12  27  41  74 107 148 194 246 305 373 439
#     4   9  21  42  68  94 138 189 241 296 367 432
#     4  11  28  50  78 108 152 199 241 317 369 455
#     4  11  24  43  69 103 147 188 246 303 366 447
#
# _framework density 24.524967
#
# number of rings (size 3 to 8) (size 9 to 14) (size 15 to 20)
#    0.000    1.143    1.429    2.571    6.000    9.143 
#    0.000    0.000    0.000    0.000    0.000    0.000 
#    0.000    0.000    0.000    0.000    0.000    0.000 
#
# Total GULP energy -173507.098992 kJ/mol
# GULP energy per Si atom -12393.364214 kJ/mol
# Density = 2.446915 g / cm^3
# Si number density = 24.524967 Si / 1000 Ang^3
#
#
#
# Elastic Constant Matrix: (Units=GPa)
#
#
# Indices 1 2 3 4 5 6 
#
# 1 103.2313 39.4501 10.4576 6.7629 -12.5737 6.1353
# 2 39.4501 119.8149 49.5618 16.9783 0.4577 7.4842
# 3 10.4576 49.5618 76.2570 10.1964 -11.0848 -5.9944
# 4 6.7629 16.9783 10.1964 51.8921 -1.8282 -3.9217
# 5 -12.5737 0.4577 -11.0848 -1.8282 24.3007 4.4945
# 6 6.1353 7.4842 -5.9944 -3.9217 4.4945 47.6039
#
#
#
# Elastic Compliance Matrix: (Units=1/GPa)
#
#
# Indices 1 2 3 4 5 6 
#
# 1 0.012439 -0.005142 0.002739 -0.000288 0.007988 -0.001228
# 2 -0.005142 0.014573 -0.009632 -0.002636 -0.007085 -0.002390
# 3 0.002739 -0.009632 0.020842 -0.000723 0.010547 0.002730
# 4 -0.000288 -0.002636 -0.000723 0.020489 0.000746 0.001978
# 5 0.007988 -0.007085 0.010547 0.000746 0.050901 -0.003332
# 6 -0.001228 -0.002390 0.002730 0.001978 -0.003332 0.022362
#
#
# Mechanical properties :
#
#
# Convention : Reuss Voigt Hill
#
# Bulk Modulus (GPa) = 42.04158 55.36025 48.70091
# Shear Modulus (GPa) = 28.80131 38.08158 33.44144
#
# Velocity S-wave (km/s) = 3.43062 3.94479 3.69666
# Velocity P-wave (km/s) = 5.73339 6.58563 6.17423
#
# Compressibility (1/GPa) = 0.02378598
#
# Stress axis : x y z
#
# Youngs Moduli (GPa) = 80.39077 68.61935 47.97948
#
# Poissons Ratio (x) = 0.35282 -0.13142
# Poissons Ratio (y) = 0.41335 0.46212
# Poissons Ratio (z) = -0.22020 0.66092
#
# Static dielectric constant tensor:
#      x y z
#    x 4.578080 -0.354800 -0.203460 
#    y -0.354800 5.368900 0.355370 
#    z -0.203460 0.355370 4.436700 
# 
# 
# High freq. dielectric constant tensor:
#      x y z
#    x 1.974090 0.004770 -0.013500 
#    y 0.004770 1.995950 0.016150 
#    z -0.013500 0.016150 1.969010 
# 
# From -- ./inp_files/479676.got.cif
#   From: 2010.06.25/outbox.cif.g09.slc.cpg/sg2_240_cif.got.tgz:479676.got - 2010.06.27 13:26:56.
