data_PCOD8025151
_publ_section_title
;
Structure prediction by ZEFSAII (Michael W. Deem and Ramdas Pophale) SiO2 
 PCOD8025151
Probable space group: P -1
;
_chemical_formula_sum "Si O2"
_cell_formula_units_Z 14
_cell_length_a 11.495964
_cell_length_b 8.155832
_cell_length_c 9.392677
_cell_angle_alpha 74.736882
_cell_angle_beta 126.180086
_cell_angle_gamma 123.979957
_cell_volume 586.511185
_symmetry_space_group_name_H-M "P -1"
_symmetry_group_IT_number 2
_symmetry_cell_setting 'triclinic'
loop_
_space_group_symop_operation_xyz
x,y,z
-x,-y,-z
loop_
_atom_site_type_symbol
_atom_site_label
_atom_site_fract_x
_atom_site_fract_y
_atom_site_fract_z
Si Si1 0.426638 0.176378 0.965050
Si Si2 0.764854 0.803748 0.934632
Si Si3 0.973212 0.574197 0.718242
Si Si4 0.891813 0.133118 0.736865
Si Si5 0.329269 0.480268 0.330296
Si Si6 0.858498 0.048356 0.418301
Si Si7 0.687537 0.246869 0.938822
O O1 0.614698 0.315257 0.005582
O O2 0.301319 0.101927 0.756712
O O3 0.383883 0.285386 0.033767
O O4 0.413334 0.989383 0.079580
O O5 0.733392 0.645522 0.829487
O O6 0.783921 0.000519 0.825306
O O7 0.929841 0.853467 0.129982
O O8 0.905598 0.344642 0.692242
O O9 0.818687 0.607542 0.638935
O O10 0.068986 0.718935 0.621089
O O11 0.110534 0.650547 0.927685
O O12 0.805883 0.017981 0.553648
O O13 0.500000 0.500000 0.500000
O O14 0.357445 0.693325 0.257541
O O15 0.000000 0.000000 0.500000
#
# Coordination Sequence:
#
# PCOD8025151 Si02
#       7
#     2   2   2   2   2   2   2
#     4  10  23  44  69  99 134 183 222 275 336 402
#     4  11  24  42  70  98 136 179 225 277 338 403
#     4  11  24  46  69  96 139 180 225 276 341 400
#     4  11  23  41  69 103 133 181 228 269 342 403
#     4  12  27  44  68 103 134 176 224 287 335 397
#     4  11  22  40  70 102 139 174 224 282 328 398
#     4  10  23  44  70  93 140 178 225 268 343 398
#
# _framework density 23.869962000000001
#
# number of rings (size 3 to 8) (size 9 to 14) (size 15 to 20)
#    0.000    1.143    2.857    2.571   10.000    0.571 
#   10.286    1.429    0.000    0.000    0.000    0.000 
#    0.000    0.000    0.000    0.000    0.000    0.000 
#
# Total GULP energy -173542.119968 kJ/mol
# GULP energy per Si atom -12395.865712 kJ/mol
# Density = 2.381563 g / cm^3
# Si number density = 23.869962 Si / 1000 Ang^3
#
#
#
# Elastic Constant Matrix: (Units=GPa)
#
#
# Indices 1 2 3 4 5 6 
#
# 1 120.2325 -9.3134 28.3269 1.7863 2.5188 12.1800
# 2 -9.3134 36.7569 13.0749 -3.8455 4.9521 -6.4728
# 3 28.3269 13.0749 115.1511 -14.4186 7.1882 -0.4372
# 4 1.7863 -3.8455 -14.4186 26.6198 -6.8820 -0.1198
# 5 2.5188 4.9521 7.1882 -6.8820 43.3307 1.8578
# 6 12.1800 -6.4728 -0.4372 -0.1198 1.8578 33.1429
#
#
#
# Elastic Compliance Matrix: (Units=1/GPa)
#
#
# Indices 1 2 3 4 5 6 
#
# 1 0.009558 0.002798 -0.002890 -0.001966 -0.000580 -0.002979
# 2 0.002798 0.030719 -0.003788 0.001437 -0.003035 0.005097
# 3 -0.002890 -0.003788 0.010506 0.005254 -0.000329 0.000498
# 4 -0.001966 0.001437 0.005254 0.042242 0.005749 0.000903
# 5 -0.000580 -0.003035 -0.000329 0.005749 0.024501 -0.001736
# 6 -0.002979 0.005097 0.000498 0.000903 -0.001736 0.032370
#
#
# Mechanical properties :
#
#
# Convention : Reuss Voigt Hill
#
# Bulk Modulus (GPa) = 23.24364 37.36861 30.30613
# Shear Modulus (GPa) = 29.07055 36.62215 32.84635
#
# Velocity S-wave (km/s) = 3.49359 3.92118 3.71354
# Velocity P-wave (km/s) = 5.10219 6.01581 5.57773
#
# Compressibility (1/GPa) = 0.04302252
#
# Stress axis : x y z
#
# Youngs Moduli (GPa) = 104.62424 32.55347 95.18710
#
# Poissons Ratio (x) = -0.09108 0.27511
# Poissons Ratio (y) = -0.29272 0.36052
# Poissons Ratio (z) = 0.30238 0.12330
#
# Static dielectric constant tensor:
#      x y z
#    x 4.526550 0.165610 -0.001710 
#    y 0.165610 4.404290 -0.374790 
#    z -0.001710 -0.374790 4.354410 
# 
# 
# High freq. dielectric constant tensor:
#      x y z
#    x 1.953000 0.001780 0.000560 
#    y 0.001780 1.947120 -0.028820 
#    z 0.000560 -0.028820 1.931110 
# 
# From -- ./inp_files/219017.got.cif
#   From: 2010.06.25/outbox.cif.g09.slc.cpg/sg2_110_cif.got.tgz:219017.got - 2010.06.27 13:26:56.
