data_PCOD8025309
_publ_section_title
;
Structure prediction by ZEFSAII (Michael W. Deem and Ramdas Pophale) SiO2 
 PCOD8025309
Probable space group: P -1
;
_chemical_formula_sum "Si O2"
_cell_formula_units_Z 16
_cell_length_a 5.435285
_cell_length_b 14.204362
_cell_length_c 9.791301
_cell_angle_alpha 71.149911
_cell_angle_beta 88.690686
_cell_angle_gamma 71.829975
_cell_volume 677.163436
_symmetry_space_group_name_H-M "P -1"
_symmetry_group_IT_number 2
_symmetry_cell_setting 'triclinic'
loop_
_space_group_symop_operation_xyz
x,y,z
-x,-y,-z
loop_
_atom_site_type_symbol
_atom_site_label
_atom_site_fract_x
_atom_site_fract_y
_atom_site_fract_z
Si Si1 0.350142 0.576664 0.161169
Si Si2 0.777752 0.392107 0.152613
Si Si3 0.639160 0.729201 0.748854
Si Si4 0.664237 0.772829 0.435073
Si Si5 0.668011 0.854185 0.956607
Si Si6 0.297338 0.933141 0.159269
Si Si7 0.285974 0.457125 0.457226
Si Si8 0.048724 0.769216 0.219510
O O1 0.651729 0.513346 0.149152
O O2 0.244833 0.494543 0.282879
O O3 0.317496 0.679720 0.209998
O O4 0.187401 0.610401 0.009405
O O5 0.586289 0.325190 0.227096
O O6 0.065455 0.349848 0.229705
O O7 0.627761 0.803996 0.581273
O O8 0.597460 0.797030 0.854666
O O9 0.493251 0.869727 0.302823
O O10 0.584295 0.667953 0.474625
O O11 0.955598 0.740906 0.381910
O O12 0.795091 0.942786 0.862815
O O13 0.406844 0.915895 0.011652
O O14 0.849703 0.770156 0.098744
O O15 0.060149 0.886864 0.180763
O O16 0.500000 0.500000 0.500000
O O17 0.000000 0.500000 0.500000
#
# Coordination Sequence:
#
# PCOD8025309 Si02
#       8
#     2   2   2   2   2   2   2   2
#     4  11  23  42  68  99 138 188 231 280 342 410
#     4  11  27  43  68 101 143 185 234 282 340 423
#     4  12  26  48  69 104 145 184 231 289 356 412
#     4  11  26  42  67 102 143 183 229 295 346 424
#     4  10  23  44  73 102 134 182 235 297 351 415
#     4  10  23  45  73 101 135 178 242 292 351 415
#     4  12  26  42  67  99 139 189 235 279 344 409
#     4  11  21  44  69 103 137 180 238 288 349 414
#
# _framework density 23.627976
#
# number of rings (size 3 to 8) (size 9 to 14) (size 15 to 20)
#    0.000    1.000    3.750    1.875    3.500    4.500 
#    4.500    0.625    0.000    0.000    0.000    0.000 
#    0.000    0.000    0.000    0.000    0.000    0.000 
#
# Total GULP energy -198223.844989 kJ/mol
# GULP energy per Si atom -12388.990312 kJ/mol
# Density = 2.357420 g / cm^3
# Si number density = 23.627976 Si / 1000 Ang^3
#
#
#
# Elastic Constant Matrix: (Units=GPa)
#
#
# Indices 1 2 3 4 5 6 
#
# 1 91.5207 7.4979 23.8852 4.5086 -8.2208 9.0333
# 2 7.4979 61.3973 7.9792 -5.1055 -7.0641 12.1636
# 3 23.8852 7.9792 149.2623 5.7257 -17.2906 2.0633
# 4 4.5086 -5.1055 5.7257 35.4149 1.0579 -5.0547
# 5 -8.2208 -7.0641 -17.2906 1.0579 28.9937 -4.9078
# 6 9.0333 12.1636 2.0633 -5.0547 -4.9078 30.9211
#
#
#
# Elastic Compliance Matrix: (Units=1/GPa)
#
#
# Indices 1 2 3 4 5 6 
#
# 1 0.011950 -0.000570 -0.001552 -0.001861 0.001855 -0.003173
# 2 -0.000570 0.018127 -0.000534 0.001805 0.002823 -0.006185
# 3 -0.001552 -0.000534 0.007478 -0.001120 0.004036 0.000622
# 4 -0.001861 0.001805 -0.001120 0.029600 -0.001061 0.004579
# 5 0.001855 0.002823 0.004036 -0.001061 0.038838 0.004069
# 6 -0.003173 -0.006185 0.000622 0.004579 0.004069 0.037053
#
#
# Mechanical properties :
#
#
# Convention : Reuss Voigt Hill
#
# Bulk Modulus (GPa) = 31.01563 42.32276 36.66919
# Shear Modulus (GPa) = 31.42546 36.58713 34.00630
#
# Velocity S-wave (km/s) = 3.65089 3.93932 3.79785
# Velocity P-wave (km/s) = 5.56122 6.21627 5.89785
#
# Compressibility (1/GPa) = 0.03224181
#
# Stress axis : x y z
#
# Youngs Moduli (GPa) = 83.68475 55.16703 133.71906
#
# Poissons Ratio (x) = 0.03147 0.20748
# Poissons Ratio (y) = 0.04773 0.07147
# Poissons Ratio (z) = 0.12985 0.02948
#
# Static dielectric constant tensor:
#      x y z
#    x 4.027780 -0.032380 -0.235420 
#    y -0.032380 4.319010 -0.077180 
#    z -0.235420 -0.077180 4.713840 
# 
# 
# High freq. dielectric constant tensor:
#      x y z
#    x 1.920740 -0.001050 -0.009520 
#    y -0.001050 1.926250 -0.004160 
#    z -0.009520 -0.004160 1.954120 
# 
# From -- ./inp_files/111010.got.cif
#   From: 2010.06.25/outbox.cif.g09.slc.cpg/sg2_56_cif.got.tgz:111010.got - 2010.06.27 13:26:56.
