data_PCOD8025237
_publ_section_title
;
Structure prediction by ZEFSAII (Michael W. Deem and Ramdas Pophale) SiO2 
 PCOD8025237
Probable space group: P -1
;
_chemical_formula_sum "Si O2"
_cell_formula_units_Z 16
_cell_length_a 10.403108
_cell_length_b 11.901876
_cell_length_c 7.786469
_cell_angle_alpha 51.385065
_cell_angle_beta 60.230749
_cell_angle_gamma 82.809923
_cell_volume 629.177052
_symmetry_space_group_name_H-M "P -1"
_symmetry_group_IT_number 2
_symmetry_cell_setting 'triclinic'
loop_
_space_group_symop_operation_xyz
x,y,z
-x,-y,-z
loop_
_atom_site_type_symbol
_atom_site_label
_atom_site_fract_x
_atom_site_fract_y
_atom_site_fract_z
Si Si1 0.815684 0.803061 0.042036
Si Si2 0.644012 0.436678 0.961057
Si Si3 0.099383 0.014130 0.746719
Si Si4 0.819527 0.256938 0.497689
Si Si5 0.862368 0.520001 0.448932
Si Si6 0.614252 0.006974 0.073803
Si Si7 0.835821 0.705159 0.768675
Si Si8 0.643588 0.129967 0.391529
O O1 0.877403 0.691960 0.230502
O O2 0.685532 0.864276 0.164507
O O3 0.744934 0.730060 0.977500
O O4 0.968926 0.936625 0.768427
O O5 0.702144 0.453890 0.712649
O O6 0.774845 0.534492 0.909114
O O7 0.500000 0.500000 0.000000
O O8 0.598720 0.262260 0.197140
O O9 0.235973 0.931191 0.743325
O O10 0.184829 0.184277 0.476172
O O11 0.000000 0.000000 0.000000
O O12 0.844494 0.429980 0.367734
O O13 0.712844 0.202128 0.457893
O O14 0.986676 0.247848 0.343327
O O15 0.753330 0.156841 0.807743
O O16 0.000000 0.500000 0.500000
O O17 0.515393 0.999510 0.326368
O O18 0.500000 0.000000 0.000000
#
# Coordination Sequence:
#
# PCOD8025237 Si02
#       8
#     2   2   2   2   2   2   2   2
#     4  12  24  44  73 105 144 188 244 296 352 436
#     4  12  28  47  68 104 151 189 236 293 367 435
#     4  12  26  43  72 111 145 183 237 299 365 427
#     4  11  23  45  75 106 137 185 244 299 351 431
#     4  12  26  43  69 104 145 187 238 300 363 423
#     4  10  23  44  71 105 139 178 236 299 356 420
#     4  12  24  45  75 106 141 187 245 294 355 427
#     4  11  25  47  74 104 145 191 237 294 363 432
#
# _framework density 25.430042
#
# number of rings (size 3 to 8) (size 9 to 14) (size 15 to 20)
#    0.000    0.500    3.750    4.875    1.750    4.000 
#    0.000    6.250    0.000    0.000    0.000    0.000 
#    0.000    0.000    0.000    0.000    0.000    0.000 
#
# Total GULP energy -198346.660158 kJ/mol
# GULP energy per Si atom -12396.666260 kJ/mol
# Density = 2.537216 g / cm^3
# Si number density = 25.430042 Si / 1000 Ang^3
#
#
#
# Elastic Constant Matrix: (Units=GPa)
#
#
# Indices 1 2 3 4 5 6 
#
# 1 77.5024 19.0325 17.3043 -3.0776 -8.8818 -28.3465
# 2 19.0325 133.6719 38.6786 12.7836 -1.8389 -26.5173
# 3 17.3043 38.6786 120.6682 11.5399 -2.9007 -19.1517
# 4 -3.0776 12.7836 11.5399 53.3564 -5.1747 -2.3927
# 5 -8.8818 -1.8389 -2.9007 -5.1747 37.3573 -2.6889
# 6 -28.3465 -26.5173 -19.1517 -2.3927 -2.6889 47.1970
#
#
#
# Elastic Compliance Matrix: (Units=1/GPa)
#
#
# Indices 1 2 3 4 5 6 
#
# 1 0.017705 -0.000333 -0.000855 0.002261 0.005196 0.010510
# 2 -0.000333 0.009071 -0.002072 -0.001538 0.000281 0.003994
# 3 -0.000855 -0.002072 0.009567 -0.001488 0.000386 0.002151
# 4 0.002261 -0.001538 -0.001488 0.019920 0.003184 0.001081
# 5 0.005196 0.000281 0.000386 0.003184 0.028866 0.005241
# 6 0.010510 0.003994 0.002151 0.001081 0.005241 0.030970
#
#
# Mechanical properties :
#
#
# Convention : Reuss Voigt Hill
#
# Bulk Modulus (GPa) = 33.53279 53.54145 43.53712
# Shear Modulus (GPa) = 37.71840 44.70395 41.21117
#
# Velocity S-wave (km/s) = 3.85544 4.19730 4.03000
# Velocity P-wave (km/s) = 5.74753 6.67757 6.22993
#
# Compressibility (1/GPa) = 0.02982156
#
# Stress axis : x y z
#
# Youngs Moduli (GPa) = 56.48136 110.23837 104.52586
#
# Poissons Ratio (x) = 0.03673 0.08942
# Poissons Ratio (y) = 0.01882 0.21660
# Poissons Ratio (z) = 0.04832 0.22844
#
# Static dielectric constant tensor:
#      x y z
#    x 4.614890 0.091070 -0.221160 
#    y 0.091070 4.585940 0.131610 
#    z -0.221160 0.131610 4.935780 
# 
# 
# High freq. dielectric constant tensor:
#      x y z
#    x 2.014730 0.002480 -0.001920 
#    y 0.002480 2.031290 0.007320 
#    z -0.001920 0.007320 2.021640 
# 
# From -- ./inp_files/261424.got.cif
#   From: 2010.06.25/outbox.cif.g09.slc.cpg/sg2_131_cif.got.tgz:261424.got - 2010.06.27 13:26:56.
