data_PCOD8025948
_publ_section_title
;
Structure prediction by ZEFSAII (Michael W. Deem and Ramdas Pophale) SiO2 
 PCOD8025948
Probable space group: P -1
;
_chemical_formula_sum "Si O2"
_cell_formula_units_Z 16
_cell_length_a 11.079647
_cell_length_b 19.301025
_cell_length_c 17.744905
_cell_angle_alpha 21.763372
_cell_angle_beta 146.644557
_cell_angle_gamma 147.062265
_cell_volume 735.091350
_symmetry_space_group_name_H-M "P -1"
_symmetry_group_IT_number 2
_symmetry_cell_setting 'triclinic'
loop_
_space_group_symop_operation_xyz
x,y,z
-x,-y,-z
loop_
_atom_site_type_symbol
_atom_site_label
_atom_site_fract_x
_atom_site_fract_y
_atom_site_fract_z
Si Si1 0.969826 0.957285 0.141280
Si Si2 0.288815 0.271359 0.892329
Si Si3 0.694935 0.103811 0.276396
Si Si4 0.323845 0.812934 0.558015
Si Si5 0.977858 0.701432 0.620640
Si Si6 0.540310 0.674195 0.678133
Si Si7 0.755038 0.989843 0.149353
Si Si8 0.949433 0.295393 0.066537
O O1 0.774740 0.780690 0.175731
O O2 0.855619 0.028422 0.079922
O O3 0.180632 0.881973 0.349997
O O4 0.063008 0.150345 0.943391
O O5 0.347115 0.502122 0.707377
O O6 0.511041 0.211614 0.092972
O O7 0.804286 0.169839 0.185551
O O8 0.890866 0.148681 0.397292
O O9 0.570377 0.870331 0.447074
O O10 0.461480 0.689506 0.708472
O O11 0.154060 0.685877 0.661637
O O12 0.500000 0.000000 0.500000
O O13 0.775434 0.782119 0.401120
O O14 0.864830 0.485400 0.815215
O O15 0.780176 0.624527 0.853973
O O16 0.912239 0.163760 0.106269
O O17 0.500000 0.000000 0.000000
#
# Coordination Sequence:
#
# PCOD8025948 Si02
#       8
#     2   2   2   2   2   2   2   2
#     4  10  23  47  64  98 143 172 223 290 339 401
#     4  11  24  42  70  97 135 182 224 282 348 402
#     4  12  23  46  63 104 141 174 229 289 336 397
#     4  11  21  43  68  96 139 172 224 284 338 393
#     4  11  24  42  69  97 139 177 220 287 339 396
#     4  12  24  39  72 103 128 182 230 275 343 400
#     4  11  25  47  68  98 136 182 227 280 342 406
#     4  12  26  41  71 102 135 182 232 277 338 409
#
# _framework density 21.766000999999999
#
# number of rings (size 3 to 8) (size 9 to 14) (size 15 to 20)
#    0.000    0.750    5.000    2.250    1.750    1.500 
#    0.000    2.500    0.000    0.000    0.000    0.000 
#    0.000    0.000    0.000    0.000    0.000    0.000 
#
# Total GULP energy -198456.612409 kJ/mol
# GULP energy per Si atom -12403.538276 kJ/mol
# Density = 2.171646 g / cm^3
# Si number density = 21.766001 Si / 1000 Ang^3
#
#
#
# Elastic Constant Matrix: (Units=GPa)
#
#
# Indices 1 2 3 4 5 6 
#
# 1 135.4790 56.5963 44.0475 -8.1844 -7.7061 -10.0767
# 2 56.5963 122.8112 49.1844 -17.6574 -7.4217 -19.4362
# 3 44.0475 49.1844 111.8376 -9.8460 -1.4895 0.1666
# 4 -8.1844 -17.6574 -9.8460 40.0863 1.9857 8.2490
# 5 -7.7061 -7.4217 -1.4895 1.9857 34.3279 6.6417
# 6 -10.0767 -19.4362 0.1666 8.2490 6.6417 31.4190
#
#
#
# Elastic Compliance Matrix: (Units=1/GPa)
#
#
# Indices 1 2 3 4 5 6 
#
# 1 0.009655 -0.003346 -0.002344 -0.000317 0.001192 0.000870
# 2 -0.003346 0.012648 -0.004014 0.002649 0.000501 0.005971
# 3 -0.002344 -0.004014 0.011755 0.001396 -0.000267 -0.003607
# 4 -0.000317 0.002649 0.001396 0.027565 0.000075 -0.005723
# 5 0.001192 0.000501 -0.000267 0.000075 0.030612 -0.005797
# 6 0.000870 0.005971 -0.003607 -0.005723 -0.005797 0.038548
#
#
# Mechanical properties :
#
#
# Convention : Reuss Voigt Hill
#
# Bulk Modulus (GPa) = 68.26189 74.42046 71.34118
# Shear Modulus (GPa) = 32.24265 35.85330 34.04798
#
# Velocity S-wave (km/s) = 3.85298 4.06299 3.95938
# Velocity P-wave (km/s) = 7.15708 7.50173 7.33143
#
# Compressibility (1/GPa) = 0.01464946
#
# Stress axis : x y z
#
# Youngs Moduli (GPa) = 103.57714 79.06324 85.07287
#
# Poissons Ratio (x) = 0.26456 0.19943
# Poissons Ratio (y) = 0.34659 0.34144
# Poissons Ratio (z) = 0.24280 0.31732
#
# Static dielectric constant tensor:
#      x y z
#    x 4.286110 -0.021340 -0.138030 
#    y -0.021340 3.899970 0.080840 
#    z -0.138030 0.080840 3.939410 
# 
# 
# High freq. dielectric constant tensor:
#      x y z
#    x 1.867230 -0.005800 -0.002210 
#    y -0.005800 1.852560 0.003340 
#    z -0.002210 0.003340 1.850740 
# 
# From -- ./inp_files/570725.got.cif
#   From: 2010.06.25/outbox.cif.g09.slc.cpg/sg2_286_cif.got.tgz:570725.got - 2010.06.27 13:26:56.
