data_PCOD8025831
_publ_section_title
;
Structure prediction by ZEFSAII (Michael W. Deem and Ramdas Pophale) SiO2 
 PCOD8025831
Probable space group: P -1
;
_chemical_formula_sum "Si O2"
_cell_formula_units_Z 14
_cell_length_a 14.770942
_cell_length_b 7.751488
_cell_length_c 15.066901
_cell_angle_alpha 66.142939
_cell_angle_beta 30.864636
_cell_angle_gamma 49.454640
_cell_volume 618.151125
_symmetry_space_group_name_H-M "P -1"
_symmetry_group_IT_number 2
_symmetry_cell_setting 'triclinic'
loop_
_space_group_symop_operation_xyz
x,y,z
-x,-y,-z
loop_
_atom_site_type_symbol
_atom_site_label
_atom_site_fract_x
_atom_site_fract_y
_atom_site_fract_z
Si Si1 0.199113 0.045429 0.894312
Si Si2 0.997314 0.018683 0.237628
Si Si3 0.863836 0.994120 0.690658
Si Si4 0.759505 0.406421 0.086977
Si Si5 0.448018 0.885367 0.355715
Si Si6 0.783019 0.732184 0.685343
Si Si7 0.373768 0.457427 0.017258
O O1 0.310961 0.765605 0.832897
O O2 0.402564 0.059178 0.730135
O O3 0.027923 0.143951 0.104368
O O4 0.031266 0.231661 0.918158
O O5 0.989932 0.127336 0.316246
O O6 0.237616 0.740791 0.093538
O O7 0.767290 0.043951 0.417917
O O8 0.824418 0.811184 0.726990
O O9 0.647681 0.286205 0.816879
O O10 0.000000 0.000000 0.500000
O O11 0.606829 0.598623 0.254767
O O12 0.721431 0.549010 0.997571
O O13 0.359463 0.039629 0.308052
O O14 0.641825 0.656826 0.857486
O O15 0.000000 0.500000 0.500000
#
# Coordination Sequence:
#
# PCOD8025831 Si02
#       7
#     2   2   2   2   2   2   2
#     4  10  25  46  71  95 135 180 227 287 340 382
#     4  11  24  42  66  99 133 177 227 273 338 408
#     4  12  22  39  63  95 134 172 217 278 337 401
#     4  10  23  46  69  98 132 177 233 281 333 405
#     4  12  23  45  67 100 136 176 228 280 335 410
#     4  12  24  40  63  97 136 174 221 271 339 407
#     4  11  22  42  65  93 136 171 225 277 335 405
#
# _framework density 22.648181999999998
#
# number of rings (size 3 to 8) (size 9 to 14) (size 15 to 20)
#    0.000    0.857    4.286    2.143    2.000    5.143 
#    0.000    6.429    0.000    0.000    0.000    0.000 
#    0.000    0.000    0.000    0.000    0.000    0.000 
#
# Total GULP energy -173434.349149 kJ/mol
# GULP energy per Si atom -12388.167796 kJ/mol
# Density = 2.259663 g / cm^3
# Si number density = 22.648182 Si / 1000 Ang^3
#
#
#
# Elastic Constant Matrix: (Units=GPa)
#
#
# Indices 1 2 3 4 5 6 
#
# 1 115.2059 18.2557 38.5012 -2.8244 -22.0271 16.8860
# 2 18.2557 56.9197 30.4404 15.7320 -5.7133 0.2926
# 3 38.5012 30.4404 130.7756 3.7567 -10.2853 0.9742
# 4 -2.8244 15.7320 3.7567 31.7621 2.6552 17.4758
# 5 -22.0271 -5.7133 -10.2853 2.6552 31.0838 1.1490
# 6 16.8860 0.2926 0.9742 17.4758 1.1490 32.1825
#
#
#
# Elastic Compliance Matrix: (Units=1/GPa)
#
#
# Indices 1 2 3 4 5 6 
#
# 1 0.014103 -0.005381 -0.002507 0.011015 0.007735 -0.013532
# 2 -0.005381 0.027595 -0.004231 -0.021687 0.001178 0.014435
# 3 -0.002507 -0.004231 0.009396 0.000201 0.000503 0.000942
# 4 0.011015 -0.021687 0.000201 0.065985 -0.000220 -0.041411
# 5 0.007735 0.001178 0.000503 -0.000220 0.038251 -0.005331
# 6 -0.013532 0.014435 0.000942 -0.041411 -0.005331 0.060691
#
#
# Mechanical properties :
#
#
# Convention : Reuss Voigt Hill
#
# Bulk Modulus (GPa) = 37.23444 53.03287 45.13366
# Shear Modulus (GPa) = 20.06336 33.38594 26.72465
#
# Velocity S-wave (km/s) = 2.97959 3.84358 3.43883
# Velocity P-wave (km/s) = 5.32102 6.56995 5.97819
#
# Compressibility (1/GPa) = 0.02685685
#
# Stress axis : x y z
#
# Youngs Moduli (GPa) = 70.90748 36.23829 106.42470
#
# Poissons Ratio (x) = 0.19500 0.26678
# Poissons Ratio (y) = 0.38155 0.45028
# Poissons Ratio (z) = 0.17775 0.15332
#
# Static dielectric constant tensor:
#      x y z
#    x 4.365180 -0.231840 0.137450 
#    y -0.231840 4.000630 0.156500 
#    z 0.137450 0.156500 4.133530 
# 
# 
# High freq. dielectric constant tensor:
#      x y z
#    x 1.904890 -0.003060 0.008750 
#    y -0.003060 1.884140 0.009960 
#    z 0.008750 0.009960 1.890510 
# 
# From -- ./inp_files/178412.got.cif
#   From: 2010.06.25/outbox.cif.g09.slc.cpg/sg2_90_cif.got.tgz:178412.got - 2010.06.27 13:26:56.
