data_PCOD8025219
_publ_section_title
;
Structure prediction by ZEFSAII (Michael W. Deem and Ramdas Pophale) SiO2 
 PCOD8025219
Probable space group: P -1
;
_chemical_formula_sum "Si O2"
_cell_formula_units_Z 12
_cell_length_a 11.739941
_cell_length_b 11.944948
_cell_length_c 6.717828
_cell_angle_alpha 135.510135
_cell_angle_beta 122.051907
_cell_angle_gamma 45.732562
_cell_volume 471.740751
_symmetry_space_group_name_H-M "P -1"
_symmetry_group_IT_number 2
_symmetry_cell_setting 'triclinic'
loop_
_space_group_symop_operation_xyz
x,y,z
-x,-y,-z
loop_
_atom_site_type_symbol
_atom_site_label
_atom_site_fract_x
_atom_site_fract_y
_atom_site_fract_z
Si Si1 0.101208 0.398543 0.267242
Si Si2 0.461718 0.667404 0.959998
Si Si3 0.086195 0.694074 0.333167
Si Si4 0.379797 0.723170 0.522063
Si Si5 0.660413 0.805293 0.457882
Si Si6 0.785205 0.996500 0.592177
O O1 0.138676 0.528875 0.333373
O O2 0.272136 0.224851 0.292105
O O3 0.000000 0.500000 0.500000
O O4 0.011609 0.320507 0.959192
O O5 0.458605 0.728366 0.805465
O O6 0.491803 0.456507 0.726396
O O7 0.620239 0.647467 0.174061
O O8 0.290095 0.828221 0.098586
O O9 0.238703 0.687473 0.386103
O O10 0.971024 0.903407 0.594487
O O11 0.322451 0.915353 0.594225
O O12 0.500000 0.000000 0.500000
O O13 0.785187 0.810913 0.430083
#
# Coordination Sequence:
#
# PCOD8025219 Si02
#       6
#     2   2   2   2   2   2
#     4  11  23  45  70  99 143 179 233 285 343 413
#     4  10  25  46  66  99 141 191 226 275 355 408
#     4  11  26  42  73 105 132 186 234 282 352 401
#     4  11  25  44  69 100 145 181 227 284 346 427
#     4  10  23  44  71 100 134 182 231 284 338 406
#     4  11  24  44  68 104 136 180 230 290 341 403
#
# _framework density 25.4377
#
# number of rings (size 3 to 8) (size 9 to 14) (size 15 to 20)
#    0.000    1.333    1.667    2.000    7.000    9.333 
#    0.000    0.000    0.000    0.000    0.000    0.000 
#    0.000    0.000    0.000    0.000    0.000    0.000 
#
# Total GULP energy -148669.715283 kJ/mol
# GULP energy per Si atom -12389.142940 kJ/mol
# Density = 2.537980 g / cm^3
# Si number density = 25.437700 Si / 1000 Ang^3
#
#
#
# Elastic Constant Matrix: (Units=GPa)
#
#
# Indices 1 2 3 4 5 6 
#
# 1 59.9426 20.4297 51.5277 -4.2395 -17.3836 -2.0124
# 2 20.4297 141.5406 38.3663 -31.3270 -1.5206 10.3705
# 3 51.5277 38.3663 94.8427 -17.0107 -0.7714 -4.5980
# 4 -4.2395 -31.3270 -17.0107 47.9826 -18.4727 -10.1264
# 5 -17.3836 -1.5206 -0.7714 -18.4727 24.0978 4.1498
# 6 -2.0124 10.3705 -4.5980 -10.1264 4.1498 42.4999
#
#
#
# Elastic Compliance Matrix: (Units=1/GPa)
#
#
# Indices 1 2 3 4 5 6 
#
# 1 0.058265 0.004593 -0.029849 0.018596 0.056074 -0.002636
# 2 0.004593 0.009980 -0.004893 0.009085 0.011036 -0.001660
# 3 -0.029849 -0.004893 0.027862 -0.004858 -0.025382 0.004116
# 4 0.018596 0.009085 -0.004858 0.046335 0.048588 0.004434
# 5 0.056074 0.011036 -0.025382 0.048588 0.119574 -0.002882
# 6 -0.002636 -0.001660 0.004116 0.004434 -0.002882 0.025593
#
#
# Mechanical properties :
#
#
# Convention : Reuss Voigt Hill
#
# Bulk Modulus (GPa) = 27.92808 57.44147 42.68478
# Shear Modulus (GPa) = 13.89491 35.31622 24.60556
#
# Velocity S-wave (km/s) = 2.33970 3.73009 3.11350
# Velocity P-wave (km/s) = 4.27806 6.41729 5.45360
#
# Compressibility (1/GPa) = 0.03580625
#
# Stress axis : x y z
#
# Youngs Moduli (GPa) = 17.16301 100.20463 35.89099
#
# Poissons Ratio (x) = -0.46019 1.07132
# Poissons Ratio (y) = -0.07882 0.17563
# Poissons Ratio (z) = 0.51230 0.49034
#
# Static dielectric constant tensor:
#      x y z
#    x 5.325900 -0.029270 0.337150 
#    y -0.029270 5.074510 -0.261410 
#    z 0.337150 -0.261410 5.133520 
# 
# 
# High freq. dielectric constant tensor:
#      x y z
#    x 2.011090 -0.000850 -0.018450 
#    y -0.000850 2.041120 -0.011150 
#    z -0.018450 -0.011150 1.999360 
# 
# From -- ./inp_files/39400.got.cif
#   From: 2010.06.25/outbox.cif.g09.slc.cpg/sg2_20_cif.got.tgz:39400.got - 2010.06.27 13:26:56.
