data_PCOD8025949
_publ_section_title
;
Structure prediction by ZEFSAII (Michael W. Deem and Ramdas Pophale) SiO2 
 PCOD8025949
Probable space group: P -1
;
_chemical_formula_sum "Si O2"
_cell_formula_units_Z 16
_cell_length_a 8.977113
_cell_length_b 14.200170
_cell_length_c 10.867405
_cell_angle_alpha 106.819647
_cell_angle_beta 78.205658
_cell_angle_gamma 151.489187
_cell_volume 629.186611
_symmetry_space_group_name_H-M "P -1"
_symmetry_group_IT_number 2
_symmetry_cell_setting 'triclinic'
loop_
_space_group_symop_operation_xyz
x,y,z
-x,-y,-z
loop_
_atom_site_type_symbol
_atom_site_label
_atom_site_fract_x
_atom_site_fract_y
_atom_site_fract_z
Si Si1 0.270619 0.796268 0.530508
Si Si2 0.620362 0.833165 0.631947
Si Si3 0.414939 0.529825 0.422321
Si Si4 0.552266 0.558614 0.869643
Si Si5 0.348780 0.650698 0.866070
Si Si6 0.232932 0.195606 0.807917
Si Si7 0.782971 0.990512 0.101560
Si Si8 0.293172 0.691395 0.254331
O O1 0.456314 0.841326 0.620402
O O2 0.157456 0.658100 0.390082
O O3 0.963055 0.671306 0.592751
O O4 0.500000 0.000000 0.500000
O O5 0.600264 0.737108 0.495297
O O6 0.452502 0.692185 0.725046
O O7 0.977180 0.063102 0.693734
O O8 0.500000 0.500000 0.500000
O O9 0.536867 0.553803 0.282214
O O10 0.382312 0.567454 0.903154
O O11 0.358041 0.369313 0.920567
O O12 0.930523 0.776947 0.890528
O O13 0.986033 0.479574 0.862163
O O14 0.559424 0.854749 0.969325
O O15 0.550387 0.325713 0.747558
O O16 0.093162 0.048853 0.887862
O O17 0.569863 0.912195 0.222278
#
# Coordination Sequence:
#
# PCOD8025949 Si02
#       8
#     2   2   2   2   2   2   2   2
#     4  12  27  42  68 102 144 180 231 286 342 424
#     4  12  26  44  70 105 141 185 230 286 353 408
#     4  12  24  44  69 102 139 181 229 282 352 415
#     4  12  24  44  70 101 138 183 229 282 348 408
#     4  12  23  46  74  99 139 184 229 291 342 414
#     4  10  26  45  69 103 138 184 230 283 344 418
#     4  10  24  48  70  99 141 182 233 286 347 402
#     4  10  23  47  65 102 137 183 228 285 350 397
#
# _framework density 25.429658
#
# number of rings (size 3 to 8) (size 9 to 14) (size 15 to 20)
#    0.750    0.000    3.750    2.625    7.000    1.500 
#    0.000    0.625    0.000    0.000    0.000    0.000 
#    0.000    0.000    0.000    0.000    0.000    0.000 
#
# Total GULP energy -198378.875929 kJ/mol
# GULP energy per Si atom -12398.679746 kJ/mol
# Density = 2.537178 g / cm^3
# Si number density = 25.429658 Si / 1000 Ang^3
#
#
#
# Elastic Constant Matrix: (Units=GPa)
#
#
# Indices 1 2 3 4 5 6 
#
# 1 111.2982 32.5525 7.7705 12.5824 24.9400 19.5174
# 2 32.5525 137.2567 27.8293 26.3869 12.8179 6.2950
# 3 7.7705 27.8293 70.6325 12.1452 13.9726 10.9573
# 4 12.5824 26.3869 12.1452 53.8052 3.2121 8.3084
# 5 24.9400 12.8179 13.9726 3.2121 38.0739 8.1054
# 6 19.5174 6.2950 10.9573 8.3084 8.1054 48.5874
#
#
#
# Elastic Compliance Matrix: (Units=1/GPa)
#
#
# Indices 1 2 3 4 5 6 
#
# 1 0.011736 -0.002102 0.001605 -0.001136 -0.006730 -0.003487
# 2 -0.002102 0.009011 -0.002772 -0.003420 -0.000560 0.000980
# 3 0.001605 -0.002772 0.016971 -0.002077 -0.005569 -0.002829
# 4 -0.001136 -0.003420 -0.002077 0.021301 0.001394 -0.002507
# 5 -0.006730 -0.000560 -0.005569 0.001394 0.033158 -0.001738
# 6 -0.003487 0.000980 -0.002829 -0.002507 -0.001738 0.023212
#
#
# Mechanical properties :
#
#
# Convention : Reuss Voigt Hill
#
# Bulk Modulus (GPa) = 32.07350 50.61022 41.34186
# Shear Modulus (GPa) = 37.78712 44.82896 41.30804
#
# Velocity S-wave (km/s) = 3.85898 4.20320 4.03476
# Velocity P-wave (km/s) = 5.70050 6.59554 6.16428
#
# Compressibility (1/GPa) = 0.03117839
#
# Stress axis : x y z
#
# Youngs Moduli (GPa) = 85.21087 110.97603 58.92351
#
# Poissons Ratio (x) = 0.23326 -0.09455
# Poissons Ratio (y) = 0.17910 0.16336
# Poissons Ratio (z) = -0.13673 0.30768
#
# Static dielectric constant tensor:
#      x y z
#    x 4.516200 -0.015070 0.051310 
#    y -0.015070 4.694820 -0.011490 
#    z 0.051310 -0.011490 5.063930 
# 
# 
# High freq. dielectric constant tensor:
#      x y z
#    x 1.994680 0.003500 0.009340 
#    y 0.003500 2.031950 -0.004080 
#    z 0.009340 -0.004080 2.049130 
# 
# From -- ./inp_files/399293.got.cif
#   From: 2010.06.25/outbox.cif.g09.slc.cpg/sg2_200_cif.got.tgz:399293.got - 2010.06.27 13:26:56.
