data_PCOD8025567
_publ_section_title
;
Structure prediction by ZEFSAII (Michael W. Deem and Ramdas Pophale) SiO2 
 PCOD8025567
Probable space group: P -1
;
_chemical_formula_sum "Si O2"
_cell_formula_units_Z 16
_cell_length_a 8.576962
_cell_length_b 9.789663
_cell_length_c 14.169972
_cell_angle_alpha 95.702970
_cell_angle_beta 41.735847
_cell_angle_gamma 103.644966
_cell_volume 764.261277
_symmetry_space_group_name_H-M "P -1"
_symmetry_group_IT_number 2
_symmetry_cell_setting 'triclinic'
loop_
_space_group_symop_operation_xyz
x,y,z
-x,-y,-z
loop_
_atom_site_type_symbol
_atom_site_label
_atom_site_fract_x
_atom_site_fract_y
_atom_site_fract_z
Si Si1 0.537703 0.608783 0.574817
Si Si2 0.396315 0.909606 0.325712
Si Si3 0.209177 0.431564 0.867190
Si Si4 0.486404 0.613079 0.093144
Si Si5 0.359960 0.095894 0.513361
Si Si6 0.115614 0.130344 0.805751
Si Si7 0.941663 0.375592 0.591976
Si Si8 0.602689 0.936466 0.038174
O O1 0.500000 0.500000 0.500000
O O2 0.382390 0.544715 0.730265
O O3 0.465387 0.750453 0.580400
O O4 0.817687 0.658385 0.479600
O O5 0.653766 0.902438 0.250757
O O6 0.215317 0.756787 0.403550
O O7 0.438927 0.960338 0.202154
O O8 0.275378 0.016437 0.447029
O O9 0.354804 0.400404 0.889103
O O10 0.095189 0.287790 0.851864
O O11 0.000000 0.500000 0.000000
O O12 0.208175 0.586059 0.249053
O O13 0.584125 0.770515 0.018040
O O14 0.500000 0.500000 0.000000
O O15 0.139916 0.118367 0.679855
O O16 0.500000 0.000000 0.500000
O O17 0.879135 0.016269 0.938623
O O18 0.000000 0.500000 0.500000
O O19 0.500000 0.000000 0.000000
#
# Coordination Sequence:
#
# PCOD8025567 Si02
#       8
#     2   2   2   2   2   2   2   2
#     4  12  26  45  73 104 138 190 232 288 354 416
#     4  10  23  45  69  98 139 182 231 284 350 409
#     4  12  27  44  73 104 140 183 238 289 351 422
#     4  11  27  47  67 106 142 183 235 290 350 414
#     4  10  25  42  71 102 139 175 235 282 347 416
#     4  11  22  47  68  99 141 182 233 284 349 417
#     4  11  23  46  73  97 142 184 232 292 348 411
#     4  11  26  42  70  98 141 186 226 283 349 411
#
# _framework density 20.935248000000001
#
# number of rings (size 3 to 8) (size 9 to 14) (size 15 to 20)
#    0.000    1.000    5.000    0.375   10.500    2.500 
#    0.000    0.000    0.000    0.000    0.000    0.000 
#    0.000    0.000    0.000    0.000    0.000    0.000 
#
# Total GULP energy -198421.351999 kJ/mol
# GULP energy per Si atom -12401.334500 kJ/mol
# Density = 2.088760 g / cm^3
# Si number density = 20.935248 Si / 1000 Ang^3
#
#
#
# Elastic Constant Matrix: (Units=GPa)
#
#
# Indices 1 2 3 4 5 6 
#
# 1 103.2221 59.9990 55.0513 -8.6684 6.4424 1.4915
# 2 59.9990 186.7689 95.7706 -5.3318 22.7370 12.0522
# 3 55.0513 95.7706 148.7591 -1.3237 11.2136 14.5936
# 4 -8.6684 -5.3318 -1.3237 52.4462 7.0278 9.9135
# 5 6.4424 22.7370 11.2136 7.0278 43.6079 1.0157
# 6 1.4915 12.0522 14.5936 9.9135 1.0157 43.3025
#
#
#
# Elastic Compliance Matrix: (Units=1/GPa)
#
#
# Indices 1 2 3 4 5 6 
#
# 1 0.013024 -0.002512 -0.003280 0.001636 -0.000058 0.000983
# 2 -0.002512 0.008952 -0.004474 0.001022 -0.003286 -0.001054
# 3 -0.003280 -0.004474 0.011033 -0.000296 0.000081 -0.002294
# 4 0.001636 0.001022 -0.000296 0.020896 -0.003951 -0.004932
# 5 -0.000058 -0.003286 0.000081 -0.003951 0.025241 0.001202
# 6 0.000983 -0.001054 -0.002294 -0.004932 0.001202 0.025227
#
#
# Mechanical properties :
#
#
# Convention : Reuss Voigt Hill
#
# Bulk Modulus (GPa) = 80.14262 95.59910 87.87086
# Shear Modulus (GPa) = 38.74037 43.06661 40.90349
#
# Velocity S-wave (km/s) = 4.30639 4.54048 4.42499
# Velocity P-wave (km/s) = 7.94298 8.55870 8.25658
#
# Compressibility (1/GPa) = 0.01247775
#
# Stress axis : x y z
#
# Youngs Moduli (GPa) = 76.78107 111.70221 90.63886
#
# Poissons Ratio (x) = 0.28054 0.29733
# Poissons Ratio (y) = 0.19284 0.40550
# Poissons Ratio (z) = 0.25187 0.49974
#
# Static dielectric constant tensor:
#      x y z
#    x 3.814030 -0.024430 0.479650 
#    y -0.024430 4.138470 -0.016810 
#    z 0.479650 -0.016810 3.547560 
# 
# 
# High freq. dielectric constant tensor:
#      x y z
#    x 1.819630 0.001930 0.014050 
#    y 0.001930 1.833890 -0.003890 
#    z 0.014050 -0.003890 1.830560 
# 
# From -- ./inp_files/495036.got.cif
#   From: 2010.06.25/outbox.cif.g09.slc.cpg/sg2_248_cif.got.tgz:495036.got - 2010.06.27 13:26:56.
