data_PCOD8025051
_publ_section_title
;
Structure prediction by ZEFSAII (Michael W. Deem and Ramdas Pophale) SiO2 
 PCOD8025051
Probable space group: P -1
;
_chemical_formula_sum "Si O2"
_cell_formula_units_Z 16
_cell_length_a 9.075930
_cell_length_b 11.507964
_cell_length_c 12.041615
_cell_angle_alpha 129.704024
_cell_angle_beta 128.415200
_cell_angle_gamma 61.527209
_cell_volume 751.477847
_symmetry_space_group_name_H-M "P -1"
_symmetry_group_IT_number 2
_symmetry_cell_setting 'triclinic'
loop_
_space_group_symop_operation_xyz
x,y,z
-x,-y,-z
loop_
_atom_site_type_symbol
_atom_site_label
_atom_site_fract_x
_atom_site_fract_y
_atom_site_fract_z
Si Si1 0.388492 0.629845 0.812201
Si Si2 0.788156 0.074865 0.455165
Si Si3 0.155825 0.094819 0.170680
Si Si4 0.691230 0.392466 0.487167
Si Si5 0.041515 0.577578 0.759610
Si Si6 0.516600 0.043665 0.904683
Si Si7 0.644849 0.415285 0.926078
Si Si8 0.322578 0.920758 0.345256
O O1 0.348840 0.665561 0.688524
O O2 0.215459 0.550478 0.736330
O O3 0.585645 0.512781 0.846167
O O4 0.416568 0.790446 0.980206
O O5 0.729935 0.245414 0.490939
O O6 0.771130 0.094117 0.590242
O O7 0.671920 0.961993 0.261025
O O8 0.000000 0.000000 0.500000
O O9 0.081795 0.270216 0.244715
O O10 0.330308 0.079045 0.157551
O O11 0.195683 0.039152 0.280139
O O12 0.000000 0.000000 0.000000
O O13 0.500000 0.500000 0.500000
O O14 0.891316 0.458972 0.619649
O O15 0.138033 0.580519 0.929289
O O16 0.500000 0.000000 0.000000
O O17 0.620001 0.239853 0.788097
O O18 0.500000 0.500000 0.000000
O O19 0.500000 0.000000 0.500000
#
# Coordination Sequence:
#
# PCOD8025051 Si02
#       8
#     2   2   2   2   2   2   2   2
#     4  11  24  44  73 101 139 190 245 297 367 434
#     4  12  30  47  71 111 153 196 248 306 382 436
#     4  12  23  45  73 106 137 184 249 296 364 435
#     4  12  27  50  67 104 149 193 242 300 376 449
#     4  11  25  43  75 102 140 184 246 298 360 444
#     4  12  25  47  72 105 147 194 238 307 370 444
#     4  10  23  44  68 109 140 184 244 303 369 429
#     4  12  26  46  76 105 150 193 249 311 360 443
#
# _framework density 21.29138
#
# number of rings (size 3 to 8) (size 9 to 14) (size 15 to 20)
#    0.000    0.500    5.000    2.625    7.000    1.000 
#    0.000    1.250    0.000    0.000    0.000    0.000 
#    0.000    0.000    0.000    0.000    0.000    0.000 
#
# Total GULP energy -198252.586528 kJ/mol
# GULP energy per Si atom -12390.786658 kJ/mol
# Density = 2.124292 g / cm^3
# Si number density = 21.291380 Si / 1000 Ang^3
#
#
#
# Elastic Constant Matrix: (Units=GPa)
#
#
# Indices 1 2 3 4 5 6 
#
# 1 117.8732 50.8520 54.6131 -13.9123 -2.9417 1.4376
# 2 50.8520 151.9495 57.8741 -23.9532 0.0938 -8.4191
# 3 54.6131 57.8741 150.1279 -14.7353 5.4076 -2.6026
# 4 -13.9123 -23.9532 -14.7353 46.2859 6.3316 -2.6265
# 5 -2.9417 0.0938 5.4076 6.3316 38.1361 -4.3875
# 6 1.4376 -8.4191 -2.6026 -2.6265 -4.3875 33.7027
#
#
#
# Elastic Compliance Matrix: (Units=1/GPa)
#
#
# Indices 1 2 3 4 5 6 
#
# 1 0.011113 -0.002479 -0.003057 0.000880 0.001021 -0.001128
# 2 -0.002479 0.008887 -0.002149 0.003331 -0.000186 0.002395
# 3 -0.003057 -0.002149 0.008759 0.000987 -0.001621 0.000136
# 4 0.000880 0.003331 0.000987 0.024570 -0.003897 0.002278
# 5 0.001021 -0.000186 -0.001621 -0.003897 0.027531 0.003065
# 6 -0.001128 0.002395 0.000136 0.002278 0.003065 0.030905
#
#
# Mechanical properties :
#
#
# Convention : Reuss Voigt Hill
#
# Bulk Modulus (GPa) = 74.68684 82.95877 78.82280
# Shear Modulus (GPa) = 37.99478 40.73236 39.36357
#
# Velocity S-wave (km/s) = 4.22893 4.37864 4.30444
# Velocity P-wave (km/s) = 7.68113 8.03812 7.86165
#
# Compressibility (1/GPa) = 0.01338924
#
# Stress axis : x y z
#
# Youngs Moduli (GPa) = 89.98808 112.52045 114.16824
#
# Poissons Ratio (x) = 0.27895 0.34898
# Poissons Ratio (y) = 0.22309 0.24535
# Poissons Ratio (z) = 0.27507 0.24181
#
# Static dielectric constant tensor:
#      x y z
#    x 1.490700 0.156280 -1.137670 
#    y 0.156280 4.228470 -0.321150 
#    z -1.137670 -0.321150 3.435080 
# 
# 
# High freq. dielectric constant tensor:
#      x y z
#    x 1.826990 0.001480 0.002140 
#    y 0.001480 1.854870 -0.013690 
#    z 0.002140 -0.013690 1.856200 
# 
# From -- ./inp_files/226489.got.cif
#   From: 2010.06.25/outbox.cif.g09.slc.cpg/sg2_114_cif.got.tgz:226489.got - 2010.06.27 13:26:56.
