data_PCOD8025575
_publ_section_title
;
Structure prediction by ZEFSAII (Michael W. Deem and Ramdas Pophale) SiO2 
 PCOD8025575
Probable space group: P -1
;
_chemical_formula_sum "Si O2"
_cell_formula_units_Z 16
_cell_length_a 11.061772
_cell_length_b 7.602081
_cell_length_c 15.460251
_cell_angle_alpha 47.404180
_cell_angle_beta 77.200725
_cell_angle_gamma 51.713948
_cell_volume 705.827136
_symmetry_space_group_name_H-M "P -1"
_symmetry_group_IT_number 2
_symmetry_cell_setting 'triclinic'
loop_
_space_group_symop_operation_xyz
x,y,z
-x,-y,-z
loop_
_atom_site_type_symbol
_atom_site_label
_atom_site_fract_x
_atom_site_fract_y
_atom_site_fract_z
Si Si1 0.710302 0.365819 0.750539
Si Si2 0.013536 0.741239 0.706239
Si Si3 0.964472 0.875252 0.288925
Si Si4 0.482735 0.310189 0.170792
Si Si5 0.311351 0.515643 0.959649
Si Si6 0.206889 0.373623 0.632113
Si Si7 0.332416 0.664337 0.421845
Si Si8 0.153648 0.280195 0.986330
O O1 0.579023 0.672424 0.727957
O O2 0.626546 0.367515 0.676249
O O3 0.852958 0.364821 0.698202
O O4 0.778489 0.071881 0.900373
O O5 0.099512 0.642339 0.632526
O O6 0.050216 0.944311 0.682762
O O7 0.089666 0.420976 0.853078
O O8 0.814843 0.963177 0.655686
O O9 0.901960 0.686778 0.380686
O O10 0.856107 0.127721 0.145877
O O11 0.536066 0.522248 0.088751
O O12 0.633517 0.947814 0.243509
O O13 0.338252 0.438720 0.083027
O O14 0.299055 0.278460 0.991309
O O15 0.262240 0.491332 0.512282
O O16 0.500000 0.500000 0.500000
O O17 0.000000 0.500000 0.000000
#
# Coordination Sequence:
#
# PCOD8025575 Si02
#       8
#     2   2   2   2   2   2   2   2
#     4  11  24  42  66  99 134 169 221 277 328 392
#     4  10  23  45  70 100 127 176 226 268 330 393
#     4   9  21  43  65  98 127 173 222 269 322 394
#     4  10  24  40  60 101 135 170 215 268 331 398
#     4   9  20  39  58  93 138 167 214 257 328 400
#     4  11  25  44  68  93 134 183 219 268 329 389
#     4  11  26  45  68  99 131 172 226 275 325 394
#     4  11  20  39  69  97 133 171 212 275 334 387
#
# _framework density 22.668441999999999
#
# number of rings (size 3 to 8) (size 9 to 14) (size 15 to 20)
#    0.000    1.750    3.750    0.375    7.000    8.500 
#    0.000    1.250    0.000    0.000    0.000    0.000 
#    0.000    0.000    0.000    0.000    0.000    0.000 
#
# Total GULP energy -198371.980072 kJ/mol
# GULP energy per Si atom -12398.248755 kJ/mol
# Density = 2.261685 g / cm^3
# Si number density = 22.668442 Si / 1000 Ang^3
#
#
#
# Elastic Constant Matrix: (Units=GPa)
#
#
# Indices 1 2 3 4 5 6 
#
# 1 99.8802 28.2669 44.3673 -10.3173 8.6251 -7.0247
# 2 28.2669 125.6337 33.5899 13.8422 16.0812 -7.6438
# 3 44.3673 33.5899 99.6313 0.1661 14.2397 -1.7553
# 4 -10.3173 13.8422 0.1661 24.3928 -4.1113 -3.1966
# 5 8.6251 16.0812 14.2397 -4.1113 44.9080 -7.4024
# 6 -7.0247 -7.6438 -1.7553 -3.1966 -7.4024 19.6155
#
#
#
# Elastic Compliance Matrix: (Units=1/GPa)
#
#
# Indices 1 2 3 4 5 6 
#
# 1 0.014412 -0.002529 -0.005719 0.008600 0.001678 0.005699
# 2 -0.002529 0.010278 -0.001861 -0.007358 -0.003191 0.000530
# 3 -0.005719 -0.001861 0.013632 -0.002432 -0.003307 -0.003198
# 4 0.008600 -0.007358 -0.002432 0.051762 0.008406 0.011602
# 5 0.001678 -0.003191 -0.003307 0.008406 0.026634 0.010482
# 6 0.005699 0.000530 -0.003198 0.011602 0.010482 0.058788
#
#
# Mechanical properties :
#
#
# Convention : Reuss Voigt Hill
#
# Bulk Modulus (GPa) = 55.23960 59.73261 57.48611
# Shear Modulus (GPa) = 24.78210 32.37800 28.58005
#
# Velocity S-wave (km/s) = 3.31001 3.78342 3.55461
# Velocity P-wave (km/s) = 6.24737 6.74489 6.50089
#
# Compressibility (1/GPa) = 0.01810295
#
# Stress axis : x y z
#
# Youngs Moduli (GPa) = 69.38447 97.29911 73.35861
#
# Poissons Ratio (x) = 0.24609 0.41954
# Poissons Ratio (y) = 0.17549 0.13653
# Poissons Ratio (z) = 0.39682 0.18108
#
# Static dielectric constant tensor:
#      x y z
#    x 4.247760 -0.113350 0.080280 
#    y -0.113350 3.924460 -0.189990 
#    z 0.080280 -0.189990 4.345330 
# 
# 
# High freq. dielectric constant tensor:
#      x y z
#    x 1.889800 -0.010020 0.005980 
#    y -0.010020 1.874190 -0.003570 
#    z 0.005980 -0.003570 1.904410 
# 
# From -- ./inp_files/515061.got.cif
#   From: 2010.06.25/outbox.cif.g09.slc.cpg/sg2_258_cif.got.tgz:515061.got - 2010.06.27 13:26:56.
