data_PCOD8025423
_publ_section_title
;
Structure prediction by ZEFSAII (Michael W. Deem and Ramdas Pophale) SiO2 
 PCOD8025423
Probable space group: P -1
;
_chemical_formula_sum "Si O2"
_cell_formula_units_Z 16
_cell_length_a 17.078688
_cell_length_b 20.785939
_cell_length_c 10.832105
_cell_angle_alpha 39.622211
_cell_angle_beta 32.041769
_cell_angle_gamma 20.516102
_cell_volume 709.199499
_symmetry_space_group_name_H-M "P -1"
_symmetry_group_IT_number 2
_symmetry_cell_setting 'triclinic'
loop_
_space_group_symop_operation_xyz
x,y,z
-x,-y,-z
loop_
_atom_site_type_symbol
_atom_site_label
_atom_site_fract_x
_atom_site_fract_y
_atom_site_fract_z
Si Si1 0.836566 0.520478 0.986483
Si Si2 0.619525 0.211813 0.192824
Si Si3 0.348699 0.034952 0.537059
Si Si4 0.103553 0.568170 0.502583
Si Si5 0.439993 0.416917 0.509655
Si Si6 0.829253 0.064512 0.379710
Si Si7 0.401127 0.665772 0.199890
Si Si8 0.562311 0.897051 0.187215
O O1 0.674824 0.592685 0.221053
O O2 0.647798 0.594298 0.016961
O O3 0.880648 0.613987 0.774280
O O4 0.117154 0.299784 0.939970
O O5 0.644922 0.089553 0.270030
O O6 0.852457 0.090840 0.166809
O O7 0.320473 0.389222 0.390068
O O8 0.640259 0.293912 0.950539
O O9 0.463584 0.998958 0.300051
O O10 0.500000 0.000000 0.500000
O O11 0.044525 0.253480 0.629889
O O12 0.237405 0.539311 0.486107
O O13 0.735204 0.208220 0.382632
O O14 0.471837 0.512371 0.374622
O O15 0.587785 0.121793 0.611319
O O16 0.110571 0.862058 0.357857
O O17 0.500000 0.000000 0.000000
#
# Coordination Sequence:
#
# PCOD8025423 Si02
#       8
#     2   2   2   2   2   2   2   2
#     4  12  24  44  69 102 140 170 229 294 341 393
#     4  10  23  45  66  96 141 175 231 274 340 410
#     4  11  23  38  65 102 138 171 224 286 351 397
#     4  11  23  43  73  99 130 181 230 285 331 409
#     4  11  24  44  69  97 133 183 233 269 340 422
#     4  10  23  45  66  97 133 178 229 275 331 416
#     4  12  26  42  68  98 142 182 214 291 347 395
#     4  11  23  44  71  98 137 183 229 284 339 411
#
# _framework density 22.560645999999998
#
# number of rings (size 3 to 8) (size 9 to 14) (size 15 to 20)
#    0.000    1.000    3.750    4.875    3.500    4.500 
#    2.250    0.000    0.000    0.000    0.000    0.000 
#    0.000    0.000    0.000    0.000    0.000    0.000 
#
# Total GULP energy -198400.266704 kJ/mol
# GULP energy per Si atom -12400.016669 kJ/mol
# Density = 2.250930 g / cm^3
# Si number density = 22.560646 Si / 1000 Ang^3
#
#
#
# Elastic Constant Matrix: (Units=GPa)
#
#
# Indices 1 2 3 4 5 6 
#
# 1 70.8401 37.8620 13.1101 6.3872 1.8690 -4.9207
# 2 37.8620 119.8246 18.4359 -1.1417 -3.8128 3.6786
# 3 13.1101 18.4359 63.2166 -7.7763 -3.1141 -1.6059
# 4 6.3872 -1.1417 -7.7763 22.0315 -6.5270 -7.4460
# 5 1.8690 -3.8128 -3.1141 -6.5270 26.7394 -0.9286
# 6 -4.9207 3.6786 -1.6059 -7.4460 -0.9286 28.7237
#
#
#
# Elastic Compliance Matrix: (Units=1/GPa)
#
#
# Indices 1 2 3 4 5 6 
#
# 1 0.018660 -0.005643 -0.003330 -0.007601 -0.004296 0.001624
# 2 -0.005643 0.010522 -0.001660 0.001533 0.002008 -0.001945
# 3 -0.003330 -0.001660 0.018539 0.009972 0.004708 0.003416
# 4 -0.007601 0.001533 0.009972 0.061652 0.017502 0.015607
# 5 -0.004296 0.002008 0.004708 0.017502 0.042986 0.005197
# 6 0.001624 -0.001945 0.003416 0.015607 0.005197 0.039747
#
#
# Mechanical properties :
#
#
# Convention : Reuss Voigt Hill
#
# Bulk Modulus (GPa) = 37.79943 43.63304 40.71623
# Shear Modulus (GPa) = 22.50337 27.79711 25.15024
#
# Velocity S-wave (km/s) = 3.16169 3.51395 3.34246
# Velocity P-wave (km/s) = 5.48811 5.98716 5.74306
#
# Compressibility (1/GPa) = 0.02645543
#
# Stress axis : x y z
#
# Youngs Moduli (GPa) = 53.59096 95.03721 53.94144
#
# Poissons Ratio (x) = 0.53628 0.17960
# Poissons Ratio (y) = 0.30240 0.08956
# Poissons Ratio (z) = 0.17843 0.15779
#
# Static dielectric constant tensor:
#      x y z
#    x 4.033230 -0.113300 0.193240 
#    y -0.113300 4.237250 0.020170 
#    z 0.193240 0.020170 4.117370 
# 
# 
# High freq. dielectric constant tensor:
#      x y z
#    x 1.880320 -0.005310 0.006670 
#    y -0.005310 1.908160 0.002570 
#    z 0.006670 0.002570 1.888140 
# 
# From -- ./inp_files/467084.got.cif
#   From: 2010.06.25/outbox.cif.g09.slc.cpg/sg2_234_cif.got.tgz:467084.got - 2010.06.27 13:26:56.
