data_PCOD8025857
_publ_section_title
;
Structure prediction by ZEFSAII (Michael W. Deem and Ramdas Pophale) SiO2 
 PCOD8025857
Probable space group: P -1
;
_chemical_formula_sum "Si O2"
_cell_formula_units_Z 16
_cell_length_a 15.663039
_cell_length_b 9.183411
_cell_length_c 16.092782
_cell_angle_alpha 94.695194
_cell_angle_beta 153.606025
_cell_angle_gamma 104.396478
_cell_volume 704.544547
_symmetry_space_group_name_H-M "P -1"
_symmetry_group_IT_number 2
_symmetry_cell_setting 'triclinic'
loop_
_space_group_symop_operation_xyz
x,y,z
-x,-y,-z
loop_
_atom_site_type_symbol
_atom_site_label
_atom_site_fract_x
_atom_site_fract_y
_atom_site_fract_z
Si Si1 0.015798 0.339534 0.517223
Si Si2 0.647432 0.934478 0.524639
Si Si3 0.718795 0.907630 0.213817
Si Si4 0.143733 0.685499 0.953330
Si Si5 0.454195 0.354429 0.107883
Si Si6 0.783440 0.935000 0.967564
Si Si7 0.770161 0.483025 0.119153
Si Si8 0.612074 0.251215 0.535538
O O1 0.260762 0.425478 0.672752
O O2 0.043562 0.332021 0.640113
O O3 0.000000 0.500000 0.500000
O O4 0.742996 0.098191 0.240621
O O5 0.491321 0.789348 0.462916
O O6 0.715002 0.143757 0.600695
O O7 0.434831 0.794519 0.255130
O O8 0.935131 0.003661 0.768928
O O9 0.688644 0.829351 0.092229
O O10 0.473841 0.727713 0.052236
O O11 0.000000 0.000000 0.500000
O O12 0.088158 0.564713 0.814278
O O13 0.875364 0.505597 0.768836
O O14 0.148765 0.859225 0.944067
O O15 0.459403 0.261009 0.191786
O O16 0.299696 0.420869 0.997973
O O17 0.651535 0.848263 0.756729
#
# Coordination Sequence:
#
# PCOD8025857 Si02
#       8
#     2   2   2   2   2   2   2   2
#     4  11  25  39  63  90 125 169 214 272 327 381
#     4  10  23  46  71  97 132 176 213 270 334 395
#     4  11  21  41  66  85 121 171 220 268 321 388
#     4  11  26  41  67 102 133 171 221 271 328 397
#     4  11  24  41  61  93 124 170 222 267 327 387
#     4  11  26  41  67 102 134 171 220 273 329 394
#     4  11  24  41  61  92 125 170 222 269 323 388
#     4  10  23  46  70  98 134 170 219 268 331 402
#
# _framework density 22.709705
#
# number of rings (size 3 to 8) (size 9 to 14) (size 15 to 20)
#    0.000    1.250    2.500    2.250    7.000    4.500 
#    0.000    0.000    0.000    0.000    0.000    0.000 
#    0.000    0.000    0.000    0.000    0.000    0.000 
#
# Total GULP energy -198279.610392 kJ/mol
# GULP energy per Si atom -12392.475650 kJ/mol
# Density = 2.265802 g / cm^3
# Si number density = 22.709705 Si / 1000 Ang^3
#
#
#
# Elastic Constant Matrix: (Units=GPa)
#
#
# Indices 1 2 3 4 5 6 
#
# 1 91.0096 32.8879 16.1402 -1.5783 -2.2909 5.0610
# 2 32.8879 136.8427 24.2644 -4.4786 -18.8944 -11.6089
# 3 16.1402 24.2644 90.2550 -9.0295 -0.1450 -7.9435
# 4 -1.5783 -4.4786 -9.0295 25.5418 -22.1523 -11.1419
# 5 -2.2909 -18.8944 -0.1450 -22.1523 0.6885 -9.3363
# 6 5.0610 -11.6089 -7.9435 -11.1419 -9.3363 32.0935
#
#
#
# Elastic Compliance Matrix: (Units=1/GPa)
#
#
# Indices 1 2 3 4 5 6 
#
# 1 0.012322 -0.002373 -0.001557 0.001598 0.002968 -0.001769
# 2 -0.002373 0.007135 -0.002163 -0.005486 -0.006086 -0.001255
# 3 -0.001557 -0.002163 0.012191 0.001089 -0.004016 0.001690
# 4 0.001598 -0.005486 0.001089 0.007201 -0.031890 -0.008744
# 5 0.002968 -0.006086 -0.004016 -0.031890 -0.023294 -0.021511
# 6 -0.001769 -0.001255 0.001690 -0.008744 -0.021511 0.022109
#
#
# Mechanical properties :
#
#
# Convention : Reuss Voigt Hill
#
# Bulk Modulus (GPa) = 51.38065 51.63248 51.50657
# Shear Modulus (GPa) = 88.75052 27.98574 58.36813
#
# Velocity S-wave (km/s) = 6.25822 3.51426 5.07520
# Velocity P-wave (km/s) = 8.65416 6.26513 7.55468
#
# Compressibility (1/GPa) = 0.01946258
#
# Stress axis : x y z
#
# Youngs Moduli (GPa) = 81.15338 140.15043 82.02891
#
# Poissons Ratio (x) = 0.33263 0.12768
# Poissons Ratio (y) = 0.19261 0.17742
# Poissons Ratio (z) = 0.12632 0.30314
#
# Static dielectric constant tensor:
#      x y z
#    x 3.959860 -0.090220 -0.091150 
#    y -0.090220 4.722330 0.110440 
#    z -0.091150 0.110440 3.261050 
# 
# 
# High freq. dielectric constant tensor:
#      x y z
#    x 1.888520 0.003510 -0.001890 
#    y 0.003510 1.919800 0.004110 
#    z -0.001890 0.004110 1.894090 
# 
# From -- ./inp_files/529850.got.cif
#   From: 2010.06.25/outbox.cif.g09.slc.cpg/sg2_265_cif.got.tgz:529850.got - 2010.06.27 13:26:56.
