data_PCOD8025405
_publ_section_title
;
Structure prediction by ZEFSAII (Michael W. Deem and Ramdas Pophale) SiO2 
 PCOD8025405
Probable space group: P -1
;
_chemical_formula_sum "Si O2"
_cell_formula_units_Z 16
_cell_length_a 11.350009
_cell_length_b 11.544944
_cell_length_c 9.021049
_cell_angle_alpha 96.871991
_cell_angle_beta 39.244443
_cell_angle_gamma 93.382371
_cell_volume 741.376823
_symmetry_space_group_name_H-M "P -1"
_symmetry_group_IT_number 2
_symmetry_cell_setting 'triclinic'
loop_
_space_group_symop_operation_xyz
x,y,z
-x,-y,-z
loop_
_atom_site_type_symbol
_atom_site_label
_atom_site_fract_x
_atom_site_fract_y
_atom_site_fract_z
Si Si1 0.803003 0.561066 0.240943
Si Si2 0.894330 0.668556 0.661948
Si Si3 0.256760 0.529510 0.408220
Si Si4 0.047209 0.877825 0.361396
Si Si5 0.411184 0.342324 0.811047
Si Si6 0.431237 0.934928 0.913632
Si Si7 0.609803 0.903747 0.282711
Si Si8 0.781641 0.822431 0.378746
O O1 0.728671 0.477965 0.428583
O O2 0.662735 0.572937 0.239014
O O3 0.824865 0.684384 0.318096
O O4 0.000000 0.500000 0.000000
O O5 0.764443 0.594142 0.669558
O O6 0.083137 0.606883 0.528395
O O7 0.953068 0.781183 0.535448
O O8 0.768445 0.699488 0.931345
O O9 0.451951 0.591781 0.199910
O O10 0.953328 0.883383 0.292986
O O11 0.268406 0.852673 0.115220
O O12 0.000000 0.000000 0.500000
O O13 0.503368 0.216293 0.646803
O O14 0.591107 0.857009 0.661433
O O15 0.339623 0.037358 0.912801
O O16 0.500000 0.000000 0.000000
O O17 0.784111 0.864356 0.211637
O O18 0.500000 0.000000 0.500000
#
# Coordination Sequence:
#
# PCOD8025405 Si02
#       8
#     2   2   2   2   2   2   2   2
#     4  11  22  47  66  95 138 172 228 280 328 397
#     4  11  25  43  64 102 134 167 229 276 329 399
#     4  11  24  44  67  97 133 175 221 281 330 398
#     4  12  24  41  71 100 134 179 217 278 345 395
#     4  11  23  42  73  94 131 182 216 276 341 397
#     4  11  23  42  69  99 134 175 220 274 334 405
#     4   9  22  43  64  97 136 167 222 276 322 402
#     4  10  23  45  65  98 135 172 224 278 328 406
#
# _framework density 21.581467
#
# number of rings (size 3 to 8) (size 9 to 14) (size 15 to 20)
#    0.000    1.250    3.750    1.500    1.750    0.500 
#   13.500    0.000    0.000    0.000    0.000    0.000 
#    0.000    0.000    0.000    0.000    0.000    0.000 
#
# Total GULP energy -198241.353931 kJ/mol
# GULP energy per Si atom -12390.084621 kJ/mol
# Density = 2.153235 g / cm^3
# Si number density = 21.581467 Si / 1000 Ang^3
#
#
#
# Elastic Constant Matrix: (Units=GPa)
#
#
# Indices 1 2 3 4 5 6 
#
# 1 139.2195 54.4949 42.4006 -12.0624 9.1856 18.7947
# 2 54.4949 118.9562 28.0819 2.7728 1.7032 7.6382
# 3 42.4006 28.0819 83.7669 -2.3861 0.6415 3.6902
# 4 -12.0624 2.7728 -2.3861 37.4660 -2.8107 0.1819
# 5 9.1856 1.7032 0.6415 -2.8107 36.4527 -7.9047
# 6 18.7947 7.6382 3.6902 0.1819 -7.9047 38.3810
#
#
#
# Elastic Compliance Matrix: (Units=1/GPa)
#
#
# Indices 1 2 3 4 5 6 
#
# 1 0.011091 -0.003851 -0.003981 0.003374 -0.003367 -0.004991
# 2 -0.003851 0.010608 -0.001670 -0.002105 0.000345 0.000016
# 3 -0.003981 -0.001670 0.014451 -0.000164 0.001055 0.001111
# 4 0.003374 -0.002105 -0.000164 0.028016 0.001171 -0.001109
# 5 -0.003367 0.000345 0.001055 0.001171 0.029996 0.007651
# 6 -0.004991 0.000016 0.001111 -0.001109 0.007651 0.029970
#
#
# Mechanical properties :
#
#
# Convention : Reuss Voigt Hill
#
# Bulk Modulus (GPa) = 58.32462 65.76640 62.04551
# Shear Modulus (GPa) = 33.59034 36.92428 35.25731
#
# Velocity S-wave (km/s) = 3.94946 4.14082 4.04627
# Velocity P-wave (km/s) = 6.91966 7.30764 7.11629
#
# Compressibility (1/GPa) = 0.01714542
#
# Stress axis : x y z
#
# Youngs Moduli (GPa) = 90.16159 94.26819 69.19763
#
# Poissons Ratio (x) = 0.36303 0.27549
# Poissons Ratio (y) = 0.34722 0.11558
# Poissons Ratio (z) = 0.35896 0.15745
#
# Static dielectric constant tensor:
#      x y z
#    x 4.433990 -0.249450 0.294270 
#    y -0.249450 4.273880 -0.144670 
#    z 0.294270 -0.144670 3.888880 
# 
# 
# High freq. dielectric constant tensor:
#      x y z
#    x 1.864550 -0.004140 0.017790 
#    y -0.004140 1.852140 0.006570 
#    z 0.017790 0.006570 1.837670 
# 
# From -- ./inp_files/258812.got.cif
#   From: 2010.06.25/outbox.cif.g09.slc.cpg/sg2_130_cif.got.tgz:258812.got - 2010.06.27 13:26:56.
