data_PCOD8025564
_publ_section_title
;
Structure prediction by ZEFSAII (Michael W. Deem and Ramdas Pophale) SiO2 
 PCOD8025564
Probable space group: P -1
;
_chemical_formula_sum "Si O2"
_cell_formula_units_Z 16
_cell_length_a 9.613408
_cell_length_b 10.779407
_cell_length_c 13.991189
_cell_angle_alpha 147.119982
_cell_angle_beta 71.522931
_cell_angle_gamma 112.139464
_cell_volume 729.069763
_symmetry_space_group_name_H-M "P -1"
_symmetry_group_IT_number 2
_symmetry_cell_setting 'triclinic'
loop_
_space_group_symop_operation_xyz
x,y,z
-x,-y,-z
loop_
_atom_site_type_symbol
_atom_site_label
_atom_site_fract_x
_atom_site_fract_y
_atom_site_fract_z
Si Si1 0.588098 0.846193 0.108375
Si Si2 0.255459 0.422602 0.647110
Si Si3 0.191478 0.447867 0.111288
Si Si4 0.166561 0.701823 0.675607
Si Si5 0.460414 0.243708 0.143737
Si Si6 0.720738 0.093687 0.728910
Si Si7 0.166954 0.386430 0.296942
Si Si8 0.093333 0.637764 0.982801
O O1 0.459293 0.925983 0.249199
O O2 0.708486 0.066505 0.182698
O O3 0.677365 0.678324 0.038663
O O4 0.512505 0.702985 0.940066
O O5 0.173772 0.505829 0.627132
O O6 0.431075 0.550384 0.688154
O O7 0.181969 0.479680 0.799142
O O8 0.239993 0.145752 0.468464
O O9 0.205033 0.703859 0.229383
O O10 0.203818 0.479798 0.242462
O O11 0.030116 0.285411 0.010284
O O12 0.188863 0.610821 0.505948
O O13 0.002499 0.765681 0.757853
O O14 0.286864 0.233367 0.203662
O O15 0.500000 0.000000 0.000000
O O16 0.786655 0.147476 0.857150
O O17 0.000000 0.500000 0.000000
#
# Coordination Sequence:
#
# PCOD8025564 Si02
#       8
#     2   2   2   2   2   2   2   2
#     4  11  23  42  67  98 135 179 219 281 340 397
#     4  12  24  43  71 102 135 174 224 286 334 401
#     4  10  23  46  67  94 136 180 229 276 332 404
#     4  11  24  42  65 100 135 174 225 275 342 404
#     4  11  23  40  67  95 136 176 223 270 334 405
#     4  11  25  44  72 101 134 177 230 278 335 398
#     4  10  24  43  64  99 135 178 224 276 339 398
#     4  10  23  45  69  98 134 179 226 273 334 397
#
# _framework density 21.945772999999999
#
# number of rings (size 3 to 8) (size 9 to 14) (size 15 to 20)
#    0.000    1.250    3.750    1.125    1.750    8.000 
#    4.500    3.125    0.000    0.000    0.000    0.000 
#    0.000    0.000    0.000    0.000    0.000    0.000 
#
# Total GULP energy -198364.415899 kJ/mol
# GULP energy per Si atom -12397.775994 kJ/mol
# Density = 2.189582 g / cm^3
# Si number density = 21.945773 Si / 1000 Ang^3
#
#
#
# Elastic Constant Matrix: (Units=GPa)
#
#
# Indices 1 2 3 4 5 6 
#
# 1 172.8923 40.9711 67.9733 0.8665 -15.7567 4.2473
# 2 40.9711 72.4606 42.4514 -0.1156 -3.4560 -4.9395
# 3 67.9733 42.4514 130.5529 0.7309 -6.7254 -4.8381
# 4 0.8665 -0.1156 0.7309 40.9240 -0.5385 -4.4084
# 5 -15.7567 -3.4560 -6.7254 -0.5385 35.1337 -1.3886
# 6 4.2473 -4.9395 -4.8381 -4.4084 -1.3886 32.6631
#
#
#
# Elastic Compliance Matrix: (Units=1/GPa)
#
#
# Indices 1 2 3 4 5 6 
#
# 1 0.007955 -0.002609 -0.003225 -0.000281 0.002617 -0.001833
# 2 -0.002609 0.018029 -0.004422 0.000449 -0.000139 0.002465
# 3 -0.003225 -0.004422 0.010840 0.000013 0.000248 0.001369
# 4 -0.000281 0.000449 0.000013 0.024823 0.000438 0.003475
# 5 0.002617 -0.000139 0.000248 0.000438 0.029716 0.000998
# 6 -0.001833 0.002465 0.001369 0.003475 0.000998 0.031941
#
#
# Mechanical properties :
#
#
# Convention : Reuss Voigt Hill
#
# Bulk Modulus (GPa) = 61.30702 75.41081 68.35892
# Shear Modulus (GPa) = 33.49991 36.71150 35.10570
#
# Velocity S-wave (km/s) = 3.91127 4.09446 4.00391
# Velocity P-wave (km/s) = 6.95656 7.53590 7.25201
#
# Compressibility (1/GPa) = 0.01631135
#
# Stress axis : x y z
#
# Youngs Moduli (GPa) = 125.70476 55.46665 92.24913
#
# Poissons Ratio (x) = 0.14473 0.29750
# Poissons Ratio (y) = 0.32800 0.40794
# Poissons Ratio (z) = 0.40540 0.24528
#
# Static dielectric constant tensor:
#      x y z
#    x 4.869410 -0.004530 0.106320 
#    y -0.004530 3.628420 -0.193700 
#    z 0.106320 -0.193700 3.853390 
# 
# 
# High freq. dielectric constant tensor:
#      x y z
#    x 1.895470 0.001050 -0.000680 
#    y 0.001050 1.842760 -0.013870 
#    z -0.000680 -0.013870 1.853460 
# 
# From -- ./inp_files/260978.got.cif
#   From: 2010.06.25/outbox.cif.g09.slc.cpg/sg2_131_cif.got.tgz:260978.got - 2010.06.27 13:26:56.
