data_PCOD8025192
_publ_section_title
;
Structure prediction by ZEFSAII (Michael W. Deem and Ramdas Pophale) SiO2 
 PCOD8025192
Probable space group: P -1
;
_chemical_formula_sum "Si O2"
_cell_formula_units_Z 16
_cell_length_a 14.319454
_cell_length_b 6.711832
_cell_length_c 22.816134
_cell_angle_alpha 102.239174
_cell_angle_beta 160.066555
_cell_angle_gamma 75.625187
_cell_volume 722.678531
_symmetry_space_group_name_H-M "P -1"
_symmetry_group_IT_number 2
_symmetry_cell_setting 'triclinic'
loop_
_space_group_symop_operation_xyz
x,y,z
-x,-y,-z
loop_
_atom_site_type_symbol
_atom_site_label
_atom_site_fract_x
_atom_site_fract_y
_atom_site_fract_z
Si Si1 0.757529 0.525438 0.193353
Si Si2 0.900337 0.129603 0.596741
Si Si3 0.807139 0.983631 0.752887
Si Si4 0.607709 0.512778 0.237474
Si Si5 0.128785 0.316073 0.996319
Si Si6 0.303856 0.300397 0.226154
Si Si7 0.196955 0.160913 0.385469
Si Si8 0.081418 0.167594 0.515737
O O1 0.656837 0.491113 0.196488
O O2 0.833573 0.756749 0.248370
O O3 0.027113 0.368179 0.324183
O O4 0.500000 0.500000 0.000000
O O5 0.626544 0.291925 0.431892
O O6 0.909221 0.043213 0.662911
O O7 0.898418 0.925212 0.543186
O O8 0.520559 0.142460 0.591933
O O9 0.830386 0.844106 0.816314
O O10 0.840027 0.836375 0.706313
O O11 0.061029 0.115253 0.909569
O O12 0.311536 0.451127 0.074385
O O13 0.636902 0.742047 0.293887
O O14 0.835440 0.351630 0.393323
O O15 0.272130 0.227523 0.135938
O O16 0.837746 0.463071 0.842722
O O17 0.000000 0.000000 0.500000
#
# Coordination Sequence:
#
# PCOD8025192 Si02
#       8
#     2   2   2   2   2   2   2   2
#     4  12  27  43  65  98 137 172 218 271 326 387
#     4  11  23  44  71  92 130 176 220 268 327 387
#     4  10  23  44  70  93 130 176 222 271 329 382
#     4  11  26  41  65 102 133 172 216 268 328 394
#     4  11  24  41  66 101 138 165 216 276 332 388
#     4  10  24  42  67  99 126 173 219 277 329 383
#     4  10  24  45  67  96 128 175 228 267 316 399
#     4  11  22  43  67  93 129 175 219 261 323 391
#
# _framework density 22.139856999999999
#
# number of rings (size 3 to 8) (size 9 to 14) (size 15 to 20)
#    0.000    1.250    2.500    1.875    5.250    7.500 
#    0.000    3.750    0.000    0.000    0.000    0.000 
#    0.000    0.000    0.000    0.000    0.000    0.000 
#
# Total GULP energy -198382.119176 kJ/mol
# GULP energy per Si atom -12398.882449 kJ/mol
# Density = 2.208947 g / cm^3
# Si number density = 22.139857 Si / 1000 Ang^3
#
#
#
# Elastic Constant Matrix: (Units=GPa)
#
#
# Indices 1 2 3 4 5 6 
#
# 1 133.0922 46.0059 38.1116 18.9470 -3.1052 8.3698
# 2 46.0059 89.8110 49.0893 23.6774 -6.5541 9.9649
# 3 38.1116 49.0893 83.7356 24.8237 -2.7222 6.3345
# 4 18.9470 23.6774 24.8237 43.2095 2.0063 7.8082
# 5 -3.1052 -6.5541 -2.7222 2.0063 24.4577 2.5700
# 6 8.3698 9.9649 6.3345 7.8082 2.5700 35.0284
#
#
#
# Elastic Compliance Matrix: (Units=1/GPa)
#
#
# Indices 1 2 3 4 5 6 
#
# 1 0.009444 -0.003413 -0.001926 -0.001045 0.000232 -0.000722
# 2 -0.003413 0.018920 -0.008017 -0.004008 0.004340 -0.002542
# 3 -0.001926 -0.008017 0.019238 -0.005926 0.000175 0.000570
# 4 -0.001045 -0.004008 -0.005926 0.030099 -0.003919 -0.003960
# 5 0.000232 0.004340 0.000175 -0.003919 0.042797 -0.003588
# 6 -0.000722 -0.002542 0.000570 -0.003960 -0.003588 0.030487
#
#
# Mechanical properties :
#
#
# Convention : Reuss Voigt Hill
#
# Bulk Modulus (GPa) = 47.86689 63.67250 55.76970
# Shear Modulus (GPa) = 27.07669 32.10125 29.58897
#
# Velocity S-wave (km/s) = 3.50091 3.81193 3.65972
# Velocity P-wave (km/s) = 6.16515 6.94234 6.56525
#
# Compressibility (1/GPa) = 0.02089127
#
# Stress axis : x y z
#
# Youngs Moduli (GPa) = 105.88385 52.85431 51.98040
#
# Poissons Ratio (x) = 0.18038 0.10011
# Poissons Ratio (y) = 0.36135 0.41672
# Poissons Ratio (z) = 0.20392 0.42373
#
# Static dielectric constant tensor:
#      x y z
#    x 4.137370 0.115680 -0.015930 
#    y 0.115680 3.673700 -0.055870 
#    z -0.015930 -0.055870 3.990240 
# 
# 
# High freq. dielectric constant tensor:
#      x y z
#    x 1.878570 0.008570 -0.001160 
#    y 0.008570 1.872510 -0.000060 
#    z -0.001160 -0.000060 1.868010 
# 
# From -- ./inp_files/364601.got.cif
#   From: 2010.06.25/outbox.cif.g09.slc.cpg/sg2_183_cif.got.tgz:364601.got - 2010.06.27 13:26:56.
