data_PCOD8025305
_publ_section_title
;
Structure prediction by ZEFSAII (Michael W. Deem and Ramdas Pophale) SiO2 
 PCOD8025305
Probable space group: P -1
;
_chemical_formula_sum "Si O2"
_cell_formula_units_Z 14
_cell_length_a 10.423123
_cell_length_b 10.688105
_cell_length_c 24.277478
_cell_angle_alpha 32.506701
_cell_angle_beta 154.560440
_cell_angle_gamma 137.888323
_cell_volume 622.057601
_symmetry_space_group_name_H-M "P -1"
_symmetry_group_IT_number 2
_symmetry_cell_setting 'triclinic'
loop_
_space_group_symop_operation_xyz
x,y,z
-x,-y,-z
loop_
_atom_site_type_symbol
_atom_site_label
_atom_site_fract_x
_atom_site_fract_y
_atom_site_fract_z
Si Si1 0.905414 0.459815 0.888533
Si Si2 0.748126 0.297292 0.158331
Si Si3 0.708785 0.791257 0.779312
Si Si4 0.730867 0.784049 0.526992
Si Si5 0.807022 0.873071 0.188254
Si Si6 0.782066 0.540614 0.525911
Si Si7 0.604355 0.808700 0.252021
O O1 0.672966 0.588671 0.795150
O O2 0.725893 0.277959 0.851996
O O3 0.039981 0.644601 0.831824
O O4 0.180422 0.318817 0.078878
O O5 0.950293 0.247584 0.308707
O O6 0.563550 0.077915 0.154095
O O7 0.500000 0.500000 0.000000
O O8 0.401195 0.948849 0.612539
O O9 0.953133 0.940989 0.791540
O O10 0.779824 0.740593 0.497059
O O11 0.515186 0.597630 0.535611
O O12 0.791397 0.787608 0.276317
O O13 0.923241 0.642494 0.283633
O O14 0.500000 0.000000 0.000000
O O15 0.791274 0.658617 0.426107
#
# Coordination Sequence:
#
# PCOD8025305 Si02
#       7
#     2   2   2   2   2   2   2
#     4  11  24  47  73 103 140 180 233 290 347 410
#     4  12  29  46  71 105 140 181 236 288 347 423
#     4  10  23  44  73 100 142 186 225 291 352 405
#     4  10  24  47  68 100 141 185 233 286 351 418
#     4  11  22  41  70 109 139 178 238 287 338 419
#     4  10  24  43  72 101 141 187 230 288 353 406
#     4  12  25  45  71 104 137 187 230 287 345 410
#
# _framework density 22.505955
#
# number of rings (size 3 to 8) (size 9 to 14) (size 15 to 20)
#    0.000    1.143    4.286    0.429    4.000    5.143 
#    0.000    0.000    0.000    0.000    0.000    0.000 
#    0.000    0.000    0.000    0.000    0.000    0.000 
#
# Total GULP energy -173648.375053 kJ/mol
# GULP energy per Si atom -12403.455361 kJ/mol
# Density = 2.245473 g / cm^3
# Si number density = 22.505955 Si / 1000 Ang^3
#
#
#
# Elastic Constant Matrix: (Units=GPa)
#
#
# Indices 1 2 3 4 5 6 
#
# 1 96.6024 33.1512 49.8343 -2.6175 -15.5377 -14.4342
# 2 33.1512 120.3997 66.6389 -5.6553 0.4770 -23.3560
# 3 49.8343 66.6389 154.1648 -5.5620 9.2152 -25.8531
# 4 -2.6175 -5.6553 -5.5620 30.2583 -4.1612 1.4779
# 5 -15.5377 0.4770 9.2152 -4.1612 43.5258 -11.8054
# 6 -14.4342 -23.3560 -25.8531 1.4779 -11.8054 33.6518
#
#
#
# Elastic Compliance Matrix: (Units=1/GPa)
#
#
# Indices 1 2 3 4 5 6 
#
# 1 0.014722 -0.000816 -0.003921 0.001192 0.007666 0.005374
# 2 -0.000816 0.011875 -0.004026 0.001424 0.002047 0.005455
# 3 -0.003921 -0.004026 0.010048 0.000254 -0.002853 0.002232
# 4 0.001192 0.001424 0.000254 0.033941 0.004041 0.001622
# 5 0.007666 0.002047 -0.002853 0.004041 0.030186 0.012929
# 6 0.005374 0.005455 0.002232 0.001622 0.012929 0.041986
#
#
# Mechanical properties :
#
#
# Convention : Reuss Voigt Hill
#
# Bulk Modulus (GPa) = 52.29628 74.49064 63.39346
# Shear Modulus (GPa) = 30.00176 36.25666 33.12921
#
# Velocity S-wave (km/s) = 3.65507 4.01806 3.84085
# Velocity P-wave (km/s) = 6.41091 7.39570 6.92085
#
# Compressibility (1/GPa) = 0.01912182
#
# Stress axis : x y z
#
# Youngs Moduli (GPa) = 67.92390 84.20773 99.52229
#
# Poissons Ratio (x) = 0.06869 0.39018
# Poissons Ratio (y) = 0.05541 0.40065
# Poissons Ratio (z) = 0.26630 0.33900
#
# Static dielectric constant tensor:
#      x y z
#    x 3.916370 0.069130 -0.529260 
#    y 0.069130 4.196810 -0.043240 
#    z -0.529260 -0.043240 2.994520 
# 
# 
# High freq. dielectric constant tensor:
#      x y z
#    x 1.892460 0.001360 -0.007550 
#    y 0.001360 1.898600 -0.010920 
#    z -0.007550 -0.010920 1.883200 
# 
# From -- ./inp_files/353426.got.cif
#   From: 2010.06.25/outbox.cif.g09.slc.cpg/sg2_177_cif.got.tgz:353426.got - 2010.06.27 13:26:56.
