data_PCOD8025149
_publ_section_title
;
Structure prediction by ZEFSAII (Michael W. Deem and Ramdas Pophale) SiO2 
 PCOD8025149
Probable space group: P -1
;
_chemical_formula_sum "Si O2"
_cell_formula_units_Z 16
_cell_length_a 23.933414
_cell_length_b 18.163246
_cell_length_c 14.705728
_cell_angle_alpha 151.591561
_cell_angle_beta 19.069160
_cell_angle_gamma 160.573233
_cell_volume 690.592558
_symmetry_space_group_name_H-M "P -1"
_symmetry_group_IT_number 2
_symmetry_cell_setting 'triclinic'
loop_
_space_group_symop_operation_xyz
x,y,z
-x,-y,-z
loop_
_atom_site_type_symbol
_atom_site_label
_atom_site_fract_x
_atom_site_fract_y
_atom_site_fract_z
Si Si1 0.663146 0.657925 0.006597
Si Si2 0.225285 0.775872 0.040993
Si Si3 0.777640 0.195059 0.250749
Si Si4 0.063103 0.846358 0.865857
Si Si5 0.039864 0.661805 0.388675
Si Si6 0.924517 0.668250 0.225058
Si Si7 0.448672 0.527133 0.830721
Si Si8 0.313770 0.782593 0.272068
O O1 0.924351 0.741998 0.693221
O O2 0.500000 0.500000 0.000000
O O3 0.518055 0.509220 0.157124
O O4 0.734898 0.884920 0.152724
O O5 0.222060 0.833073 0.212594
O O6 0.016711 0.731501 0.256124
O O7 0.194724 0.573741 0.873663
O O8 0.479459 0.965683 0.805505
O O9 0.957565 0.228199 0.080946
O O10 0.831745 0.413608 0.396730
O O11 0.500000 0.000000 0.500000
O O12 0.840810 0.156335 0.013997
O O13 0.151707 0.761613 0.574448
O O14 0.787366 0.713226 0.112965
O O15 0.161489 0.645921 0.266696
O O16 0.710244 0.654765 0.520137
O O17 0.419042 0.692339 0.052432
#
# Coordination Sequence:
#
# PCOD8025149 Si02
#       8
#     2   2   2   2   2   2   2   2
#     4  12  26  43  70 105 140 184 239 297 345 418
#     4  10  23  44  69  98 138 185 230 291 351 415
#     4  11  23  44  71 102 140 186 232 288 352 419
#     4  12  25  44  70 103 141 191 233 287 358 407
#     4  11  23  43  66 102 139 182 238 283 352 417
#     4  10  24  44  69 103 139 183 237 285 353 412
#     4  12  25  45  71 102 146 184 235 293 341 425
#     4  12  24  44  71 100 141 188 234 285 349 418
#
# _framework density 23.168507000000002
#
# number of rings (size 3 to 8) (size 9 to 14) (size 15 to 20)
#    0.000    0.750    2.500    4.875    1.750    5.000 
#    0.000    0.000    0.000    0.000    0.000    0.000 
#    0.000    0.000    0.000    0.000    0.000    0.000 
#
# Total GULP energy -198367.914186 kJ/mol
# GULP energy per Si atom -12397.994637 kJ/mol
# Density = 2.311577 g / cm^3
# Si number density = 23.168507 Si / 1000 Ang^3
#
#
#
# Elastic Constant Matrix: (Units=GPa)
#
#
# Indices 1 2 3 4 5 6 
#
# 1 123.2535 26.5526 35.4723 8.7204 9.4038 -7.8306
# 2 26.5526 66.1506 19.5147 2.1569 2.1041 -3.2620
# 3 35.4723 19.5147 123.2817 -2.4432 -2.1479 -4.2504
# 4 8.7204 2.1569 -2.4432 31.6926 -3.0782 2.6454
# 5 9.4038 2.1041 -2.1479 -3.0782 35.2851 -6.2709
# 6 -7.8306 -3.2620 -4.2504 2.6454 -6.2709 33.2000
#
#
#
# Elastic Compliance Matrix: (Units=1/GPa)
#
#
# Indices 1 2 3 4 5 6 
#
# 1 0.009987 -0.003027 -0.002451 -0.003112 -0.002636 0.001494
# 2 -0.003027 0.016923 -0.001798 -0.000540 -0.000231 0.000718
# 3 -0.002451 -0.001798 0.009181 0.001607 0.001564 0.000588
# 4 -0.003112 -0.000540 0.001607 0.033114 0.003390 -0.002580
# 5 -0.002636 -0.000231 0.001564 0.003390 0.030339 0.005016
# 6 0.001494 0.000718 0.000588 -0.002580 0.005016 0.031772
#
#
# Mechanical properties :
#
#
# Convention : Reuss Voigt Hill
#
# Bulk Modulus (GPa) = 46.42548 52.86276 49.64412
# Shear Modulus (GPa) = 32.66992 35.44528 34.05760
#
# Velocity S-wave (km/s) = 3.75920 3.91562 3.83821
# Velocity P-wave (km/s) = 6.23890 6.58096 6.41221
#
# Compressibility (1/GPa) = 0.02153990
#
# Stress axis : x y z
#
# Youngs Moduli (GPa) = 100.13106 59.09222 108.92580
#
# Poissons Ratio (x) = 0.17886 0.26693
# Poissons Ratio (y) = 0.30308 0.19583
# Poissons Ratio (z) = 0.24537 0.10624
#
# Static dielectric constant tensor:
#      x y z
#    x 4.576580 -0.021450 0.151570 
#    y -0.021450 4.058740 -0.103490 
#    z 0.151570 -0.103490 4.142860 
# 
# 
# High freq. dielectric constant tensor:
#      x y z
#    x 1.931920 -0.005170 0.001470 
#    y -0.005170 1.912900 -0.007460 
#    z 0.001470 -0.007460 1.908070 
# 
# From -- ./inp_files/543178.got.cif
#   From: 2010.06.25/outbox.cif.g09.slc.cpg/sg2_272_cif.got.tgz:543178.got - 2010.06.27 13:26:56.
