data_PCOD8025364
_publ_section_title
;
Structure prediction by ZEFSAII (Michael W. Deem and Ramdas Pophale) SiO2 
 PCOD8025364
Probable space group: P -1
;
_chemical_formula_sum "Si O2"
_cell_formula_units_Z 16
_cell_length_a 5.499863
_cell_length_b 14.625828
_cell_length_c 9.102838
_cell_angle_alpha 79.565618
_cell_angle_beta 84.804478
_cell_angle_gamma 84.489450
_cell_volume 714.790996
_symmetry_space_group_name_H-M "P -1"
_symmetry_group_IT_number 2
_symmetry_cell_setting 'triclinic'
loop_
_space_group_symop_operation_xyz
x,y,z
-x,-y,-z
loop_
_atom_site_type_symbol
_atom_site_label
_atom_site_fract_x
_atom_site_fract_y
_atom_site_fract_z
Si Si1 0.121190 0.240256 0.197936
Si Si2 0.299285 0.456716 0.617378
Si Si3 0.409607 0.715697 0.287581
Si Si4 0.582723 0.896347 0.354411
Si Si5 0.342920 0.771334 0.951367
Si Si6 0.801528 0.951223 0.615241
Si Si7 0.262947 0.983007 0.920304
Si Si8 0.036505 0.640068 0.557301
O O1 0.378457 0.265328 0.101774
O O2 0.105125 0.128848 0.251685
O O3 0.877848 0.276168 0.107100
O O4 0.102857 0.290082 0.342060
O O5 0.500000 0.500000 0.500000
O O6 0.427564 0.379569 0.743350
O O7 0.149219 0.547662 0.669602
O O8 0.147396 0.396447 0.536950
O O9 0.571778 0.791701 0.328573
O O10 0.222660 0.695095 0.433543
O O11 0.291555 0.754714 0.131521
O O12 0.632300 0.898471 0.524948
O O13 0.338886 0.964220 0.312588
O O14 0.783230 0.944026 0.233062
O O15 0.313649 0.879829 0.884001
O O16 0.000000 0.000000 0.500000
O O17 0.500000 0.000000 0.000000
O O18 0.000000 0.000000 0.000000
#
# Coordination Sequence:
#
# PCOD8025364 Si02
#       8
#     2   2   2   2   2   2   2   2
#     4  12  27  46  69 101 146 187 227 289 358 413
#     4   9  21  43  75 105 132 167 239 293 342 415
#     4  11  24  42  71 102 136 181 236 290 341 423
#     4  11  24  40  64 100 131 181 240 286 340 400
#     4  12  28  45  66 105 149 186 231 287 352 416
#     4  11  24  40  64  95 134 183 238 296 335 409
#     4  12  25  43  65  92 137 191 235 279 339 398
#     4  10  23  44  77 101 132 182 232 288 353 417
#
# _framework density 22.384164999999999
#
# number of rings (size 3 to 8) (size 9 to 14) (size 15 to 20)
#    0.000    1.000    2.500    3.000   10.500    1.000 
#    0.000    1.250    0.000    0.000    0.000    0.000 
#    0.000    0.000    0.000    0.000    0.000    0.000 
#
# Total GULP energy -198224.686951 kJ/mol
# GULP energy per Si atom -12389.042934 kJ/mol
# Density = 2.233322 g / cm^3
# Si number density = 22.384165 Si / 1000 Ang^3
#
#
#
# Elastic Constant Matrix: (Units=GPa)
#
#
# Indices 1 2 3 4 5 6 
#
# 1 111.2955 17.0753 24.0033 1.7333 -14.2767 -11.8283
# 2 17.0753 96.7876 26.2827 -14.3777 -16.4061 -9.2080
# 3 24.0033 26.2827 84.0884 -1.9078 -10.6531 -3.6937
# 4 1.7333 -14.3777 -1.9078 29.4728 -6.5426 -6.0222
# 5 -14.2767 -16.4061 -10.6531 -6.5426 34.1114 3.5807
# 6 -11.8283 -9.2080 -3.6937 -6.0222 3.5807 22.1069
#
#
#
# Elastic Compliance Matrix: (Units=1/GPa)
#
#
# Indices 1 2 3 4 5 6 
#
# 1 0.010416 -0.000050 -0.002306 0.000942 0.003283 0.004892
# 2 -0.000050 0.014542 -0.003087 0.009931 0.007173 0.007058
# 3 -0.002306 -0.003087 0.013721 -0.000187 0.001860 -0.000579
# 4 0.000942 0.009931 -0.000187 0.044402 0.012081 0.014748
# 5 0.003283 0.007173 0.001860 0.012081 0.036787 0.002387
# 6 0.004892 0.007058 -0.000579 0.014748 0.002387 0.054327
#
#
# Mechanical properties :
#
#
# Convention : Reuss Voigt Hill
#
# Bulk Modulus (GPa) = 35.97794 47.43265 41.70529
# Shear Modulus (GPa) = 25.72755 32.12556 28.92656
#
# Velocity S-wave (km/s) = 3.39390 3.79250 3.59873
# Velocity P-wave (km/s) = 5.60945 6.35718 5.99498
#
# Compressibility (1/GPa) = 0.02779481
#
# Stress axis : x y z
#
# Youngs Moduli (GPa) = 96.00274 68.76850 72.87977
#
# Poissons Ratio (x) = 0.00342 0.16804
# Poissons Ratio (y) = 0.00477 0.22497
# Poissons Ratio (z) = 0.22135 0.21228
#
# Static dielectric constant tensor:
#      x y z
#    x 4.338270 -0.290380 0.107310 
#    y -0.290380 4.560290 -0.286560 
#    z 0.107310 -0.286560 4.213210 
# 
# 
# High freq. dielectric constant tensor:
#      x y z
#    x 1.895890 -0.002460 -0.000630 
#    y -0.002460 1.881120 -0.007730 
#    z -0.000630 -0.007730 1.870290 
# 
# From -- ./inp_files/43269.got.cif
#   From: 2010.06.25/outbox.cif.g09.slc.cpg/sg2_22_cif.got.tgz:43269.got - 2010.06.27 13:26:56.
