data_PCOD8025552
_publ_section_title
;
Structure prediction by ZEFSAII (Michael W. Deem and Ramdas Pophale) SiO2 
 PCOD8025552
Probable space group: P -1
;
_chemical_formula_sum "Si O2"
_cell_formula_units_Z 16
_cell_length_a 11.398686
_cell_length_b 15.599258
_cell_length_c 7.957193
_cell_angle_alpha 58.008374
_cell_angle_beta 139.453197
_cell_angle_gamma 100.452707
_cell_volume 714.571080
_symmetry_space_group_name_H-M "P -1"
_symmetry_group_IT_number 2
_symmetry_cell_setting 'triclinic'
loop_
_space_group_symop_operation_xyz
x,y,z
-x,-y,-z
loop_
_atom_site_type_symbol
_atom_site_label
_atom_site_fract_x
_atom_site_fract_y
_atom_site_fract_z
Si Si1 0.846905 0.575275 0.932449
Si Si2 0.317085 0.130819 0.808599
Si Si3 0.433904 0.217304 0.151585
Si Si4 0.458647 0.885633 0.263583
Si Si5 0.058521 0.653152 0.812666
Si Si6 0.044610 0.373223 0.676137
Si Si7 0.361478 0.625952 0.693549
Si Si8 0.402499 0.683491 0.310505
O O1 0.630485 0.620467 0.563909
O O2 0.015548 0.585453 0.988643
O O3 0.910698 0.442860 0.198695
O O4 0.826805 0.658866 0.976081
O O5 0.367660 0.134816 0.662987
O O6 0.103440 0.225194 0.512492
O O7 0.475226 0.146379 0.096372
O O8 0.309216 0.013571 0.963208
O O9 0.468014 0.142888 0.434002
O O10 0.560965 0.290925 0.216192
O O11 0.201844 0.297409 0.791586
O O12 0.343644 0.812789 0.148143
O O13 0.265804 0.664686 0.039532
O O14 0.000000 0.500000 0.500000
O O15 0.857074 0.341914 0.506915
O O16 0.357402 0.634395 0.481368
O O17 0.500000 0.500000 0.000000
#
# Coordination Sequence:
#
# PCOD8025552 Si02
#       8
#     2   2   2   2   2   2   2   2
#     4  11  21  38  58  94 133 171 209 260 329 388
#     4  11  23  44  70  96 125 175 224 267 326 384
#     4  11  23  43  68  94 132 171 216 267 326 382
#     4  10  23  45  69  93 129 172 220 276 323 375
#     4  11  23  36  63  93 130 169 216 264 319 396
#     4  12  20  37  59  90 131 173 211 255 321 391
#     4  11  22  36  62  94 131 175 212 257 322 395
#     4  11  21  41  63  92 130 176 213 267 330 380
#
# _framework density 22.391055000000001
#
# number of rings (size 3 to 8) (size 9 to 14) (size 15 to 20)
#    0.000    1.000    6.250    1.500    0.000    0.500 
#    6.750    0.000    0.000    2.250    0.000    0.000 
#    0.000    0.000    0.000    0.000    0.000    0.000 
#
# Total GULP energy -198255.946032 kJ/mol
# GULP energy per Si atom -12390.996627 kJ/mol
# Density = 2.234009 g / cm^3
# Si number density = 22.391055 Si / 1000 Ang^3
#
#
#
# Elastic Constant Matrix: (Units=GPa)
#
#
# Indices 1 2 3 4 5 6 
#
# 1 67.1380 33.7548 27.6837 6.4193 6.9968 14.2040
# 2 33.7548 145.0699 68.5445 -8.9169 7.9630 5.5840
# 3 27.6837 68.5445 105.7767 -13.0765 11.0255 12.1592
# 4 6.4193 -8.9169 -13.0765 40.5228 10.2821 3.0055
# 5 6.9968 7.9630 11.0255 10.2821 37.8252 4.0576
# 6 14.2040 5.5840 12.1592 3.0055 4.0576 36.7808
#
#
#
# Elastic Compliance Matrix: (Units=1/GPa)
#
#
# Indices 1 2 3 4 5 6 
#
# 1 0.019282 -0.003174 -0.002818 -0.004156 -0.000341 -0.005656
# 2 -0.003174 0.010476 -0.006012 0.000816 -0.000257 0.001585
# 3 -0.002818 -0.006012 0.015509 0.005337 -0.003848 -0.003138
# 4 -0.004156 0.000816 0.005337 0.029604 -0.008820 -0.001729
# 5 -0.000341 -0.000257 -0.003848 -0.008820 0.030199 -0.001168
# 6 -0.005656 0.001585 -0.003138 -0.001729 -0.001168 0.030439
#
#
# Mechanical properties :
#
#
# Convention : Reuss Voigt Hill
#
# Bulk Modulus (GPa) = 47.04027 64.21672 55.62850
# Shear Modulus (GPa) = 30.01146 35.55919 32.78532
#
# Velocity S-wave (km/s) = 3.66503 3.98942 3.83066
# Velocity P-wave (km/s) = 6.24212 7.06842 6.66808
#
# Compressibility (1/GPa) = 0.02125838
#
# Stress axis : x y z
#
# Youngs Moduli (GPa) = 51.86215 95.45819 64.47943
#
# Poissons Ratio (x) = 0.30301 0.18168
# Poissons Ratio (y) = 0.16462 0.38766
# Poissons Ratio (z) = 0.14613 0.57391
#
# Static dielectric constant tensor:
#      x y z
#    x 4.339440 -0.480650 -0.548110 
#    y -0.480650 4.741010 0.286940 
#    z -0.548110 0.286940 4.330530 
# 
# 
# High freq. dielectric constant tensor:
#      x y z
#    x 1.880880 -0.011600 -0.019750 
#    y -0.011600 1.894840 0.001710 
#    z -0.019750 0.001710 1.879980 
# 
# From -- ./inp_files/271960.got.cif
#   From: 2010.06.25/outbox.cif.g09.slc.cpg/sg2_136_cif.got.tgz:271960.got - 2010.06.27 13:26:56.
