data_PCOD8025295
_publ_section_title
;
Structure prediction by ZEFSAII (Michael W. Deem and Ramdas Pophale) SiO2 
 PCOD8025295
Probable space group: P -1
;
_chemical_formula_sum "Si O2"
_cell_formula_units_Z 16
_cell_length_a 9.216864
_cell_length_b 8.859114
_cell_length_c 22.647318
_cell_angle_alpha 116.941345
_cell_angle_beta 153.307688
_cell_angle_gamma 63.405256
_cell_volume 736.260888
_symmetry_space_group_name_H-M "P -1"
_symmetry_group_IT_number 2
_symmetry_cell_setting 'triclinic'
loop_
_space_group_symop_operation_xyz
x,y,z
-x,-y,-z
loop_
_atom_site_type_symbol
_atom_site_label
_atom_site_fract_x
_atom_site_fract_y
_atom_site_fract_z
Si Si1 0.485109 0.632641 0.193238
Si Si2 0.447398 0.308118 0.966503
Si Si3 0.090038 0.673572 0.764441
Si Si4 0.275901 0.693957 0.257033
Si Si5 0.629908 0.620348 0.691817
Si Si6 0.926812 0.170564 0.537491
Si Si7 0.095734 0.807992 0.980581
Si Si8 0.572275 0.952960 0.584210
O O1 0.712968 0.459332 0.231380
O O2 0.305318 0.621458 0.188533
O O3 0.196833 0.681641 0.049858
O O4 0.729865 0.775301 0.308502
O O5 0.580064 0.185574 0.939713
O O6 0.084353 0.284190 0.844967
O O7 0.500000 0.500000 0.000000
O O8 0.646063 0.246276 0.085820
O O9 0.848652 0.586238 0.706051
O O10 0.904505 0.827351 0.687058
O O11 0.458580 0.554939 0.342599
O O12 0.415653 0.875519 0.342720
O O13 0.275997 0.704497 0.559946
O O14 0.812585 0.733186 0.825673
O O15 0.717964 0.147306 0.515841
O O16 0.000000 0.000000 0.500000
O O17 0.000000 0.000000 0.000000
O O18 0.500000 0.000000 0.500000
#
# Coordination Sequence:
#
# PCOD8025295 Si02
#       8
#     2   2   2   2   2   2   2   2
#     4  12  25  41  71 101 135 177 231 280 338 402
#     4  11  21  46  70  96 136 178 221 271 345 411
#     4  10  23  46  69  98 132 183 220 279 345 406
#     4  12  25  44  68 102 138 174 224 288 333 400
#     4  10  23  44  72  93 138 182 225 270 346 414
#     4  11  24  46  67  95 138 181 223 280 342 399
#     4  11  23  43  72 102 132 179 228 272 340 410
#     4  11  28  44  67  99 138 173 236 282 335 403
#
# _framework density 21.731425999999999
#
# number of rings (size 3 to 8) (size 9 to 14) (size 15 to 20)
#    0.000    1.000    5.000    0.750    8.750    5.000 
#    2.250    0.000    0.000    0.000    0.000    0.000 
#    0.000    0.000    0.000    0.000    0.000    0.000 
#
# Total GULP energy -198350.145257 kJ/mol
# GULP energy per Si atom -12396.884079 kJ/mol
# Density = 2.168196 g / cm^3
# Si number density = 21.731426 Si / 1000 Ang^3
#
#
#
# Elastic Constant Matrix: (Units=GPa)
#
#
# Indices 1 2 3 4 5 6 
#
# 1 114.2347 45.2416 24.5696 -5.8655 -18.2634 -9.3984
# 2 45.2416 123.7062 15.3959 -12.6405 -14.4614 -11.4071
# 3 24.5696 15.3959 68.9217 -13.5799 -12.0089 11.5084
# 4 -5.8655 -12.6405 -13.5799 34.5170 7.8907 -6.1075
# 5 -18.2634 -14.4614 -12.0089 7.8907 37.6628 0.2847
# 6 -9.3984 -11.4071 11.5084 -6.1075 0.2847 43.9953
#
#
#
# Elastic Compliance Matrix: (Units=1/GPa)
#
#
# Indices 1 2 3 4 5 6 
#
# 1 0.011448 -0.003254 -0.003329 -0.000926 0.003417 0.002322
# 2 -0.003254 0.010058 -0.000667 0.002983 0.001428 0.002492
# 3 -0.003329 -0.000667 0.018130 0.004767 0.002950 -0.004984
# 4 -0.000926 0.002983 0.004767 0.033604 -0.004855 0.004025
# 5 0.003417 0.001428 0.002950 -0.004855 0.030718 -0.000544
# 6 0.002322 0.002492 -0.004984 0.004025 -0.000544 0.025738
#
#
# Mechanical properties :
#
#
# Convention : Reuss Voigt Hill
#
# Bulk Modulus (GPa) = 39.78031 53.03074 46.40553
# Shear Modulus (GPa) = 32.77088 38.01204 35.39146
#
# Velocity S-wave (km/s) = 3.88750 4.18685 4.03995
# Velocity P-wave (km/s) = 6.20447 6.91583 6.56978
#
# Compressibility (1/GPa) = 0.02513806
#
# Stress axis : x y z
#
# Youngs Moduli (GPa) = 87.34906 99.42322 55.15622
#
# Poissons Ratio (x) = 0.32348 0.18363
# Poissons Ratio (y) = 0.28419 0.03676
# Poissons Ratio (z) = 0.29080 0.06627
#
# Static dielectric constant tensor:
#      x y z
#    x 4.145620 0.089940 0.297900 
#    y 0.089940 4.497840 0.346730 
#    z 0.297900 0.346730 4.193510 
# 
# 
# High freq. dielectric constant tensor:
#      x y z
#    x 1.859940 -0.010400 -0.007280 
#    y -0.010400 1.856040 -0.014490 
#    z -0.007280 -0.014490 1.855040 
# 
# From -- ./inp_files/588087.got.cif
#   From: 2010.06.25/outbox.cif.g09.slc.cpg/sg2_295_cif.got.tgz:588087.got - 2010.06.27 13:26:56.
