data_PCOD8025306
_publ_section_title
;
Structure prediction by ZEFSAII (Michael W. Deem and Ramdas Pophale) SiO2 
 PCOD8025306
Probable space group: P -1
;
_chemical_formula_sum "Si O2"
_cell_formula_units_Z 16
_cell_length_a 20.930862
_cell_length_b 5.248743
_cell_length_c 7.853707
_cell_angle_alpha 115.647093
_cell_angle_beta 55.383667
_cell_angle_gamma 111.323463
_cell_volume 632.000908
_symmetry_space_group_name_H-M "P -1"
_symmetry_group_IT_number 2
_symmetry_cell_setting 'triclinic'
loop_
_space_group_symop_operation_xyz
x,y,z
-x,-y,-z
loop_
_atom_site_type_symbol
_atom_site_label
_atom_site_fract_x
_atom_site_fract_y
_atom_site_fract_z
Si Si1 0.310245 0.397445 0.778652
Si Si2 0.191762 0.078128 0.126345
Si Si3 0.159082 0.477198 0.872378
Si Si4 0.511328 0.785681 0.271062
Si Si5 0.660097 0.013255 0.956767
Si Si6 0.421488 0.157985 0.307402
Si Si7 0.019861 0.201426 0.186785
Si Si8 0.931743 0.724664 0.393214
O O1 0.250800 0.444714 0.725830
O O2 0.370731 0.193586 0.565319
O O3 0.255794 0.280017 0.981397
O O4 0.361507 0.691714 0.848666
O O5 0.246135 0.978512 0.165997
O O6 0.125657 0.237180 0.353886
O O7 0.150129 0.809728 0.000644
O O8 0.118517 0.366988 0.726243
O O9 0.114271 0.308375 0.056995
O O10 0.467588 0.467502 0.275338
O O11 0.500000 0.000000 0.500000
O O12 0.478432 0.925304 0.190743
O O13 0.603268 0.773617 0.086979
O O14 0.640744 0.972832 0.776832
O O15 0.977869 0.478531 0.315727
O O16 0.992031 0.022101 0.348856
O O17 0.000000 0.000000 0.000000
#
# Coordination Sequence:
#
# PCOD8025306 Si02
#       8
#     2   2   2   2   2   2   2   2
#     4  11  26  44  68  98 142 181 227 287 336 413
#     4  11  27  43  69 100 140 182 228 284 337 414
#     4  10  24  44  67  99 135 182 226 281 349 400
#     4  12  25  47  75 103 140 177 231 287 340 402
#     4  11  26  46  68 103 139 179 234 279 341 411
#     4  12  27  46  75 101 135 188 225 283 346 400
#     4  10  23  44  73 101 135 179 230 285 340 406
#     4  11  25  45  72  99 137 180 230 284 340 409
#
# _framework density 25.316421999999999
#
# number of rings (size 3 to 8) (size 9 to 14) (size 15 to 20)
#    0.000    1.000    1.250    4.125   14.000    2.000 
#    0.000    0.000    0.000    0.000    0.000    0.000 
#    0.000    0.000    0.000    0.000    0.000    0.000 
#
# Total GULP energy -198409.786830 kJ/mol
# GULP energy per Si atom -12400.611677 kJ/mol
# Density = 2.525880 g / cm^3
# Si number density = 25.316422 Si / 1000 Ang^3
#
#
#
# Elastic Constant Matrix: (Units=GPa)
#
#
# Indices 1 2 3 4 5 6 
#
# 1 44.0387 44.0498 1.7248 5.0894 -5.9643 12.6839
# 2 44.0498 122.5004 33.7771 -13.3533 -12.7049 -6.6669
# 3 1.7248 33.7771 99.1939 -8.5127 -18.4558 6.2031
# 4 5.0894 -13.3533 -8.5127 42.0351 -6.3019 1.9320
# 5 -5.9643 -12.7049 -18.4558 -6.3019 40.1005 -0.0462
# 6 12.6839 -6.6669 6.2031 1.9320 -0.0462 41.1556
#
#
#
# Elastic Compliance Matrix: (Units=1/GPa)
#
#
# Indices 1 2 3 4 5 6 
#
# 1 0.053611 -0.023556 0.007898 -0.011052 0.002385 -0.021007
# 2 -0.023556 0.019888 -0.006189 0.007581 0.001153 0.011060
# 3 0.007898 -0.006189 0.013509 0.000901 0.005566 -0.005509
# 4 -0.011052 0.007581 0.000901 0.028419 0.005643 0.003171
# 5 0.002385 0.001153 0.005566 0.005643 0.029104 -0.001619
# 6 -0.021007 0.011060 -0.005509 0.003171 -0.001619 0.033244
#
#
# Mechanical properties :
#
#
# Convention : Reuss Voigt Hill
#
# Bulk Modulus (GPa) = 23.08768 47.20405 35.14587
# Shear Modulus (GPa) = 21.19480 37.07032 29.13256
#
# Velocity S-wave (km/s) = 2.89657 3.83074 3.39593
# Velocity P-wave (km/s) = 4.50847 6.18484 5.41195
#
# Compressibility (1/GPa) = 0.04331314
#
# Stress axis : x y z
#
# Youngs Moduli (GPa) = 18.65298 50.28090 74.02506
#
# Poissons Ratio (x) = 1.18443 -0.58465
# Poissons Ratio (y) = 0.43939 0.45815
# Poissons Ratio (z) = -0.14732 0.31120
#
# Static dielectric constant tensor:
#      x y z
#    x 4.808270 -0.131290 -0.404500 
#    y -0.131290 4.626750 -0.281180 
#    z -0.404500 -0.281180 4.585760 
# 
# 
# High freq. dielectric constant tensor:
#      x y z
#    x 2.035100 0.010120 -0.000650 
#    y 0.010120 2.016960 -0.001620 
#    z -0.000650 -0.001620 2.013730 
# 
# From -- ./inp_files/53558.got.cif
#   From: 2010.06.25/outbox.cif.g09.slc.cpg/sg2_27_cif.got.tgz:53558.got - 2010.06.27 13:26:56.
