data_PCOD8025986
_publ_section_title
;
Structure prediction by ZEFSAII (Michael W. Deem and Ramdas Pophale) SiO2 
 PCOD8025986
Probable space group: P -1
;
_chemical_formula_sum "Si O2"
_cell_formula_units_Z 16
_cell_length_a 14.385743
_cell_length_b 12.050199
_cell_length_c 8.551600
_cell_angle_alpha 38.812204
_cell_angle_beta 51.551916
_cell_angle_gamma 52.677923
_cell_volume 704.927573
_symmetry_space_group_name_H-M "P -1"
_symmetry_group_IT_number 2
_symmetry_cell_setting 'triclinic'
loop_
_space_group_symop_operation_xyz
x,y,z
-x,-y,-z
loop_
_atom_site_type_symbol
_atom_site_label
_atom_site_fract_x
_atom_site_fract_y
_atom_site_fract_z
Si Si1 0.112595 0.238519 0.637296
Si Si2 0.522107 0.042464 0.609390
Si Si3 0.384375 0.667402 0.950598
Si Si4 0.857614 0.411153 0.623240
Si Si5 0.859044 0.092943 0.520152
Si Si6 0.246631 0.182377 0.248017
Si Si7 0.288299 0.963542 0.963640
Si Si8 0.135003 0.529730 0.808553
O O1 0.112853 0.395591 0.590051
O O2 0.174563 0.279526 0.367622
O O3 0.970734 0.243559 0.743778
O O4 0.189393 0.048823 0.839019
O O5 0.591854 0.205391 0.357830
O O6 0.500000 0.000000 0.500000
O O7 0.609195 0.878713 0.795925
O O8 0.383896 0.086501 0.777334
O O9 0.372309 0.774229 0.012682
O O10 0.500000 0.500000 0.000000
O O11 0.259718 0.601843 0.136826
O O12 0.838800 0.402402 0.466159
O O13 0.846049 0.309940 0.269198
O O14 0.807601 0.992356 0.543728
O O15 0.782279 0.066414 0.779013
O O16 0.000000 0.000000 0.500000
O O17 0.228975 0.336140 0.962629
O O18 0.000000 0.500000 0.000000
#
# Coordination Sequence:
#
# PCOD8025986 Si02
#       8
#     2   2   2   2   2   2   2   2
#     4  11  23  42  72 108 143 187 242 306 372 427
#     4  10  23  47  69  98 137 186 238 304 357 416
#     4  11  23  41  71 102 135 187 246 297 359 423
#     4  11  24  42  70 109 144 189 240 304 367 439
#     4  12  26  46  75 109 150 193 236 298 373 441
#     4  12  25  44  73 107 147 191 241 300 359 444
#     4  11  24  47  72 100 143 188 243 298 365 429
#     4  12  24  47  69 104 153 190 233 292 372 440
#
# _framework density 22.697368000000001
#
# number of rings (size 3 to 8) (size 9 to 14) (size 15 to 20)
#    0.000    0.750    6.250    1.500    1.750    3.000 
#    0.000    0.625    0.000    0.000    0.000    0.000 
#    0.000    0.000    0.000    0.000    0.000    0.000 
#
# Total GULP energy -198297.610997 kJ/mol
# GULP energy per Si atom -12393.600687 kJ/mol
# Density = 2.264571 g / cm^3
# Si number density = 22.697368 Si / 1000 Ang^3
#
#
#
# Elastic Constant Matrix: (Units=GPa)
#
#
# Indices 1 2 3 4 5 6 
#
# 1 118.7119 30.3671 33.0441 -11.4716 1.7624 -36.2147
# 2 30.3671 94.8885 24.4333 -1.8700 0.7509 -23.3598
# 3 33.0441 24.4333 96.9823 2.5901 -16.7123 -28.5820
# 4 -11.4716 -1.8700 2.5901 41.5367 -7.4936 -8.7271
# 5 1.7624 0.7509 -16.7123 -7.4936 30.7999 -0.3211
# 6 -36.2147 -23.3598 -28.5820 -8.7271 -0.3211 51.9451
#
#
#
# Elastic Compliance Matrix: (Units=1/GPa)
#
#
# Indices 1 2 3 4 5 6 
#
# 1 0.012084 -0.001446 -0.001668 0.004940 -0.000279 0.007685
# 2 -0.001446 0.012392 -0.001691 0.000900 -0.000878 0.003780
# 3 -0.001668 -0.001691 0.014619 0.001430 0.008484 0.006413
# 4 0.004940 0.000900 0.001430 0.028755 0.007566 0.009513
# 5 -0.000279 -0.000878 0.008484 0.007566 0.039008 0.005591
# 6 0.007685 0.003780 0.006413 0.009513 0.005591 0.031470
#
#
# Mechanical properties :
#
#
# Convention : Reuss Voigt Hill
#
# Bulk Modulus (GPa) = 33.91537 54.03021 43.97279
# Shear Modulus (GPa) = 31.69237 39.70555 35.69896
#
# Velocity S-wave (km/s) = 3.74077 4.18706 3.97019
# Velocity P-wave (km/s) = 5.79937 6.87252 6.35862
#
# Compressibility (1/GPa) = 0.02948515
#
# Stress axis : x y z
#
# Youngs Moduli (GPa) = 82.75460 80.69659 68.40215
#
# Poissons Ratio (x) = 0.11671 0.11411
# Poissons Ratio (y) = 0.11969 0.11564
# Poissons Ratio (z) = 0.13805 0.13643
#
# Static dielectric constant tensor:
#      x y z
#    x 4.270030 -0.114320 -0.335100 
#    y -0.114320 4.189420 -0.046730 
#    z -0.335100 -0.046730 4.426170 
# 
# 
# High freq. dielectric constant tensor:
#      x y z
#    x 1.890960 -0.009280 -0.016020 
#    y -0.009280 1.897220 0.000060 
#    z -0.016020 0.000060 1.893710 
# 
# From -- ./inp_files/306148.got.cif
#   From: 2010.06.25/outbox.cif.g09.slc.cpg/sg2_154_cif.got.tgz:306148.got - 2010.06.27 13:26:56.
