data_PCOD8025956
_publ_section_title
;
Structure prediction by ZEFSAII (Michael W. Deem and Ramdas Pophale) SiO2 
 PCOD8025956
Probable space group: P -1
;
_chemical_formula_sum "Si O2"
_cell_formula_units_Z 14
_cell_length_a 13.438974
_cell_length_b 19.333614
_cell_length_c 10.088016
_cell_angle_alpha 42.390864
_cell_angle_beta 148.753512
_cell_angle_gamma 150.583607
_cell_volume 667.588152
_symmetry_space_group_name_H-M "P -1"
_symmetry_group_IT_number 2
_symmetry_cell_setting 'triclinic'
loop_
_space_group_symop_operation_xyz
x,y,z
-x,-y,-z
loop_
_atom_site_type_symbol
_atom_site_label
_atom_site_fract_x
_atom_site_fract_y
_atom_site_fract_z
Si Si1 0.296235 0.137783 0.675208
Si Si2 0.723449 0.211585 0.855930
Si Si3 0.366035 0.000570 0.142734
Si Si4 0.264141 0.660098 0.572420
Si Si5 0.311600 0.386894 0.332848
Si Si6 0.432902 0.419183 0.903615
Si Si7 0.154053 0.814730 0.396307
O O1 0.500340 0.154709 0.788265
O O2 0.338070 0.274216 0.526276
O O3 0.000000 0.000000 0.500000
O O4 0.348926 0.112942 0.918740
O O5 0.679335 0.084772 0.918620
O O6 0.698803 0.290254 0.605924
O O7 0.009784 0.314029 0.109418
O O8 0.145939 0.897013 0.152469
O O9 0.652191 0.078454 0.417766
O O10 0.264765 0.752895 0.543846
O O11 0.000000 0.500000 0.500000
O O12 0.498611 0.674748 0.869862
O O13 0.500000 0.500000 0.500000
O O14 0.407308 0.463940 0.192282
O O15 0.123972 0.308760 0.677797
O O16 0.500000 0.500000 0.000000
#
# Coordination Sequence:
#
# PCOD8025956 Si02
#       7
#     2   2   2   2   2   2   2
#     4  12  27  43  73  94 134 191 227 267 348 418
#     4  11  24  46  67  97 136 178 227 285 338 411
#     4  10  23  47  66  96 137 175 230 282 341 398
#     4  11  21  39  68  96 129 175 220 276 345 396
#     4  12  29  45  67 108 143 177 230 285 347 415
#     4  12  23  42  71  97 135 178 229 279 344 405
#     4  10  24  42  67 100 132 169 229 293 327 403
#
# _framework density 20.971012999999999
#
# number of rings (size 3 to 8) (size 9 to 14) (size 15 to 20)
#    0.000    0.857    4.286    2.143    6.000    0.571 
#    0.000    2.143    0.000    0.000    0.000    0.000 
#    0.000    0.000    0.000    0.000    0.000    0.000 
#
# Total GULP energy -173607.096549 kJ/mol
# GULP energy per Si atom -12400.506896 kJ/mol
# Density = 2.092328 g / cm^3
# Si number density = 20.971013 Si / 1000 Ang^3
#
#
#
# Elastic Constant Matrix: (Units=GPa)
#
#
# Indices 1 2 3 4 5 6 
#
# 1 75.8209 37.3346 56.2942 11.1913 -0.6006 17.3814
# 2 37.3346 110.3714 62.8819 6.4837 -2.2055 11.8229
# 3 56.2942 62.8819 134.7163 -13.1536 0.3484 4.5263
# 4 11.1913 6.4837 -13.1536 58.9602 3.9282 -2.5190
# 5 -0.6006 -2.2055 0.3484 3.9282 28.4681 9.3785
# 6 17.3814 11.8229 4.5263 -2.5190 9.3785 32.4297
#
#
#
# Elastic Compliance Matrix: (Units=1/GPa)
#
#
# Indices 1 2 3 4 5 6 
#
# 1 0.026537 -0.000251 -0.011323 -0.008644 0.006884 -0.015214
# 2 -0.000251 0.013605 -0.006405 -0.003315 0.003277 -0.005137
# 3 -0.011323 -0.006405 0.015565 0.006975 -0.004553 0.008090
# 4 -0.008644 -0.003315 0.006975 0.021290 -0.006202 0.008315
# 5 0.006884 0.003277 -0.004553 -0.006202 0.041997 -0.016876
# 6 -0.015214 -0.005137 0.008090 0.008315 -0.016876 0.045260
#
#
# Mechanical properties :
#
#
# Convention : Reuss Voigt Hill
#
# Bulk Modulus (GPa) = 50.63286 70.43666 60.53476
# Shear Modulus (GPa) = 24.17849 34.93148 29.55498
#
# Velocity S-wave (km/s) = 3.39919 4.08573 3.75817
# Velocity P-wave (km/s) = 6.29306 7.47784 6.91089
#
# Compressibility (1/GPa) = 0.01975002
#
# Stress axis : x y z
#
# Youngs Moduli (GPa) = 37.68289 73.50346 64.24532
#
# Poissons Ratio (x) = 0.01842 0.72744
# Poissons Ratio (y) = 0.00944 0.41151
# Poissons Ratio (z) = 0.42668 0.47081
#
# Static dielectric constant tensor:
#      x y z
#    x 3.910630 -0.071830 0.304430 
#    y -0.071830 4.192500 -0.396330 
#    z 0.304430 -0.396330 4.549470 
# 
# 
# High freq. dielectric constant tensor:
#      x y z
#    x 1.807720 0.009230 -0.003980 
#    y 0.009230 1.842190 -0.007650 
#    z -0.003980 -0.007650 1.835080 
# 
# From -- ./inp_files/279153.got.cif
#   From: 2010.06.25/outbox.cif.g09.slc.cpg/sg2_140_cif.got.tgz:279153.got - 2010.06.27 13:26:56.
