data_PCOD8025214
_publ_section_title
;
Structure prediction by ZEFSAII (Michael W. Deem and Ramdas Pophale) SiO2 
 PCOD8025214
Probable space group: P -1
;
_chemical_formula_sum "Si O2"
_cell_formula_units_Z 16
_cell_length_a 12.298299
_cell_length_b 8.649264
_cell_length_c 17.798631
_cell_angle_alpha 41.467117
_cell_angle_beta 46.183882
_cell_angle_gamma 76.942922
_cell_volume 714.761343
_symmetry_space_group_name_H-M "P -1"
_symmetry_group_IT_number 2
_symmetry_cell_setting 'triclinic'
loop_
_space_group_symop_operation_xyz
x,y,z
-x,-y,-z
loop_
_atom_site_type_symbol
_atom_site_label
_atom_site_fract_x
_atom_site_fract_y
_atom_site_fract_z
Si Si1 0.511593 0.804225 0.008419
Si Si2 0.218038 0.577489 0.101635
Si Si3 0.881242 0.034362 0.671825
Si Si4 0.542860 0.039357 0.284354
Si Si5 0.447562 0.195023 0.493198
Si Si6 0.864189 0.349844 0.436650
Si Si7 0.083724 0.147921 0.678369
Si Si8 0.668100 0.578710 0.119836
O O1 0.329212 0.630035 0.105893
O O2 0.526509 0.585430 0.130347
O O3 0.500000 0.000000 0.000000
O O4 0.698055 0.010444 0.792817
O O5 0.022270 0.527418 0.231417
O O6 0.177171 0.291956 0.185945
O O7 0.334241 0.860628 0.887230
O O8 0.947941 0.218888 0.495949
O O9 0.049236 0.215775 0.586509
O O10 0.659373 0.312178 0.187062
O O11 0.519142 0.780785 0.440641
O O12 0.332153 0.926205 0.405044
O O13 0.228961 0.069597 0.631675
O O14 0.587399 0.512711 0.268233
O O15 0.500000 0.000000 0.500000
O O16 0.830582 0.562071 0.417985
O O17 0.883009 0.877223 0.908789
#
# Coordination Sequence:
#
# PCOD8025214 Si02
#       8
#     2   2   2   2   2   2   2   2
#     4  11  22  38  67 101 141 180 214 277 349 403
#     4  12  23  42  69  99 142 183 224 276 340 405
#     4  11  23  43  67 102 140 178 226 277 337 417
#     4  11  24  46  67  99 136 177 237 276 332 402
#     4  10  26  44  75  98 131 183 236 281 331 402
#     4  12  27  40  68 106 141 177 220 281 351 400
#     4  11  25  45  67 104 137 174 228 287 336 404
#     4  10  23  44  70  99 135 178 229 275 345 399
#
# _framework density 22.385095
#
# number of rings (size 3 to 8) (size 9 to 14) (size 15 to 20)
#    0.000    1.000    3.750    3.375    7.000    4.500 
#    0.000    1.250    0.000    0.000    0.000    0.000 
#    0.000    0.000    0.000    0.000    0.000    0.000 
#
# Total GULP energy -198339.057560 kJ/mol
# GULP energy per Si atom -12396.191097 kJ/mol
# Density = 2.233415 g / cm^3
# Si number density = 22.385095 Si / 1000 Ang^3
#
#
#
# Elastic Constant Matrix: (Units=GPa)
#
#
# Indices 1 2 3 4 5 6 
#
# 1 93.5030 17.0702 66.1401 21.0660 11.8670 2.1089
# 2 17.0702 81.2126 19.0620 7.5980 -13.3353 -1.6924
# 3 66.1401 19.0620 125.2924 29.7775 15.3478 4.5586
# 4 21.0660 7.5980 29.7775 34.1595 6.6493 -3.1040
# 5 11.8670 -13.3353 15.3478 6.6493 39.5128 10.9348
# 6 2.1089 -1.6924 4.5586 -3.1040 10.9348 19.4198
#
#
#
# Elastic Compliance Matrix: (Units=1/GPa)
#
#
# Indices 1 2 3 4 5 6 
#
# 1 0.017736 -0.001968 -0.008094 -0.002868 -0.002585 0.000800
# 2 -0.001968 0.014381 -0.001347 -0.002429 0.007096 -0.002601
# 3 -0.008094 -0.001347 0.014496 -0.007292 -0.001627 -0.002890
# 4 -0.002868 -0.002429 -0.007292 0.040509 -0.007387 0.012446
# 5 -0.002585 0.007096 -0.001627 -0.007387 0.035925 -0.020128
# 6 0.000800 -0.002601 -0.002890 0.012446 -0.020128 0.065182
#
#
# Mechanical properties :
#
#
# Convention : Reuss Voigt Hill
#
# Bulk Modulus (GPa) = 42.02166 56.06138 49.04152
# Shear Modulus (GPa) = 22.83348 31.80080 27.31714
#
# Velocity S-wave (km/s) = 3.19726 3.77321 3.49711
# Velocity P-wave (km/s) = 5.69586 6.63937 6.18563
#
# Compressibility (1/GPa) = 0.02379725
#
# Stress axis : x y z
#
# Youngs Moduli (GPa) = 56.38406 69.53495 68.98352
#
# Poissons Ratio (x) = 0.13682 0.55833
# Poissons Ratio (y) = 0.11094 0.09289
# Poissons Ratio (z) = 0.45635 0.09363
#
# Static dielectric constant tensor:
#      x y z
#    x 3.568500 0.506930 -0.337580 
#    y 0.506930 3.578770 0.764750 
#    z -0.337580 0.764750 3.333970 
# 
# 
# High freq. dielectric constant tensor:
#      x y z
#    x 1.879930 0.006890 0.008380 
#    y 0.006890 1.869890 0.017140 
#    z 0.008380 0.017140 1.891780 
# 
# From -- ./inp_files/398251.got.cif
#   From: 2010.06.25/outbox.cif.g09.slc.cpg/sg2_200_cif.got.tgz:398251.got - 2010.06.27 13:26:56.
