data_PCOD8025988
_publ_section_title
;
Structure prediction by ZEFSAII (Michael W. Deem and Ramdas Pophale) SiO2 
 PCOD8025988
Probable space group: P -1
;
_chemical_formula_sum "Si O2"
_cell_formula_units_Z 14
_cell_length_a 14.085381
_cell_length_b 14.088632
_cell_length_c 8.028577
_cell_angle_alpha 115.605399
_cell_angle_beta 81.872235
_cell_angle_gamma 150.870373
_cell_volume 589.593076
_symmetry_space_group_name_H-M "P -1"
_symmetry_group_IT_number 2
_symmetry_cell_setting 'triclinic'
loop_
_space_group_symop_operation_xyz
x,y,z
-x,-y,-z
loop_
_atom_site_type_symbol
_atom_site_label
_atom_site_fract_x
_atom_site_fract_y
_atom_site_fract_z
Si Si1 0.951607 0.677112 0.300414
Si Si2 0.319632 0.202760 0.474972
Si Si3 0.745290 0.547533 0.806960
Si Si4 0.659336 0.562682 0.185256
Si Si5 0.827296 0.922302 0.949013
Si Si6 0.164743 0.726355 0.503637
Si Si7 0.680377 0.277900 0.802916
O O1 0.752307 0.566181 0.295096
O O2 0.038905 0.711299 0.476550
O O3 0.847139 0.480020 0.062529
O O4 0.162928 0.945530 0.358367
O O5 0.585342 0.439617 0.624912
O O6 0.247533 0.229970 0.628142
O O7 0.304618 0.222412 0.303029
O O8 0.657300 0.343865 0.716047
O O9 0.758548 0.635275 0.034205
O O10 0.012749 0.812948 0.878840
O O11 0.380484 0.278542 0.019383
O O12 0.000000 0.000000 0.000000
O O13 0.205610 0.708626 0.303634
O O14 0.000000 0.500000 0.500000
O O15 0.420371 0.997684 0.726079
#
# Coordination Sequence:
#
# PCOD8025988 Si02
#       7
#     2   2   2   2   2   2   2
#     4  11  24  45  70  99 138 180 216 276 343 397
#     4  12  23  45  67  98 141 184 219 270 337 394
#     4  11  24  45  69  97 139 181 225 278 333 397
#     4  11  25  43  67 102 138 183 229 272 328 399
#     4  12  26  42  64  99 138 182 230 277 321 393
#     4  11  25  46  73 100 128 172 225 284 339 399
#     4  10  23  47  69  99 134 172 222 278 342 399
#
# _framework density 23.745190000000001
#
# number of rings (size 3 to 8) (size 9 to 14) (size 15 to 20)
#    0.000    0.857    5.714    1.714    0.000    4.000 
#    0.000    0.000    0.000    0.000    0.000    0.000 
#    0.000    0.000    0.000    0.000    0.000    0.000 
#
# Total GULP energy -173576.685165 kJ/mol
# GULP energy per Si atom -12398.334655 kJ/mol
# Density = 2.369114 g / cm^3
# Si number density = 23.745190 Si / 1000 Ang^3
#
#
#
# Elastic Constant Matrix: (Units=GPa)
#
#
# Indices 1 2 3 4 5 6 
#
# 1 94.3799 12.5084 19.3479 2.1288 28.6794 -4.4096
# 2 12.5084 94.7752 25.5747 33.5647 10.2805 -1.5388
# 3 19.3479 25.5747 104.6435 23.0463 5.5813 0.0645
# 4 2.1288 33.5647 23.0463 34.6274 -6.6053 9.8408
# 5 28.6794 10.2805 5.5813 -6.6053 42.9551 5.2332
# 6 -4.4096 -1.5388 0.0645 9.8408 5.2332 34.6905
#
#
#
# Elastic Compliance Matrix: (Units=1/GPa)
#
#
# Indices 1 2 3 4 5 6 
#
# 1 0.014423 0.001554 -0.001332 -0.005079 -0.011223 0.005039
# 2 0.001554 0.020571 0.000933 -0.025671 -0.011259 0.010089
# 3 -0.001332 0.000933 0.011982 -0.010247 -0.002855 0.003187
# 4 -0.005079 -0.025671 -0.010247 0.073218 0.025336 -0.026358
# 5 -0.011223 -0.011259 -0.002855 0.025336 0.039572 -0.015078
# 6 0.005039 0.010089 0.003187 -0.026358 -0.015078 0.039660
#
#
# Mechanical properties :
#
#
# Convention : Reuss Voigt Hill
#
# Bulk Modulus (GPa) = 20.29010 45.40672 32.84841
# Shear Modulus (GPa) = 23.41430 38.21243 30.81337
#
# Velocity S-wave (km/s) = 3.14357 4.01592 3.60622
# Velocity P-wave (km/s) = 4.66257 6.37711 5.58601
#
# Compressibility (1/GPa) = 0.04928511
#
# Stress axis : x y z
#
# Youngs Moduli (GPa) = 69.33307 48.61244 83.46071
#
# Poissons Ratio (x) = -0.07554 0.11121
# Poissons Ratio (y) = -0.10774 -0.07788
# Poissons Ratio (z) = 0.09238 -0.04536
#
# Static dielectric constant tensor:
#      x y z
#    x 4.489970 -0.006850 0.169110 
#    y -0.006850 4.247350 0.452210 
#    z 0.169110 0.452210 4.371740 
# 
# 
# High freq. dielectric constant tensor:
#      x y z
#    x 1.946150 -0.003800 0.011930 
#    y -0.003800 1.933620 0.027880 
#    z 0.011930 0.027880 1.944090 
# 
# From -- ./inp_files/313853.got.cif
#   From: 2010.06.25/outbox.cif.g09.slc.cpg/sg2_157_cif.got.tgz:313853.got - 2010.06.27 13:26:56.
