data_PCOD8025613
_publ_section_title
;
Structure prediction by ZEFSAII (Michael W. Deem and Ramdas Pophale) SiO2 
 PCOD8025613
Probable space group: P -1
;
_chemical_formula_sum "Si O2"
_cell_formula_units_Z 16
_cell_length_a 9.250415
_cell_length_b 15.320912
_cell_length_c 9.955407
_cell_angle_alpha 67.194677
_cell_angle_beta 121.589222
_cell_angle_gamma 144.017839
_cell_volume 704.277783
_symmetry_space_group_name_H-M "P -1"
_symmetry_group_IT_number 2
_symmetry_cell_setting 'triclinic'
loop_
_space_group_symop_operation_xyz
x,y,z
-x,-y,-z
loop_
_atom_site_type_symbol
_atom_site_label
_atom_site_fract_x
_atom_site_fract_y
_atom_site_fract_z
Si Si1 0.029036 0.555434 0.780845
Si Si2 0.601474 0.818975 0.493378
Si Si3 0.839618 0.934438 0.249976
Si Si4 0.711869 0.504874 0.427839
Si Si5 0.693294 0.535067 0.816164
Si Si6 0.583384 0.726186 0.000205
Si Si7 0.012628 0.184876 0.050947
Si Si8 0.904470 0.307658 0.739688
O O1 0.945161 0.588998 0.598576
O O2 0.873340 0.527833 0.850930
O O3 0.931038 0.405604 0.800397
O O4 0.349612 0.701477 0.866654
O O5 0.662798 0.842507 0.350081
O O6 0.487615 0.669433 0.573998
O O7 0.370990 0.798540 0.413876
O O8 0.853254 0.954302 0.626529
O O9 0.747918 0.823401 0.155930
O O10 0.802446 0.025297 0.118655
O O11 0.536659 0.524295 0.361899
O O12 0.841956 0.576090 0.303014
O O13 0.557979 0.435430 0.944128
O O14 0.863131 0.699211 0.840344
O O15 0.776701 0.796746 0.925952
O O16 0.883765 0.197488 0.868791
#
# Coordination Sequence:
#
# PCOD8025613 Si02
#       8
#     2   2   2   2   2   2   2   2
#     4  11  24  37  69 104 134 169 222 288 335 384
#     4  10  23  45  70  97 136 185 221 267 341 407
#     4  11  26  45  68  96 142 186 215 270 340 414
#     4  11  22  44  72 102 134 171 230 286 334 387
#     4  12  23  42  70 101 136 171 233 285 328 392
#     4  12  24  44  67 101 136 177 226 280 335 397
#     4  12  25  44  66  99 135 182 225 269 339 395
#     4  11  23  44  72 102 132 176 229 285 330 391
#
# _framework density 22.718308
#
# number of rings (size 3 to 8) (size 9 to 14) (size 15 to 20)
#    0.000    0.750    3.750    5.250    3.500    0.500 
#    0.000    0.625    0.000    0.000    0.000    0.000 
#    0.000    0.000    0.000    0.000    0.000    0.000 
#
# Total GULP energy -198371.811910 kJ/mol
# GULP energy per Si atom -12398.238244 kJ/mol
# Density = 2.266660 g / cm^3
# Si number density = 22.718308 Si / 1000 Ang^3
#
#
#
# Elastic Constant Matrix: (Units=GPa)
#
#
# Indices 1 2 3 4 5 6 
#
# 1 104.7559 25.0229 26.4333 4.7752 20.3981 5.4027
# 2 25.0229 44.9989 19.9034 -0.4015 15.7113 2.7977
# 3 26.4333 19.9034 82.2308 0.1610 23.1649 4.2972
# 4 4.7752 -0.4015 0.1610 43.1499 -5.2388 4.5444
# 5 20.3981 15.7113 23.1649 -5.2388 43.3848 4.2003
# 6 5.4027 2.7977 4.2972 4.5444 4.2003 23.7987
#
#
#
# Elastic Compliance Matrix: (Units=1/GPa)
#
#
# Indices 1 2 3 4 5 6 
#
# 1 0.011823 -0.004696 -0.001759 -0.001609 -0.003019 -0.000974
# 2 -0.004696 0.028633 -0.003662 0.000116 -0.006136 -0.000578
# 3 -0.001759 -0.003662 0.015355 -0.000548 -0.006036 -0.000773
# 4 -0.001609 0.000116 -0.000548 0.024422 0.004440 -0.004996
# 5 -0.003019 -0.006136 -0.006036 0.004440 0.030817 -0.003790
# 6 -0.000974 -0.000578 -0.000773 -0.004996 -0.003790 0.044071
#
#
# Mechanical properties :
#
#
# Convention : Reuss Voigt Hill
#
# Bulk Modulus (GPa) = 28.10937 41.63387 34.87162
# Shear Modulus (GPa) = 26.70720 32.77508 29.74114
#
# Velocity S-wave (km/s) = 3.43239 3.80237 3.62211
# Velocity P-wave (km/s) = 5.30173 6.13541 5.73374
#
# Compressibility (1/GPa) = 0.03557532
#
# Stress axis : x y z
#
# Youngs Moduli (GPa) = 84.57975 34.92421 65.12585
#
# Poissons Ratio (x) = 0.16401 0.11458
# Poissons Ratio (y) = 0.39720 0.23852
# Poissons Ratio (z) = 0.14881 0.12791
#
# Static dielectric constant tensor:
#      x y z
#    x 4.186050 0.199450 0.334470 
#    y 0.199450 3.925710 -0.055230 
#    z 0.334470 -0.055230 4.298700 
# 
# 
# High freq. dielectric constant tensor:
#      x y z
#    x 1.892300 0.013270 0.015740 
#    y 0.013270 1.876450 -0.009750 
#    z 0.015740 -0.009750 1.917780 
# 
# From -- ./inp_files/207079.got.cif
#   From: 2010.06.25/outbox.cif.g09.slc.cpg/sg2_104_cif.got.tgz:207079.got - 2010.06.27 13:26:56.
