data_PCOD8025204
_publ_section_title
;
Structure prediction by ZEFSAII (Michael W. Deem and Ramdas Pophale) SiO2 
 PCOD8025204
Probable space group: P -1
;
_chemical_formula_sum "Si O2"
_cell_formula_units_Z 16
_cell_length_a 8.731825
_cell_length_b 9.670981
_cell_length_c 15.410558
_cell_angle_alpha 101.200348
_cell_angle_beta 47.390477
_cell_angle_gamma 71.036203
_cell_volume 727.907618
_symmetry_space_group_name_H-M "P -1"
_symmetry_group_IT_number 2
_symmetry_cell_setting 'triclinic'
loop_
_space_group_symop_operation_xyz
x,y,z
-x,-y,-z
loop_
_atom_site_type_symbol
_atom_site_label
_atom_site_fract_x
_atom_site_fract_y
_atom_site_fract_z
Si Si1 0.981451 0.560793 0.739811
Si Si2 0.644690 0.398476 0.298021
Si Si3 0.064588 0.929160 0.319559
Si Si4 0.199419 0.972110 0.748587
Si Si5 0.022303 0.707843 0.578896
Si Si6 0.049672 0.698733 0.000290
Si Si7 0.803213 0.787781 0.489419
Si Si8 0.311057 0.351949 0.967053
O O1 0.238680 0.518212 0.684462
O O2 0.875116 0.704748 0.719284
O O3 0.067721 0.371638 0.649550
O O4 0.736599 0.647933 0.911755
O O5 0.777747 0.202544 0.262741
O O6 0.328064 0.525475 0.446955
O O7 0.707328 0.384328 0.170390
O O8 0.378540 0.763781 0.186606
O O9 0.909963 0.899013 0.444623
O O10 0.971588 0.930422 0.259626
O O11 0.995169 0.117627 0.393490
O O12 0.483941 0.925715 0.620707
O O13 0.041939 0.111675 0.905220
O O14 0.886520 0.703769 0.544051
O O15 0.794701 0.739052 0.054985
O O16 0.150026 0.558781 0.023529
#
# Coordination Sequence:
#
# PCOD8025204 Si02
#       8
#     2   2   2   2   2   2   2   2
#     4  11  23  44  68  96 134 176 213 270 330 387
#     4  11  23  44  69  97 135 174 217 269 330 392
#     4  12  26  44  68 100 132 175 219 271 332 390
#     4  12  24  43  66 100 135 171 221 270 327 393
#     4  12  24  44  69  97 135 175 218 273 327 387
#     4  10  23  44  70  98 131 173 217 274 327 387
#     4  12  26  42  68 101 131 173 224 274 323 389
#     4  10  24  46  68  96 134 173 219 269 332 391
#
# _framework density 21.980813000000001
#
# number of rings (size 3 to 8) (size 9 to 14) (size 15 to 20)
#    0.000    0.750    2.500    4.875    0.000    6.500 
#    2.250    0.000    0.000    0.000    0.000    0.000 
#    0.000    0.000    0.000    0.000    0.000    0.000 
#
# Total GULP energy -198545.239564 kJ/mol
# GULP energy per Si atom -12409.077473 kJ/mol
# Density = 2.193078 g / cm^3
# Si number density = 21.980813 Si / 1000 Ang^3
#
#
#
# Elastic Constant Matrix: (Units=GPa)
#
#
# Indices 1 2 3 4 5 6 
#
# 1 76.1866 16.4860 40.2890 2.8160 8.2008 -15.4079
# 2 16.4860 97.4412 36.0120 -10.5795 11.1375 -1.6693
# 3 40.2890 36.0120 81.1831 -9.2894 14.6855 -2.8831
# 4 2.8160 -10.5795 -9.2894 44.3351 3.3760 5.3386
# 5 8.2008 11.1375 14.6855 3.3760 35.8016 -2.7969
# 6 -15.4079 -1.6693 -2.8831 5.3386 -2.7969 28.4124
#
#
#
# Elastic Compliance Matrix: (Units=1/GPa)
#
#
# Indices 1 2 3 4 5 6 
#
# 1 0.021317 -0.000044 -0.010915 -0.005112 0.000989 0.011508
# 2 -0.000044 0.012565 -0.004935 0.002176 -0.002111 -0.000403
# 3 -0.010915 -0.004935 0.021326 0.005081 -0.005625 -0.005553
# 4 -0.005112 0.002176 0.005081 0.025706 -0.004593 -0.007411
# 5 0.000989 -0.002111 -0.005625 -0.004593 0.031399 0.003795
# 6 0.011508 -0.000403 -0.005553 -0.007411 0.003795 0.042615
#
#
# Mechanical properties :
#
#
# Convention : Reuss Voigt Hill
#
# Bulk Modulus (GPa) = 42.69956 48.93166 45.81561
# Shear Modulus (GPa) = 25.70404 32.51142 29.10773
#
# Velocity S-wave (km/s) = 3.42334 3.85006 3.64295
# Velocity P-wave (km/s) = 5.92399 6.48639 6.21156
#
# Compressibility (1/GPa) = 0.02341945
#
# Stress axis : x y z
#
# Youngs Moduli (GPa) = 46.91094 79.58856 46.89217
#
# Poissons Ratio (x) = 0.00348 0.51182
# Poissons Ratio (y) = 0.00205 0.23143
# Poissons Ratio (z) = 0.51203 0.39279
#
# Static dielectric constant tensor:
#      x y z
#    x 4.062570 0.010220 0.145940 
#    y 0.010220 3.994420 -0.152150 
#    z 0.145940 -0.152150 3.897890 
# 
# 
# High freq. dielectric constant tensor:
#      x y z
#    x 1.873650 0.002710 0.013190 
#    y 0.002710 1.874030 -0.007690 
#    z 0.013190 -0.007690 1.866360 
# 
# From -- ./inp_files/186150.got.cif
#   From: 2010.06.25/outbox.cif.g09.slc.cpg/sg2_94_cif.got.tgz:186150.got - 2010.06.27 13:26:56.
