data_PCOD8025692
_publ_section_title
;
Structure prediction by ZEFSAII (Michael W. Deem and Ramdas Pophale) SiO2 
 PCOD8025692
Probable space group: P -1
;
_chemical_formula_sum "Si O2"
_cell_formula_units_Z 12
_cell_length_a 6.577282
_cell_length_b 16.803332
_cell_length_c 14.408663
_cell_angle_alpha 156.821042
_cell_angle_beta 118.953841
_cell_angle_gamma 64.212597
_cell_volume 548.220770
_symmetry_space_group_name_H-M "P -1"
_symmetry_group_IT_number 2
_symmetry_cell_setting 'triclinic'
loop_
_space_group_symop_operation_xyz
x,y,z
-x,-y,-z
loop_
_atom_site_type_symbol
_atom_site_label
_atom_site_fract_x
_atom_site_fract_y
_atom_site_fract_z
Si Si1 0.460884 0.785569 0.565294
Si Si2 0.636879 0.800392 0.420120
Si Si3 0.252059 0.455979 0.478330
Si Si4 0.135497 0.891111 0.330717
Si Si5 0.005536 0.525288 0.137861
Si Si6 0.557830 0.841542 0.921544
O O1 0.628981 0.808264 0.538069
O O2 0.596639 0.656242 0.531670
O O3 0.218731 0.668968 0.368324
O O4 0.395514 0.016143 0.826012
O O5 0.376917 0.810414 0.336544
O O6 0.756729 0.596723 0.196108
O O7 0.809855 0.974609 0.603275
O O8 0.347797 0.679894 0.715922
O O9 0.234356 0.303281 0.221567
O O10 0.000000 0.500000 0.500000
O O11 0.000000 0.000000 0.500000
O O12 0.972802 0.700645 0.057621
O O13 0.000000 0.500000 0.000000
O O14 0.500000 0.000000 0.000000
#
# Coordination Sequence:
#
# PCOD8025692 Si02
#       6
#     2   2   2   2   2   2
#     4  11  25  41  66 102 133 172 227 268 328 403
#     4  11  24  40  66  93 131 182 225 273 324 385
#     4  10  23  45  73  96 132 171 214 276 342 397
#     4  11  23  42  64  90 130 182 223 274 325 375
#     4  12  24  43  64  91 138 180 222 273 323 382
#     4   9  22  45  68  96 133 167 213 277 336 391
#
# _framework density 21.88899
#
# number of rings (size 3 to 8) (size 9 to 14) (size 15 to 20)
#    0.000    1.333    3.333    0.500    0.000   12.000 
#    0.000    0.000    0.000    0.000    0.000    0.000 
#    0.000    0.000    0.000    0.000    0.000    0.000 
#
# Total GULP energy -148672.638190 kJ/mol
# GULP energy per Si atom -12389.386516 kJ/mol
# Density = 2.183917 g / cm^3
# Si number density = 21.888990 Si / 1000 Ang^3
#
#
#
# Elastic Constant Matrix: (Units=GPa)
#
#
# Indices 1 2 3 4 5 6 
#
# 1 181.5352 43.3653 99.0147 7.9918 -27.8332 8.0504
# 2 43.3653 67.3384 44.6027 10.0560 -3.0112 12.7844
# 3 99.0147 44.6027 218.4834 14.7361 -9.0846 9.8921
# 4 7.9918 10.0560 14.7361 35.0892 11.9641 2.7867
# 5 -27.8332 -3.0112 -9.0846 11.9641 39.8268 7.6696
# 6 8.0504 12.7844 9.8921 2.7867 7.6696 45.1264
#
#
#
# Elastic Compliance Matrix: (Units=1/GPa)
#
#
# Indices 1 2 3 4 5 6 
#
# 1 0.008929 -0.003014 -0.003004 -0.001906 0.006092 -0.000998
# 2 -0.003014 0.019709 -0.002141 -0.004038 0.000974 -0.004493
# 3 -0.003004 -0.002141 0.006451 -0.001270 -0.000384 -0.000128
# 4 -0.001906 -0.004038 -0.001270 0.034823 -0.012730 0.001776
# 5 0.006092 0.000974 -0.000384 -0.012730 0.034397 -0.006338
# 6 -0.000998 -0.004493 -0.000128 0.001776 -0.006338 0.024606
#
#
# Mechanical properties :
#
#
# Convention : Reuss Voigt Hill
#
# Bulk Modulus (GPa) = 53.27549 93.48028 73.37789
# Shear Modulus (GPa) = 33.00487 42.70009 37.85248
#
# Velocity S-wave (km/s) = 3.88729 4.42153 4.16299
# Velocity P-wave (km/s) = 6.67382 8.29854 7.53013
#
# Compressibility (1/GPa) = 0.01877036
#
# Stress axis : x y z
#
# Youngs Moduli (GPa) = 111.98891 50.73782 155.00842
#
# Poissons Ratio (x) = 0.15292 0.46571
# Poissons Ratio (y) = 0.33752 0.33195
# Poissons Ratio (z) = 0.33646 0.10865
#
# Static dielectric constant tensor:
#      x y z
#    x 2.081600 4.728940 -0.161980 
#    y 4.728940 -4.774010 0.530830 
#    z -0.161980 0.530830 4.764580 
# 
# 
# High freq. dielectric constant tensor:
#      x y z
#    x 1.876480 0.017270 -0.009400 
#    y 0.017270 1.848100 0.021610 
#    z -0.009400 0.021610 1.881150 
# 
# From -- ./inp_files/43481.got.cif
#   From: 2010.06.25/outbox.cif.g09.slc.cpg/sg2_22_cif.got.tgz:43481.got - 2010.06.27 13:26:56.
