data_PCOD8025958
_publ_section_title
;
Structure prediction by ZEFSAII (Michael W. Deem and Ramdas Pophale) SiO2 
 PCOD8025958
Probable space group: P -1
;
_chemical_formula_sum "Si O2"
_cell_formula_units_Z 12
_cell_length_a 9.684621
_cell_length_b 10.616602
_cell_length_c 7.270697
_cell_angle_alpha 74.668368
_cell_angle_beta 57.309074
_cell_angle_gamma 65.333850
_cell_volume 570.991108
_symmetry_space_group_name_H-M "P -1"
_symmetry_group_IT_number 2
_symmetry_cell_setting 'triclinic'
loop_
_space_group_symop_operation_xyz
x,y,z
-x,-y,-z
loop_
_atom_site_type_symbol
_atom_site_label
_atom_site_fract_x
_atom_site_fract_y
_atom_site_fract_z
Si Si1 0.426935 0.762780 0.358997
Si Si2 0.981545 0.392102 0.909170
Si Si3 0.801322 0.951579 0.538601
Si Si4 0.310099 0.263083 0.494480
Si Si5 0.938645 0.181441 0.296360
Si Si6 0.377065 0.422396 0.044384
O O1 0.531988 0.752544 0.475903
O O2 0.255333 0.717487 0.537360
O O3 0.354026 0.926789 0.290751
O O4 0.548346 0.665967 0.157345
O O5 0.997503 0.246277 0.050920
O O6 0.800119 0.453893 0.913423
O O7 0.000000 0.500000 0.000000
O O8 0.132825 0.369604 0.661084
O O9 0.718522 0.882948 0.467753
O O10 0.916340 0.834823 0.642826
O O11 0.925698 0.028594 0.321945
O O12 0.353387 0.316235 0.249656
O O13 0.500000 0.500000 0.000000
#
# Coordination Sequence:
#
# PCOD8025958 Si02
#       6
#     2   2   2   2   2   2
#     4  10  23  47  66  98 135 169 218 283 323 389
#     4  12  25  43  67  97 138 176 218 273 329 394
#     4   9  22  44  70 100 129 173 227 271 331 393
#     4  12  25  43  69 101 131 177 223 271 333 393
#     4   9  22  44  69  95 132 177 215 276 330 382
#     4  12  28  43  69 100 133 180 219 272 331 398
#
# _framework density 21.016089999999998
#
# number of rings (size 3 to 8) (size 9 to 14) (size 15 to 20)
#    1.000    0.333    1.667    3.000    4.667    2.667 
#    3.000    0.000    0.000    0.000    0.000    0.000 
#    0.000    0.000    0.000    0.000    0.000    0.000 
#
# Total GULP energy -148745.113873 kJ/mol
# GULP energy per Si atom -12395.426156 kJ/mol
# Density = 2.096826 g / cm^3
# Si number density = 21.016090 Si / 1000 Ang^3
#
#
#
# Elastic Constant Matrix: (Units=GPa)
#
#
# Indices 1 2 3 4 5 6 
#
# 1 119.3833 33.6081 13.2652 -6.4223 9.9813 -21.2171
# 2 33.6081 71.0058 13.0739 -4.1908 8.4969 0.5385
# 3 13.2652 13.0739 61.4755 -8.8304 4.1554 -0.9534
# 4 -6.4223 -4.1908 -8.8304 36.7598 -4.3975 -0.6669
# 5 9.9813 8.4969 4.1554 -4.3975 29.7310 5.7644
# 6 -21.2171 0.5385 -0.9534 -0.6669 5.7644 44.3208
#
#
#
# Elastic Compliance Matrix: (Units=1/GPa)
#
#
# Indices 1 2 3 4 5 6 
#
# 1 0.011164 -0.004707 -0.000968 0.000896 -0.003263 0.005819
# 2 -0.004707 0.017091 -0.002455 0.000197 -0.002509 -0.002184
# 3 -0.000968 -0.002455 0.017588 0.003669 -0.000912 0.000118
# 4 0.000896 0.000197 0.003669 0.028665 0.003271 0.000512
# 5 -0.003263 -0.002509 -0.000912 0.003271 0.037290 -0.006352
# 6 0.005819 -0.002184 0.000118 0.000512 -0.006352 0.026211
#
#
# Mechanical properties :
#
#
# Convention : Reuss Voigt Hill
#
# Bulk Modulus (GPa) = 33.80290 41.30653 37.55472
# Shear Modulus (GPa) = 30.46338 34.95682 32.71010
#
# Velocity S-wave (km/s) = 3.81140 4.08283 3.94944
# Velocity P-wave (km/s) = 5.95720 6.47482 6.22140
#
# Compressibility (1/GPa) = 0.02958326
#
# Stress axis : x y z
#
# Youngs Moduli (GPa) = 89.57276 58.50864 56.85605
#
# Poissons Ratio (x) = 0.27537 0.05506
# Poissons Ratio (y) = 0.42158 0.13960
# Poissons Ratio (z) = 0.08675 0.14366
#
# Static dielectric constant tensor:
#      x y z
#    x 4.089840 -0.084750 -0.165160 
#    y -0.084750 3.547550 0.053290 
#    z -0.165160 0.053290 3.703270 
# 
# 
# High freq. dielectric constant tensor:
#      x y z
#    x 1.847870 -0.003570 -0.005360 
#    y -0.003570 1.822410 -0.001680 
#    z -0.005360 -0.001680 1.803510 
# 
# From -- ./inp_files/27408.got.cif
#   From: 2010.06.25/outbox.cif.g09.slc.cpg/sg2_14_cif.got.tgz:27408.got - 2010.06.27 13:26:56.
