data_PCOD8025281
_publ_section_title
;
Structure prediction by ZEFSAII (Michael W. Deem and Ramdas Pophale) SiO2 
 PCOD8025281
Probable space group: P -1
;
_chemical_formula_sum "Si O2"
_cell_formula_units_Z 16
_cell_length_a 6.254899
_cell_length_b 8.491860
_cell_length_c 19.300112
_cell_angle_alpha 60.274003
_cell_angle_beta 54.245683
_cell_angle_gamma 88.108452
_cell_volume 672.813512
_symmetry_space_group_name_H-M "P -1"
_symmetry_group_IT_number 2
_symmetry_cell_setting 'triclinic'
loop_
_space_group_symop_operation_xyz
x,y,z
-x,-y,-z
loop_
_atom_site_type_symbol
_atom_site_label
_atom_site_fract_x
_atom_site_fract_y
_atom_site_fract_z
Si Si1 0.224593 0.089313 0.838271
Si Si2 0.996868 0.352873 0.472973
Si Si3 0.239742 0.690824 0.944386
Si Si4 0.626053 0.935945 0.334174
Si Si5 0.410655 0.247909 0.262344
Si Si6 0.728753 0.209979 0.930754
Si Si7 0.210099 0.043551 0.555800
Si Si8 0.681904 0.398633 0.760286
O O1 0.258478 0.137583 0.739446
O O2 0.523549 0.194517 0.796640
O O3 0.017947 0.176968 0.894496
O O4 0.112529 0.860183 0.922674
O O5 0.214960 0.238569 0.471998
O O6 0.056264 0.475187 0.364237
O O7 0.000000 0.500000 0.500000
O O8 0.689959 0.194953 0.558025
O O9 0.529985 0.744611 0.833541
O O10 0.326744 0.690004 0.009444
O O11 0.000000 0.500000 0.000000
O O12 0.824356 0.927183 0.361939
O O13 0.616905 0.151002 0.278830
O O14 0.510274 0.468271 0.223717
O O15 0.077973 0.136872 0.369568
O O16 0.775564 0.363583 0.826607
O O17 0.500000 0.000000 0.000000
O O18 0.500000 0.000000 0.500000
#
# Coordination Sequence:
#
# PCOD8025281 Si02
#       8
#     2   2   2   2   2   2   2   2
#     4  11  25  44  70 102 141 182 237 305 360 426
#     4  11  24  43  71 105 149 190 235 300 363 430
#     4  11  25  49  75 101 143 190 243 307 368 422
#     4  10  23  44  72 102 142 187 232 297 357 437
#     4  10  25  44  71 103 145 185 237 298 363 428
#     4  12  28  44  74 101 140 189 241 298 364 428
#     4  11  24  43  72 106 147 189 242 293 369 440
#     4  12  25  45  70 104 144 183 243 288 364 428
#
# _framework density 23.780735
#
# number of rings (size 3 to 8) (size 9 to 14) (size 15 to 20)
#    0.000    1.000    2.500    2.625    5.250    8.000 
#    0.000    0.000    0.000    0.000    0.000    0.000 
#    0.000    0.000    0.000    0.000    0.000    0.000 
#
# Total GULP energy -198314.646097 kJ/mol
# GULP energy per Si atom -12394.665381 kJ/mol
# Density = 2.372661 g / cm^3
# Si number density = 23.780735 Si / 1000 Ang^3
#
#
#
# Elastic Constant Matrix: (Units=GPa)
#
#
# Indices 1 2 3 4 5 6 
#
# 1 60.2011 13.3637 30.8598 -10.8635 13.0663 16.8726
# 2 13.3637 107.4041 41.1397 -16.0936 1.5132 14.0411
# 3 30.8598 41.1397 142.1584 -0.1804 28.2289 5.4206
# 4 -10.8635 -16.0936 -0.1804 39.7424 4.1073 1.4955
# 5 13.0663 1.5132 28.2289 4.1073 38.6754 13.2030
# 6 16.8726 14.0411 5.4206 1.4955 13.2030 39.9670
#
#
#
# Elastic Compliance Matrix: (Units=1/GPa)
#
#
# Indices 1 2 3 4 5 6 
#
# 1 0.023018 0.001194 -0.004554 0.007321 -0.002179 -0.009073
# 2 0.001194 0.012262 -0.004309 0.005108 0.003638 -0.005621
# 3 -0.004554 -0.004309 0.010539 -0.002360 -0.007270 0.004497
# 4 0.007321 0.005108 -0.002360 0.029656 -0.002438 -0.004869
# 5 -0.002179 0.003638 -0.007270 -0.002438 0.035808 -0.011110
# 6 -0.009073 -0.005621 0.004497 -0.004869 -0.011110 0.034068
#
#
# Mechanical properties :
#
#
# Convention : Reuss Voigt Hill
#
# Bulk Modulus (GPa) = 32.80867 53.38779 43.09823
# Shear Modulus (GPa) = 29.26558 38.63700 33.95129
#
# Velocity S-wave (km/s) = 3.51186 4.03515 3.78257
# Velocity P-wave (km/s) = 5.50186 6.64896 6.10242
#
# Compressibility (1/GPa) = 0.03047975
#
# Stress axis : x y z
#
# Youngs Moduli (GPa) = 43.44514 81.55597 94.88283
#
# Poissons Ratio (x) = -0.09741 0.43213
# Poissons Ratio (y) = -0.05189 0.40889
# Poissons Ratio (z) = 0.19787 0.35146
#
# Static dielectric constant tensor:
#      x y z
#    x 3.903470 0.071970 0.268460 
#    y 0.071970 4.524260 0.071970 
#    z 0.268460 0.071970 4.715040 
# 
# 
# High freq. dielectric constant tensor:
#      x y z
#    x 1.915120 0.012120 0.013710 
#    y 0.012120 1.958250 0.008540 
#    z 0.013710 0.008540 1.961720 
# 
# From -- ./inp_files/582244.got.cif
#   From: 2010.06.25/outbox.cif.g09.slc.cpg/sg2_292_cif.got.tgz:582244.got - 2010.06.27 13:26:56.
