data_PCOD8025163
_publ_section_title
;
Structure prediction by ZEFSAII (Michael W. Deem and Ramdas Pophale) SiO2 
 PCOD8025163
Probable space group: P -1
;
_chemical_formula_sum "Si O2"
_cell_formula_units_Z 16
_cell_length_a 20.214775
_cell_length_b 8.419615
_cell_length_c 23.998459
_cell_angle_alpha 33.279675
_cell_angle_beta 21.044460
_cell_angle_gamma 30.079059
_cell_volume 725.918290
_symmetry_space_group_name_H-M "P -1"
_symmetry_group_IT_number 2
_symmetry_cell_setting 'triclinic'
loop_
_space_group_symop_operation_xyz
x,y,z
-x,-y,-z
loop_
_atom_site_type_symbol
_atom_site_label
_atom_site_fract_x
_atom_site_fract_y
_atom_site_fract_z
Si Si1 0.427302 0.637481 0.075504
Si Si2 0.343045 0.705766 0.393563
Si Si3 0.777425 0.253769 0.989009
Si Si4 0.084832 0.238636 0.890870
Si Si5 0.090804 0.456215 0.381872
Si Si6 0.460895 0.341494 0.521751
Si Si7 0.328442 0.333946 0.937930
Si Si8 0.862181 0.693692 0.379570
O O1 0.196016 0.693237 0.240064
O O2 0.500000 0.500000 0.000000
O O3 0.566856 0.368626 0.087938
O O4 0.445129 0.967435 0.973079
O O5 0.413319 0.587538 0.435763
O O6 0.533533 0.571868 0.240335
O O7 0.180052 0.579421 0.538163
O O8 0.244368 0.089635 0.356122
O O9 0.953464 0.278372 0.806272
O O10 0.720446 0.469486 0.025029
O O11 0.844640 0.887543 0.064446
O O12 0.270737 0.252253 0.706109
O O13 0.889852 0.587602 0.943761
O O14 0.000000 0.000000 0.000000
O O15 0.000000 0.500000 0.500000
O O16 0.924455 0.588958 0.424938
O O17 0.500000 0.500000 0.500000
O O18 0.660609 0.025926 0.440408
#
# Coordination Sequence:
#
# PCOD8025163 Si02
#       8
#     2   2   2   2   2   2   2   2
#     4  12  25  46  66 100 141 178 234 286 340 412
#     4  12  25  47  71 103 140 184 232 283 346 424
#     4  11  24  44  73 100 136 184 232 283 344 412
#     4  10  23  44  70 101 134 181 229 277 343 416
#     4  12  29  44  70 102 143 182 232 287 354 406
#     4  12  28  46  73 107 145 179 233 293 354 408
#     4  11  24  44  73 100 136 184 232 283 344 412
#     4  12  25  47  71 103 140 184 232 283 346 424
#
# _framework density 22.041048
#
# number of rings (size 3 to 8) (size 9 to 14) (size 15 to 20)
#    0.000    0.500    2.500    5.625   10.500    0.000 
#    0.000    1.875    0.000    0.000    0.000    0.000 
#    0.000    0.000    0.000    0.000    0.000    0.000 
#
# Total GULP energy -198307.099177 kJ/mol
# GULP energy per Si atom -12394.193699 kJ/mol
# Density = 2.199088 g / cm^3
# Si number density = 22.041048 Si / 1000 Ang^3
#
#
#
# Elastic Constant Matrix: (Units=GPa)
#
#
# Indices 1 2 3 4 5 6 
#
# 1 128.1934 23.2660 24.4808 1.2367 12.3140 -21.8837
# 2 23.2660 71.1121 15.2093 6.8463 3.4756 -17.3315
# 3 24.4808 15.2093 96.7126 4.5270 9.3416 6.7665
# 4 1.2367 6.8463 4.5270 31.3454 1.1741 5.3707
# 5 12.3140 3.4756 9.3416 1.1741 43.1862 1.3207
# 6 -21.8837 -17.3315 6.7665 5.3707 1.3207 46.3905
#
#
#
# Elastic Compliance Matrix: (Units=1/GPa)
#
#
# Indices 1 2 3 4 5 6 
#
# 1 0.009446 -0.001397 -0.002244 -0.000409 -0.002218 0.004372
# 2 -0.001397 0.017136 -0.002549 -0.004439 -0.000512 0.006643
# 3 -0.002244 -0.002549 0.011732 -0.000368 -0.001572 -0.003635
# 4 -0.000409 -0.004439 -0.000368 0.033929 -0.000194 -0.005720
# 5 -0.002218 -0.000512 -0.001572 -0.000194 0.024226 -0.001676
# 6 0.004372 0.006643 -0.003635 -0.005720 -0.001676 0.027340
#
#
# Mechanical properties :
#
#
# Convention : Reuss Voigt Hill
#
# Bulk Modulus (GPa) = 38.55873 46.88114 42.71994
# Shear Modulus (GPa) = 34.52244 39.72189 37.12216
#
# Velocity S-wave (km/s) = 3.96192 4.24981 4.10839
# Velocity P-wave (km/s) = 6.20170 6.73775 6.47528
#
# Compressibility (1/GPa) = 0.02593446
#
# Stress axis : x y z
#
# Youngs Moduli (GPa) = 105.86335 58.35683 85.23679
#
# Poissons Ratio (x) = 0.08154 0.19125
# Poissons Ratio (y) = 0.14792 0.21725
# Poissons Ratio (z) = 0.23754 0.14874
#
# Static dielectric constant tensor:
#      x y z
#    x 4.152150 -0.248440 0.031850 
#    y -0.248440 4.475060 0.256060 
#    z 0.031850 0.256060 4.031100 
# 
# 
# High freq. dielectric constant tensor:
#      x y z
#    x 1.878580 -0.015070 0.008960 
#    y -0.015070 1.876400 0.005090 
#    z 0.008960 0.005090 1.882050 
# 
# From -- ./inp_files/613556.got.cif
#   From: 2010.06.25/outbox.cif.g09.slc.cpg/sg2_307_cif.got.tgz:613556.got - 2010.06.27 13:26:56.
