data_PCOD8025662
_publ_section_title
;
Structure prediction by ZEFSAII (Michael W. Deem and Ramdas Pophale) SiO2 
 PCOD8025662
Probable space group: P -1
;
_chemical_formula_sum "Si O2"
_cell_formula_units_Z 14
_cell_length_a 6.646506
_cell_length_b 6.254864
_cell_length_c 16.916669
_cell_angle_alpha 74.022515
_cell_angle_beta 71.010501
_cell_angle_gamma 71.964111
_cell_volume 620.301522
_symmetry_space_group_name_H-M "P -1"
_symmetry_group_IT_number 2
_symmetry_cell_setting 'triclinic'
loop_
_space_group_symop_operation_xyz
x,y,z
-x,-y,-z
loop_
_atom_site_type_symbol
_atom_site_label
_atom_site_fract_x
_atom_site_fract_y
_atom_site_fract_z
Si Si1 0.515061 0.093648 0.903511
Si Si2 0.770030 0.501814 0.492445
Si Si3 0.831163 0.397979 0.803075
Si Si4 0.445990 0.804143 0.803713
Si Si5 0.221368 0.139752 0.674481
Si Si6 0.888399 0.496723 0.100162
Si Si7 0.627764 0.184927 0.440252
O O1 0.723845 0.201270 0.869709
O O2 0.295733 0.273122 0.888154
O O3 0.544119 0.877754 0.864167
O O4 0.500000 0.000000 0.000000
O O5 0.705190 0.673815 0.408235
O O6 0.780238 0.246613 0.484464
O O7 0.571018 0.584929 0.572870
O O8 0.000000 0.500000 0.500000
O O9 0.642045 0.598728 0.766454
O O10 0.991916 0.274244 0.726361
O O11 0.943537 0.505508 0.849235
O O12 0.221932 0.720282 0.856128
O O13 0.396973 0.028317 0.730668
O O14 0.214996 0.913511 0.644326
O O15 0.000000 0.500000 0.000000
O O16 0.500000 0.000000 0.500000
#
# Coordination Sequence:
#
# PCOD8025662 Si02
#       7
#     2   2   2   2   2   2   2
#     4  11  24  43  67  97 133 181 233 278 337 404
#     4  10  23  45  72 102 131 177 223 264 336 415
#     4  11  26  43  64 101 133 178 230 277 344 389
#     4  11  26  43  64  99 136 175 229 282 339 391
#     4  11  25  43  69 101 139 175 219 284 337 399
#     4  11  24  43  67  96 134 179 234 281 330 409
#     4   9  22  45  67  99 135 168 217 270 327 407
#
# _framework density 22.569668
#
# number of rings (size 3 to 8) (size 9 to 14) (size 15 to 20)
#    0.000    1.429    1.429    1.714    8.000    5.714 
#    5.143    0.000    0.000    0.000    0.000    0.000 
#    0.000    0.000    0.000    0.000    0.000    0.000 
#
# Total GULP energy -173447.428542 kJ/mol
# GULP energy per Si atom -12389.102039 kJ/mol
# Density = 2.251830 g / cm^3
# Si number density = 22.569668 Si / 1000 Ang^3
#
#
#
# Elastic Constant Matrix: (Units=GPa)
#
#
# Indices 1 2 3 4 5 6 
#
# 1 139.0979 57.9016 36.5663 10.8224 3.7709 16.8061
# 2 57.9016 123.4533 51.6460 22.3453 0.9663 7.7229
# 3 36.5663 51.6460 93.5749 13.9643 3.6388 -5.2523
# 4 10.8224 22.3453 13.9643 52.5375 -5.8826 -1.7139
# 5 3.7709 0.9663 3.6388 -5.8826 24.1013 11.7383
# 6 16.8061 7.7229 -5.2523 -1.7139 11.7383 49.2988
#
#
#
# Elastic Compliance Matrix: (Units=1/GPa)
#
#
# Indices 1 2 3 4 5 6 
#
# 1 0.009497 -0.003428 -0.002002 -0.000018 0.000417 -0.003014
# 2 -0.003428 0.012586 -0.005256 -0.003208 0.000860 -0.001679
# 3 -0.002002 -0.005256 0.015004 -0.001669 -0.004109 0.004025
# 4 -0.000018 -0.003208 -0.001669 0.021482 0.005771 -0.000297
# 5 0.000417 0.000860 -0.004109 0.005771 0.049400 -0.012276
# 6 -0.003014 -0.001679 0.004025 -0.000297 -0.012276 0.024916
#
#
# Mechanical properties :
#
#
# Convention : Reuss Voigt Hill
#
# Bulk Modulus (GPa) = 63.63046 72.03933 67.83489
# Shear Modulus (GPa) = 31.34895 39.18833 35.26864
#
# Velocity S-wave (km/s) = 3.73095 4.17145 3.95733
# Velocity P-wave (km/s) = 6.84209 7.42895 7.14155
#
# Compressibility (1/GPa) = 0.01571574
#
# Stress axis : x y z
#
# Youngs Moduli (GPa) = 105.30094 79.45452 66.64773
#
# Poissons Ratio (x) = 0.27239 0.13340
# Poissons Ratio (y) = 0.36100 0.35028
# Poissons Ratio (z) = 0.21077 0.41758
#
# Static dielectric constant tensor:
#      x y z
#    x 3.862910 -0.128880 -0.257720 
#    y -0.128880 4.668300 0.508320 
#    z -0.257720 0.508320 4.197470 
# 
# 
# High freq. dielectric constant tensor:
#      x y z
#    x 1.889310 -0.001400 -0.005720 
#    y -0.001400 1.914210 0.015820 
#    z -0.005720 0.015820 1.877870 
# 
# From -- ./inp_files/7517.got.cif
#   From: 2010.06.25/outbox.cif.g09.slc.cpg/sg2_4_cif.got.tgz:7517.got - 2010.06.27 13:26:56.
