data_PCOD8025503
_publ_section_title
;
Structure prediction by ZEFSAII (Michael W. Deem and Ramdas Pophale) SiO2 
 PCOD8025503
Probable space group: P -1
;
_chemical_formula_sum "Si O2"
_cell_formula_units_Z 14
_cell_length_a 13.685332
_cell_length_b 6.637517
_cell_length_c 15.428070
_cell_angle_alpha 65.614099
_cell_angle_beta 29.998917
_cell_angle_gamma 78.045871
_cell_volume 602.350228
_symmetry_space_group_name_H-M "P -1"
_symmetry_group_IT_number 2
_symmetry_cell_setting 'triclinic'
loop_
_space_group_symop_operation_xyz
x,y,z
-x,-y,-z
loop_
_atom_site_type_symbol
_atom_site_label
_atom_site_fract_x
_atom_site_fract_y
_atom_site_fract_z
Si Si1 0.705289 0.773677 0.262791
Si Si2 0.137098 0.583490 0.192163
Si Si3 0.712443 0.530355 0.605631
Si Si4 0.474220 0.657502 0.625428
Si Si5 0.470229 0.010728 0.920111
Si Si6 0.119630 0.712053 0.995066
Si Si7 0.203036 0.217250 0.325765
O O1 0.593395 0.832895 0.425138
O O2 0.540817 0.596547 0.357377
O O3 0.800349 0.011218 0.094311
O O4 0.876349 0.647634 0.174177
O O5 0.246453 0.408018 0.180671
O O6 0.897500 0.486347 0.418939
O O7 0.156109 0.571965 0.075629
O O8 0.236902 0.853293 0.100952
O O9 0.617761 0.699615 0.593467
O O10 0.529400 0.281914 0.800779
O O11 0.811951 0.650682 0.597406
O O12 0.247437 0.665001 0.823250
O O13 0.609863 0.880842 0.788033
O O14 0.500000 0.000000 0.000000
O O15 0.000000 0.000000 0.500000
#
# Coordination Sequence:
#
# PCOD8025503 Si02
#       7
#     2   2   2   2   2   2   2
#     4  10  23  45  68  98 133 171 225 282 347 401
#     4  12  24  45  67 101 138 179 230 283 335 411
#     4  12  25  46  67 102 138 181 230 279 342 406
#     4  11  23  43  71  97 134 177 219 285 342 406
#     4  12  25  42  68  94 136 185 227 281 334 398
#     4  11  23  43  68 100 132 174 227 277 344 409
#     4  12  25  45  67  97 139 185 224 277 341 400
#
# _framework density 23.242291000000002
#
# number of rings (size 3 to 8) (size 9 to 14) (size 15 to 20)
#    0.000    0.571    4.286    4.286    2.000    0.000 
#    2.571    1.429    0.000    0.000    0.000    0.000 
#    0.000    0.000    0.000    0.000    0.000    0.000 
#
# Total GULP energy -173605.040766 kJ/mol
# GULP energy per Si atom -12400.360055 kJ/mol
# Density = 2.318939 g / cm^3
# Si number density = 23.242291 Si / 1000 Ang^3
#
#
#
# Elastic Constant Matrix: (Units=GPa)
#
#
# Indices 1 2 3 4 5 6 
#
# 1 83.7260 14.6059 27.5634 -1.9555 21.8736 4.5276
# 2 14.6059 61.3715 21.7223 -3.9182 8.7767 12.8931
# 3 27.5634 21.7223 105.2494 7.5578 9.5294 7.6862
# 4 -1.9555 -3.9182 7.5578 54.2079 2.1245 -10.6653
# 5 21.8736 8.7767 9.5294 2.1245 37.2874 -3.1496
# 6 4.5276 12.8931 7.6862 -10.6653 -3.1496 26.3967
#
#
#
# Elastic Compliance Matrix: (Units=1/GPa)
#
#
# Indices 1 2 3 4 5 6 
#
# 1 0.015376 -0.000958 -0.003003 0.000846 -0.008239 -0.001937
# 2 -0.000958 0.020091 -0.002848 0.000159 -0.004231 -0.009260
# 3 -0.003003 -0.002848 0.011263 -0.002332 -0.000515 -0.002377
# 4 0.000846 0.000159 -0.002332 0.020543 -0.000372 0.008712
# 5 -0.008239 -0.004231 -0.000515 -0.000372 0.033431 0.007468
# 6 -0.001937 -0.009260 -0.002377 0.008712 0.007468 0.047842
#
#
# Mechanical properties :
#
#
# Convention : Reuss Voigt Hill
#
# Bulk Modulus (GPa) = 30.19857 42.01445 36.10651
# Shear Modulus (GPa) = 28.86827 36.00875 32.43851
#
# Velocity S-wave (km/s) = 3.52811 3.94036 3.73992
# Velocity P-wave (km/s) = 5.44223 6.23040 5.84960
#
# Compressibility (1/GPa) = 0.03311415
#
# Stress axis : x y z
#
# Youngs Moduli (GPa) = 65.03554 49.77438 88.78648
#
# Poissons Ratio (x) = 0.04766 0.26659
# Poissons Ratio (y) = 0.06227 0.25284
# Poissons Ratio (z) = 0.19527 0.14175
#
# Static dielectric constant tensor:
#      x y z
#    x 4.137040 -0.058760 -0.096740 
#    y -0.058760 4.070560 -0.050860 
#    z -0.096740 -0.050860 4.554970 
# 
# 
# High freq. dielectric constant tensor:
#      x y z
#    x 1.916690 0.004500 0.002580 
#    y 0.004500 1.905020 -0.004010 
#    z 0.002580 -0.004010 1.934300 
# 
# From -- ./inp_files/49448.got.cif
#   From: 2010.06.25/outbox.cif.g09.slc.cpg/sg2_25_cif.got.tgz:49448.got - 2010.06.27 13:26:56.
