data_PCOD8025985
_publ_section_title
;
Structure prediction by ZEFSAII (Michael W. Deem and Ramdas Pophale) SiO2 
 PCOD8025985
Probable space group: P -1
;
_chemical_formula_sum "Si O2"
_cell_formula_units_Z 16
_cell_length_a 20.516919
_cell_length_b 17.471828
_cell_length_c 9.387891
_cell_angle_alpha 142.824708
_cell_angle_beta 143.785975
_cell_angle_gamma 21.390292
_cell_volume 708.749346
_symmetry_space_group_name_H-M "P -1"
_symmetry_group_IT_number 2
_symmetry_cell_setting 'triclinic'
loop_
_space_group_symop_operation_xyz
x,y,z
-x,-y,-z
loop_
_atom_site_type_symbol
_atom_site_label
_atom_site_fract_x
_atom_site_fract_y
_atom_site_fract_z
Si Si1 0.516913 0.376505 0.643833
Si Si2 0.357865 0.100836 0.770244
Si Si3 0.400245 0.833896 0.250167
Si Si4 0.531199 0.174492 0.124976
Si Si5 0.002169 0.143747 0.888127
Si Si6 0.911533 0.218284 0.518021
Si Si7 0.902404 0.722168 0.193388
Si Si8 0.640012 0.519360 0.962316
O O1 0.597279 0.283323 0.805991
O O2 0.540160 0.223488 0.372991
O O3 0.303925 0.617718 0.632933
O O4 0.630223 0.379681 0.768164
O O5 0.163115 0.232565 0.689739
O O6 0.432507 0.935276 0.538218
O O7 0.353593 0.242807 0.895779
O O8 0.500000 0.000000 0.000000
O O9 0.577697 0.656603 0.194373
O O10 0.205546 0.009618 0.083622
O O11 0.506119 0.309902 0.168164
O O12 0.726288 0.916656 0.066592
O O13 0.956427 0.225406 0.766639
O O14 0.852509 0.348623 0.034115
O O15 0.979975 0.011869 0.668609
O O16 0.958261 0.287206 0.590408
O O17 0.000000 0.500000 0.000000
#
# Coordination Sequence:
#
# PCOD8025985 Si02
#       8
#     2   2   2   2   2   2   2   2
#     4  12  23  45  75 104 147 191 237 294 362 432
#     4  10  23  47  69  96 140 189 243 297 348 429
#     4  12  26  47  69 110 151 184 242 308 355 426
#     4  11  23  46  73  99 141 192 246 288 354 442
#     4  11  26  45  71 111 152 188 241 295 367 430
#     4  11  24  44  73 108 150 191 242 295 353 451
#     4  11  23  39  72 108 133 183 247 301 349 412
#     4  12  26  44  75 107 150 194 227 299 379 418
#
# _framework density 22.574975999999999
#
# number of rings (size 3 to 8) (size 9 to 14) (size 15 to 20)
#    0.000    0.750    5.000    3.000    3.500    2.000 
#    0.000    0.625    0.000    0.000    0.000    0.000 
#    0.000    0.000    0.000    0.000    0.000    0.000 
#
# Total GULP energy -198360.440800 kJ/mol
# GULP energy per Si atom -12397.527550 kJ/mol
# Density = 2.252359 g / cm^3
# Si number density = 22.574976 Si / 1000 Ang^3
#
#
#
# Elastic Constant Matrix: (Units=GPa)
#
#
# Indices 1 2 3 4 5 6 
#
# 1 67.0814 19.2132 18.1622 7.5817 -18.2107 -20.8151
# 2 19.2132 100.3480 21.8309 14.8707 -17.8689 -12.3057
# 3 18.1622 21.8309 98.4086 16.9700 -16.9102 -21.8611
# 4 7.5817 14.8707 16.9700 40.8694 -1.5374 -12.6437
# 5 -18.2107 -17.8689 -16.9102 -1.5374 30.3343 -1.5711
# 6 -20.8151 -12.3057 -21.8611 -12.6437 -1.5711 30.9929
#
#
#
# Elastic Compliance Matrix: (Units=1/GPa)
#
#
# Indices 1 2 3 4 5 6 
#
# 1 0.025075 0.000068 0.002670 0.001097 0.017678 0.020094
# 2 0.000068 0.012178 -0.000082 -0.002898 0.007230 0.004007
# 3 0.002670 -0.000082 0.014374 -0.002539 0.010028 0.011372
# 4 0.001097 -0.002898 -0.002539 0.029373 -0.000470 0.009754
# 5 0.017678 0.007230 0.010028 -0.000470 0.054667 0.024396
# 6 0.020094 0.004007 0.011372 0.009754 0.024396 0.060590
#
#
# Mechanical properties :
#
#
# Convention : Reuss Voigt Hill
#
# Bulk Modulus (GPa) = 17.56262 42.69450 30.12856
# Shear Modulus (GPa) = 23.81774 34.21476 29.01625
#
# Velocity S-wave (km/s) = 3.25168 3.89730 3.58904
# Velocity P-wave (km/s) = 4.67915 6.26141 5.52719
#
# Compressibility (1/GPa) = 0.05693912
#
# Stress axis : x y z
#
# Youngs Moduli (GPa) = 39.87967 82.11241 69.56798
#
# Poissons Ratio (x) = -0.00556 -0.18572
# Poissons Ratio (y) = -0.00270 0.00570
# Poissons Ratio (z) = -0.10646 0.00672
#
# Static dielectric constant tensor:
#      x y z
#    x 4.614360 0.049000 0.127520 
#    y 0.049000 4.024720 0.224480 
#    z 0.127520 0.224480 3.879140 
# 
# 
# High freq. dielectric constant tensor:
#      x y z
#    x 1.902530 0.001430 0.003020 
#    y 0.001430 1.889250 0.020340 
#    z 0.003020 0.020340 1.871000 
# 
# From -- ./inp_files/272838.got.cif
#   From: 2010.06.25/outbox.cif.g09.slc.cpg/sg2_137_cif.got.tgz:272838.got - 2010.06.27 13:26:56.
