data_PCOD8025371
_publ_section_title
;
Structure prediction by ZEFSAII (Michael W. Deem and Ramdas Pophale) SiO2 
 PCOD8025371
Probable space group: P -1
;
_chemical_formula_sum "Si O2"
_cell_formula_units_Z 16
_cell_length_a 9.427028
_cell_length_b 22.850443
_cell_length_c 21.250321
_cell_angle_alpha 20.474444
_cell_angle_beta 150.839348
_cell_angle_gamma 142.907525
_cell_volume 774.569430
_symmetry_space_group_name_H-M "P -1"
_symmetry_group_IT_number 2
_symmetry_cell_setting 'triclinic'
loop_
_space_group_symop_operation_xyz
x,y,z
-x,-y,-z
loop_
_atom_site_type_symbol
_atom_site_label
_atom_site_fract_x
_atom_site_fract_y
_atom_site_fract_z
Si Si1 0.647763 0.878933 0.732495
Si Si2 0.172533 0.773940 0.959586
Si Si3 0.956667 0.824903 0.687616
Si Si4 0.599104 0.333538 0.395821
Si Si5 0.433282 0.092624 0.789056
Si Si6 0.971533 0.928187 0.232002
Si Si7 0.340169 0.418704 0.338014
Si Si8 0.716816 0.372857 0.088657
O O1 0.403486 0.765911 0.774529
O O2 0.500000 0.000000 0.500000
O O3 0.748202 0.985124 0.723236
O O4 0.934773 0.764642 0.932169
O O5 0.368503 0.591354 0.213855
O O6 0.990499 0.823811 0.776097
O O7 0.374941 0.921091 0.903588
O O8 0.198007 0.687646 0.888054
O O9 0.635717 0.796888 0.569818
O O10 0.000000 0.000000 0.500000
O O11 0.572229 0.409002 0.380015
O O12 0.917513 0.232175 0.607491
O O13 0.536094 0.473216 0.175640
O O14 0.197938 0.137585 0.707752
O O15 0.419993 0.251942 0.577994
O O16 0.759329 0.062596 0.974264
O O17 0.001160 0.434135 0.169529
#
# Coordination Sequence:
#
# PCOD8025371 Si02
#       8
#     2   2   2   2   2   2   2   2
#     4  11  23  38  62  95 119 156 203 252 310 365
#     4  11  21  39  60  92 121 157 213 247 297 368
#     4  11  19  35  61  87 125 161 193 251 309 365
#     4  11  21  38  60  92 125 156 199 253 312 360
#     4  10  24  44  64  84 120 170 205 252 303 350
#     4  10  23  45  61  86 122 158 208 251 300 365
#     4  11  22  40  63  92 126 161 201 250 304 368
#     4  11  21  36  58  95 127 154 195 251 317 361
#
# _framework density 20.656637
#
# number of rings (size 3 to 8) (size 9 to 14) (size 15 to 20)
#    0.000    1.250    2.500    6.000    1.750    1.000 
#    2.250    2.500    0.000    0.000    0.000    0.000 
#    0.000    0.000    0.000    0.000    0.000    0.000 
#
# Total GULP energy -198403.366262 kJ/mol
# GULP energy per Si atom -12400.210391 kJ/mol
# Density = 2.060962 g / cm^3
# Si number density = 20.656637 Si / 1000 Ang^3
#
#
#
# Elastic Constant Matrix: (Units=GPa)
#
#
# Indices 1 2 3 4 5 6 
#
# 1 97.8366 18.8183 51.4797 -15.6247 7.9641 -9.3310
# 2 18.8183 58.9435 30.3412 -14.7850 6.4456 -6.4687
# 3 51.4797 30.3412 119.8975 -20.5195 1.6786 -3.3072
# 4 -15.6247 -14.7850 -20.5195 28.9004 -2.3476 -2.7099
# 5 7.9641 6.4456 1.6786 -2.3476 37.5783 -8.0664
# 6 -9.3310 -6.4687 -3.3072 -2.7099 -8.0664 27.4883
#
#
#
# Elastic Compliance Matrix: (Units=1/GPa)
#
#
# Indices 1 2 3 4 5 6 
#
# 1 0.014169 -0.000192 -0.005194 0.004126 -0.001605 0.004075
# 2 -0.000192 0.021928 -0.003813 0.008710 -0.001949 0.004923
# 3 -0.005194 -0.003813 0.012184 0.003966 0.001372 -0.000401
# 4 0.004126 0.008710 0.003966 0.045130 0.002211 0.009025
# 5 -0.001605 -0.001949 0.001372 0.002211 0.029060 0.007907
# 6 0.004075 0.004923 -0.000401 0.009025 0.007907 0.042083
#
#
# Mechanical properties :
#
#
# Convention : Reuss Voigt Hill
#
# Bulk Modulus (GPa) = 33.46419 53.10622 43.28520
# Shear Modulus (GPa) = 25.91846 30.52930 28.22388
#
# Velocity S-wave (km/s) = 3.54606 3.84857 3.70041
# Velocity P-wave (km/s) = 5.74469 6.74637 6.26558
#
# Compressibility (1/GPa) = 0.02988269
#
# Stress axis : x y z
#
# Youngs Moduli (GPa) = 70.57421 45.60471 82.07521
#
# Poissons Ratio (x) = 0.00877 0.42631
# Poissons Ratio (y) = 0.01357 0.31293
# Poissons Ratio (z) = 0.36658 0.17388
#
# Static dielectric constant tensor:
#      x y z
#    x 3.927020 -0.180140 0.125730 
#    y -0.180140 3.644620 -0.133090 
#    z 0.125730 -0.133090 3.602020 
# 
# 
# High freq. dielectric constant tensor:
#      x y z
#    x 1.816740 -0.008630 0.003790 
#    y -0.008630 1.789810 -0.015070 
#    z 0.003790 -0.015070 1.809630 
# 
# From -- ./inp_files/208665.got.cif
#   From: 2010.06.25/outbox.cif.g09.slc.cpg/sg2_105_cif.got.tgz:208665.got - 2010.06.27 13:26:56.
