data_PCOD8025129
_publ_section_title
;
Structure prediction by ZEFSAII (Michael W. Deem and Ramdas Pophale) SiO2 
 PCOD8025129
Probable space group: P -1
;
_chemical_formula_sum "Si O2"
_cell_formula_units_Z 16
_cell_length_a 9.197591
_cell_length_b 17.934920
_cell_length_c 12.051022
_cell_angle_alpha 42.077713
_cell_angle_beta 78.105400
_cell_angle_gamma 45.148877
_cell_volume 702.805437
_symmetry_space_group_name_H-M "P -1"
_symmetry_group_IT_number 2
_symmetry_cell_setting 'triclinic'
loop_
_space_group_symop_operation_xyz
x,y,z
-x,-y,-z
loop_
_atom_site_type_symbol
_atom_site_label
_atom_site_fract_x
_atom_site_fract_y
_atom_site_fract_z
Si Si1 0.248920 0.011582 0.910553
Si Si2 0.474056 0.683616 0.860718
Si Si3 0.119837 0.699536 0.939899
Si Si4 0.307653 0.343265 0.602455
Si Si5 0.167947 0.292774 0.494467
Si Si6 0.246336 0.628902 0.253598
Si Si7 0.562721 0.638720 0.147746
Si Si8 0.562921 0.057100 0.509906
O O1 0.494669 0.852446 0.135344
O O2 0.298504 0.880645 0.957774
O O3 0.261619 0.116956 0.724851
O O4 0.970492 0.176327 0.844097
O O5 0.213451 0.765683 0.821634
O O6 0.359947 0.876627 0.635128
O O7 0.682473 0.511069 0.923266
O O8 0.620605 0.601970 0.047750
O O9 0.124575 0.680195 0.093577
O O10 0.809710 0.871323 0.760098
O O11 0.339624 0.283027 0.537718
O O12 0.355240 0.445435 0.493036
O O13 0.000000 0.500000 0.500000
O O14 0.266748 0.247274 0.405023
O O15 0.834016 0.512603 0.308524
O O16 0.506961 0.546547 0.294701
O O17 0.500000 0.000000 0.500000
#
# Coordination Sequence:
#
# PCOD8025129 Si02
#       8
#     2   2   2   2   2   2   2   2
#     4  12  24  42  66  94 134 168 216 261 322 380
#     4  10  23  45  68  92 129 169 215 268 315 381
#     4  10  23  44  69  94 126 170 217 264 318 379
#     4  12  24  42  65  93 127 170 211 263 314 381
#     4  12  26  42  66  95 133 171 212 269 318 384
#     4  11  25  43  68  95 128 171 218 264 318 384
#     4  11  25  44  65  96 130 170 215 265 325 378
#     4  12  25  40  66 100 129 169 212 265 325 380
#
# _framework density 22.765905
#
# number of rings (size 3 to 8) (size 9 to 14) (size 15 to 20)
#    0.000    0.750    2.500    4.125    1.750    7.000 
#    0.000    6.250    0.000    0.000    0.000    0.000 
#    0.000    0.000    0.000    0.000    0.000    0.000 
#
# Total GULP energy -198362.864426 kJ/mol
# GULP energy per Si atom -12397.679027 kJ/mol
# Density = 2.271409 g / cm^3
# Si number density = 22.765905 Si / 1000 Ang^3
#
#
#
# Elastic Constant Matrix: (Units=GPa)
#
#
# Indices 1 2 3 4 5 6 
#
# 1 83.2157 23.1676 31.0088 -0.5322 0.4489 14.1185
# 2 23.1676 112.5340 9.3596 4.3687 -12.7377 11.1570
# 3 31.0088 9.3596 73.8276 -1.4112 -7.7449 -1.2317
# 4 -0.5322 4.3687 -1.4112 27.2795 3.2148 -1.1810
# 5 0.4489 -12.7377 -7.7449 3.2148 38.7710 -0.7645
# 6 14.1185 11.1570 -1.2317 -1.1810 -0.7645 39.7225
#
#
#
# Elastic Compliance Matrix: (Units=1/GPa)
#
#
# Indices 1 2 3 4 5 6 
#
# 1 0.016178 -0.002543 -0.006817 0.000439 -0.002525 -0.005283
# 2 -0.002543 0.010072 0.000085 -0.002153 0.003496 -0.001919
# 3 -0.006817 0.000085 0.016822 0.000442 0.003490 0.003001
# 4 0.000439 -0.002153 0.000442 0.037536 -0.003707 0.001507
# 5 -0.002525 0.003496 0.003490 -0.003707 0.027984 0.000452
# 6 -0.005283 -0.001919 0.003001 0.001507 0.000452 0.027738
#
#
# Mechanical properties :
#
#
# Convention : Reuss Voigt Hill
#
# Bulk Modulus (GPa) = 40.77999 44.07214 42.42607
# Shear Modulus (GPa) = 30.66455 34.89068 32.77762
#
# Velocity S-wave (km/s) = 3.67406 3.91907 3.79854
# Velocity P-wave (km/s) = 5.99583 6.31504 6.15750
#
# Compressibility (1/GPa) = 0.02452183
#
# Stress axis : x y z
#
# Youngs Moduli (GPa) = 61.81271 99.28275 59.44488
#
# Poissons Ratio (x) = 0.25244 0.40525
# Poissons Ratio (y) = 0.15717 -0.00503
# Poissons Ratio (z) = 0.42139 -0.00840
#
# Static dielectric constant tensor:
#      x y z
#    x 4.145160 -0.305920 0.424480 
#    y -0.305920 3.638610 0.334890 
#    z 0.424480 0.334890 4.084550 
# 
# 
# High freq. dielectric constant tensor:
#      x y z
#    x 1.903880 0.011830 -0.005260 
#    y 0.011830 1.920640 0.011080 
#    z -0.005260 0.011080 1.890550 
# 
# From -- ./inp_files/288874.got.cif
#   From: 2010.06.25/outbox.cif.g09.slc.cpg/sg2_145_cif.got.tgz:288874.got - 2010.06.27 13:26:56.
