data_PCOD8025967
_publ_section_title
;
Structure prediction by ZEFSAII (Michael W. Deem and Ramdas Pophale) SiO2 
 PCOD8025967
Probable space group: P -1
;
_chemical_formula_sum "Si O2"
_cell_formula_units_Z 14
_cell_length_a 16.525274
_cell_length_b 6.328889
_cell_length_c 8.566683
_cell_angle_alpha 57.980925
_cell_angle_beta 51.269280
_cell_angle_gamma 72.191961
_cell_volume 592.152161
_symmetry_space_group_name_H-M "P -1"
_symmetry_group_IT_number 2
_symmetry_cell_setting 'triclinic'
loop_
_space_group_symop_operation_xyz
x,y,z
-x,-y,-z
loop_
_atom_site_type_symbol
_atom_site_label
_atom_site_fract_x
_atom_site_fract_y
_atom_site_fract_z
Si Si1 0.417790 0.801055 0.608948
Si Si2 0.889103 0.621098 0.578175
Si Si3 0.104625 0.366855 0.082388
Si Si4 0.423788 0.554143 0.393640
Si Si5 0.271425 0.729065 0.278782
Si Si6 0.713650 0.905146 0.147532
Si Si7 0.889854 0.172534 0.310004
O O1 0.416718 0.794305 0.423400
O O2 0.456889 0.533191 0.731826
O O3 0.500000 0.000000 0.500000
O O4 0.305488 0.884427 0.776940
O O5 0.851302 0.663505 0.784702
O O6 0.802078 0.453264 0.663418
O O7 0.000000 0.500000 0.500000
O O8 0.901811 0.882372 0.366447
O O9 0.985452 0.272080 0.262481
O O10 0.168528 0.190221 0.957167
O O11 0.115412 0.656923 0.904781
O O12 0.375485 0.598780 0.264147
O O13 0.361454 0.334577 0.648081
O O14 0.214249 0.807189 0.473825
O O15 0.308995 0.968255 0.040962
#
# Coordination Sequence:
#
# PCOD8025967 Si02
#       7
#     2   2   2   2   2   2   2
#     4   9  22  46  73  94 130 172 212 277 340 394
#     4  12  25  42  66  95 138 183 220 273 325 380
#     4  11  23  44  64  93 139 176 226 272 324 386
#     4  10  23  47  67  98 135 166 218 278 332 397
#     4  12  25  40  67 103 131 177 222 266 331 390
#     4  11  23  41  69  99 131 174 217 271 333 390
#     4  11  24  44  62  93 137 180 223 277 319 385
#
# _framework density 23.642569999999999
#
# number of rings (size 3 to 8) (size 9 to 14) (size 15 to 20)
#    0.000    1.143    4.286    1.286    2.000    4.571 
#    0.000    6.429    0.000    0.000    0.000    0.000 
#    0.000    0.000    0.000    0.000    0.000    0.000 
#
# Total GULP energy -173518.570975 kJ/mol
# GULP energy per Si atom -12394.183641 kJ/mol
# Density = 2.358876 g / cm^3
# Si number density = 23.642570 Si / 1000 Ang^3
#
#
#
# Elastic Constant Matrix: (Units=GPa)
#
#
# Indices 1 2 3 4 5 6 
#
# 1 105.2614 32.9989 0.4838 -5.4896 21.4301 -7.0891
# 2 32.9989 120.3995 26.3787 7.3674 4.8634 -18.6051
# 3 0.4838 26.3787 65.0124 -20.8879 13.5179 -8.0670
# 4 -5.4896 7.3674 -20.8879 50.5327 -11.7228 -0.0359
# 5 21.4301 4.8634 13.5179 -11.7228 20.4363 -1.6878
# 6 -7.0891 -18.6051 -8.0670 -0.0359 -1.6878 41.0294
#
#
#
# Elastic Compliance Matrix: (Units=1/GPa)
#
#
# Indices 1 2 3 4 5 6 
#
# 1 0.014493 -0.004373 0.005562 0.000451 -0.017503 0.000895
# 2 -0.004373 0.011465 -0.006271 -0.003782 0.004115 0.003376
# 3 0.005562 -0.006271 0.023881 0.007800 -0.015482 0.002183
# 4 0.000451 -0.003782 0.007800 0.025980 0.010198 0.000339
# 5 -0.017503 0.004115 -0.015482 0.010198 0.082332 -0.000807
# 6 0.000895 0.003376 0.002183 0.000339 -0.000807 0.026455
#
#
# Mechanical properties :
#
#
# Convention : Reuss Voigt Hill
#
# Bulk Modulus (GPa) = 25.20528 45.59955 35.40242
# Shear Modulus (GPa) = 24.03913 37.78713 30.91313
#
# Velocity S-wave (km/s) = 3.19215 4.00217 3.61989
# Velocity P-wave (km/s) = 4.92651 6.37851 5.69894
#
# Compressibility (1/GPa) = 0.03967423
#
# Stress axis : x y z
#
# Youngs Moduli (GPa) = 68.99981 87.22090 41.87473
#
# Poissons Ratio (x) = 0.38142 -0.23291
# Poissons Ratio (y) = 0.30174 0.26260
# Poissons Ratio (z) = -0.38377 0.54698
#
# Static dielectric constant tensor:
#      x y z
#    x 4.224120 -0.501140 -0.091300 
#    y -0.501140 5.050750 0.381700 
#    z -0.091300 0.381700 4.382680 
# 
# 
# High freq. dielectric constant tensor:
#      x y z
#    x 1.932070 -0.014390 -0.001430 
#    y -0.014390 1.947460 0.003580 
#    z -0.001430 0.003580 1.918960 
# 
# From -- ./inp_files/48531.got.cif
#   From: 2010.06.25/outbox.cif.g09.slc.cpg/sg2_25_cif.got.tgz:48531.got - 2010.06.27 13:26:56.
