data_PCOD8025703
_publ_section_title
;
Structure prediction by ZEFSAII (Michael W. Deem and Ramdas Pophale) SiO2 
 PCOD8025703
Probable space group: P -1
;
_chemical_formula_sum "Si O2"
_cell_formula_units_Z 16
_cell_length_a 17.052201
_cell_length_b 5.530157
_cell_length_c 8.914616
_cell_angle_alpha 121.036170
_cell_angle_beta 108.024400
_cell_angle_gamma 67.244660
_cell_volume 657.779481
_symmetry_space_group_name_H-M "P -1"
_symmetry_group_IT_number 2
_symmetry_cell_setting 'triclinic'
loop_
_space_group_symop_operation_xyz
x,y,z
-x,-y,-z
loop_
_atom_site_type_symbol
_atom_site_label
_atom_site_fract_x
_atom_site_fract_y
_atom_site_fract_z
Si Si1 0.220427 0.177720 0.407977
Si Si2 0.237168 0.607048 0.073317
Si Si3 0.129255 0.444749 0.722149
Si Si4 0.595499 0.773055 0.492838
Si Si5 0.556413 0.330246 0.112822
Si Si6 0.877068 0.543346 0.819346
Si Si7 0.597392 0.736203 0.826053
Si Si8 0.047467 0.103186 0.814279
O O1 0.177250 0.203471 0.552700
O O2 0.324088 0.102611 0.457077
O O3 0.166034 0.459413 0.371099
O O4 0.197838 0.932169 0.214331
O O5 0.203122 0.395203 0.095120
O O6 0.340582 0.516528 0.116772
O O7 0.205056 0.565387 0.875668
O O8 0.084163 0.269271 0.753485
O O9 0.067427 0.746086 0.707517
O O10 0.607611 0.520354 0.293763
O O11 0.609163 0.650934 0.630956
O O12 0.500000 0.000000 0.500000
O O13 0.499951 0.234865 0.177996
O O14 0.500000 0.500000 0.000000
O O15 0.619377 0.041368 0.980248
O O16 0.944516 0.222387 0.776716
O O17 0.924599 0.793045 0.974098
#
# Coordination Sequence:
#
# PCOD8025703 Si02
#       8
#     2   2   2   2   2   2   2   2
#     4  12  27  43  71 106 138 188 239 296 357 434
#     4  11  25  45  68 102 142 185 231 299 360 424
#     4  11  27  45  74 106 148 189 241 299 363 429
#     4  12  25  45  70  99 140 183 234 290 357 425
#     4  11  25  44  70  99 133 180 238 289 356 427
#     4  10  23  45  74 102 144 187 241 288 364 433
#     4  11  25  44  71  99 135 184 230 298 355 423
#     4  10  24  47  75 107 144 195 237 298 365 434
#
# _framework density 24.324262000000001
#
# number of rings (size 3 to 8) (size 9 to 14) (size 15 to 20)
#    0.000    1.000    3.750    1.125    5.250    5.500 
#    0.000    0.000    0.000    0.000    0.000    0.000 
#    0.000    0.000    0.000    0.000    0.000    0.000 
#
# Total GULP energy -198229.900503 kJ/mol
# GULP energy per Si atom -12389.368781 kJ/mol
# Density = 2.426890 g / cm^3
# Si number density = 24.324262 Si / 1000 Ang^3
#
#
#
# Elastic Constant Matrix: (Units=GPa)
#
#
# Indices 1 2 3 4 5 6 
#
# 1 70.1424 16.6896 15.0433 -8.4070 -1.1362 -13.8980
# 2 16.6896 96.3885 20.8917 -0.6321 -0.3277 -10.3997
# 3 15.0433 20.8917 129.5625 -0.3755 -4.6663 -3.9288
# 4 -8.4070 -0.6321 -0.3755 26.5626 0.2921 5.0148
# 5 -1.1362 -0.3277 -4.6663 0.2921 33.6543 -4.0962
# 6 -13.8980 -10.3997 -3.9288 5.0148 -4.0962 39.1652
#
#
#
# Elastic Compliance Matrix: (Units=1/GPa)
#
#
# Indices 1 2 3 4 5 6 
#
# 1 0.016497 -0.002011 -0.001404 0.004251 0.000881 0.004727
# 2 -0.002011 0.011289 -0.001517 -0.000815 0.000112 0.002248
# 3 -0.001404 -0.001517 0.008166 -0.000392 0.001083 0.000082
# 4 0.004251 -0.000815 -0.000392 0.039714 -0.000739 -0.003909
# 5 0.000881 0.000112 0.001083 -0.000739 0.030354 0.003721
# 6 0.004727 0.002248 0.000082 -0.003909 0.003721 0.028705
#
#
# Mechanical properties :
#
#
# Convention : Reuss Voigt Hill
#
# Bulk Modulus (GPa) = 38.33129 44.59362 41.46246
# Shear Modulus (GPa) = 32.61889 36.10767 34.36328
#
# Velocity S-wave (km/s) = 3.66594 3.85701 3.76269
# Velocity P-wave (km/s) = 5.80616 6.18127 5.99665
#
# Compressibility (1/GPa) = 0.02608835
#
# Stress axis : x y z
#
# Youngs Moduli (GPa) = 60.61799 88.57933 122.45526
#
# Poissons Ratio (x) = 0.17816 0.17189
# Poissons Ratio (y) = 0.12192 0.18577
# Poissons Ratio (z) = 0.08509 0.13438
#
# Static dielectric constant tensor:
#      x y z
#    x 4.341930 -0.090560 0.015500 
#    y -0.090560 4.304700 0.057930 
#    z 0.015500 0.057930 4.565940 
# 
# 
# High freq. dielectric constant tensor:
#      x y z
#    x 1.960630 -0.009990 0.000600 
#    y -0.009990 1.959770 -0.004040 
#    z 0.000600 -0.004040 1.975170 
# 
# From -- ./inp_files/112401.got.cif
#   From: 2010.06.25/outbox.cif.g09.slc.cpg/sg2_57_cif.got.tgz:112401.got - 2010.06.27 13:26:56.
