data_PCOD8025489
_publ_section_title
;
Structure prediction by ZEFSAII (Michael W. Deem and Ramdas Pophale) SiO2 
 PCOD8025489
Probable space group: P -1
;
_chemical_formula_sum "Si O2"
_cell_formula_units_Z 16
_cell_length_a 8.974239
_cell_length_b 12.402841
_cell_length_c 16.241171
_cell_angle_alpha 26.236516
_cell_angle_beta 87.676350
_cell_angle_gamma 98.147268
_cell_volume 730.732158
_symmetry_space_group_name_H-M "P -1"
_symmetry_group_IT_number 2
_symmetry_cell_setting 'triclinic'
loop_
_space_group_symop_operation_xyz
x,y,z
-x,-y,-z
loop_
_atom_site_type_symbol
_atom_site_label
_atom_site_fract_x
_atom_site_fract_y
_atom_site_fract_z
Si Si1 0.082648 0.955262 0.109638
Si Si2 0.642379 0.696046 0.549770
Si Si3 0.648164 0.510351 0.200990
Si Si4 0.605184 0.556353 0.878031
Si Si5 0.225018 0.909771 0.577028
Si Si6 0.803801 0.940931 0.215646
Si Si7 0.680224 0.169777 0.910602
Si Si8 0.920511 0.471314 0.932972
O O1 0.927444 0.804313 0.277019
O O2 0.193018 0.797140 0.190479
O O3 0.192106 0.233373 0.960028
O O4 0.000000 0.000000 0.000000
O O5 0.447900 0.600791 0.634516
O O6 0.703557 0.466277 0.732500
O O7 0.735549 0.955999 0.425447
O O8 0.674342 0.755374 0.411595
O O9 0.517018 0.574768 0.105040
O O10 0.684487 0.288444 0.301828
O O11 0.731517 0.419422 0.977368
O O12 0.712995 0.871870 0.646046
O O13 0.500000 0.500000 0.000000
O O14 0.029944 0.734900 0.696609
O O15 0.709542 0.006513 0.097613
O O16 0.927310 0.215013 0.065586
O O17 0.500000 0.000000 0.000000
O O18 0.000000 0.500000 0.000000
#
# Coordination Sequence:
#
# PCOD8025489 Si02
#       8
#     2   2   2   2   2   2   2   2
#     4  10  23  45  68  94 129 179 222 278 340 390
#     4  11  23  41  72 100 130 175 228 275 338 401
#     4  11  22  45  67  97 137 172 221 283 330 402
#     4  11  25  37  63  99 135 178 222 268 338 407
#     4  11  23  43  67  98 141 174 220 279 340 408
#     4  11  24  42  73  96 131 179 224 276 344 397
#     4  11  24  46  68  94 134 174 227 284 329 394
#     4  12  23  41  65  97 139 174 217 274 345 412
#
# _framework density 21.895847
#
# number of rings (size 3 to 8) (size 9 to 14) (size 15 to 20)
#    0.000    1.000    3.750    4.125    1.750    1.000 
#    0.000    0.000    0.000    0.000    0.000    0.000 
#    0.000    0.000    0.000    0.000    0.000    0.000 
#
# Total GULP energy -198311.503271 kJ/mol
# GULP energy per Si atom -12394.468954 kJ/mol
# Density = 2.184601 g / cm^3
# Si number density = 21.895847 Si / 1000 Ang^3
#
#
#
# Elastic Constant Matrix: (Units=GPa)
#
#
# Indices 1 2 3 4 5 6 
#
# 1 138.5380 61.3592 30.2824 12.9114 -9.1608 -15.3549
# 2 61.3592 106.7267 29.4689 10.5362 -0.1128 -17.0999
# 3 30.2824 29.4689 78.8725 24.6257 -14.3692 -7.4619
# 4 12.9114 10.5362 24.6257 40.2158 -13.2320 -5.5326
# 5 -9.1608 -0.1128 -14.3692 -13.2320 33.1910 2.5789
# 6 -15.3549 -17.0999 -7.4619 -5.5326 2.5789 48.5827
#
#
#
# Elastic Compliance Matrix: (Units=1/GPa)
#
#
# Indices 1 2 3 4 5 6 
#
# 1 0.010109 -0.005242 -0.001394 -0.000222 0.002003 0.001004
# 2 -0.005242 0.013796 -0.003283 -0.000617 -0.003285 0.002799
# 3 -0.001394 -0.003283 0.017740 -0.008243 0.004000 -0.000022
# 4 -0.000222 -0.000617 -0.008243 0.033548 0.009606 0.001757
# 5 0.002003 -0.003285 0.004000 0.009606 0.036289 -0.000741
# 6 0.001004 0.002799 -0.000022 0.001757 -0.000741 0.022122
#
#
# Mechanical properties :
#
#
# Convention : Reuss Voigt Hill
#
# Bulk Modulus (GPa) = 45.85427 62.92866 54.39147
# Shear Modulus (GPa) = 31.11164 37.93301 34.52232
#
# Velocity S-wave (km/s) = 3.77356 4.16676 3.97503
# Velocity P-wave (km/s) = 6.32248 7.20775 6.77958
#
# Compressibility (1/GPa) = 0.02180822
#
# Stress axis : x y z
#
# Youngs Moduli (GPa) = 98.92148 72.48557 56.36828
#
# Poissons Ratio (x) = 0.37998 0.07855
# Poissons Ratio (y) = 0.51856 0.18505
# Poissons Ratio (z) = 0.13785 0.23796
#
# Static dielectric constant tensor:
#      x y z
#    x 4.286110 -0.436790 -0.239320 
#    y -0.436790 4.263760 0.100000 
#    z -0.239320 0.100000 3.942210 
# 
# 
# High freq. dielectric constant tensor:
#      x y z
#    x 1.874400 -0.020010 -0.019160 
#    y -0.020010 1.870680 0.005410 
#    z -0.019160 0.005410 1.839510 
# 
# From -- ./inp_files/499694.got.cif
#   From: 2010.06.25/outbox.cif.g09.slc.cpg/sg2_250_cif.got.tgz:499694.got - 2010.06.27 13:26:56.
