data_PCOD8025050
_publ_section_title
;
Structure prediction by ZEFSAII (Michael W. Deem and Ramdas Pophale) SiO2 
 PCOD8025050
Probable space group: P -1
;
_chemical_formula_sum "Si O2"
_cell_formula_units_Z 16
_cell_length_a 12.089389
_cell_length_b 8.320254
_cell_length_c 11.774443
_cell_angle_alpha 72.889664
_cell_angle_beta 47.073151
_cell_angle_gamma 54.474989
_cell_volume 695.472792
_symmetry_space_group_name_H-M "P -1"
_symmetry_group_IT_number 2
_symmetry_cell_setting 'triclinic'
loop_
_space_group_symop_operation_xyz
x,y,z
-x,-y,-z
loop_
_atom_site_type_symbol
_atom_site_label
_atom_site_fract_x
_atom_site_fract_y
_atom_site_fract_z
Si Si1 0.857309 0.689367 0.130257
Si Si2 0.532732 0.675789 0.456960
Si Si3 0.739712 0.028810 0.969817
Si Si4 0.272560 0.430380 0.447444
Si Si5 0.078209 0.746043 0.155092
Si Si6 0.942688 0.860638 0.625976
Si Si7 0.788771 0.904243 0.494609
Si Si8 0.386933 0.406347 0.123498
O O1 0.724950 0.632237 0.290285
O O2 0.953076 0.759240 0.137311
O O3 0.000000 0.500000 0.000000
O O4 0.748095 0.866220 0.080576
O O5 0.500000 0.500000 0.500000
O O6 0.542216 0.679355 0.586506
O O7 0.378691 0.877189 0.464230
O O8 0.808693 0.150946 0.967591
O O9 0.844115 0.937453 0.798408
O O10 0.524785 0.168224 0.063408
O O11 0.215504 0.272916 0.523943
O O12 0.308668 0.476755 0.288708
O O13 0.116290 0.638086 0.570378
O O14 0.215363 0.507754 0.137360
O O15 0.964704 0.875824 0.318150
O O16 0.806762 0.864595 0.625927
O O17 0.000000 0.000000 0.500000
O O18 0.500000 0.500000 0.000000
#
# Coordination Sequence:
#
# PCOD8025050 Si02
#       8
#     2   2   2   2   2   2   2   2
#     4  12  28  48  71 108 150 192 246 305 377 441
#     4  12  29  47  72 106 145 193 251 313 367 440
#     4  11  25  45  75 109 151 190 237 309 375 438
#     4  12  24  45  73 100 140 193 248 299 363 446
#     4  11  24  46  75 104 143 194 241 299 367 447
#     4  12  23  44  72 109 144 190 246 297 364 443
#     4  12  25  44  75 103 141 189 254 298 363 436
#     4  10  23  44  68 107 139 184 235 298 370 434
#
# _framework density 23.005931
#
# number of rings (size 3 to 8) (size 9 to 14) (size 15 to 20)
#    0.000    0.500    3.750    4.125    3.500    3.000 
#    0.000    1.875    0.000    0.000    0.000    0.000 
#    0.000    0.000    0.000    0.000    0.000    0.000 
#
# Total GULP energy -198292.948723 kJ/mol
# GULP energy per Si atom -12393.309295 kJ/mol
# Density = 2.295357 g / cm^3
# Si number density = 23.005931 Si / 1000 Ang^3
#
#
#
# Elastic Constant Matrix: (Units=GPa)
#
#
# Indices 1 2 3 4 5 6 
#
# 1 96.9348 39.7648 23.8020 -2.4464 5.9382 -4.6136
# 2 39.7648 149.8724 43.2745 3.6385 1.2458 -17.0969
# 3 23.8020 43.2745 77.7315 12.4320 3.3215 -5.5369
# 4 -2.4464 3.6385 12.4320 41.2558 -2.6926 -0.1836
# 5 5.9382 1.2458 3.3215 -2.6926 34.0991 -2.5250
# 6 -4.6136 -17.0969 -5.5369 -0.1836 -2.5250 42.6100
#
#
#
# Elastic Compliance Matrix: (Units=1/GPa)
#
#
# Indices 1 2 3 4 5 6 
#
# 1 0.012101 -0.002531 -0.002487 0.001582 -0.001657 -0.000120
# 2 -0.002531 0.008806 -0.004016 0.000344 0.000743 0.002783
# 3 -0.002487 -0.004016 0.016724 -0.004925 -0.001424 0.000187
# 4 0.001582 0.000344 -0.004925 0.025932 0.002233 -0.000086
# 5 -0.001657 0.000743 -0.001424 0.002233 0.030030 0.001723
# 6 -0.000120 0.002783 0.000187 -0.000086 0.001723 0.024698
#
#
# Mechanical properties :
#
#
# Convention : Reuss Voigt Hill
#
# Bulk Modulus (GPa) = 51.11721 59.80238 55.45979
# Shear Modulus (GPa) = 34.99403 38.10615 36.55009
#
# Velocity S-wave (km/s) = 3.90434 4.07426 3.99021
# Velocity P-wave (km/s) = 6.52630 6.94144 6.73707
#
# Compressibility (1/GPa) = 0.01956288
#
# Stress axis : x y z
#
# Youngs Moduli (GPa) = 82.63922 113.55290 59.79355
#
# Poissons Ratio (x) = 0.28738 0.14871
# Poissons Ratio (y) = 0.20914 0.24015
# Poissons Ratio (z) = 0.20553 0.45607
#
# Static dielectric constant tensor:
#      x y z
#    x 4.310490 0.281800 0.040410 
#    y 0.281800 4.096420 -0.160220 
#    z 0.040410 -0.160220 4.114390 
# 
# 
# High freq. dielectric constant tensor:
#      x y z
#    x 1.912990 -0.010930 -0.002160 
#    y -0.010930 1.927570 -0.007930 
#    z -0.002160 -0.007930 1.913020 
# 
# From -- ./inp_files/419283.got.cif
#   From: 2010.06.25/outbox.cif.g09.slc.cpg/sg2_210_cif.got.tgz:419283.got - 2010.06.27 13:26:56.
