data_PCOD8025005
_publ_section_title
;
Structure prediction by ZEFSAII (Michael W. Deem and Ramdas Pophale) SiO2 
 PCOD8025005
Probable space group: P -1
;
_chemical_formula_sum "Si O2"
_cell_formula_units_Z 14
_cell_length_a 5.049890
_cell_length_b 26.215914
_cell_length_c 13.544992
_cell_angle_alpha 159.231667
_cell_angle_beta 90.806477
_cell_angle_gamma 84.114367
_cell_volume 615.249095
_symmetry_space_group_name_H-M "P -1"
_symmetry_group_IT_number 2
_symmetry_cell_setting 'triclinic'
loop_
_space_group_symop_operation_xyz
x,y,z
-x,-y,-z
loop_
_atom_site_type_symbol
_atom_site_label
_atom_site_fract_x
_atom_site_fract_y
_atom_site_fract_z
Si Si1 0.448401 0.672013 0.286059
Si Si2 0.719293 0.132317 0.994735
Si Si3 0.113046 0.207949 0.603408
Si Si4 0.185388 0.286017 0.963204
Si Si5 0.224785 0.851381 0.200120
Si Si6 0.398696 0.317536 0.485277
Si Si7 0.847970 0.409716 0.565650
O O1 0.635700 0.722065 0.295703
O O2 0.504967 0.752912 0.534786
O O3 0.139396 0.718268 0.332718
O O4 0.500000 0.500000 0.000000
O O5 0.655237 0.135565 0.884249
O O6 0.847186 0.966479 0.731665
O O7 0.452928 0.192450 0.172254
O O8 0.912348 0.246466 0.218948
O O9 0.068878 0.238133 0.773752
O O10 0.496317 0.186569 0.802106
O O11 0.954749 0.270480 0.014036
O O12 0.179780 0.460233 0.279372
O O13 0.000000 0.000000 0.500000
O O14 0.083085 0.407413 0.643742
O O15 0.567589 0.440472 0.682592
#
# Coordination Sequence:
#
# PCOD8025005 Si02
#       7
#     2   2   2   2   2   2   2
#     4  12  25  44  72 100 132 176 227 274 333 396
#     4  10  28  43  68  98 143 170 225 274 342 387
#     4  12  26  42  73  98 134 176 225 273 337 393
#     4  12  25  44  72 100 132 180 230 271 335 393
#     4  12  26  44  71  98 136 177 228 278 329 395
#     4  10  23  44  67  95 142 170 216 279 334 387
#     4  10  23  44  68  95 144 171 218 278 332 390
#
# _framework density 22.755009000000001
#
# number of rings (size 3 to 8) (size 9 to 14) (size 15 to 20)
#    0.857    0.000    1.429    5.143    4.000    2.286 
#    0.000    0.000    0.000    0.000    0.000    0.000 
#    0.000    0.000    0.000    0.000    0.000    0.000 
#
# Total GULP energy -173455.352057 kJ/mol
# GULP energy per Si atom -12389.668004 kJ/mol
# Density = 2.270322 g / cm^3
# Si number density = 22.755009 Si / 1000 Ang^3
#
#
#
# Elastic Constant Matrix: (Units=GPa)
#
#
# Indices 1 2 3 4 5 6 
#
# 1 82.0960 22.2858 30.3702 6.4422 4.5467 -17.2247
# 2 22.2858 103.8192 30.1636 7.8598 -5.7713 -14.5479
# 3 30.3702 30.1636 111.6780 27.4048 14.6152 -10.0771
# 4 6.4422 7.8598 27.4048 33.5400 6.6894 -2.4987
# 5 4.5467 -5.7713 14.6152 6.6894 27.1642 9.0528
# 6 -17.2247 -14.5479 -10.0771 -2.4987 9.0528 40.3883
#
#
#
# Elastic Compliance Matrix: (Units=1/GPa)
#
#
# Indices 1 2 3 4 5 6 
#
# 1 0.015105 -0.001863 -0.002847 0.001026 -0.003624 0.005937
# 2 -0.001863 0.011326 -0.002721 -0.000700 0.003783 0.001715
# 3 -0.002847 -0.002721 0.013510 -0.008524 -0.005931 0.001979
# 4 0.001026 -0.000700 -0.008524 0.037998 -0.005650 0.001676
# 5 -0.003624 0.003783 -0.005931 -0.005650 0.046986 -0.012544
# 6 0.005937 0.001715 0.001979 0.001676 -0.012544 0.031318
#
#
# Mechanical properties :
#
#
# Convention : Reuss Voigt Hill
#
# Bulk Modulus (GPa) = 39.87192 51.47030 45.67111
# Shear Modulus (GPa) = 27.86058 34.53674 31.19866
#
# Velocity S-wave (km/s) = 3.50290 3.90008 3.70681
# Velocity P-wave (km/s) = 5.82415 6.55357 6.19959
#
# Compressibility (1/GPa) = 0.02508030
#
# Stress axis : x y z
#
# Youngs Moduli (GPa) = 66.20198 88.29090 74.02056
#
# Poissons Ratio (x) = 0.16446 0.21071
# Poissons Ratio (y) = 0.12331 0.20142
# Poissons Ratio (z) = 0.18845 0.24026
#
# Static dielectric constant tensor:
#      x y z
#    x 4.123150 0.121600 0.106870 
#    y 0.121600 4.231690 0.109690 
#    z 0.106870 0.109690 4.082860 
# 
# 
# High freq. dielectric constant tensor:
#      x y z
#    x 1.905470 0.001830 0.009340 
#    y 0.001830 1.901510 0.009080 
#    z 0.009340 0.009080 1.890690 
# 
# From -- ./inp_files/486182.got.cif
#   From: 2010.06.25/outbox.cif.g09.slc.cpg/sg2_244_cif.got.tgz:486182.got - 2010.06.27 13:26:56.
