data_PCOD8025322
_publ_section_title
;
Structure prediction by ZEFSAII (Michael W. Deem and Ramdas Pophale) SiO2 
 PCOD8025322
Probable space group: P -1
;
_chemical_formula_sum "Si O2"
_cell_formula_units_Z 14
_cell_length_a 11.739213
_cell_length_b 19.759317
_cell_length_c 14.101424
_cell_angle_alpha 157.017651
_cell_angle_beta 28.704965
_cell_angle_gamma 147.947510
_cell_volume 599.235282
_symmetry_space_group_name_H-M "P -1"
_symmetry_group_IT_number 2
_symmetry_cell_setting 'triclinic'
loop_
_space_group_symop_operation_xyz
x,y,z
-x,-y,-z
loop_
_atom_site_type_symbol
_atom_site_label
_atom_site_fract_x
_atom_site_fract_y
_atom_site_fract_z
Si Si1 0.484569 0.979940 0.774021
Si Si2 0.253838 0.048626 0.280034
Si Si3 0.973880 0.214691 0.037785
Si Si4 0.536556 0.861759 0.373642
Si Si5 0.096687 0.546055 0.250754
Si Si6 0.390410 0.358903 0.318178
Si Si7 0.207994 0.440146 0.830948
O O1 0.734481 0.979970 0.650880
O O2 0.530999 0.955325 0.599154
O O3 0.265242 0.824876 0.772686
O O4 0.409441 0.165251 0.088131
O O5 0.234308 0.248086 0.527409
O O6 0.039092 0.915002 0.211194
O O7 0.500000 0.000000 0.000000
O O8 0.206309 0.192375 0.900530
O O9 0.007808 0.414700 0.233243
O O10 0.331260 0.685166 0.292506
O O11 0.500000 0.000000 0.500000
O O12 0.891031 0.650682 0.507558
O O13 0.155757 0.435118 0.974177
O O14 0.500000 0.500000 0.500000
O O15 0.542628 0.416748 0.185643
O O16 0.000000 0.500000 0.000000
#
# Coordination Sequence:
#
# PCOD8025322 Si02
#       7
#     2   2   2   2   2   2   2
#     4  11  25  45  74 102 141 194 233 293 367 421
#     4  10  23  44  73 107 141 183 235 294 362 423
#     4  11  25  46  72 100 142 182 242 298 352 430
#     4  12  28  46  69 102 143 191 244 293 350 434
#     4  12  27  45  69 105 142 189 244 294 353 435
#     4  12  23  42  71 104 144 181 238 299 358 424
#     4  12  26  42  73 107 144 187 234 296 368 418
#
# _framework density 23.363109999999999
#
# number of rings (size 3 to 8) (size 9 to 14) (size 15 to 20)
#    0.000    0.571    1.429    7.286    4.000    5.143 
#    0.000    0.000    0.000    0.000    0.000    0.000 
#    0.000    0.000    0.000    0.000    0.000    0.000 
#
# Total GULP energy -173666.449075 kJ/mol
# GULP energy per Si atom -12404.746363 kJ/mol
# Density = 2.330993 g / cm^3
# Si number density = 23.363110 Si / 1000 Ang^3
#
#
#
# Elastic Constant Matrix: (Units=GPa)
#
#
# Indices 1 2 3 4 5 6 
#
# 1 121.9278 13.8041 22.0716 5.4894 -15.1346 2.4785
# 2 13.8041 74.3499 -2.6883 19.0624 -7.0928 -3.7977
# 3 22.0716 -2.6883 90.2117 17.1649 -19.1178 -0.9432
# 4 5.4894 19.0624 17.1649 42.1873 -8.4699 -1.8116
# 5 -15.1346 -7.0928 -19.1178 -8.4699 44.6727 -3.6529
# 6 2.4785 -3.7977 -0.9432 -1.8116 -3.6529 52.1663
#
#
#
# Elastic Compliance Matrix: (Units=1/GPa)
#
#
# Indices 1 2 3 4 5 6 
#
# 1 0.008986 -0.001781 -0.001983 0.000833 0.002037 -0.000421
# 2 -0.001781 0.016101 0.002780 -0.007771 0.001764 0.001161
# 3 -0.001983 0.002780 0.013710 -0.005619 0.004626 0.000673
# 4 0.000833 -0.007771 -0.005619 0.029886 0.002351 0.000496
# 5 0.002037 0.001764 0.004626 0.002351 0.025945 0.002014
# 6 -0.000421 0.001161 0.000673 0.000496 0.002014 0.019444
#
#
# Mechanical properties :
#
#
# Convention : Reuss Voigt Hill
#
# Bulk Modulus (GPa) = 27.15241 39.20715 33.17978
# Shear Modulus (GPa) = 38.96629 44.69206 41.82917
#
# Velocity S-wave (km/s) = 4.08837 4.37845 4.23590
# Velocity P-wave (km/s) = 5.82525 6.50993 6.17708
#
# Compressibility (1/GPa) = 0.03682914
#
# Stress axis : x y z
#
# Youngs Moduli (GPa) = 111.28424 62.10801 72.94171
#
# Poissons Ratio (x) = 0.11061 0.14464
# Poissons Ratio (y) = 0.19818 -0.20279
# Poissons Ratio (z) = 0.22067 -0.17267
#
# Static dielectric constant tensor:
#      x y z
#    x 4.939880 -0.035880 -0.323770 
#    y -0.035880 4.383180 -0.039350 
#    z -0.323770 -0.039350 4.500490 
# 
# 
# High freq. dielectric constant tensor:
#      x y z
#    x 1.933490 -0.003980 -0.011180 
#    y -0.003980 1.935540 -0.004240 
#    z -0.011180 -0.004240 1.928160 
# 
# From -- ./inp_files/188506.got.cif
#   From: 2010.06.25/outbox.cif.g09.slc.cpg/sg2_95_cif.got.tgz:188506.got - 2010.06.27 13:26:56.
