data_PCOD8025633
_publ_section_title
;
Structure prediction by ZEFSAII (Michael W. Deem and Ramdas Pophale) SiO2 
 PCOD8025633
Probable space group: P -1
;
_chemical_formula_sum "Si O2"
_cell_formula_units_Z 16
_cell_length_a 8.741366
_cell_length_b 13.996523
_cell_length_c 14.040763
_cell_angle_alpha 150.402518
_cell_angle_beta 91.136678
_cell_angle_gamma 72.221259
_cell_volume 688.964738
_symmetry_space_group_name_H-M "P -1"
_symmetry_group_IT_number 2
_symmetry_cell_setting 'triclinic'
loop_
_space_group_symop_operation_xyz
x,y,z
-x,-y,-z
loop_
_atom_site_type_symbol
_atom_site_label
_atom_site_fract_x
_atom_site_fract_y
_atom_site_fract_z
Si Si1 0.611135 0.073780 0.787482
Si Si2 0.095796 0.619362 0.061354
Si Si3 0.604893 0.667570 0.341568
Si Si4 0.785770 0.389154 0.291107
Si Si5 0.542577 0.894668 0.804999
Si Si6 0.703995 0.384246 0.761726
Si Si7 0.829568 0.027744 0.120029
Si Si8 0.979723 0.060182 0.338296
O O1 0.578429 0.902412 0.580980
O O2 0.603692 0.033944 0.865029
O O3 0.805930 0.030896 0.726267
O O4 0.440579 0.335775 0.986063
O O5 0.176576 0.703013 0.215831
O O6 0.954525 0.862448 0.210939
O O7 0.253789 0.427586 0.826235
O O8 0.000000 0.500000 0.000000
O O9 0.679402 0.474337 0.261340
O O10 0.407183 0.734356 0.357360
O O11 0.710698 0.613401 0.554413
O O12 0.751423 0.209358 0.186938
O O13 0.011625 0.242398 0.148453
O O14 0.346027 0.948934 0.811957
O O15 0.500000 0.000000 0.000000
O O16 0.845091 0.308455 0.608305
O O17 0.922073 0.102234 0.263456
#
# Coordination Sequence:
#
# PCOD8025633 Si02
#       8
#     2   2   2   2   2   2   2   2
#     4  11  27  47  72 107 144 192 237 298 356 427
#     4  12  27  47  75 108 145 187 242 302 360 427
#     4  11  24  50  74 105 152 183 242 299 349 434
#     4  10  23  45  71 103 142 186 238 287 355 424
#     4  11  27  41  67 107 147 181 245 291 350 426
#     4  12  27  46  78 103 143 192 240 292 368 414
#     4  11  24  43  77  99 140 197 230 289 368 414
#     4  12  26  49  73 105 147 184 244 299 357 430
#
# _framework density 23.223251000000001
#
# number of rings (size 3 to 8) (size 9 to 14) (size 15 to 20)
#    0.000    0.750    2.500    3.375   10.500    3.000 
#    0.000    0.000    0.000    0.000    0.000    0.000 
#    0.000    0.000    0.000    0.000    0.000    0.000 
#
# Total GULP energy -198417.364140 kJ/mol
# GULP energy per Si atom -12401.085259 kJ/mol
# Density = 2.317039 g / cm^3
# Si number density = 23.223251 Si / 1000 Ang^3
#
#
#
# Elastic Constant Matrix: (Units=GPa)
#
#
# Indices 1 2 3 4 5 6 
#
# 1 102.6487 58.3385 51.9904 3.2919 0.4827 13.5270
# 2 58.3385 84.7912 34.9233 -27.5707 1.5255 2.2952
# 3 51.9904 34.9233 124.3174 -28.6063 -23.8803 -2.5609
# 4 3.2919 -27.5707 -28.6063 39.7617 -0.8176 -0.5315
# 5 0.4827 1.5255 -23.8803 -0.8176 39.3049 -9.2758
# 6 13.5270 2.2952 -2.5609 -0.5315 -9.2758 29.6329
#
#
#
# Elastic Compliance Matrix: (Units=1/GPa)
#
#
# Indices 1 2 3 4 5 6 
#
# 1 0.057168 -0.044240 -0.030939 -0.058695 -0.027246 -0.034925
# 2 -0.044240 0.050272 0.020880 0.054250 0.018258 0.024794
# 3 -0.030939 0.020880 0.028995 0.038690 0.023428 0.023039
# 4 -0.058695 0.054250 0.038690 0.096650 0.033108 0.038032
# 5 -0.027246 0.018258 0.023428 0.033108 0.046657 0.028246
# 6 -0.034925 0.024794 0.023039 0.038032 0.028246 0.059284
#
#
# Mechanical properties :
#
#
# Convention : Reuss Voigt Hill
#
# Bulk Modulus (GPa) = 35.92334 66.91798 51.42066
# Shear Modulus (GPa) = 10.94324 32.84025 21.89174
#
# Velocity S-wave (km/s) = 2.17311 3.76455 3.07362
# Velocity P-wave (km/s) = 4.66892 6.91183 5.89797
#
# Compressibility (1/GPa) = 0.02783705
#
# Stress axis : x y z
#
# Youngs Moduli (GPa) = 17.49228 19.89176 34.48867
#
# Poissons Ratio (x) = 0.88000 1.06706
# Poissons Ratio (y) = 0.77385 -0.72013
# Poissons Ratio (z) = 0.54120 -0.41534
#
# Static dielectric constant tensor:
#      x y z
#    x 4.393880 0.114980 -0.174000 
#    y 0.114980 4.250150 -0.095860 
#    z -0.174000 -0.095860 4.386930 
# 
# 
# High freq. dielectric constant tensor:
#      x y z
#    x 1.911260 0.003190 -0.013680 
#    y 0.003190 1.921710 -0.013430 
#    z -0.013680 -0.013430 1.938250 
# 
# From -- ./inp_files/505817.got.cif
#   From: 2010.06.25/outbox.cif.g09.slc.cpg/sg2_253_cif.got.tgz:505817.got - 2010.06.27 13:26:56.
