data_PCOD8025995
_publ_section_title
;
Structure prediction by ZEFSAII (Michael W. Deem and Ramdas Pophale) SiO2 
 PCOD8025995
Probable space group: P -1
;
_chemical_formula_sum "Si O2"
_cell_formula_units_Z 16
_cell_length_a 12.575940
_cell_length_b 16.039732
_cell_length_c 15.926520
_cell_angle_alpha 154.407268
_cell_angle_beta 36.326166
_cell_angle_gamma 127.906135
_cell_volume 738.775959
_symmetry_space_group_name_H-M "P -1"
_symmetry_group_IT_number 2
_symmetry_cell_setting 'triclinic'
loop_
_space_group_symop_operation_xyz
x,y,z
-x,-y,-z
loop_
_atom_site_type_symbol
_atom_site_label
_atom_site_fract_x
_atom_site_fract_y
_atom_site_fract_z
Si Si1 0.054336 0.429564 0.307185
Si Si2 0.220250 0.136386 0.211846
Si Si3 0.463549 0.503490 0.625189
Si Si4 0.792630 0.703782 0.320576
Si Si5 0.246253 0.162253 0.720829
Si Si6 0.103773 0.783517 0.898064
Si Si7 0.550518 0.696857 0.139376
Si Si8 0.322602 0.972228 0.179865
O O1 0.000000 0.500000 0.500000
O O2 0.924723 0.619660 0.497737
O O3 0.023572 0.218883 0.106264
O O4 0.289303 0.359077 0.087862
O O5 0.211969 0.106597 0.289916
O O6 0.451938 0.063001 0.978587
O O7 0.140645 0.992947 0.077326
O O8 0.500000 0.500000 0.500000
O O9 0.368277 0.348845 0.574812
O O10 0.687628 0.420176 0.440293
O O11 0.322317 0.740827 0.964070
O O12 0.724499 0.783806 0.343356
O O13 0.808861 0.895268 0.536997
O O14 0.000000 0.500000 0.000000
O O15 0.354611 0.274302 0.808113
O O16 0.350178 0.906261 0.434908
O O17 0.014002 0.245364 0.971233
O O18 0.500000 0.500000 0.000000
#
# Coordination Sequence:
#
# PCOD8025995 Si02
#       8
#     2   2   2   2   2   2   2   2
#     4  11  26  40  68 100 129 167 233 288 330 402
#     4  11  22  41  69  98 128 176 223 274 341 399
#     4  12  22  43  70 100 134 180 224 278 342 401
#     4  12  28  43  66 104 146 176 220 284 338 410
#     4  10  25  44  66 100 134 177 230 274 340 411
#     4  11  22  42  71  93 132 176 219 279 335 399
#     4  10  23  47  70  90 135 184 222 280 344 400
#     4  11  24  40  69 101 132 178 227 266 338 416
#
# _framework density 21.657446
#
# number of rings (size 3 to 8) (size 9 to 14) (size 15 to 20)
#    0.000    1.000    3.750    2.250    5.250    3.000 
#    0.000    0.000    0.000    0.000    0.000    0.000 
#    0.000    0.000    0.000    0.000    0.000    0.000 
#
# Total GULP energy -198334.975167 kJ/mol
# GULP energy per Si atom -12395.935948 kJ/mol
# Density = 2.160815 g / cm^3
# Si number density = 21.657446 Si / 1000 Ang^3
#
#
#
# Elastic Constant Matrix: (Units=GPa)
#
#
# Indices 1 2 3 4 5 6 
#
# 1 90.3302 40.8284 39.6269 3.8867 22.8228 2.7303
# 2 40.8284 70.9364 28.1866 5.0834 13.7137 3.4861
# 3 39.6269 28.1866 130.0883 0.3418 17.0280 -2.9756
# 4 3.8867 5.0834 0.3418 35.5623 0.2302 5.5728
# 5 22.8228 13.7137 17.0280 0.2302 44.2628 -2.9038
# 6 2.7303 3.4861 -2.9756 5.5728 -2.9038 37.8219
#
#
#
# Elastic Compliance Matrix: (Units=1/GPa)
#
#
# Indices 1 2 3 4 5 6 
#
# 1 0.017224 -0.007606 -0.002906 -0.000558 -0.005477 -0.001109
# 2 -0.007606 0.019666 -0.001764 -0.001755 -0.001567 -0.001264
# 3 -0.002906 -0.001764 0.009161 0.000345 -0.001420 0.000933
# 4 -0.000558 -0.001755 0.000345 0.029058 0.000283 -0.004031
# 5 -0.005477 -0.001567 -0.001420 0.000283 0.026606 0.002429
# 6 -0.001109 -0.001264 0.000933 -0.004031 0.002429 0.027490
#
#
# Mechanical properties :
#
#
# Convention : Reuss Voigt Hill
#
# Bulk Modulus (GPa) = 46.50957 56.51539 51.51248
# Shear Modulus (GPa) = 31.07092 35.71027 33.39060
#
# Velocity S-wave (km/s) = 3.79179 4.06503 3.93079
# Velocity P-wave (km/s) = 6.37902 6.94150 6.66620
#
# Compressibility (1/GPa) = 0.02150095
#
# Stress axis : x y z
#
# Youngs Moduli (GPa) = 58.05774 50.84863 109.16222
#
# Poissons Ratio (x) = 0.38674 0.31721
# Poissons Ratio (y) = 0.44157 0.19251
# Poissons Ratio (z) = 0.16871 0.08967
#
# Static dielectric constant tensor:
#      x y z
#    x 3.848110 0.197160 0.356270 
#    y 0.197160 3.805980 -0.113630 
#    z 0.356270 -0.113630 2.814440 
# 
# 
# High freq. dielectric constant tensor:
#      x y z
#    x 1.855280 0.016870 0.009830 
#    y 0.016870 1.832860 -0.000850 
#    z 0.009830 -0.000850 1.870710 
# 
# From -- ./inp_files/522570.got.cif
#   From: 2010.06.25/outbox.cif.g09.slc.cpg/sg2_262_cif.got.tgz:522570.got - 2010.06.27 13:26:56.
