data_PCOD8025021
_publ_section_title
;
Structure prediction by ZEFSAII (Michael W. Deem and Ramdas Pophale) SiO2 
 PCOD8025021
Probable space group: P -1
;
_chemical_formula_sum "Si O2"
_cell_formula_units_Z 14
_cell_length_a 10.105801
_cell_length_b 18.280788
_cell_length_c 10.320946
_cell_angle_alpha 131.416736
_cell_angle_beta 70.208324
_cell_angle_gamma 147.550234
_cell_volume 642.832861
_symmetry_space_group_name_H-M "P -1"
_symmetry_group_IT_number 2
_symmetry_cell_setting 'triclinic'
loop_
_space_group_symop_operation_xyz
x,y,z
-x,-y,-z
loop_
_atom_site_type_symbol
_atom_site_label
_atom_site_fract_x
_atom_site_fract_y
_atom_site_fract_z
Si Si1 0.705564 0.455547 0.528020
Si Si2 0.350878 0.223594 0.113016
Si Si3 0.775739 0.330665 0.514593
Si Si4 0.827562 0.366128 0.029688
Si Si5 0.639766 0.048988 0.642974
Si Si6 0.660139 0.608550 0.879098
Si Si7 0.093983 0.170332 0.681292
O O1 0.506049 0.347749 0.341421
O O2 0.561405 0.286320 0.475785
O O3 0.804048 0.618755 0.746099
O O4 0.016934 0.593218 0.569452
O O5 0.509772 0.225192 0.998159
O O6 0.428236 0.353173 0.134089
O O7 0.000000 0.000000 0.000000
O O8 0.957765 0.487621 0.753211
O O9 0.602646 0.133062 0.391063
O O10 0.798474 0.233026 0.878073
O O11 0.000000 0.500000 0.000000
O O12 0.853072 0.087962 0.590001
O O13 0.500000 0.000000 0.500000
O O14 0.394172 0.381605 0.757943
O O15 0.878338 0.780724 0.119869
O O16 0.000000 0.000000 0.500000
#
# Coordination Sequence:
#
# PCOD8025021 Si02
#       7
#     2   2   2   2   2   2   2
#     4  10  23  46  67  94 141 180 227 288 342 418
#     4  11  27  42  70 105 143 189 233 288 349 428
#     4  10  23  44  67  98 134 175 229 290 344 405
#     4  11  23  45  67 100 139 177 237 289 345 407
#     4  12  25  39  72  99 131 179 230 281 348 411
#     4  11  25  46  71  96 141 184 231 285 362 410
#     4  11  27  46  72 104 138 179 235 298 353 418
#
# _framework density 21.778600000000001
#
# number of rings (size 3 to 8) (size 9 to 14) (size 15 to 20)
#    0.000    1.143    1.429    3.000   10.000    2.286 
#    0.000    2.857    0.000    0.000    0.000    0.000 
#    0.000    0.000    0.000    0.000    0.000    0.000 
#
# Total GULP energy -173445.713578 kJ/mol
# GULP energy per Si atom -12388.979541 kJ/mol
# Density = 2.172903 g / cm^3
# Si number density = 21.778600 Si / 1000 Ang^3
#
#
#
# Elastic Constant Matrix: (Units=GPa)
#
#
# Indices 1 2 3 4 5 6 
#
# 1 132.4940 31.0423 55.1380 -5.4665 -9.5807 -12.9653
# 2 31.0423 76.3392 43.0324 -1.0964 -5.5713 -2.1921
# 3 55.1380 43.0324 137.3145 -5.4749 -23.6870 -3.7606
# 4 -5.4665 -1.0964 -5.4749 39.7593 -5.2944 -2.9265
# 5 -9.5807 -5.5713 -23.6870 -5.2944 43.5908 0.1922
# 6 -12.9653 -2.1921 -3.7606 -2.9265 0.1922 45.1310
#
#
#
# Elastic Compliance Matrix: (Units=1/GPa)
#
#
# Indices 1 2 3 4 5 6 
#
# 1 0.009610 -0.002084 -0.003042 0.001069 0.000312 0.002474
# 2 -0.002084 0.016394 -0.004479 -0.000582 -0.000867 -0.000210
# 3 -0.003042 -0.004479 0.010799 0.001579 0.004819 -0.000110
# 4 0.001069 -0.000582 0.001579 0.026212 0.004193 0.002092
# 5 0.000312 -0.000867 0.004819 0.004193 0.026024 0.000610
# 6 0.002474 -0.000210 -0.000110 0.002092 0.000610 0.022982
#
#
# Mechanical properties :
#
#
# Convention : Reuss Voigt Hill
#
# Bulk Modulus (GPa) = 56.83960 67.17479 62.00720
# Shear Modulus (GPa) = 36.47071 40.15856 38.31463
#
# Velocity S-wave (km/s) = 4.09664 4.29878 4.19893
# Velocity P-wave (km/s) = 6.96650 7.45323 7.21397
#
# Compressibility (1/GPa) = 0.01759337
#
# Stress axis : x y z
#
# Youngs Moduli (GPa) = 104.05413 60.99690 92.60158
#
# Poissons Ratio (x) = 0.12713 0.28166
# Poissons Ratio (y) = 0.21687 0.41479
# Poissons Ratio (z) = 0.31650 0.27322
#
# Static dielectric constant tensor:
#      x y z
#    x 4.349640 -0.078150 -0.210740 
#    y -0.078150 4.285460 -0.056230 
#    z -0.210740 -0.056230 4.093760 
# 
# 
# High freq. dielectric constant tensor:
#      x y z
#    x 1.875970 -0.012070 -0.009630 
#    y -0.012070 1.865920 -0.006820 
#    z -0.009630 -0.006820 1.858830 
# 
# From -- ./inp_files/403352.got.cif
#   From: 2010.06.25/outbox.cif.g09.slc.cpg/sg2_202_cif.got.tgz:403352.got - 2010.06.27 13:26:56.
