data_PCOD8025511
_publ_section_title
;
Structure prediction by ZEFSAII (Michael W. Deem and Ramdas Pophale) SiO2 
 PCOD8025511
Probable space group: P -1
;
_chemical_formula_sum "Si O2"
_cell_formula_units_Z 16
_cell_length_a 30.712672
_cell_length_b 14.662894
_cell_length_c 8.938042
_cell_angle_alpha 39.167865
_cell_angle_beta 39.703171
_cell_angle_gamma 19.447923
_cell_volume 832.284130
_symmetry_space_group_name_H-M "P -1"
_symmetry_group_IT_number 2
_symmetry_cell_setting 'triclinic'
loop_
_space_group_symop_operation_xyz
x,y,z
-x,-y,-z
loop_
_atom_site_type_symbol
_atom_site_label
_atom_site_fract_x
_atom_site_fract_y
_atom_site_fract_z
Si Si1 0.420333 0.147440 0.868898
Si Si2 0.178280 0.293321 0.878960
Si Si3 0.090370 0.155943 0.248581
Si Si4 0.009750 0.743018 0.307561
Si Si5 0.681229 0.691882 0.612007
Si Si6 0.864015 0.240069 0.459981
Si Si7 0.802154 0.333486 0.030867
Si Si8 0.201978 0.369383 0.036184
O O1 0.300523 0.479078 0.794575
O O2 0.345657 0.134123 0.035010
O O3 0.520966 0.003969 0.649846
O O4 0.500000 0.000000 0.000000
O O5 0.259216 0.253973 0.606061
O O6 0.222294 0.231093 0.014719
O O7 0.022431 0.617594 0.867050
O O8 0.198308 0.089981 0.034227
O O9 0.024409 0.291960 0.414292
O O10 0.159197 0.876156 0.399309
O O11 0.091961 0.730888 0.161560
O O12 0.098620 0.488623 0.278298
O O13 0.873018 0.048962 0.203655
O O14 0.731712 0.524401 0.540220
O O15 0.723885 0.504159 0.867498
O O16 0.869640 0.347023 0.177017
O O17 0.000000 0.000000 0.500000
#
# Coordination Sequence:
#
# PCOD8025511 Si02
#       8
#     2   2   2   2   2   2   2   2
#     4   9  19  32  53  80 106 134 180 223 264 302
#     4  10  22  33  50  76 115 141 170 206 269 324
#     4  11  20  34  49  79 112 144 166 209 266 330
#     4  10  17  29  55  75 107 133 170 216 269 302
#     4  10  18  33  54  76 106 139 174 221 261 302
#     4  11  18  31  54  80 106 134 176 221 263 309
#     4   9  16  29  51  83 101 131 170 222 265 306
#     4  10  20  34  55  83 105 137 177 225 258 312
#
# _framework density 19.224205000000001
#
# number of rings (size 3 to 8) (size 9 to 14) (size 15 to 20)
#    0.000    2.000    3.750    3.000    0.000    2.500 
#    0.000    0.000    0.000    6.750    0.000    8.750 
#    0.000    0.000    0.000    0.000    0.000    0.000 
#
# Total GULP energy -198210.255031 kJ/mol
# GULP energy per Si atom -12388.140939 kJ/mol
# Density = 1.918045 g / cm^3
# Si number density = 19.224205 Si / 1000 Ang^3
#
#
#
# Elastic Constant Matrix: (Units=GPa)
#
#
# Indices 1 2 3 4 5 6 
#
# 1 75.6517 23.8732 28.4477 6.2253 -4.6387 -5.5174
# 2 23.8732 75.7561 30.9661 26.5542 -6.2926 0.2555
# 3 28.4477 30.9661 63.5080 11.9893 -4.1318 7.3243
# 4 6.2253 26.5542 11.9893 29.1587 3.5485 7.3195
# 5 -4.6387 -6.2926 -4.1318 3.5485 31.4685 -4.0806
# 6 -5.5174 0.2555 7.3243 7.3195 -4.0806 26.9865
#
#
#
# Elastic Compliance Matrix: (Units=1/GPa)
#
#
# Indices 1 2 3 4 5 6 
#
# 1 0.017163 -0.002216 -0.007071 -0.000452 0.001970 0.005870
# 2 -0.002216 0.025640 -0.007723 -0.022801 0.007488 0.008717
# 3 -0.007071 -0.007723 0.023370 0.001052 -0.000688 -0.008105
# 4 -0.000452 -0.022801 0.001052 0.061133 -0.013824 -0.018833
# 5 0.001970 0.007488 -0.000688 -0.013824 0.036299 0.009757
# 6 0.005870 0.008717 -0.008105 -0.018833 0.009757 0.046956
#
#
# Mechanical properties :
#
#
# Convention : Reuss Voigt Hill
#
# Bulk Modulus (GPa) = 31.10058 42.38776 36.74417
# Shear Modulus (GPa) = 19.58486 26.29798 22.94142
#
# Velocity S-wave (km/s) = 3.19527 3.70261 3.45825
# Velocity P-wave (km/s) = 5.46131 6.35422 5.92461
#
# Compressibility (1/GPa) = 0.03215374
#
# Stress axis : x y z
#
# Youngs Moduli (GPa) = 58.26593 39.00135 42.78903
#
# Poissons Ratio (x) = 0.08643 0.30255
# Poissons Ratio (y) = 0.12911 0.33046
# Poissons Ratio (z) = 0.41198 0.30121
#
# Static dielectric constant tensor:
#      x y z
#    x 3.531530 -0.024010 0.213290 
#    y -0.024010 3.743160 0.217690 
#    z 0.213290 0.217690 3.550550 
# 
# 
# High freq. dielectric constant tensor:
#      x y z
#    x 1.740910 -0.004370 0.027180 
#    y -0.004370 1.728780 0.011220 
#    z 0.027180 0.011220 1.726640 
# 
# From -- ./inp_files/174962.got.cif
#   From: 2010.06.25/outbox.cif.g09.slc.cpg/sg2_88_cif.got.tgz:174962.got - 2010.06.27 13:26:56.
