data_PCOD8025245
_publ_section_title
;
Structure prediction by ZEFSAII (Michael W. Deem and Ramdas Pophale) SiO2 
 PCOD8025245
Probable space group: P -1
;
_chemical_formula_sum "Si O2"
_cell_formula_units_Z 14
_cell_length_a 14.047107
_cell_length_b 5.204413
_cell_length_c 24.260606
_cell_angle_alpha 65.426210
_cell_angle_beta 22.598316
_cell_angle_gamma 61.772644
_cell_volume 599.360906
_symmetry_space_group_name_H-M "P -1"
_symmetry_group_IT_number 2
_symmetry_cell_setting 'triclinic'
loop_
_space_group_symop_operation_xyz
x,y,z
-x,-y,-z
loop_
_atom_site_type_symbol
_atom_site_label
_atom_site_fract_x
_atom_site_fract_y
_atom_site_fract_z
Si Si1 0.931922 0.603562 0.588127
Si Si2 0.902767 0.818836 0.113798
Si Si3 0.676439 0.103332 0.611179
Si Si4 0.509288 0.827205 0.953543
Si Si5 0.983051 0.823902 0.876182
Si Si6 0.966706 0.051105 0.666976
Si Si7 0.328422 0.791381 0.593536
O O1 0.813369 0.395714 0.710960
O O2 0.000000 0.500000 0.500000
O O3 0.200366 0.625587 0.469622
O O4 0.723230 0.912951 0.660537
O O5 0.619472 0.796101 0.252902
O O6 0.073493 0.482787 0.047403
O O7 0.914427 0.984506 0.150351
O O8 0.000000 0.000000 0.000000
O O9 0.820413 0.955291 0.492684
O O10 0.771225 0.846452 0.780287
O O11 0.500000 0.500000 0.000000
O O12 0.500000 0.000000 0.000000
O O13 0.273779 0.967738 0.028305
O O14 0.199347 0.709353 0.724589
O O15 0.100648 0.970929 0.660927
O O16 0.500000 0.500000 0.500000
O O17 0.500000 0.000000 0.500000
#
# Coordination Sequence:
#
# PCOD8025245 Si02
#       7
#     2   2   2   2   2   2   2
#     4   9  22  41  68 104 137 185 242 308 358 432
#     4  12  29  49  78 106 153 200 248 311 383 451
#     4  10  23  44  71 107 144 186 256 301 374 441
#     4  12  28  49  75 108 153 196 254 302 375 453
#     4  12  27  51  73 111 150 197 253 311 372 456
#     4  11  25  43  75 102 144 193 241 308 375 434
#     4  12  27  44  75 109 148 192 245 302 376 444
#
# _framework density 23.358212999999999
#
# number of rings (size 3 to 8) (size 9 to 14) (size 15 to 20)
#    0.000    0.857    1.429    3.857   14.000    3.429 
#    0.000    0.000    0.000    0.000    0.000    0.000 
#    0.000    0.000    0.000    0.000    0.000    0.000 
#
# Total GULP energy -173493.844211 kJ/mol
# GULP energy per Si atom -12392.417444 kJ/mol
# Density = 2.330505 g / cm^3
# Si number density = 23.358213 Si / 1000 Ang^3
#
#
#
# Elastic Constant Matrix: (Units=GPa)
#
#
# Indices 1 2 3 4 5 6 
#
# 1 134.9349 59.6987 39.9796 -6.7282 -29.5251 -2.5116
# 2 59.6987 185.8550 50.2334 -29.5710 -18.7733 -13.5149
# 3 39.9796 50.2334 106.0494 -14.4324 -20.7947 -18.9569
# 4 -6.7282 -29.5710 -14.4324 40.7639 0.9971 2.2857
# 5 -29.5251 -18.7733 -20.7947 0.9971 33.7041 -6.8133
# 6 -2.5116 -13.5149 -18.9569 2.2857 -6.8133 45.9789
#
#
#
# Elastic Compliance Matrix: (Units=1/GPa)
#
#
# Indices 1 2 3 4 5 6 
#
# 1 0.010370 -0.002309 -0.001478 -0.000677 0.006976 0.000346
# 2 -0.002309 0.007479 -0.001563 0.004379 0.001333 0.001408
# 3 -0.001478 -0.001563 0.013656 0.002938 0.007395 0.006040
# 4 -0.000677 0.004379 0.002938 0.028476 0.003121 0.001508
# 5 0.006976 0.001333 0.007395 0.003121 0.043023 0.010042
# 6 0.000346 0.001408 0.006040 0.001508 0.010042 0.026085
#
#
# Mechanical properties :
#
#
# Convention : Reuss Voigt Hill
#
# Bulk Modulus (GPa) = 48.06635 80.74029 64.40332
# Shear Modulus (GPa) = 34.07766 42.55123 38.31445
#
# Velocity S-wave (km/s) = 3.82372 4.27275 4.05445
# Velocity P-wave (km/s) = 6.33380 7.68004 7.03918
#
# Compressibility (1/GPa) = 0.02080458
#
# Stress axis : x y z
#
# Youngs Moduli (GPa) = 96.43580 133.71659 73.22524
#
# Poissons Ratio (x) = 0.30880 0.10822
# Poissons Ratio (y) = 0.22270 0.11444
# Poissons Ratio (z) = 0.14252 0.20897
#
# Static dielectric constant tensor:
#      x y z
#    x 4.256150 -0.347390 0.027250 
#    y -0.347390 5.136980 -0.240950 
#    z 0.027250 -0.240950 4.236710 
# 
# 
# High freq. dielectric constant tensor:
#      x y z
#    x 1.943700 -0.007220 -0.005050 
#    y -0.007220 1.941450 -0.018300 
#    z -0.005050 -0.018300 1.914500 
# 
# From -- ./inp_files/564146.got.cif
#   From: 2010.06.25/outbox.cif.g09.slc.cpg/sg2_283_cif.got.tgz:564146.got - 2010.06.27 13:26:56.
