data_PCOD8025643
_publ_section_title
;
Structure prediction by ZEFSAII (Michael W. Deem and Ramdas Pophale) SiO2 
 PCOD8025643
Probable space group: P -1
;
_chemical_formula_sum "Si O2"
_cell_formula_units_Z 16
_cell_length_a 9.257092
_cell_length_b 8.865676
_cell_length_c 16.501444
_cell_angle_alpha 46.549722
_cell_angle_beta 125.237292
_cell_angle_gamma 134.872466
_cell_volume 685.581062
_symmetry_space_group_name_H-M "P -1"
_symmetry_group_IT_number 2
_symmetry_cell_setting 'triclinic'
loop_
_space_group_symop_operation_xyz
x,y,z
-x,-y,-z
loop_
_atom_site_type_symbol
_atom_site_label
_atom_site_fract_x
_atom_site_fract_y
_atom_site_fract_z
Si Si1 0.297917 0.274057 0.801558
Si Si2 0.175026 0.264669 0.482953
Si Si3 0.058513 0.641764 0.311304
Si Si4 0.354984 0.425407 0.076958
Si Si5 0.562728 0.967736 0.780610
Si Si6 0.479563 0.634740 0.319366
Si Si7 0.005500 0.727003 0.876861
Si Si8 0.141364 0.601843 0.818263
O O1 0.417549 0.377013 0.887297
O O2 0.466707 0.415853 0.733346
O O3 0.112952 0.328477 0.708422
O O4 0.203793 0.984297 0.873970
O O5 0.066714 0.408682 0.429919
O O6 0.301607 0.392454 0.394494
O O7 0.315012 0.248995 0.602377
O O8 0.000000 0.000000 0.500000
O O9 0.292636 0.879368 0.306195
O O10 0.008963 0.621441 0.205346
O O11 0.202806 0.286519 0.155367
O O12 0.370675 0.226012 0.100858
O O13 0.266336 0.548126 0.945567
O O14 0.588750 0.163463 0.784948
O O15 0.315954 0.810740 0.738022
O O16 0.012064 0.697255 0.792102
O O17 0.000000 0.500000 0.000000
#
# Coordination Sequence:
#
# PCOD8025643 Si02
#       8
#     2   2   2   2   2   2   2   2
#     4  12  24  42  64  98 135 168 220 267 314 380
#     4  10  23  45  71  93 123 165 213 270 337 393
#     4  11  25  40  68  94 126 174 215 267 322 382
#     4  11  25  39  62  95 134 174 214 268 315 373
#     4  11  21  41  64  91 130 171 216 261 319 384
#     4  10  24  43  69  96 124 165 216 270 329 390
#     4  10  24  42  61  93 133 176 220 261 312 376
#     4  11  23  41  61  93 130 177 219 254 319 383
#
# _framework density 23.337869000000001
#
# number of rings (size 3 to 8) (size 9 to 14) (size 15 to 20)
#    0.000    1.250    3.750    1.125    3.500    5.000 
#    0.000    0.625    0.000    0.000    0.000    0.000 
#    0.000    0.000    0.000    0.000    0.000    0.000 
#
# Total GULP energy -198209.342093 kJ/mol
# GULP energy per Si atom -12388.083881 kJ/mol
# Density = 2.328475 g / cm^3
# Si number density = 23.337869 Si / 1000 Ang^3
#
#
#
# Elastic Constant Matrix: (Units=GPa)
#
#
# Indices 1 2 3 4 5 6 
#
# 1 150.1510 25.6825 23.6907 -3.9258 4.3539 -8.6907
# 2 25.6825 97.3905 40.5781 -16.0890 -5.2028 -0.1162
# 3 23.6907 40.5781 62.6447 -1.0223 9.7504 -6.3842
# 4 -3.9258 -16.0890 -1.0223 24.8319 -4.6361 4.4908
# 5 4.3539 -5.2028 9.7504 -4.6361 24.1415 -4.7491
# 6 -8.6907 -0.1162 -6.3842 4.4908 -4.7491 34.0787
#
#
#
# Elastic Compliance Matrix: (Units=1/GPa)
#
#
# Indices 1 2 3 4 5 6 
#
# 1 0.007240 -0.001267 -0.001671 -0.000128 -0.000642 0.001456
# 2 -0.001267 0.019667 -0.014280 0.014852 0.012467 -0.003151
# 3 -0.001671 -0.014280 0.028538 -0.012058 -0.015780 0.004261
# 4 -0.000128 0.014852 -0.012058 0.053820 0.017061 -0.006956
# 5 -0.000642 0.012467 -0.015780 0.017061 0.054316 0.002244
# 6 0.001456 -0.003151 0.004261 -0.006956 0.002244 0.031732
#
#
# Mechanical properties :
#
#
# Convention : Reuss Voigt Hill
#
# Bulk Modulus (GPa) = 47.59544 54.45433 51.02488
# Shear Modulus (GPa) = 21.11910 31.29276 26.20593
#
# Velocity S-wave (km/s) = 3.01147 3.66574 3.35459
# Velocity P-wave (km/s) = 5.70353 6.42655 6.07581
#
# Compressibility (1/GPa) = 0.02101042
#
# Stress axis : x y z
#
# Youngs Moduli (GPa) = 138.12448 50.84537 35.04052
#
# Poissons Ratio (x) = 0.06440 0.05856
# Poissons Ratio (y) = 0.17494 0.50037
# Poissons Ratio (z) = 0.23085 0.72606
#
# Static dielectric constant tensor:
#      x y z
#    x 5.215840 0.211710 0.015800 
#    y 0.211710 4.161230 -0.236270 
#    z 0.015800 -0.236270 3.927310 
# 
# 
# High freq. dielectric constant tensor:
#      x y z
#    x 1.952650 0.015820 0.015180 
#    y 0.015820 1.922030 -0.021800 
#    z 0.015180 -0.021800 1.881750 
# 
# From -- ./inp_files/313121.got.cif
#   From: 2010.06.25/outbox.cif.g09.slc.cpg/sg2_157_cif.got.tgz:313121.got - 2010.06.27 13:26:56.
