data_PCOD8025477
_publ_section_title
;
Structure prediction by ZEFSAII (Michael W. Deem and Ramdas Pophale) SiO2 
 PCOD8025477
Probable space group: P -1
;
_chemical_formula_sum "Si O2"
_cell_formula_units_Z 12
_cell_length_a 16.700181
_cell_length_b 6.613398
_cell_length_c 7.409614
_cell_angle_alpha 138.154625
_cell_angle_beta 70.675654
_cell_angle_gamma 94.611822
_cell_volume 496.926830
_symmetry_space_group_name_H-M "P -1"
_symmetry_group_IT_number 2
_symmetry_cell_setting 'triclinic'
loop_
_space_group_symop_operation_xyz
x,y,z
-x,-y,-z
loop_
_atom_site_type_symbol
_atom_site_label
_atom_site_fract_x
_atom_site_fract_y
_atom_site_fract_z
Si Si1 0.339176 0.549230 0.813178
Si Si2 0.862814 0.164887 0.215056
Si Si3 0.308686 0.068827 0.801010
Si Si4 0.720457 0.744250 0.678445
Si Si5 0.999304 0.858730 0.207821
Si Si6 0.482771 0.665715 0.311680
O O1 0.443306 0.532142 0.737303
O O2 0.306069 0.314198 0.809008
O O3 0.321947 0.452242 0.559894
O O4 0.282822 0.900115 0.144625
O O5 0.786474 0.988054 0.142851
O O6 0.820797 0.542125 0.506878
O O7 0.085328 0.951792 0.716502
O O8 0.918923 0.100768 0.946235
O O9 0.381261 0.733022 0.493807
O O10 0.333856 0.216902 0.066846
O O11 0.000000 0.000000 0.500000
O O12 0.000000 0.500000 0.000000
O O13 0.500000 0.000000 0.500000
O O14 0.500000 0.500000 0.000000
#
# Coordination Sequence:
#
# PCOD8025477 Si02
#       6
#     2   2   2   2   2   2
#     4  11  26  45  71 106 152 202 244 295 364 423
#     4  11  29  50  77 116 145 182 254 296 366 448
#     4  11  27  46  77 105 152 195 245 313 348 424
#     4  12  27  44  72 114 144 191 250 297 363 433
#     4  11  30  53  81 106 148 191 230 304 380 445
#     4  10  23  45  68 103 149 200 250 292 359 416
#
# _framework density 24.148425
#
# number of rings (size 3 to 8) (size 9 to 14) (size 15 to 20)
#    0.000    1.000    1.667    2.000   14.000    2.667 
#    0.000    0.000    0.000    0.000    0.000    0.000 
#    0.000    0.000    0.000    0.000    0.000    0.000 
#
# Total GULP energy -148709.338026 kJ/mol
# GULP energy per Si atom -12392.444836 kJ/mol
# Density = 2.409346 g / cm^3
# Si number density = 24.148425 Si / 1000 Ang^3
#
#
#
# Elastic Constant Matrix: (Units=GPa)
#
#
# Indices 1 2 3 4 5 6 
#
# 1 185.0887 76.1157 94.6342 -7.4609 -13.8130 -23.9452
# 2 76.1157 128.8137 43.5144 -6.0032 -7.0674 -13.8775
# 3 94.6342 43.5144 189.1167 -3.5579 -2.0562 -11.4820
# 4 -7.4609 -6.0032 -3.5579 51.4606 -9.1815 -7.3689
# 5 -13.8130 -7.0674 -2.0562 -9.1815 40.5419 4.4995
# 6 -23.9452 -13.8775 -11.4820 -7.3689 4.4995 45.3185
#
#
#
# Elastic Compliance Matrix: (Units=1/GPa)
#
#
# Indices 1 2 3 4 5 6 
#
# 1 0.009446 -0.003847 -0.003611 0.001513 0.002385 0.002907
# 2 -0.003847 0.010354 -0.000366 0.000885 0.000550 0.001134
# 3 -0.003611 -0.000366 0.007154 -0.000267 -0.000975 -0.000154
# 4 0.001513 0.000885 -0.000267 0.021198 0.005018 0.003951
# 5 0.002385 0.000550 -0.000975 0.005018 0.026734 -0.000657
# 6 0.002907 0.001134 -0.000154 0.003951 -0.000657 0.024618
#
#
# Mechanical properties :
#
#
# Convention : Reuss Voigt Hill
#
# Bulk Modulus (GPa) = 88.44707 103.50531 95.97619
# Shear Modulus (GPa) = 42.04509 46.71451 44.37980
#
# Velocity S-wave (km/s) = 4.17719 4.40304 4.29160
# Velocity P-wave (km/s) = 7.74410 8.29483 8.02419
#
# Compressibility (1/GPa) = 0.01130620
#
# Stress axis : x y z
#
# Youngs Moduli (GPa) = 105.86198 96.58343 139.78814
#
# Poissons Ratio (x) = 0.37160 0.50474
# Poissons Ratio (y) = 0.40730 0.05110
# Poissons Ratio (z) = 0.38224 0.03530
#
# Static dielectric constant tensor:
#      x y z
#    x 6.168250 0.586270 -1.114880 
#    y 0.586270 4.946620 -0.611720 
#    z -1.114880 -0.611720 5.275030 
# 
# 
# High freq. dielectric constant tensor:
#      x y z
#    x 1.967320 -0.015190 -0.003200 
#    y -0.015190 1.971410 0.001100 
#    z -0.003200 0.001100 1.974970 
# 
# From -- ./inp_files/343134.got.cif
#   From: 2010.06.25/outbox.cif.g09.slc.cpg/sg2_172_cif.got.tgz:343134.got - 2010.06.27 13:26:56.
