data_PCOD8025136
_publ_section_title
;
Structure prediction by ZEFSAII (Michael W. Deem and Ramdas Pophale) SiO2 
 PCOD8025136
Probable space group: P -1
;
_chemical_formula_sum "Si O2"
_cell_formula_units_Z 16
_cell_length_a 8.757462
_cell_length_b 11.876781
_cell_length_c 11.471986
_cell_angle_alpha 65.817103
_cell_angle_beta 127.229399
_cell_angle_gamma 132.250432
_cell_volume 703.234395
_symmetry_space_group_name_H-M "P -1"
_symmetry_group_IT_number 2
_symmetry_cell_setting 'triclinic'
loop_
_space_group_symop_operation_xyz
x,y,z
-x,-y,-z
loop_
_atom_site_type_symbol
_atom_site_label
_atom_site_fract_x
_atom_site_fract_y
_atom_site_fract_z
Si Si1 0.251401 0.690923 0.611821
Si Si2 0.801558 0.802081 0.066393
Si Si3 0.541473 0.160053 0.967879
Si Si4 0.516861 0.338586 0.683884
Si Si5 0.859816 0.853343 0.578717
Si Si6 0.789543 0.599762 0.330775
Si Si7 0.025453 0.647255 0.762126
Si Si8 0.768228 0.899602 0.775024
O O1 0.304004 0.574665 0.634518
O O2 0.152745 0.628594 0.721500
O O3 0.503532 0.854633 0.659294
O O4 0.070382 0.702833 0.445315
O O5 0.640818 0.854485 0.015743
O O6 0.738776 0.647400 0.162779
O O7 0.771616 0.786193 0.918551
O O8 0.072560 0.931707 0.170697
O O9 0.497633 0.206670 0.804290
O O10 0.807760 0.294349 0.072423
O O11 0.500000 0.000000 0.000000
O O12 0.412775 0.264790 0.539847
O O13 0.349158 0.381636 0.640109
O O14 0.782467 0.485871 0.741836
O O15 0.870729 0.895972 0.700165
O O16 0.993437 0.775949 0.657242
O O17 0.000000 0.000000 0.500000
#
# Coordination Sequence:
#
# PCOD8025136 Si02
#       8
#     2   2   2   2   2   2   2   2
#     4  11  24  42  67 103 135 173 225 285 331 398
#     4  10  23  47  66  97 134 181 223 275 345 405
#     4  11  23  46  71 102 139 177 228 286 335 407
#     4  11  24  44  71 100 138 184 223 278 348 407
#     4  12  25  45  71 100 134 183 230 280 351 407
#     4  10  23  44  69  95 137 175 222 274 340 404
#     4  12  24  44  66 104 139 173 232 284 337 409
#     4  11  24  44  69  96 132 179 225 278 343 405
#
# _framework density 22.752015
#
# number of rings (size 3 to 8) (size 9 to 14) (size 15 to 20)
#    0.000    1.000    2.500    4.500    3.500    1.000 
#    9.000    0.000    0.000    0.000    0.000    0.000 
#    0.000    0.000    0.000    0.000    0.000    0.000 
#
# Total GULP energy -198420.222737 kJ/mol
# GULP energy per Si atom -12401.263921 kJ/mol
# Density = 2.270023 g / cm^3
# Si number density = 22.752015 Si / 1000 Ang^3
#
#
#
# Elastic Constant Matrix: (Units=GPa)
#
#
# Indices 1 2 3 4 5 6 
#
# 1 90.1388 51.3961 46.8513 -6.6944 0.5947 7.5264
# 2 51.3961 74.7343 24.0627 4.9615 12.2146 8.8041
# 3 46.8513 24.0627 115.9726 15.2260 -10.3858 -1.3057
# 4 -6.6944 4.9615 15.2260 43.3148 10.7349 9.7888
# 5 0.5947 12.2146 -10.3858 10.7349 45.9090 1.8704
# 6 7.5264 8.8041 -1.3057 9.7888 1.8704 33.0650
#
#
#
# Elastic Compliance Matrix: (Units=1/GPa)
#
#
# Indices 1 2 3 4 5 6 
#
# 1 0.024743 -0.014288 -0.008398 0.009658 -0.000474 -0.004992
# 2 -0.014288 0.024282 0.000710 -0.003530 -0.005214 -0.001845
# 3 -0.008398 0.000710 0.013425 -0.008268 0.004710 0.004434
# 4 0.009658 -0.003530 -0.008268 0.032335 -0.008181 -0.010695
# 5 -0.000474 -0.005214 0.004710 -0.008181 0.026047 0.002631
# 6 -0.004992 -0.001845 0.004434 -0.010695 0.002631 0.035064
#
#
# Mechanical properties :
#
#
# Convention : Reuss Voigt Hill
#
# Bulk Modulus (GPa) = 54.05999 58.38511 56.22255
# Shear Modulus (GPa) = 24.27009 35.02679 29.64844
#
# Velocity S-wave (km/s) = 3.26962 3.92791 3.61378
# Velocity P-wave (km/s) = 6.16976 6.80356 6.49440
#
# Compressibility (1/GPa) = 0.01849797
#
# Stress axis : x y z
#
# Youngs Moduli (GPa) = 40.41530 41.18221 74.48598
#
# Poissons Ratio (x) = 0.58841 0.62553
# Poissons Ratio (y) = 0.57745 -0.05285
# Poissons Ratio (z) = 0.33941 -0.02922
#
# Static dielectric constant tensor:
#      x y z
#    x 4.015680 0.077350 0.049260 
#    y 0.077350 3.926490 0.173450 
#    z 0.049260 0.173450 4.491020 
# 
# 
# High freq. dielectric constant tensor:
#      x y z
#    x 1.890280 0.010890 0.002440 
#    y 0.010890 1.890560 0.009340 
#    z 0.002440 0.009340 1.920130 
# 
# From -- ./inp_files/184202.got.cif
#   From: 2010.06.25/outbox.cif.g09.slc.cpg/sg2_93_cif.got.tgz:184202.got - 2010.06.27 13:26:56.
