data_PCOD8025381
_publ_section_title
;
Structure prediction by ZEFSAII (Michael W. Deem and Ramdas Pophale) SiO2 
 PCOD8025381
Probable space group: P -1
;
_chemical_formula_sum "Si O2"
_cell_formula_units_Z 14
_cell_length_a 27.493652
_cell_length_b 15.985789
_cell_length_c 14.579590
_cell_angle_alpha 26.382756
_cell_angle_beta 159.965844
_cell_angle_gamma 162.190082
_cell_volume 671.365946
_symmetry_space_group_name_H-M "P -1"
_symmetry_group_IT_number 2
_symmetry_cell_setting 'triclinic'
loop_
_space_group_symop_operation_xyz
x,y,z
-x,-y,-z
loop_
_atom_site_type_symbol
_atom_site_label
_atom_site_fract_x
_atom_site_fract_y
_atom_site_fract_z
Si Si1 0.557081 0.529508 0.466979
Si Si2 0.133982 0.050214 0.105962
Si Si3 0.449064 0.042696 0.233480
Si Si4 0.806426 0.680784 0.235110
Si Si5 0.921891 0.591421 0.052525
Si Si6 0.774326 0.079423 0.225116
Si Si7 0.294528 0.025132 0.164164
O O1 0.500000 0.500000 0.500000
O O2 0.369231 0.249993 0.355992
O O3 0.750965 0.584560 0.741960
O O4 0.603237 0.777313 0.261427
O O5 0.115957 0.181596 0.862562
O O6 0.000000 0.000000 0.000000
O O7 0.048558 0.765255 0.199230
O O8 0.657023 0.360809 0.275374
O O9 0.518073 0.897694 0.525445
O O10 0.308452 0.996737 0.109111
O O11 0.313933 0.908725 0.034188
O O12 0.011762 0.821073 0.517399
O O13 0.685132 0.731977 0.021105
O O14 0.072930 0.740447 0.086158
O O15 0.820835 0.287880 0.177961
#
# Coordination Sequence:
#
# PCOD8025381 Si02
#       7
#     2   2   2   2   2   2   2
#     4  12  24  46  69  98 135 176 222 272 337 399
#     4  11  22  45  70  92 134 177 212 277 334 392
#     4  11  24  42  67  97 136 174 229 270 332 391
#     4  11  22  43  66  95 136 173 225 269 336 395
#     4  11  25  42  67  98 138 169 224 275 333 394
#     4  12  25  41  69 103 131 175 225 278 325 402
#     4  10  23  45  64  96 135 182 214 279 332 390
#
# _framework density 20.853007999999999
#
# number of rings (size 3 to 8) (size 9 to 14) (size 15 to 20)
#    0.000    0.857    7.143    0.429    4.000    1.714 
#    0.000    1.429    0.000    0.000    0.000    0.000 
#    0.000    0.000    0.000    0.000    0.000    0.000 
#
# Total GULP energy -173631.750380 kJ/mol
# GULP energy per Si atom -12402.267884 kJ/mol
# Density = 2.080555 g / cm^3
# Si number density = 20.853008 Si / 1000 Ang^3
#
#
#
# Elastic Constant Matrix: (Units=GPa)
#
#
# Indices 1 2 3 4 5 6 
#
# 1 126.2411 43.1701 45.0312 6.7495 6.1072 -4.8018
# 2 43.1701 116.6547 46.4745 8.9485 -1.0025 -30.4012
# 3 45.0312 46.4745 109.4680 11.3473 -9.7543 -14.8977
# 4 6.7495 8.9485 11.3473 40.0355 -4.0348 2.3329
# 5 6.1072 -1.0025 -9.7543 -4.0348 28.2063 7.8282
# 6 -4.8018 -30.4012 -14.8977 2.3329 7.8282 29.4841
#
#
#
# Elastic Compliance Matrix: (Units=1/GPa)
#
#
# Indices 1 2 3 4 5 6 
#
# 1 0.010272 -0.003060 -0.003499 -0.000204 -0.002887 -0.002467
# 2 -0.003060 0.015057 -0.003171 -0.003271 -0.004496 0.014878
# 3 -0.003499 -0.003171 0.012727 -0.001966 0.004321 0.001600
# 4 -0.000204 -0.003271 -0.001966 0.027307 0.005370 -0.007986
# 5 -0.002887 -0.004496 0.004321 0.005370 0.042221 -0.014558
# 6 -0.002467 0.014878 0.001600 -0.007986 -0.014558 0.054161
#
#
# Mechanical properties :
#
#
# Convention : Reuss Voigt Hill
#
# Bulk Modulus (GPa) = 53.76737 69.07948 61.42343
# Shear Modulus (GPa) = 26.68037 34.05771 30.36904
#
# Velocity S-wave (km/s) = 3.58082 4.04571 3.82034
# Velocity P-wave (km/s) = 6.55258 7.41771 6.99853
#
# Compressibility (1/GPa) = 0.01859864
#
# Stress axis : x y z
#
# Youngs Moduli (GPa) = 97.34840 66.41240 78.57316
#
# Poissons Ratio (x) = 0.20321 0.27489
# Poissons Ratio (y) = 0.29787 0.24913
# Poissons Ratio (z) = 0.34058 0.21057
#
# Static dielectric constant tensor:
#      x y z
#    x 3.815340 -0.139520 0.113830 
#    y -0.139520 4.104670 0.022750 
#    z 0.113830 0.022750 4.026650 
# 
# 
# High freq. dielectric constant tensor:
#      x y z
#    x 1.809940 0.000150 0.008790 
#    y 0.000150 1.823330 0.006080 
#    z 0.008790 0.006080 1.823370 
# 
# From -- ./inp_files/544144.got.cif
#   From: 2010.06.25/outbox.cif.g09.slc.cpg/sg2_273_cif.got.tgz:544144.got - 2010.06.27 13:26:56.
