data_PCOD8025811
_publ_section_title
;
Structure prediction by ZEFSAII (Michael W. Deem and Ramdas Pophale) SiO2 
 PCOD8025811
Probable space group: P -1
;
_chemical_formula_sum "Si O2"
_cell_formula_units_Z 14
_cell_length_a 12.787747
_cell_length_b 7.605368
_cell_length_c 9.113705
_cell_angle_alpha 124.114133
_cell_angle_beta 52.834695
_cell_angle_gamma 114.795102
_cell_volume 580.414675
_symmetry_space_group_name_H-M "P -1"
_symmetry_group_IT_number 2
_symmetry_cell_setting 'triclinic'
loop_
_space_group_symop_operation_xyz
x,y,z
-x,-y,-z
loop_
_atom_site_type_symbol
_atom_site_label
_atom_site_fract_x
_atom_site_fract_y
_atom_site_fract_z
Si Si1 0.612948 0.334847 0.907624
Si Si2 0.564557 0.939636 0.267014
Si Si3 0.787046 0.716151 0.044854
Si Si4 0.524017 0.699073 0.680537
Si Si5 0.195696 0.285656 0.641785
Si Si6 0.138113 0.811167 0.467514
Si Si7 0.049778 0.557999 0.691195
O O1 0.508935 0.292267 0.839517
O O2 0.719027 0.162509 0.722492
O O3 0.712678 0.552356 0.914071
O O4 0.534340 0.331005 0.123354
O O5 0.721369 0.932365 0.163756
O O6 0.500000 0.000000 0.500000
O O7 0.546276 0.107237 0.234867
O O8 0.750629 0.644921 0.209170
O O9 0.943964 0.723847 0.895201
O O10 0.500000 0.500000 0.500000
O O11 0.682197 0.747088 0.583163
O O12 0.122171 0.483000 0.739002
O O13 0.102983 0.055590 0.626817
O O14 0.151965 0.693816 0.558738
O O15 0.018647 0.668352 0.420424
#
# Coordination Sequence:
#
# PCOD8025811 Si02
#       7
#     2   2   2   2   2   2   2
#     4  11  23  45  68 103 142 180 234 294 357 420
#     4  12  23  43  70 101 141 181 233 294 353 421
#     4  11  24  44  66 101 139 184 235 288 351 421
#     4  12  25  44  69 106 141 183 234 289 362 419
#     4  12  23  45  70 100 145 184 234 295 349 422
#     4  10  23  46  69 102 137 185 245 287 351 419
#     4  10  25  45  69 100 137 188 242 291 349 411
#
# _framework density 24.120685999999999
#
# number of rings (size 3 to 8) (size 9 to 14) (size 15 to 20)
#    0.000    0.857    4.286    1.714    0.000    7.429 
#    5.143    0.000    0.000    0.000    0.000    0.000 
#    0.000    0.000    0.000    0.000    0.000    0.000 
#
# Total GULP energy -173473.624431 kJ/mol
# GULP energy per Si atom -12390.973174 kJ/mol
# Density = 2.406579 g / cm^3
# Si number density = 24.120686 Si / 1000 Ang^3
#
#
#
# Elastic Constant Matrix: (Units=GPa)
#
#
# Indices 1 2 3 4 5 6 
#
# 1 129.2061 34.1541 47.6616 3.6580 -19.5989 -28.0268
# 2 34.1541 58.2215 30.7897 -5.0598 -11.6831 -7.8228
# 3 47.6616 30.7897 139.4369 -6.6213 -4.7320 0.4479
# 4 3.6580 -5.0598 -6.6213 28.1530 -2.4771 -1.1302
# 5 -19.5989 -11.6831 -4.7320 -2.4771 46.1940 9.1627
# 6 -28.0268 -7.8228 0.4479 -1.1302 9.1627 37.1569
#
#
#
# Elastic Compliance Matrix: (Units=1/GPa)
#
#
# Indices 1 2 3 4 5 6 
#
# 1 0.012114 -0.004128 -0.003307 -0.002600 0.002087 0.007714
# 2 -0.004128 0.022531 -0.003244 0.004181 0.003662 0.000893
# 3 -0.003307 -0.003244 0.009094 0.001810 -0.000582 -0.003088
# 4 -0.002600 0.004181 0.001810 0.037211 0.002239 -0.000523
# 5 0.002087 0.003662 -0.000582 0.002239 0.024225 -0.003553
# 6 0.007714 0.000893 -0.003088 -0.000523 -0.003553 0.033817
#
#
# Mechanical properties :
#
#
# Convention : Reuss Voigt Hill
#
# Bulk Modulus (GPa) = 44.67965 61.34170 53.01068
# Shear Modulus (GPa) = 29.79521 36.58472 33.18996
#
# Velocity S-wave (km/s) = 3.51843 3.89875 3.71347
# Velocity P-wave (km/s) = 5.92194 6.76413 6.35700
#
# Compressibility (1/GPa) = 0.02238155
#
# Stress axis : x y z
#
# Youngs Moduli (GPa) = 82.54735 44.38267 109.95723
#
# Poissons Ratio (x) = 0.18323 0.36359
# Poissons Ratio (y) = 0.34079 0.35672
# Poissons Ratio (z) = 0.27295 0.14398
#
# Static dielectric constant tensor:
#      x y z
#    x 4.490330 -0.000500 0.038030 
#    y -0.000500 4.306830 0.316260 
#    z 0.038030 0.316260 4.797850 
# 
# 
# High freq. dielectric constant tensor:
#      x y z
#    x 1.957440 0.000560 -0.004260 
#    y 0.000560 1.946000 0.015580 
#    z -0.004260 0.015580 1.968410 
# 
# From -- ./inp_files/240860.got.cif
#   From: 2010.06.25/outbox.cif.g09.slc.cpg/sg2_121_cif.got.tgz:240860.got - 2010.06.27 13:26:56.
