data_PCOD8025805
_publ_section_title
;
Structure prediction by ZEFSAII (Michael W. Deem and Ramdas Pophale) SiO2 
 PCOD8025805
Probable space group: P -1
;
_chemical_formula_sum "Si O2"
_cell_formula_units_Z 14
_cell_length_a 14.181168
_cell_length_b 7.984823
_cell_length_c 14.262578
_cell_angle_alpha 53.715924
_cell_angle_beta 28.073264
_cell_angle_gamma 70.561912
_cell_volume 530.848688
_symmetry_space_group_name_H-M "P -1"
_symmetry_group_IT_number 2
_symmetry_cell_setting 'triclinic'
loop_
_space_group_symop_operation_xyz
x,y,z
-x,-y,-z
loop_
_atom_site_type_symbol
_atom_site_label
_atom_site_fract_x
_atom_site_fract_y
_atom_site_fract_z
Si Si1 0.774018 0.813992 0.090550
Si Si2 0.825464 0.074517 0.180788
Si Si3 0.831490 0.298979 0.642396
Si Si4 0.122303 0.552309 0.145380
Si Si5 0.499650 0.254545 0.094503
Si Si6 0.392638 0.722154 0.578463
Si Si7 0.973149 0.935314 0.681206
O O1 0.523800 0.788305 0.340097
O O2 0.761721 0.560126 0.179869
O O3 0.879216 0.964051 0.855380
O O4 0.949477 0.952663 0.980418
O O5 0.767311 0.160182 0.303448
O O6 0.598701 0.822029 0.441773
O O7 0.882303 0.284899 0.987053
O O8 0.000000 0.500000 0.500000
O O9 0.876654 0.432717 0.457660
O O10 0.907570 0.098730 0.620042
O O11 0.576707 0.190316 0.947557
O O12 0.161324 0.341585 0.139381
O O13 0.331746 0.719228 0.976409
O O14 0.500000 0.500000 0.000000
O O15 0.246749 0.037507 0.411605
#
# Coordination Sequence:
#
# PCOD8025805 Si02
#       7
#     2   2   2   2   2   2   2
#     4  11  25  43  68 100 135 178 223 266 337 389
#     4  11  24  44  68  97 138 175 218 276 330 389
#     4  10  23  46  68  99 133 171 224 277 332 397
#     4  11  25  45  68 103 136 171 230 275 324 406
#     4  11  25  46  70  96 132 179 219 273 345 388
#     4  10  24  44  64  95 134 177 224 272 319 397
#     4  12  25  44  70  98 139 175 219 283 324 399
#
# _framework density 26.372864
#
# number of rings (size 3 to 8) (size 9 to 14) (size 15 to 20)
#    0.000    1.143    4.286    1.286    8.000    0.571 
#    5.143    0.000    0.000    0.000    0.000    0.000 
#    0.000    0.000    0.000    0.000    0.000    0.000 
#
# Total GULP energy -173578.754463 kJ/mol
# GULP energy per Si atom -12398.482462 kJ/mol
# Density = 2.631284 g / cm^3
# Si number density = 26.372864 Si / 1000 Ang^3
#
#
#
# Elastic Constant Matrix: (Units=GPa)
#
#
# Indices 1 2 3 4 5 6 
#
# 1 55.2609 -10.1631 29.3887 6.5816 14.2089 6.3707
# 2 -10.1631 107.3801 15.0974 1.3397 -6.9137 5.9803
# 3 29.3887 15.0974 139.5990 22.2893 7.1294 2.4749
# 4 6.5816 1.3397 22.2893 53.6496 10.4975 -4.8563
# 5 14.2089 -6.9137 7.1294 10.4975 32.4576 3.7881
# 6 6.3707 5.9803 2.4749 -4.8563 3.7881 28.8004
#
#
#
# Elastic Compliance Matrix: (Units=1/GPa)
#
#
# Indices 1 2 3 4 5 6 
#
# 1 0.023753 0.002620 -0.004826 0.000281 -0.008377 -0.004234
# 2 0.002620 0.010071 -0.001600 -0.000531 0.001856 -0.002867
# 3 -0.004826 -0.001600 0.008820 -0.003204 0.000872 -0.000013
# 4 0.000281 -0.000531 -0.003204 0.021797 -0.007159 0.004940
# 5 -0.008377 0.001856 0.000872 -0.007159 0.037551 -0.004754
# 6 -0.004234 -0.002867 -0.000013 0.004940 -0.004754 0.037713
#
#
# Mechanical properties :
#
#
# Convention : Reuss Voigt Hill
#
# Bulk Modulus (GPa) = 28.54580 41.20955 34.87768
# Shear Modulus (GPa) = 31.44770 40.84264 36.14517
#
# Velocity S-wave (km/s) = 3.45690 3.93957 3.70610
# Velocity P-wave (km/s) = 5.17503 6.02937 5.61846
#
# Compressibility (1/GPa) = 0.03503142
#
# Stress axis : x y z
#
# Youngs Moduli (GPa) = 42.10042 99.29115 113.38371
#
# Poissons Ratio (x) = -0.26010 0.54717
# Poissons Ratio (y) = -0.11028 0.18140
# Poissons Ratio (z) = 0.20317 0.15885
#
# Static dielectric constant tensor:
#      x y z
#    x 4.600070 0.502530 0.088100 
#    y 0.502530 5.259910 0.486860 
#    z 0.088100 0.486860 5.151450 
# 
# 
# High freq. dielectric constant tensor:
#      x y z
#    x 2.028100 0.029030 0.011120 
#    y 0.029030 2.082050 0.010970 
#    z 0.011120 0.010970 2.075190 
# 
# From -- ./inp_files/529366.got.cif
#   From: 2010.06.25/outbox.cif.g09.slc.cpg/sg2_265_cif.got.tgz:529366.got - 2010.06.27 13:26:56.
