data_PCOD8025671
_publ_section_title
;
Structure prediction by ZEFSAII (Michael W. Deem and Ramdas Pophale) SiO2 
 PCOD8025671
Probable space group: P -1
;
_chemical_formula_sum "Si O2"
_cell_formula_units_Z 14
_cell_length_a 11.072591
_cell_length_b 5.300500
_cell_length_c 10.962130
_cell_angle_alpha 121.084174
_cell_angle_beta 75.238198
_cell_angle_gamma 89.873825
_cell_volume 525.807090
_symmetry_space_group_name_H-M "P -1"
_symmetry_group_IT_number 2
_symmetry_cell_setting 'triclinic'
loop_
_space_group_symop_operation_xyz
x,y,z
-x,-y,-z
loop_
_atom_site_type_symbol
_atom_site_label
_atom_site_fract_x
_atom_site_fract_y
_atom_site_fract_z
Si Si1 0.745229 0.388662 0.109157
Si Si2 0.778625 0.388023 0.838628
Si Si3 0.629118 0.504299 0.537075
Si Si4 0.958965 0.637098 0.713936
Si Si5 0.160716 0.177931 0.456648
Si Si6 0.469263 0.339971 0.135197
Si Si7 0.815531 0.031134 0.246342
O O1 0.594621 0.488872 0.155873
O O2 0.768409 0.160590 0.157865
O O3 0.811409 0.681984 0.175107
O O4 0.801767 0.234633 0.928111
O O5 0.864291 0.649749 0.859311
O O6 0.627105 0.496071 0.900298
O O7 0.826439 0.171432 0.658987
O O8 0.500000 0.500000 0.500000
O O9 0.702896 0.749650 0.516303
O O10 0.607043 0.612184 0.707413
O O11 0.723289 0.188151 0.416567
O O12 0.875236 0.644866 0.616303
O O13 0.055616 0.315715 0.616743
O O14 0.040843 0.907839 0.760306
O O15 0.500000 0.000000 0.000000
#
# Coordination Sequence:
#
# PCOD8025671 Si02
#       7
#     2   2   2   2   2   2   2
#     4  12  28  48  73 111 160 196 256 311 386 451
#     4  12  26  43  80 102 147 209 247 316 382 457
#     4  11  23  45  78 107 153 195 250 315 388 443
#     4  10  24  47  73 105 148 194 256 314 370 457
#     4  10  23  45  72 111 143 191 263 310 375 453
#     4  12  26  49  78 113 154 197 255 316 381 459
#     4  11  28  48  73 113 151 201 251 321 371 457
#
# _framework density 26.625734000000001
#
# number of rings (size 3 to 8) (size 9 to 14) (size 15 to 20)
#    0.000    0.857    2.857    2.571    6.000    4.000 
#    0.000    0.000    0.000    0.000    0.000    0.000 
#    0.000    0.000    0.000    0.000    0.000    0.000 
#
# Total GULP energy -173511.821075 kJ/mol
# GULP energy per Si atom -12393.701505 kJ/mol
# Density = 2.656513 g / cm^3
# Si number density = 26.625734 Si / 1000 Ang^3
#
#
#
# Elastic Constant Matrix: (Units=GPa)
#
#
# Indices 1 2 3 4 5 6 
#
# 1 139.0482 7.2832 13.9923 -3.4724 -1.7121 29.7392
# 2 7.2832 56.8399 15.3986 -1.0464 3.8562 3.8427
# 3 13.9923 15.3986 84.7017 -4.7975 15.6860 0.1209
# 4 -3.4724 -1.0464 -4.7975 48.5269 5.9636 5.9996
# 5 -1.7121 3.8562 15.6860 5.9636 27.7311 -2.4553
# 6 29.7392 3.8427 0.1209 5.9996 -2.4553 34.9755
#
#
#
# Elastic Compliance Matrix: (Units=1/GPa)
#
#
# Indices 1 2 3 4 5 6 
#
# 1 0.009081 -0.000240 -0.001438 0.001431 0.000400 -0.007907
# 2 -0.000240 0.018689 -0.003121 0.000462 -0.001125 -0.001997
# 3 -0.001438 -0.003121 0.014237 0.002164 -0.008123 0.000575
# 4 0.001431 0.000462 0.002164 0.022424 -0.006517 -0.005579
# 5 0.000400 -0.001125 -0.008123 -0.006517 0.042585 0.003919
# 6 -0.007907 -0.001997 0.000575 -0.005579 0.003919 0.036765
#
#
# Mechanical properties :
#
#
# Convention : Reuss Voigt Hill
#
# Bulk Modulus (GPa) = 30.85536 39.32645 35.09090
# Shear Modulus (GPa) = 30.45409 38.50772 34.48090
#
# Velocity S-wave (km/s) = 3.38566 3.80710 3.60255
# Velocity P-wave (km/s) = 5.18626 5.84187 5.52380
#
# Compressibility (1/GPa) = 0.03240928
#
# Stress axis : x y z
#
# Youngs Moduli (GPa) = 110.12088 53.50659 70.23928
#
# Poissons Ratio (x) = 0.01285 0.10101
# Poissons Ratio (y) = 0.02645 0.21919
# Poissons Ratio (z) = 0.15837 0.16698
#
# Static dielectric constant tensor:
#      x y z
#    x 5.083820 0.124750 -0.028850 
#    y 0.124750 4.414130 -0.138460 
#    z -0.028850 -0.138460 5.103370 
# 
# 
# High freq. dielectric constant tensor:
#      x y z
#    x 2.086590 0.015720 -0.003710 
#    y 0.015720 2.053340 -0.008200 
#    z -0.003710 -0.008200 2.080110 
# 
# From -- ./inp_files/109668.got.cif
#   From: 2010.06.25/outbox.cif.g09.slc.cpg/sg2_55_cif.got.tgz:109668.got - 2010.06.27 13:26:56.
