data_PCOD8025146
_publ_section_title
;
Structure prediction by ZEFSAII (Michael W. Deem and Ramdas Pophale) SiO2 
 PCOD8025146
Probable space group: P -1
;
_chemical_formula_sum "Si O2"
_cell_formula_units_Z 16
_cell_length_a 11.431272
_cell_length_b 9.549695
_cell_length_c 17.655321
_cell_angle_alpha 134.193403
_cell_angle_beta 137.529213
_cell_angle_gamma 77.696951
_cell_volume 730.646682
_symmetry_space_group_name_H-M "P -1"
_symmetry_group_IT_number 2
_symmetry_cell_setting 'triclinic'
loop_
_space_group_symop_operation_xyz
x,y,z
-x,-y,-z
loop_
_atom_site_type_symbol
_atom_site_label
_atom_site_fract_x
_atom_site_fract_y
_atom_site_fract_z
Si Si1 0.903120 0.854851 0.141073
Si Si2 0.181744 0.262787 0.648932
Si Si3 0.907614 0.227572 0.377204
Si Si4 0.324341 0.916757 0.318372
Si Si5 0.316594 0.215360 0.298300
Si Si6 0.172160 0.997341 0.985187
Si Si7 0.410773 0.784576 0.026966
Si Si8 0.597254 0.343265 0.857129
O O1 0.102934 0.843904 0.221847
O O2 0.985022 0.119484 0.312708
O O3 0.770355 0.809458 0.982067
O O4 0.742285 0.643038 0.046185
O O5 0.347992 0.230686 0.674096
O O6 0.049308 0.310296 0.550534
O O7 0.331718 0.508898 0.866347
O O8 0.000000 0.000000 0.500000
O O9 0.000000 0.500000 0.500000
O O10 0.645936 0.016139 0.190256
O O11 0.290003 0.689418 0.172012
O O12 0.500000 0.000000 0.500000
O O13 0.395421 0.111100 0.357860
O O14 0.500000 0.500000 0.500000
O O15 0.088289 0.162998 0.188012
O O16 0.311275 0.135246 0.179511
O O17 0.233257 0.818065 0.923590
O O18 0.411993 0.790112 0.121008
#
# Coordination Sequence:
#
# PCOD8025146 Si02
#       8
#     2   2   2   2   2   2   2   2
#     4  11  25  46  70 103 144 188 234 297 359 417
#     4  12  25  44  71 101 141 186 234 292 353 418
#     4  12  27  46  72 106 142 185 241 294 357 424
#     4  11  25  44  68 108 138 184 240 288 355 427
#     4  10  23  44  69  97 140 185 232 292 348 420
#     4  10  24  43  67 101 137 183 239 285 355 418
#     4  12  25  46  71 104 140 188 239 291 355 424
#     4  12  24  45  70 100 144 185 237 293 354 426
#
# _framework density 21.898408
#
# number of rings (size 3 to 8) (size 9 to 14) (size 15 to 20)
#    0.000    0.750    3.750    3.000    3.500    6.000 
#    0.000    0.000    0.000    0.000    0.000    0.000 
#    0.000    0.000    0.000    0.000    0.000    0.000 
#
# Total GULP energy -198246.593131 kJ/mol
# GULP energy per Si atom -12390.412071 kJ/mol
# Density = 2.184857 g / cm^3
# Si number density = 21.898408 Si / 1000 Ang^3
#
#
#
# Elastic Constant Matrix: (Units=GPa)
#
#
# Indices 1 2 3 4 5 6 
#
# 1 118.4846 46.3926 47.4536 9.1013 0.8112 -11.8650
# 2 46.3926 159.0896 74.5540 -2.7490 10.4865 1.8852
# 3 47.4536 74.5540 121.4890 12.2484 -2.6024 1.2451
# 4 9.1013 -2.7490 12.2484 47.4971 6.0117 0.7093
# 5 0.8112 10.4865 -2.6024 6.0117 23.2887 -2.2410
# 6 -11.8650 1.8852 1.2451 0.7093 -2.2410 41.3455
#
#
#
# Elastic Compliance Matrix: (Units=1/GPa)
#
#
# Indices 1 2 3 4 5 6 
#
# 1 0.010804 -0.001920 -0.002895 -0.001599 0.000900 0.003351
# 2 -0.001920 0.010071 -0.005876 0.003254 -0.006082 -0.001219
# 3 -0.002895 -0.005876 0.013480 -0.003911 0.005203 -0.000620
# 4 -0.001599 0.003254 -0.003911 0.023598 -0.008066 -0.001331
# 5 0.000900 -0.006082 0.005203 -0.008066 0.048613 0.003152
# 6 0.003351 -0.001219 -0.000620 -0.001331 0.003152 0.025416
#
#
# Mechanical properties :
#
#
# Convention : Reuss Voigt Hill
#
# Bulk Modulus (GPa) = 77.09285 81.76263 79.42774
# Shear Modulus (GPa) = 31.70786 37.80377 34.75582
#
# Velocity S-wave (km/s) = 3.80933 4.15941 3.98821
# Velocity P-wave (km/s) = 7.39115 7.77727 7.58667
#
# Compressibility (1/GPa) = 0.01297137
#
# Stress axis : x y z
#
# Youngs Moduli (GPa) = 92.56134 99.29505 74.18299
#
# Poissons Ratio (x) = 0.19067 0.21479
# Poissons Ratio (y) = 0.17774 0.43590
# Poissons Ratio (z) = 0.26800 0.58346
#
# Static dielectric constant tensor:
#      x y z
#    x 4.197370 -0.066200 0.059870 
#    y -0.066200 4.004800 -0.022560 
#    z 0.059870 -0.022560 3.786190 
# 
# 
# High freq. dielectric constant tensor:
#      x y z
#    x 1.871680 -0.005970 0.001980 
#    y -0.005970 1.885120 -0.004570 
#    z 0.001980 -0.004570 1.850940 
# 
# From -- ./inp_files/333282.got.cif
#   From: 2010.06.25/outbox.cif.g09.slc.cpg/sg2_167_cif.got.tgz:333282.got - 2010.06.27 13:26:56.
