data_PCOD8025808
_publ_section_title
;
Structure prediction by ZEFSAII (Michael W. Deem and Ramdas Pophale) SiO2 
 PCOD8025808
Probable space group: P -1
;
_chemical_formula_sum "Si O2"
_cell_formula_units_Z 16
_cell_length_a 8.939260
_cell_length_b 9.709729
_cell_length_c 11.726804
_cell_angle_alpha 123.256028
_cell_angle_beta 55.916029
_cell_angle_gamma 114.114392
_cell_volume 697.375878
_symmetry_space_group_name_H-M "P -1"
_symmetry_group_IT_number 2
_symmetry_cell_setting 'triclinic'
loop_
_space_group_symop_operation_xyz
x,y,z
-x,-y,-z
loop_
_atom_site_type_symbol
_atom_site_label
_atom_site_fract_x
_atom_site_fract_y
_atom_site_fract_z
Si Si1 0.490775 0.586309 0.793090
Si Si2 0.276425 0.275476 0.848088
Si Si3 0.012177 0.806478 0.889868
Si Si4 0.865644 0.533854 0.669739
Si Si5 0.889615 0.221522 0.658812
Si Si6 0.574271 0.197946 0.284244
Si Si7 0.757540 0.891556 0.446329
Si Si8 0.519552 0.164415 0.896594
O O1 0.322441 0.455593 0.851048
O O2 0.667666 0.494282 0.679114
O O3 0.464539 0.644963 0.702316
O O4 0.530237 0.746247 0.928618
O O5 0.265126 0.134227 0.691047
O O6 0.428805 0.239411 0.858428
O O7 0.080165 0.276428 0.992603
O O8 0.213361 0.766662 0.758139
O O9 0.897974 0.722346 0.792117
O O10 0.000000 0.000000 0.000000
O O11 0.886881 0.408527 0.705835
O O12 0.000000 0.500000 0.500000
O O13 0.738903 0.185168 0.805120
O O14 0.091036 0.211415 0.614425
O O15 0.828519 0.087143 0.523470
O O16 0.437467 0.172805 0.439375
O O17 0.553644 0.029362 0.142784
#
# Coordination Sequence:
#
# PCOD8025808 Si02
#       8
#     2   2   2   2   2   2   2   2
#     4  12  25  45  69 104 144 180 240 296 354 421
#     4  12  25  44  73 100 141 186 231 294 350 423
#     4  12  27  47  69 107 146 184 241 293 355 426
#     4  12  26  42  72 101 143 190 237 292 359 418
#     4  10  23  46  69 101 139 183 242 289 353 430
#     4  11  26  45  71 102 142 188 233 295 355 420
#     4  10  26  46  72 103 142 185 241 293 359 422
#     4  11  22  46  71 100 136 190 234 290 355 427
#
# _framework density 22.943152000000001
#
# number of rings (size 3 to 8) (size 9 to 14) (size 15 to 20)
#    0.000    0.750    3.750    2.250    7.000    3.000 
#    2.250    0.000    0.000    0.000    0.000    0.000 
#    0.000    0.000    0.000    0.000    0.000    0.000 
#
# Total GULP energy -198387.775588 kJ/mol
# GULP energy per Si atom -12399.235974 kJ/mol
# Density = 2.289093 g / cm^3
# Si number density = 22.943152 Si / 1000 Ang^3
#
#
#
# Elastic Constant Matrix: (Units=GPa)
#
#
# Indices 1 2 3 4 5 6 
#
# 1 94.2020 13.5675 31.8088 -9.6734 -22.0074 8.5793
# 2 13.5675 96.9897 6.5841 -1.1982 -3.6705 7.0387
# 3 31.8088 6.5841 104.0508 -14.4961 -1.5090 14.0078
# 4 -9.6734 -1.1982 -14.4961 36.2140 6.2714 -9.4182
# 5 -22.0074 -3.6705 -1.5090 6.2714 44.7610 -2.7578
# 6 8.5793 7.0387 14.0078 -9.4182 -2.7578 33.9668
#
#
#
# Elastic Compliance Matrix: (Units=1/GPa)
#
#
# Indices 1 2 3 4 5 6 
#
# 1 0.013735 -0.001349 -0.003793 0.000773 0.006351 -0.000895
# 2 -0.001349 0.010647 -0.000073 -0.000582 0.000167 -0.001983
# 3 -0.003793 -0.000073 0.011606 0.003191 -0.002118 -0.003100
# 4 0.000773 -0.000582 0.003191 0.031529 -0.003542 0.007064
# 5 0.006351 0.000167 -0.002118 -0.003542 0.025924 0.000357
# 6 -0.000895 -0.001983 -0.003100 0.007064 0.000357 0.033344
#
#
# Mechanical properties :
#
#
# Convention : Reuss Voigt Hill
#
# Bulk Modulus (GPa) = 39.12657 44.35149 41.73903
# Shear Modulus (GPa) = 34.30884 39.20716 36.75800
#
# Velocity S-wave (km/s) = 3.87122 4.13835 4.00701
# Velocity P-wave (km/s) = 6.08872 6.49674 6.29603
#
# Compressibility (1/GPa) = 0.02555808
#
# Stress axis : x y z
#
# Youngs Moduli (GPa) = 72.80500 93.92242 86.16162
#
# Poissons Ratio (x) = 0.12670 0.32683
# Poissons Ratio (y) = 0.09821 0.00629
# Poissons Ratio (z) = 0.27617 0.00685
#
# Static dielectric constant tensor:
#      x y z
#    x 4.141540 0.212800 -0.204520 
#    y 0.212800 4.039010 0.077130 
#    z -0.204520 0.077130 4.213100 
# 
# 
# High freq. dielectric constant tensor:
#      x y z
#    x 1.901590 0.016490 -0.014610 
#    y 0.016490 1.908040 0.004010 
#    z -0.014610 0.004010 1.915900 
# 
# From -- ./inp_files/383132.got.cif
#   From: 2010.06.25/outbox.cif.g09.slc.cpg/sg2_192_cif.got.tgz:383132.got - 2010.06.27 13:26:56.
