data_PCOD8025070
_publ_section_title
;
Structure prediction by ZEFSAII (Michael W. Deem and Ramdas Pophale) SiO2 
 PCOD8025070
Probable space group: P -1
;
_chemical_formula_sum "Si O2"
_cell_formula_units_Z 14
_cell_length_a 6.602247
_cell_length_b 11.811651
_cell_length_c 12.733432
_cell_angle_alpha 65.361035
_cell_angle_beta 67.292034
_cell_angle_gamma 48.274751
_cell_volume 664.959608
_symmetry_space_group_name_H-M "P -1"
_symmetry_group_IT_number 2
_symmetry_cell_setting 'triclinic'
loop_
_space_group_symop_operation_xyz
x,y,z
-x,-y,-z
loop_
_atom_site_type_symbol
_atom_site_label
_atom_site_fract_x
_atom_site_fract_y
_atom_site_fract_z
Si Si1 0.160647 0.311572 0.270895
Si Si2 0.227791 0.728978 0.304626
Si Si3 0.867049 0.178503 0.478661
Si Si4 0.719442 0.576428 0.589227
Si Si5 0.452398 0.822969 0.941450
Si Si6 0.033678 0.167209 0.896934
Si Si7 0.235677 0.352980 0.853120
O O1 0.260303 0.355552 0.333602
O O2 0.427482 0.198542 0.189937
O O3 0.028060 0.224627 0.359725
O O4 0.939229 0.461704 0.188230
O O5 0.089762 0.797752 0.418083
O O6 0.324274 0.554739 0.333420
O O7 0.494301 0.725167 0.242354
O O8 0.013670 0.841572 0.213969
O O9 0.542595 0.284108 0.477158
O O10 0.000000 0.000000 0.500000
O O11 0.000000 0.500000 0.500000
O O12 0.311212 0.000304 0.938610
O O13 0.692996 0.702905 0.019579
O O14 0.221216 0.794325 0.997179
O O15 0.054188 0.305884 0.858739
#
# Coordination Sequence:
#
# PCOD8025070 Si02
#       7
#     2   2   2   2   2   2   2
#     4  12  25  43  70 100 136 178 227 280 338 397
#     4  11  23  43  69  97 131 179 227 266 342 413
#     4  12  29  44  67 106 140 174 228 290 342 400
#     4  12  24  45  70  95 137 185 228 273 332 413
#     4  10  25  42  65 102 136 170 229 276 339 398
#     4  10  23  44  68  96 135 179 221 279 334 405
#     4  11  22  43  69  96 132 182 221 274 334 405
#
# _framework density 21.053910999999999
#
# number of rings (size 3 to 8) (size 9 to 14) (size 15 to 20)
#    0.000    0.857    4.286    2.143    4.000    2.286 
#    0.000    0.000    0.000    0.000    0.000    0.000 
#    0.000    0.000    0.000    0.000    0.000    0.000 
#
# Total GULP energy -173663.193053 kJ/mol
# GULP energy per Si atom -12404.513790 kJ/mol
# Density = 2.100599 g / cm^3
# Si number density = 21.053911 Si / 1000 Ang^3
#
#
#
# Elastic Constant Matrix: (Units=GPa)
#
#
# Indices 1 2 3 4 5 6 
#
# 1 110.7169 58.8965 58.8461 6.2019 -13.0608 3.8444
# 2 58.8965 109.8709 55.6159 -8.5508 -8.5168 7.1030
# 3 58.8461 55.6159 132.0196 13.9180 -14.4365 -6.1279
# 4 6.2019 -8.5508 13.9180 38.5629 3.2039 -5.5861
# 5 -13.0608 -8.5168 -14.4365 3.2039 30.4023 -4.9020
# 6 3.8444 7.1030 -6.1279 -5.5861 -4.9020 30.1493
#
#
#
# Elastic Compliance Matrix: (Units=1/GPa)
#
#
# Indices 1 2 3 4 5 6 
#
# 1 0.014602 -0.006026 -0.003381 -0.002890 0.003097 -0.001161
# 2 -0.006026 0.015184 -0.004626 0.005711 -0.001610 -0.002953
# 3 -0.003381 -0.004626 0.012149 -0.004659 0.004124 0.003797
# 4 -0.002890 0.005711 -0.004659 0.030146 -0.004560 0.002920
# 5 0.003097 -0.001610 0.004124 -0.004560 0.037182 0.006023
# 6 -0.001161 -0.002953 0.003797 0.002920 0.006023 0.036304
#
#
# Mechanical properties :
#
#
# Convention : Reuss Voigt Hill
#
# Bulk Modulus (GPa) = 72.09908 77.70269 74.90089
# Shear Modulus (GPa) = 28.04980 31.77282 29.91131
#
# Velocity S-wave (km/s) = 3.65401 3.88895 3.77331
# Velocity P-wave (km/s) = 7.21953 7.55989 7.39167
#
# Compressibility (1/GPa) = 0.01386980
#
# Stress axis : x y z
#
# Youngs Moduli (GPa) = 68.48415 65.85925 82.31391
#
# Poissons Ratio (x) = 0.39686 0.27828
# Poissons Ratio (y) = 0.41268 0.38076
# Poissons Ratio (z) = 0.23152 0.30465
#
# Static dielectric constant tensor:
#      x y z
#    x 3.832470 -0.066380 -0.088540 
#    y -0.066380 3.737120 -0.185180 
#    z -0.088540 -0.185180 3.915450 
# 
# 
# High freq. dielectric constant tensor:
#      x y z
#    x 1.831200 -0.004280 -0.006640 
#    y -0.004280 1.822220 -0.012720 
#    z -0.006640 -0.012720 1.837040 
# 
# From -- ./inp_files/26744.got.cif
#   From: 2010.06.25/outbox.cif.g09.slc.cpg/sg2_14_cif.got.tgz:26744.got - 2010.06.27 13:26:56.
