data_PCOD8025107
_publ_section_title
;
Structure prediction by ZEFSAII (Michael W. Deem and Ramdas Pophale) SiO2 
 PCOD8025107
Probable space group: P -1
;
_chemical_formula_sum "Si O2"
_cell_formula_units_Z 16
_cell_length_a 8.890746
_cell_length_b 13.156382
_cell_length_c 8.562221
_cell_angle_alpha 91.512291
_cell_angle_beta 48.123540
_cell_angle_gamma 99.619688
_cell_volume 730.270969
_symmetry_space_group_name_H-M "P -1"
_symmetry_group_IT_number 2
_symmetry_cell_setting 'triclinic'
loop_
_space_group_symop_operation_xyz
x,y,z
-x,-y,-z
loop_
_atom_site_type_symbol
_atom_site_label
_atom_site_fract_x
_atom_site_fract_y
_atom_site_fract_z
Si Si1 0.588552 0.648760 0.565033
Si Si2 0.644482 0.041989 0.547732
Si Si3 0.554739 0.155714 0.182085
Si Si4 0.636444 0.224307 0.781159
Si Si5 0.299567 0.305191 0.865170
Si Si6 0.016127 0.600657 0.386748
Si Si7 0.804944 0.488001 0.028390
Si Si8 0.943219 0.106375 0.097367
O O1 0.541059 0.752192 0.677974
O O2 0.604723 0.661762 0.369036
O O3 0.794248 0.618346 0.489325
O O4 0.399166 0.556195 0.732829
O O5 0.580786 0.138512 0.681592
O O6 0.874065 0.083731 0.324545
O O7 0.500000 0.000000 0.500000
O O8 0.625812 0.946967 0.678083
O O9 0.762846 0.141103 0.123668
O O10 0.609141 0.169962 0.964635
O O11 0.474373 0.297623 0.869559
O O12 0.865858 0.294604 0.605463
O O13 0.199852 0.394966 0.016156
O O14 0.138821 0.198008 0.956091
O O15 0.000000 0.500000 0.500000
O O16 0.164839 0.586574 0.138004
O O17 0.000000 0.500000 0.000000
O O18 0.000000 0.000000 0.000000
#
# Coordination Sequence:
#
# PCOD8025107 Si02
#       8
#     2   2   2   2   2   2   2   2
#     4  12  25  49  72 105 145 195 239 291 361 424
#     4  10  23  44  69 101 138 184 235 291 352 435
#     4  11  23  45  71 101 146 181 235 301 359 428
#     4  12  26  45  70 107 143 188 237 300 368 417
#     4  12  25  41  74 101 140 193 241 293 354 428
#     4  12  29  47  71 106 152 188 239 305 358 420
#     4  12  26  47  73 106 141 192 251 289 351 431
#     4  11  23  45  72 105 139 188 240 290 357 437
#
# _framework density 21.909675
#
# number of rings (size 3 to 8) (size 9 to 14) (size 15 to 20)
#    0.000    0.500    2.500    6.750    5.250    1.000 
#    0.000    1.875    0.000    0.000    0.000    0.000 
#    0.000    0.000    0.000    0.000    0.000    0.000 
#
# Total GULP energy -198391.400490 kJ/mol
# GULP energy per Si atom -12399.462531 kJ/mol
# Density = 2.185981 g / cm^3
# Si number density = 21.909675 Si / 1000 Ang^3
#
#
#
# Elastic Constant Matrix: (Units=GPa)
#
#
# Indices 1 2 3 4 5 6 
#
# 1 121.7661 46.6141 55.7827 -18.5883 -14.2093 -8.3083
# 2 46.6141 149.7992 48.6299 -6.6621 -11.9137 -0.2322
# 3 55.7827 48.6299 117.5171 -19.0262 -13.3567 -4.3416
# 4 -18.5883 -6.6621 -19.0262 47.6624 -3.1937 0.9115
# 5 -14.2093 -11.9137 -13.3567 -3.1937 29.7718 3.0682
# 6 -8.3083 -0.2322 -4.3416 0.9115 3.0682 38.3130
#
#
#
# Elastic Compliance Matrix: (Units=1/GPa)
#
#
# Indices 1 2 3 4 5 6 
#
# 1 0.011663 -0.002008 -0.003803 0.002930 0.003189 0.001761
# 2 -0.002008 0.008151 -0.002385 -0.000497 0.001257 -0.000745
# 3 -0.003803 -0.002385 0.012178 0.003243 0.003019 0.000222
# 4 0.002930 -0.000497 0.003243 0.023696 0.005194 0.000020
# 5 0.003189 0.001257 0.003019 0.005194 0.037742 -0.002105
# 6 0.001761 -0.000745 0.000222 0.000020 -0.002105 0.026671
#
#
# Mechanical properties :
#
#
# Convention : Reuss Voigt Hill
#
# Bulk Modulus (GPa) = 64.10453 76.79285 70.44869
# Shear Modulus (GPa) = 35.28696 39.01982 37.15339
#
# Velocity S-wave (km/s) = 4.01754 4.22470 4.12242
# Velocity P-wave (km/s) = 7.13042 7.67615 7.40831
#
# Compressibility (1/GPa) = 0.01559952
#
# Stress axis : x y z
#
# Youngs Moduli (GPa) = 85.74049 122.67777 82.11441
#
# Poissons Ratio (x) = 0.24632 0.31232
# Poissons Ratio (y) = 0.17216 0.19586
# Poissons Ratio (z) = 0.32611 0.29262
#
# Static dielectric constant tensor:
#      x y z
#    x 3.979150 -0.091330 0.139200 
#    y -0.091330 4.280870 -0.196220 
#    z 0.139200 -0.196220 4.600490 
# 
# 
# High freq. dielectric constant tensor:
#      x y z
#    x 1.854100 -0.003930 -0.002140 
#    y -0.003930 1.888250 -0.006830 
#    z -0.002140 -0.006830 1.875830 
# 
# From -- ./inp_files/187337.got.cif
#   From: 2010.06.25/outbox.cif.g09.slc.cpg/sg2_94_cif.got.tgz:187337.got - 2010.06.27 13:26:56.
