data_PCOD8025704
_publ_section_title
;
Structure prediction by ZEFSAII (Michael W. Deem and Ramdas Pophale) SiO2 
 PCOD8025704
Probable space group: P -1
;
_chemical_formula_sum "Si O2"
_cell_formula_units_Z 16
_cell_length_a 24.445218
_cell_length_b 8.602750
_cell_length_c 9.314670
_cell_angle_alpha 49.535848
_cell_angle_beta 151.619100
_cell_angle_gamma 131.257871
_cell_volume 686.860684
_symmetry_space_group_name_H-M "P -1"
_symmetry_group_IT_number 2
_symmetry_cell_setting 'triclinic'
loop_
_space_group_symop_operation_xyz
x,y,z
-x,-y,-z
loop_
_atom_site_type_symbol
_atom_site_label
_atom_site_fract_x
_atom_site_fract_y
_atom_site_fract_z
Si Si1 0.102740 0.068567 0.584216
Si Si2 0.252013 0.626977 0.817285
Si Si3 0.790363 0.504069 0.514404
Si Si4 0.379107 0.346675 0.764024
Si Si5 0.215254 0.267002 0.174444
Si Si6 0.037645 0.734218 0.387221
Si Si7 0.739511 0.045784 0.755910
Si Si8 0.474470 0.968040 0.129018
O O1 0.094954 0.303652 0.370783
O O2 0.090198 0.903233 0.527882
O O3 0.000000 0.000000 0.500000
O O4 0.221752 0.068724 0.948359
O O5 0.270964 0.586858 0.719413
O O6 0.145972 0.751580 0.513549
O O7 0.213536 0.414783 0.945609
O O8 0.385627 0.746690 0.098107
O O9 0.711868 0.640268 0.329638
O O10 0.804462 0.299131 0.759497
O O11 0.319795 0.386134 0.450749
O O12 0.500000 0.500000 0.000000
O O13 0.400678 0.118966 0.936180
O O14 0.233534 0.049295 0.279193
O O15 0.085956 0.219021 0.986218
O O16 0.000000 0.500000 0.500000
O O17 0.598573 0.004650 0.475803
O O18 0.500000 0.000000 0.000000
#
# Coordination Sequence:
#
# PCOD8025704 Si02
#       8
#     2   2   2   2   2   2   2   2
#     4  12  25  49  71 110 148 187 245 309 358 439
#     4  11  23  46  74 106 145 200 243 299 373 438
#     4  12  26  46  72 109 146 191 242 306 365 423
#     4  12  25  46  69 107 151 185 245 308 357 434
#     4  11  24  47  74 106 144 199 243 299 371 439
#     4  10  23  45  74 102 148 190 243 300 364 441
#     4  12  25  45  76 104 149 189 246 295 378 421
#     4  12  23  44  69 102 146 189 244 303 359 443
#
# _framework density 23.294388999999999
#
# number of rings (size 3 to 8) (size 9 to 14) (size 15 to 20)
#    0.000    0.500    6.250    1.500    3.500    2.000 
#    2.250    3.750    0.000    0.000    0.000    0.000 
#    0.000    0.000    0.000    0.000    0.000    0.000 
#
# Total GULP energy -198231.467077 kJ/mol
# GULP energy per Si atom -12389.466692 kJ/mol
# Density = 2.324137 g / cm^3
# Si number density = 23.294389 Si / 1000 Ang^3
#
#
#
# Elastic Constant Matrix: (Units=GPa)
#
#
# Indices 1 2 3 4 5 6 
#
# 1 94.9915 31.9340 20.1787 -7.8723 18.7977 -22.2423
# 2 31.9340 136.0735 14.5645 3.4992 7.5586 -7.8621
# 3 20.1787 14.5645 100.6891 13.1208 9.8983 -10.1307
# 4 -7.8723 3.4992 13.1208 31.3537 -8.8059 3.1631
# 5 18.7977 7.5586 9.8983 -8.8059 36.5837 7.3802
# 6 -22.2423 -7.8621 -10.1307 3.1631 7.3802 45.3970
#
#
#
# Elastic Compliance Matrix: (Units=1/GPa)
#
#
# Indices 1 2 3 4 5 6 
#
# 1 0.015289 -0.002573 -0.001283 0.001549 -0.008215 0.007987
# 2 -0.002573 0.008088 -0.000342 -0.001634 -0.000709 0.000293
# 3 -0.001283 -0.000342 0.011949 -0.006971 -0.004837 0.003251
# 4 0.001549 -0.001634 -0.006971 0.039355 0.012067 -0.005783
# 5 -0.008215 -0.000709 -0.004837 0.012067 0.038399 -0.012311
# 6 0.007987 0.000293 0.003251 -0.005783 -0.012311 0.029121
#
#
# Mechanical properties :
#
#
# Convention : Reuss Voigt Hill
#
# Bulk Modulus (GPa) = 37.13262 51.67875 44.40568
# Shear Modulus (GPa) = 31.33357 40.33868 35.83612
#
# Velocity S-wave (km/s) = 3.67156 4.16587 3.92650
# Velocity P-wave (km/s) = 5.82657 6.73592 6.29768
#
# Compressibility (1/GPa) = 0.02693050
#
# Stress axis : x y z
#
# Youngs Moduli (GPa) = 65.40725 123.64457 83.68875
#
# Poissons Ratio (x) = 0.31811 0.10734
# Poissons Ratio (y) = 0.16828 0.02864
# Poissons Ratio (z) = 0.08389 0.04231
#
# Static dielectric constant tensor:
#      x y z
#    x 4.301480 -0.203820 0.642150 
#    y -0.203820 4.592730 0.044350 
#    z 0.642150 0.044350 4.335540 
# 
# 
# High freq. dielectric constant tensor:
#      x y z
#    x 1.924780 -0.013270 0.017680 
#    y -0.013270 1.937570 0.007260 
#    z 0.017680 0.007260 1.911340 
# 
# From -- ./inp_files/352079.got.cif
#   From: 2010.06.25/outbox.cif.g09.slc.cpg/sg2_177_cif.got.tgz:352079.got - 2010.06.27 13:26:56.
