data_PCOD8025299
_publ_section_title
;
Structure prediction by ZEFSAII (Michael W. Deem and Ramdas Pophale) SiO2 
 PCOD8025299
Probable space group: P -1
;
_chemical_formula_sum "Si O2"
_cell_formula_units_Z 14
_cell_length_a 16.420097
_cell_length_b 8.662851
_cell_length_c 6.466636
_cell_angle_alpha 126.663562
_cell_angle_beta 95.187903
_cell_angle_gamma 61.375751
_cell_volume 622.177045
_symmetry_space_group_name_H-M "P -1"
_symmetry_group_IT_number 2
_symmetry_cell_setting 'triclinic'
loop_
_space_group_symop_operation_xyz
x,y,z
-x,-y,-z
loop_
_atom_site_type_symbol
_atom_site_label
_atom_site_fract_x
_atom_site_fract_y
_atom_site_fract_z
Si Si1 0.801879 0.376596 0.313010
Si Si2 0.693839 0.872842 0.779524
Si Si3 0.431752 0.036437 0.822234
Si Si4 0.004195 0.690777 0.780940
Si Si5 0.830994 0.010368 0.771105
Si Si6 0.484454 0.745955 0.218517
Si Si7 0.086913 0.003625 0.633040
O O1 0.710701 0.626741 0.536937
O O2 0.845432 0.228147 0.411291
O O3 0.885553 0.391657 0.231561
O O4 0.763858 0.266055 0.049980
O O5 0.792816 0.860850 0.744617
O O6 0.612588 0.066606 0.770491
O O7 0.667789 0.910170 0.049713
O O8 0.426458 0.238780 0.843238
O O9 0.472339 0.811089 0.510641
O O10 0.500000 0.000000 0.000000
O O11 0.000000 0.500000 0.500000
O O12 0.939642 0.919238 0.810972
O O13 0.954947 0.764434 0.056603
O O14 0.838926 0.993933 0.513279
O O15 0.500000 0.500000 0.000000
O O16 0.000000 0.000000 0.500000
#
# Coordination Sequence:
#
# PCOD8025299 Si02
#       7
#     2   2   2   2   2   2   2
#     4  11  23  41  61  89 135 168 218 275 319 374
#     4  11  25  40  62  99 133 167 208 268 324 378
#     4   9  22  45  70  99 130 165 204 255 329 390
#     4  11  21  40  63  88 125 175 224 268 322 375
#     4  11  23  40  61  94 128 173 224 266 320 374
#     4  10  23  44  73 100 127 164 214 253 319 401
#     4  11  21  39  63  86 120 177 226 267 316 367
#
# _framework density 22.501635
#
# number of rings (size 3 to 8) (size 9 to 14) (size 15 to 20)
#    0.000    1.429    4.286    0.857    0.000   12.000 
#    2.571    0.000    0.000    0.000    0.000    0.000 
#    0.000    0.000    0.000    0.000    0.000    0.000 
#
# Total GULP energy -173444.973076 kJ/mol
# GULP energy per Si atom -12388.926648 kJ/mol
# Density = 2.245042 g / cm^3
# Si number density = 22.501635 Si / 1000 Ang^3
#
#
#
# Elastic Constant Matrix: (Units=GPa)
#
#
# Indices 1 2 3 4 5 6 
#
# 1 72.2020 30.8987 46.8347 -6.1611 -19.8117 25.6745
# 2 30.8987 92.7178 75.5747 10.9809 -15.3084 9.9216
# 3 46.8347 75.5747 226.1005 3.0064 -12.0737 31.3933
# 4 -6.1611 10.9809 3.0064 41.9736 10.6174 -1.8497
# 5 -19.8117 -15.3084 -12.0737 10.6174 38.5947 -7.2866
# 6 25.6745 9.9216 31.3933 -1.8497 -7.2866 36.1398
#
#
#
# Elastic Compliance Matrix: (Units=1/GPa)
#
#
# Indices 1 2 3 4 5 6 
#
# 1 0.023103 -0.004586 -0.001172 0.002445 0.006608 -0.012678
# 2 -0.004586 0.017714 -0.005099 -0.006163 0.005454 0.003608
# 3 -0.001172 -0.005099 0.006828 0.000871 -0.001474 -0.003951
# 4 0.002445 -0.006163 0.000871 0.027912 -0.008812 -0.001150
# 5 0.006608 0.005454 -0.001474 -0.008812 0.033699 0.001432
# 6 -0.012678 0.003608 -0.003951 -0.001150 0.001432 0.039349
#
#
# Mechanical properties :
#
#
# Convention : Reuss Voigt Hill
#
# Bulk Modulus (GPa) = 38.56276 77.51518 58.03897
# Shear Modulus (GPa) = 27.93898 39.18911 33.56405
#
# Velocity S-wave (km/s) = 3.52752 4.17779 3.86635
# Velocity P-wave (km/s) = 5.81086 7.60233 6.76615
#
# Compressibility (1/GPa) = 0.02593175
#
# Stress axis : x y z
#
# Youngs Moduli (GPa) = 43.28506 56.45288 146.45006
#
# Poissons Ratio (x) = 0.25887 0.17165
# Poissons Ratio (y) = 0.19849 0.74672
# Poissons Ratio (z) = 0.05073 0.28784
#
# Static dielectric constant tensor:
#      x y z
#    x 4.405450 0.284770 -0.367860 
#    y 0.284770 4.003660 -0.021170 
#    z -0.367860 -0.021170 4.656020 
# 
# 
# High freq. dielectric constant tensor:
#      x y z
#    x 1.876650 0.009720 -0.006710 
#    y 0.009720 1.867050 -0.001510 
#    z -0.006710 -0.001510 1.908540 
# 
# From -- ./inp_files/107810.got.cif
#   From: 2010.06.25/outbox.cif.g09.slc.cpg/sg2_54_cif.got.tgz:107810.got - 2010.06.27 13:26:56.
