data_PCOD8025348
_publ_section_title
;
Structure prediction by ZEFSAII (Michael W. Deem and Ramdas Pophale) SiO2 
 PCOD8025348
Probable space group: P -1
;
_chemical_formula_sum "Si O2"
_cell_formula_units_Z 14
_cell_length_a 11.414832
_cell_length_b 5.485269
_cell_length_c 15.743180
_cell_angle_alpha 78.897921
_cell_angle_beta 142.653159
_cell_angle_gamma 109.062929
_cell_volume 561.309129
_symmetry_space_group_name_H-M "P -1"
_symmetry_group_IT_number 2
_symmetry_cell_setting 'triclinic'
loop_
_space_group_symop_operation_xyz
x,y,z
-x,-y,-z
loop_
_atom_site_type_symbol
_atom_site_label
_atom_site_fract_x
_atom_site_fract_y
_atom_site_fract_z
Si Si1 0.697255 0.354292 0.968398
Si Si2 0.601985 0.155645 0.750520
Si Si3 0.663123 0.577238 0.162726
Si Si4 0.944685 0.080161 0.223631
Si Si5 0.027981 0.883694 0.114534
Si Si6 0.249947 0.725062 0.625835
Si Si7 0.200897 0.243430 0.518585
O O1 0.733698 0.237848 0.907024
O O2 0.456879 0.321948 0.837703
O O3 0.831149 0.649115 0.035894
O O4 0.759928 0.200167 0.093366
O O5 0.444136 0.324768 0.636355
O O6 0.763968 0.199196 0.764655
O O7 0.473037 0.850717 0.704953
O O8 0.862335 0.791330 0.233009
O O9 0.729115 0.337843 0.257710
O O10 0.500000 0.500000 0.000000
O O11 0.055515 0.080947 0.196585
O O12 0.099694 0.254520 0.368339
O O13 0.000000 0.000000 0.000000
O O14 0.140625 0.454104 0.531052
O O15 0.131315 0.945995 0.537375
#
# Coordination Sequence:
#
# PCOD8025348 Si02
#       7
#     2   2   2   2   2   2   2
#     4  12  24  45  73 106 140 190 240 304 364 424
#     4  10  23  44  75 100 138 194 238 291 360 434
#     4  12  23  44  75 106 146 183 245 303 358 429
#     4  12  28  43  70 112 141 190 242 300 358 437
#     4  12  25  43  73 105 144 182 246 302 366 421
#     4  10  23  47  73 102 148 194 236 287 372 423
#     4  10  26  46  73 106 150 193 241 289 368 438
#
# _framework density 24.941693000000001
#
# number of rings (size 3 to 8) (size 9 to 14) (size 15 to 20)
#    0.857    0.000    4.286    2.571    2.000    2.857 
#    0.000    1.429    0.000    0.000    0.000    0.000 
#    0.000    0.000    0.000    0.000    0.000    0.000 
#
# Total GULP energy -173562.861529 kJ/mol
# GULP energy per Si atom -12397.347252 kJ/mol
# Density = 2.488492 g / cm^3
# Si number density = 24.941693 Si / 1000 Ang^3
#
#
#
# Elastic Constant Matrix: (Units=GPa)
#
#
# Indices 1 2 3 4 5 6 
#
# 1 97.3577 29.0626 27.5878 -6.5467 -12.0589 -8.6656
# 2 29.0626 90.5203 25.1681 3.0757 -8.6214 -15.7062
# 3 27.5878 25.1681 129.3688 0.2908 -22.4892 -13.2043
# 4 -6.5467 3.0757 0.2908 38.0101 -7.3304 -1.3544
# 5 -12.0589 -8.6214 -22.4892 -7.3304 35.6786 3.7156
# 6 -8.6656 -15.7062 -13.2043 -1.3544 3.7156 30.9933
#
#
#
# Elastic Compliance Matrix: (Units=1/GPa)
#
#
# Indices 1 2 3 4 5 6 
#
# 1 0.012282 -0.003202 -0.001376 0.003004 0.003024 0.000994
# 2 -0.003202 0.013442 -0.001303 -0.001342 0.000523 0.005240
# 3 -0.001376 -0.001303 0.009401 0.000860 0.005073 0.002389
# 4 0.003004 -0.001342 0.000860 0.028302 0.006951 0.000930
# 5 0.003024 0.000523 0.005073 0.006951 0.033853 -0.000483
# 6 0.000994 0.005240 0.002389 0.000930 -0.000483 0.036315
#
#
# Mechanical properties :
#
#
# Convention : Reuss Voigt Hill
#
# Bulk Modulus (GPa) = 42.80491 53.43153 48.11822
# Shear Modulus (GPa) = 32.64874 36.63163 34.64019
#
# Velocity S-wave (km/s) = 3.62194 3.83651 3.73077
# Velocity P-wave (km/s) = 5.88986 6.41047 6.15567
#
# Compressibility (1/GPa) = 0.02336181
#
# Stress axis : x y z
#
# Youngs Moduli (GPa) = 81.41873 74.39127 106.37508
#
# Poissons Ratio (x) = 0.23823 0.14635
# Poissons Ratio (y) = 0.26074 0.13866
# Poissons Ratio (z) = 0.11202 0.09697
#
# Static dielectric constant tensor:
#      x y z
#    x 4.795590 -0.066720 0.072090 
#    y -0.066720 4.303450 -0.076630 
#    z 0.072090 -0.076630 4.524880 
# 
# 
# High freq. dielectric constant tensor:
#      x y z
#    x 1.994340 -0.010780 0.005440 
#    y -0.010780 1.979440 -0.001650 
#    z 0.005440 -0.001650 1.999290 
# 
# From -- ./inp_files/510911.got.cif
#   From: 2010.06.25/outbox.cif.g09.slc.cpg/sg2_256_cif.got.tgz:510911.got - 2010.06.27 13:26:56.
