data_PCOD8025757
_publ_section_title
;
Structure prediction by ZEFSAII (Michael W. Deem and Ramdas Pophale) SiO2 
 PCOD8025757
Probable space group: P -1
;
_chemical_formula_sum "Si O2"
_cell_formula_units_Z 16
_cell_length_a 9.598707
_cell_length_b 22.120099
_cell_length_c 12.252607
_cell_angle_alpha 141.512105
_cell_angle_beta 47.546722
_cell_angle_gamma 153.029367
_cell_volume 731.935949
_symmetry_space_group_name_H-M "P -1"
_symmetry_group_IT_number 2
_symmetry_cell_setting 'triclinic'
loop_
_space_group_symop_operation_xyz
x,y,z
-x,-y,-z
loop_
_atom_site_type_symbol
_atom_site_label
_atom_site_fract_x
_atom_site_fract_y
_atom_site_fract_z
Si Si1 0.080845 0.117601 0.046070
Si Si2 0.097250 0.245541 0.670415
Si Si3 0.199562 0.822685 0.809255
Si Si4 0.608686 0.435737 0.337762
Si Si5 0.913607 0.362180 0.799909
Si Si6 0.256483 0.531473 0.452505
Si Si7 0.116233 0.895664 0.182072
Si Si8 0.212349 0.071894 0.697535
O O1 0.412247 0.295092 0.154450
O O2 0.828972 0.100725 0.154030
O O3 0.037863 0.053066 0.860400
O O4 0.000000 0.000000 0.000000
O O5 0.463229 0.370471 0.642457
O O6 0.032535 0.323316 0.759497
O O7 0.982522 0.203526 0.797234
O O8 0.906432 0.084187 0.482416
O O9 0.922569 0.639490 0.667508
O O10 0.537802 0.916420 0.736622
O O11 0.130133 0.825069 0.974874
O O12 0.500000 0.500000 0.500000
O O13 0.608802 0.379851 0.375587
O O14 0.945995 0.583330 0.317873
O O15 0.558834 0.205290 0.741322
O O16 0.000000 0.500000 0.000000
O O17 0.000000 0.500000 0.500000
O O18 0.869447 0.884715 0.294536
#
# Coordination Sequence:
#
# PCOD8025757 Si02
#       8
#     2   2   2   2   2   2   2   2
#     4  11  23  40  73 100 138 182 235 288 347 417
#     4  12  26  45  72 107 138 183 245 287 346 425
#     4  10  23  46  66 101 140 186 229 294 352 415
#     4  12  24  47  70 101 142 185 232 291 350 416
#     4  12  27  46  72 103 142 185 235 290 357 414
#     4  12  27  44  73 103 140 183 238 289 354 419
#     4  10  25  44  72  97 142 184 235 285 356 418
#     4  11  25  45  67 103 142 181 232 291 350 415
#
# _framework density 21.859836000000001
#
# number of rings (size 3 to 8) (size 9 to 14) (size 15 to 20)
#    0.000    0.750    3.750    2.250    7.000    3.500 
#    0.000    0.000    0.000    0.000    0.000    0.000 
#    0.000    0.000    0.000    0.000    0.000    0.000 
#
# Total GULP energy -198264.246803 kJ/mol
# GULP energy per Si atom -12391.515425 kJ/mol
# Density = 2.181008 g / cm^3
# Si number density = 21.859836 Si / 1000 Ang^3
#
#
#
# Elastic Constant Matrix: (Units=GPa)
#
#
# Indices 1 2 3 4 5 6 
#
# 1 142.4191 51.8567 46.2219 -4.8676 -12.4527 2.5235
# 2 51.8567 108.2608 25.4348 -8.0839 -11.3940 0.8245
# 3 46.2219 25.4348 89.0300 7.9444 -12.6317 -7.3922
# 4 -4.8676 -8.0839 7.9444 37.0512 -2.7166 1.5511
# 5 -12.4527 -11.3940 -12.6317 -2.7166 35.3645 -3.9908
# 6 2.5235 0.8245 -7.3922 1.5511 -3.9908 40.8806
#
#
#
# Elastic Compliance Matrix: (Units=1/GPa)
#
#
# Indices 1 2 3 4 5 6 
#
# 1 0.009812 -0.003498 -0.004226 0.001544 0.000792 -0.001280
# 2 -0.003498 0.011677 -0.001452 0.002567 0.002190 -0.000166
# 3 -0.004226 -0.001452 0.014980 -0.003975 0.003483 0.003490
# 4 0.001544 0.002567 -0.003975 0.028823 0.001966 -0.001768
# 5 0.000792 0.002190 0.003483 0.001966 0.031051 0.003493
# 6 -0.001280 -0.000166 0.003490 -0.001768 0.003493 0.025583
#
#
# Mechanical properties :
#
#
# Convention : Reuss Voigt Hill
#
# Bulk Modulus (GPa) = 55.20054 65.19295 60.19675
# Shear Modulus (GPa) = 34.17247 37.07238 35.62243
#
# Velocity S-wave (km/s) = 3.95809 4.12261 4.04119
# Velocity P-wave (km/s) = 6.79673 7.24908 7.02654
#
# Compressibility (1/GPa) = 0.01811576
#
# Stress axis : x y z
#
# Youngs Moduli (GPa) = 101.91942 85.63649 66.75751
#
# Poissons Ratio (x) = 0.29960 0.28212
# Poissons Ratio (y) = 0.35656 0.09692
# Poissons Ratio (z) = 0.43072 0.12433
#
# Static dielectric constant tensor:
#      x y z
#    x 3.931750 0.128390 -0.112500 
#    y 0.128390 4.039270 0.339260 
#    z -0.112500 0.339260 4.213450 
# 
# 
# High freq. dielectric constant tensor:
#      x y z
#    x 1.873790 0.004760 0.000790 
#    y 0.004760 1.862610 0.001260 
#    z 0.000790 0.001260 1.864440 
# 
# From -- ./inp_files/405563.got.cif
#   From: 2010.06.25/outbox.cif.g09.slc.cpg/sg2_203_cif.got.tgz:405563.got - 2010.06.27 13:26:56.
