data_PCOD8025836
_publ_section_title
;
Structure prediction by ZEFSAII (Michael W. Deem and Ramdas Pophale) SiO2 
 PCOD8025836
Probable space group: P -1
;
_chemical_formula_sum "Si O2"
_cell_formula_units_Z 16
_cell_length_a 10.834557
_cell_length_b 5.258973
_cell_length_c 14.430729
_cell_angle_alpha 84.793980
_cell_angle_beta 83.338016
_cell_angle_gamma 124.559821
_cell_volume 660.141157
_symmetry_space_group_name_H-M "P -1"
_symmetry_group_IT_number 2
_symmetry_cell_setting 'triclinic'
loop_
_space_group_symop_operation_xyz
x,y,z
-x,-y,-z
loop_
_atom_site_type_symbol
_atom_site_label
_atom_site_fract_x
_atom_site_fract_y
_atom_site_fract_z
Si Si1 0.007201 0.229631 0.918821
Si Si2 0.222973 0.393317 0.743362
Si Si3 0.931000 0.656412 0.553248
Si Si4 0.637737 0.058382 0.547681
Si Si5 0.256297 0.782113 0.994763
Si Si6 0.544083 0.797854 0.765220
Si Si7 0.573910 0.310573 0.871881
Si Si8 0.812542 0.114924 0.363182
O O1 0.059355 0.183928 0.816176
O O2 0.841587 0.162828 0.926358
O O3 0.140820 0.585765 0.926978
O O4 0.000000 0.000000 0.000000
O O5 0.360044 0.573464 0.799970
O O6 0.227304 0.644495 0.669010
O O7 0.253809 0.170973 0.691907
O O8 0.747339 0.419252 0.566261
O O9 0.000000 0.500000 0.500000
O O10 0.002695 0.708878 0.649245
O O11 0.000000 0.000000 0.500000
O O12 0.731759 0.977970 0.475441
O O13 0.500000 0.000000 0.500000
O O14 0.580305 0.839390 0.650848
O O15 0.315495 0.604217 0.051935
O O16 0.399573 0.109725 0.930646
O O17 0.615657 0.631318 0.811628
O O18 0.603703 0.120479 0.801676
#
# Coordination Sequence:
#
# PCOD8025836 Si02
#       8
#     2   2   2   2   2   2   2   2
#     4  11  25  45  74 107 142 188 243 302 360 451
#     4  12  25  45  74 105 143 190 242 304 361 434
#     4  10  23  46  69  99 140 190 240 300 365 427
#     4  11  25  48  75 111 146 199 252 309 364 446
#     4  10  25  46  75 105 145 193 242 298 381 441
#     4  12  26  44  73 109 151 186 254 304 364 438
#     4  11  26  48  73 107 149 195 236 309 372 439
#     4  11  25  46  73 101 146 194 240 295 372 425
#
# _framework density 24.237241999999998
#
# number of rings (size 3 to 8) (size 9 to 14) (size 15 to 20)
#    0.000    1.000    2.500    3.000    5.250    5.500 
#    0.000    0.000    0.000    0.000    0.000    0.000 
#    0.000    0.000    0.000    0.000    0.000    0.000 
#
# Total GULP energy -198317.496666 kJ/mol
# GULP energy per Si atom -12394.843542 kJ/mol
# Density = 2.418208 g / cm^3
# Si number density = 24.237242 Si / 1000 Ang^3
#
#
#
# Elastic Constant Matrix: (Units=GPa)
#
#
# Indices 1 2 3 4 5 6 
#
# 1 118.7266 44.3684 37.7907 -12.8782 9.5687 0.3523
# 2 44.3684 87.7716 12.6025 -3.6133 1.7557 -8.4163
# 3 37.7907 12.6025 121.5697 -11.6241 -11.2707 -17.8723
# 4 -12.8782 -3.6133 -11.6241 34.3325 -4.4083 5.5902
# 5 9.5687 1.7557 -11.2707 -4.4083 48.1193 4.6242
# 6 0.3523 -8.4163 -17.8723 5.5902 4.6242 45.8110
#
#
#
# Elastic Compliance Matrix: (Units=1/GPa)
#
#
# Indices 1 2 3 4 5 6 
#
# 1 0.012228 -0.005755 -0.003551 0.002882 -0.002537 -0.002632
# 2 -0.005755 0.014450 0.000694 -0.000844 0.000411 0.003031
# 3 -0.003551 0.000694 0.010251 0.001997 0.002917 0.003616
# 4 0.002882 -0.000844 0.001997 0.031790 0.003184 -0.003599
# 5 -0.002537 0.000411 0.002917 0.003184 0.022382 -0.001415
# 6 -0.002632 0.003031 0.003616 -0.003599 -0.001415 0.024398
#
#
# Mechanical properties :
#
#
# Convention : Reuss Voigt Hill
#
# Bulk Modulus (GPa) = 50.74741 57.51011 54.12876
# Shear Modulus (GPa) = 35.89573 41.20633 38.55103
#
# Velocity S-wave (km/s) = 3.85257 4.12773 3.99252
# Velocity P-wave (km/s) = 6.38537 6.81887 6.60568
#
# Compressibility (1/GPa) = 0.01970544
#
# Stress axis : x y z
#
# Youngs Moduli (GPa) = 81.77668 69.20321 97.55375
#
# Poissons Ratio (x) = 0.39823 0.34645
# Poissons Ratio (y) = 0.47059 -0.06770
# Poissons Ratio (z) = 0.29042 -0.04802
#
# Static dielectric constant tensor:
#      x y z
#    x 4.761730 0.544880 0.020600 
#    y 0.544880 4.439360 -0.151460 
#    z 0.020600 -0.151460 4.006140 
# 
# 
# High freq. dielectric constant tensor:
#      x y z
#    x 1.975130 0.007850 0.004150 
#    y 0.007850 1.959270 0.005400 
#    z 0.004150 0.005400 1.955380 
# 
# From -- ./inp_files/510893.got.cif
#   From: 2010.06.25/outbox.cif.g09.slc.cpg/sg2_256_cif.got.tgz:510893.got - 2010.06.27 13:26:56.
