data_PCOD8025749
_publ_section_title
;
Structure prediction by ZEFSAII (Michael W. Deem and Ramdas Pophale) SiO2 
 PCOD8025749
Probable space group: P -1
;
_chemical_formula_sum "Si O2"
_cell_formula_units_Z 16
_cell_length_a 12.108516
_cell_length_b 15.514047
_cell_length_c 15.190979
_cell_angle_alpha 29.392518
_cell_angle_beta 57.496491
_cell_angle_gamma 37.691555
_cell_volume 738.150090
_symmetry_space_group_name_H-M "P -1"
_symmetry_group_IT_number 2
_symmetry_cell_setting 'triclinic'
loop_
_space_group_symop_operation_xyz
x,y,z
-x,-y,-z
loop_
_atom_site_type_symbol
_atom_site_label
_atom_site_fract_x
_atom_site_fract_y
_atom_site_fract_z
Si Si1 0.609076 0.823241 0.303555
Si Si2 0.368534 0.815510 0.023751
Si Si3 0.375144 0.016996 0.410089
Si Si4 0.764096 0.184543 0.428042
Si Si5 0.944768 0.792595 0.350649
Si Si6 0.909445 0.984789 0.885404
Si Si7 0.371864 0.782426 0.351956
Si Si8 0.214871 0.362358 0.327685
O O1 0.459483 0.996321 0.298834
O O2 0.514180 0.806058 0.280977
O O3 0.838979 0.512692 0.510654
O O4 0.617559 0.007885 0.094262
O O5 0.223864 0.986065 0.848454
O O6 0.600233 0.501580 0.179273
O O7 0.266297 0.794634 0.159926
O O8 0.248107 0.969341 0.494386
O O9 0.565482 0.790409 0.597429
O O10 0.223718 0.314436 0.260796
O O11 0.696455 0.206026 0.534520
O O12 0.000000 0.000000 0.500000
O O13 0.849745 0.751137 0.495616
O O14 0.990102 0.931361 0.256044
O O15 0.827316 0.976595 0.839303
O O16 0.064203 0.680959 0.131522
O O17 0.500000 0.500000 0.500000
#
# Coordination Sequence:
#
# PCOD8025749 Si02
#       8
#     2   2   2   2   2   2   2   2
#     4  11  22  42  70  97 141 175 218 283 336 402
#     4  12  23  42  69 104 131 176 227 279 346 394
#     4  10  23  46  64  95 143 171 214 286 336 384
#     4  11  26  45  69  93 137 180 225 279 334 402
#     4  12  23  42  74 102 136 172 228 282 335 405
#     4  12  24  41  71 104 132 179 226 275 344 393
#     4  11  23  45  63  95 136 172 223 279 324 397
#     4  11  24  44  70 102 137 176 224 281 333 405
#
# _framework density 21.675808
#
# number of rings (size 3 to 8) (size 9 to 14) (size 15 to 20)
#    0.000    0.750    5.000    3.000    1.750    2.500 
#    0.000    4.375    0.000    0.000    0.000    0.000 
#    0.000    0.000    0.000    0.000    0.000    0.000 
#
# Total GULP energy -198354.738449 kJ/mol
# GULP energy per Si atom -12397.171153 kJ/mol
# Density = 2.162647 g / cm^3
# Si number density = 21.675808 Si / 1000 Ang^3
#
#
#
# Elastic Constant Matrix: (Units=GPa)
#
#
# Indices 1 2 3 4 5 6 
#
# 1 142.4740 37.9669 27.6033 -4.8574 -7.7643 -13.3814
# 2 37.9669 75.1289 15.0596 -7.3307 -4.3978 -1.4285
# 3 27.6033 15.0596 77.8566 -8.9359 -2.0367 -15.7343
# 4 -4.8574 -7.3307 -8.9359 29.3927 -0.7170 4.7376
# 5 -7.7643 -4.3978 -2.0367 -0.7170 30.3984 -0.0090
# 6 -13.3814 -1.4285 -15.7343 4.7376 -0.0090 36.2745
#
#
#
# Elastic Compliance Matrix: (Units=1/GPa)
#
#
# Indices 1 2 3 4 5 6 
#
# 1 0.008716 -0.003940 -0.001873 -0.000446 0.001521 0.002306
# 2 -0.003940 0.015988 -0.001698 0.003169 0.001267 -0.001974
# 3 -0.001873 -0.001698 0.015304 0.003045 0.000375 0.005483
# 4 -0.000446 0.003169 0.003045 0.036255 0.001403 -0.003454
# 5 0.001521 0.001267 0.000375 0.001403 0.033527 0.000599
# 6 0.002306 -0.001974 0.005483 -0.003454 0.000599 0.031170
#
#
# Mechanical properties :
#
#
# Convention : Reuss Voigt Hill
#
# Bulk Modulus (GPa) = 40.02271 50.74656 45.38464
# Shear Modulus (GPa) = 30.43031 33.53511 31.98271
#
# Velocity S-wave (km/s) = 3.75091 3.93761 3.84539
# Velocity P-wave (km/s) = 6.10438 6.64346 6.37961
#
# Compressibility (1/GPa) = 0.02498581
#
# Stress axis : x y z
#
# Youngs Moduli (GPa) = 114.73223 62.54837 65.34235
#
# Poissons Ratio (x) = 0.24643 0.12242
# Poissons Ratio (y) = 0.45202 0.11093
# Poissons Ratio (z) = 0.21495 0.10618
#
# Static dielectric constant tensor:
#      x y z
#    x 4.912980 -0.096810 0.128150 
#    y -0.096810 3.706870 -0.092540 
#    z 0.128150 -0.092540 3.973370 
# 
# 
# High freq. dielectric constant tensor:
#      x y z
#    x 1.871350 -0.001270 -0.003190 
#    y -0.001270 1.844080 -0.006070 
#    z -0.003190 -0.006070 1.844390 
# 
# From -- ./inp_files/472307.got.cif
#   From: 2010.06.25/outbox.cif.g09.slc.cpg/sg2_237_cif.got.tgz:472307.got - 2010.06.27 13:26:56.
