data_PCOD8025942
_publ_section_title
;
Structure prediction by ZEFSAII (Michael W. Deem and Ramdas Pophale) SiO2 
 PCOD8025942
Probable space group: P -1
;
_chemical_formula_sum "Si O2"
_cell_formula_units_Z 16
_cell_length_a 12.209494
_cell_length_b 14.664142
_cell_length_c 5.197863
_cell_angle_alpha 67.508937
_cell_angle_beta 83.761396
_cell_angle_gamma 48.981139
_cell_volume 635.072605
_symmetry_space_group_name_H-M "P -1"
_symmetry_group_IT_number 2
_symmetry_cell_setting 'triclinic'
loop_
_space_group_symop_operation_xyz
x,y,z
-x,-y,-z
loop_
_atom_site_type_symbol
_atom_site_label
_atom_site_fract_x
_atom_site_fract_y
_atom_site_fract_z
Si Si1 0.624689 0.845294 0.584535
Si Si2 0.151743 0.918218 0.808159
Si Si3 0.221515 0.601695 0.741399
Si Si4 0.395861 0.360907 0.287135
Si Si5 0.959946 0.868190 0.760378
Si Si6 0.914092 0.450354 0.580201
Si Si7 0.793358 0.805874 0.065290
Si Si8 0.314911 0.752260 0.429851
O O1 0.551596 0.780155 0.662922
O O2 0.705679 0.831364 0.317186
O O3 0.500000 0.000000 0.500000
O O4 0.734050 0.777451 0.873009
O O5 0.247705 0.823461 0.643221
O O6 0.008388 0.931144 0.864596
O O7 0.085620 0.065141 0.588207
O O8 0.255138 0.855173 0.100267
O O9 0.128942 0.572690 0.652642
O O10 0.280044 0.657186 0.488470
O O11 0.106666 0.711464 0.865238
O O12 0.370461 0.460350 0.970271
O O13 0.233150 0.438734 0.349583
O O14 0.508324 0.335208 0.500034
O O15 0.805844 0.914423 0.866344
O O16 0.000000 0.500000 0.500000
O O17 0.030000 0.310491 0.839011
#
# Coordination Sequence:
#
# PCOD8025942 Si02
#       8
#     2   2   2   2   2   2   2   2
#     4  12  30  52  75 110 155 207 256 312 385 464
#     4  10  25  48  74 112 157 196 260 305 393 451
#     4  11  25  47  75 112 155 200 260 316 387 452
#     4  12  28  48  75 110 158 198 261 315 381 461
#     4  10  23  46  77 114 149 203 250 329 374 462
#     4  12  25  45  76 112 150 199 252 320 383 448
#     4  12  25  48  79 111 149 196 263 313 383 449
#     4  11  27  47  76 111 154 208 249 315 382 464
#
# _framework density 25.19397
#
# number of rings (size 3 to 8) (size 9 to 14) (size 15 to 20)
#    0.000    0.750    2.500    3.000    5.250    9.000 
#    0.000    0.000    0.000    0.000    0.000    0.000 
#    0.000    0.000    0.000    0.000    0.000    0.000 
#
# Total GULP energy -198254.463265 kJ/mol
# GULP energy per Si atom -12390.903954 kJ/mol
# Density = 2.513663 g / cm^3
# Si number density = 25.193970 Si / 1000 Ang^3
#
#
#
# Elastic Constant Matrix: (Units=GPa)
#
#
# Indices 1 2 3 4 5 6 
#
# 1 131.2227 29.4871 62.7669 0.6645 17.6619 12.5216
# 2 29.4871 80.5080 39.1142 -16.1220 -2.8379 15.4633
# 3 62.7669 39.1142 164.4191 -5.0433 22.5173 -0.1880
# 4 0.6645 -16.1220 -5.0433 43.3677 -1.3477 -0.0232
# 5 17.6619 -2.8379 22.5173 -1.3477 49.3233 -0.8162
# 6 12.5216 15.4633 -0.1880 -0.0232 -0.8162 27.1621
#
#
#
# Elastic Compliance Matrix: (Units=1/GPa)
#
#
# Indices 1 2 3 4 5 6 
#
# 1 0.010249 -0.001817 -0.003193 -0.001281 -0.002414 -0.003786
# 2 -0.001817 0.018233 -0.003939 0.006452 0.003517 -0.009458
# 3 -0.003193 -0.003939 0.008635 -0.000502 -0.002978 0.003684
# 4 -0.001281 0.006452 -0.000502 0.025470 0.001705 -0.003013
# 5 -0.002414 0.003517 -0.002978 0.001705 0.022744 -0.000225
# 6 -0.003786 -0.009458 0.003684 -0.003013 -0.000225 0.043962
#
#
# Mechanical properties :
#
#
# Convention : Reuss Voigt Hill
#
# Bulk Modulus (GPa) = 52.03115 70.98737 61.50926
# Shear Modulus (GPa) = 32.55294 40.28940 36.42117
#
# Velocity S-wave (km/s) = 3.59847 4.00330 3.80627
# Velocity P-wave (km/s) = 6.16136 7.04316 6.61696
#
# Compressibility (1/GPa) = 0.01921926
#
# Stress axis : x y z
#
# Youngs Moduli (GPa) = 97.56979 54.84621 115.81233
#
# Poissons Ratio (x) = 0.09964 0.36983
# Poissons Ratio (y) = 0.17726 0.45613
# Poissons Ratio (z) = 0.31157 0.21601
#
# Static dielectric constant tensor:
#      x y z
#    x 4.622710 0.058300 0.114690 
#    y 0.058300 4.448000 -0.356680 
#    z 0.114690 -0.356680 4.831030 
# 
# 
# High freq. dielectric constant tensor:
#      x y z
#    x 2.018870 0.003240 -0.006810 
#    y 0.003240 1.999870 -0.016720 
#    z -0.006810 -0.016720 2.014360 
# 
# From -- ./inp_files/77159.got.cif
#   From: 2010.06.25/outbox.cif.g09.slc.cpg/sg2_39_cif.got.tgz:77159.got - 2010.06.27 13:26:56.
