data_PCOD8025886
_publ_section_title
;
Structure prediction by ZEFSAII (Michael W. Deem and Ramdas Pophale) SiO2 
 PCOD8025886
Probable space group: P -1
;
_chemical_formula_sum "Si O2"
_cell_formula_units_Z 12
_cell_length_a 9.136637
_cell_length_b 8.327178
_cell_length_c 14.878441
_cell_angle_alpha 50.297982
_cell_angle_beta 40.331088
_cell_angle_gamma 71.581924
_cell_volume 529.379721
_symmetry_space_group_name_H-M "P -1"
_symmetry_group_IT_number 2
_symmetry_cell_setting 'triclinic'
loop_
_space_group_symop_operation_xyz
x,y,z
-x,-y,-z
loop_
_atom_site_type_symbol
_atom_site_label
_atom_site_fract_x
_atom_site_fract_y
_atom_site_fract_z
Si Si1 0.447625 0.056902 0.103647
Si Si2 0.500650 0.505611 0.847650
Si Si3 0.280670 0.874996 0.874640
Si Si4 0.827891 0.558641 0.129730
Si Si5 0.965123 0.208022 0.490586
Si Si6 0.611117 0.315084 0.488169
O O1 0.652622 0.044732 0.082620
O O2 0.190736 0.882566 0.314865
O O3 0.438960 0.306536 0.019724
O O4 0.500000 0.000000 0.000000
O O5 0.392377 0.684637 0.870754
O O6 0.386221 0.402969 0.840953
O O7 0.785087 0.612382 0.660416
O O8 0.401208 0.075754 0.677482
O O9 0.990643 0.779202 0.029979
O O10 0.712509 0.355415 0.324930
O O11 0.000000 0.500000 0.000000
O O12 0.831780 0.328835 0.444987
O O13 0.000000 0.000000 0.500000
O O14 0.500000 0.500000 0.500000
#
# Coordination Sequence:
#
# PCOD8025886 Si02
#       6
#     2   2   2   2   2   2
#     4  11  25  42  71 106 139 173 236 298 350 398
#     4  11  23  43  74 103 137 178 244 283 341 418
#     4  10  23  46  71  98 139 189 232 281 347 424
#     4  10  25  42  71 100 137 184 235 278 347 418
#     4  11  24  46  76 100 135 189 237 283 345 419
#     4  11  25  45  69 101 144 181 228 291 360 402
#
# _framework density 22.668037999999999
#
# number of rings (size 3 to 8) (size 9 to 14) (size 15 to 20)
#    0.000    1.333    3.333    1.500    9.333    5.333 
#    6.000    0.000    0.000    0.000    0.000    0.000 
#    0.000    0.000    0.000    0.000    0.000    0.000 
#
# Total GULP energy -148812.846489 kJ/mol
# GULP energy per Si atom -12401.070541 kJ/mol
# Density = 2.261644 g / cm^3
# Si number density = 22.668038 Si / 1000 Ang^3
#
#
#
# Elastic Constant Matrix: (Units=GPa)
#
#
# Indices 1 2 3 4 5 6 
#
# 1 166.5214 20.5922 89.1059 -4.2381 -18.7135 3.5562
# 2 20.5922 62.1118 5.4088 3.6574 8.6198 -8.4389
# 3 89.1059 5.4088 141.9942 -7.3718 15.3543 1.4563
# 4 -4.2381 3.6574 -7.3718 38.1462 6.6800 5.0363
# 5 -18.7135 8.6198 15.3543 6.6800 53.9921 -0.4633
# 6 3.5562 -8.4389 1.4563 5.0363 -0.4633 37.9692
#
#
#
# Elastic Compliance Matrix: (Units=1/GPa)
#
#
# Indices 1 2 3 4 5 6 
#
# 1 0.011542 -0.004272 -0.007867 -0.000854 0.007013 -0.001530
# 2 -0.004272 0.018710 0.002371 -0.001560 -0.004910 0.004615
# 3 -0.007867 0.002371 0.012781 0.002558 -0.007054 0.000348
# 4 -0.000854 -0.001560 0.002558 0.028060 -0.004282 -0.004139
# 5 0.007013 -0.004910 -0.007054 -0.004282 0.024266 -0.000613
# 6 -0.001530 0.004615 0.000348 -0.004139 -0.000613 0.028034
#
#
# Mechanical properties :
#
#
# Convention : Reuss Voigt Hill
#
# Bulk Modulus (GPa) = 42.56042 66.76013 54.66027
# Shear Modulus (GPa) = 33.16441 43.05621 38.11031
#
# Velocity S-wave (km/s) = 3.82913 4.36297 4.10474
# Velocity P-wave (km/s) = 6.19402 7.40917 6.82868
#
# Compressibility (1/GPa) = 0.02349601
#
# Stress axis : x y z
#
# Youngs Moduli (GPa) = 86.63661 53.44694 78.23942
#
# Poissons Ratio (x) = 0.22834 0.61555
# Poissons Ratio (y) = 0.37014 -0.18550
# Poissons Ratio (z) = 0.68161 -0.12672
#
# Static dielectric constant tensor:
#      x y z
#    x 4.633970 -0.045040 -0.066940 
#    y -0.045040 3.873130 -0.279150 
#    z -0.066940 -0.279150 4.474420 
# 
# 
# High freq. dielectric constant tensor:
#      x y z
#    x 1.906590 -0.004820 0.000290 
#    y -0.004820 1.883220 -0.009040 
#    z 0.000290 -0.009040 1.907920 
# 
# From -- ./inp_files/199103.got.cif
#   From: 2010.06.25/outbox.cif.g09.slc.cpg/sg2_100_cif.got.tgz:199103.got - 2010.06.27 13:26:56.
