data_PCOD8025870
_publ_section_title
;
Structure prediction by ZEFSAII (Michael W. Deem and Ramdas Pophale) SiO2 
 PCOD8025870
Probable space group: P -1
;
_chemical_formula_sum "Si O2"
_cell_formula_units_Z 12
_cell_length_a 12.086617
_cell_length_b 5.306592
_cell_length_c 15.102948
_cell_angle_alpha 113.021591
_cell_angle_beta 139.569441
_cell_angle_gamma 91.674810
_cell_volume 483.749806
_symmetry_space_group_name_H-M "P -1"
_symmetry_group_IT_number 2
_symmetry_cell_setting 'triclinic'
loop_
_space_group_symop_operation_xyz
x,y,z
-x,-y,-z
loop_
_atom_site_type_symbol
_atom_site_label
_atom_site_fract_x
_atom_site_fract_y
_atom_site_fract_z
Si Si1 0.723282 0.531707 0.474921
Si Si2 0.323689 0.863614 0.444090
Si Si3 0.585360 0.546495 0.845814
Si Si4 0.119016 0.382746 0.110279
Si Si5 0.500175 0.212851 0.914020
Si Si6 0.190946 0.858877 0.817536
O O1 0.617034 0.263531 0.451062
O O2 0.578716 0.364331 0.275636
O O3 0.952674 0.620089 0.617593
O O4 0.735101 0.872614 0.539334
O O5 0.142262 0.532515 0.242244
O O6 0.500000 0.000000 0.500000
O O7 0.672141 0.489979 0.800252
O O8 0.465949 0.213059 0.786471
O O9 0.757863 0.810355 0.054424
O O10 0.000000 0.500000 0.000000
O O11 0.000000 0.000000 0.000000
O O12 0.309165 0.897122 0.802756
O O13 0.500000 0.500000 0.000000
O O14 0.723956 0.283357 0.078987
#
# Coordination Sequence:
#
# PCOD8025870 Si02
#       6
#     2   2   2   2   2   2
#     4  12  28  44  76 106 144 193 237 295 355 426
#     4  12  26  48  66 105 152 186 235 296 349 414
#     4  11  25  43  71 103 139 187 242 286 357 427
#     4  12  27  43  72 104 143 193 240 289 351 424
#     4   9  22  45  71 100 138 181 232 302 358 428
#     4  10  23  46  71 102 141 181 236 300 363 418
#
# _framework density 24.806213
#
# number of rings (size 3 to 8) (size 9 to 14) (size 15 to 20)
#    0.000    1.000    1.667    3.500   14.000    0.667 
#    0.000    7.500    0.000    0.000    0.000    0.000 
#    0.000    0.000    0.000    0.000    0.000    0.000 
#
# Total GULP energy -148661.489765 kJ/mol
# GULP energy per Si atom -12388.457480 kJ/mol
# Density = 2.474975 g / cm^3
# Si number density = 24.806213 Si / 1000 Ang^3
#
#
#
# Elastic Constant Matrix: (Units=GPa)
#
#
# Indices 1 2 3 4 5 6 
#
# 1 107.2423 41.4229 33.0842 -20.4413 6.8625 23.5596
# 2 41.4229 157.1359 24.2173 -38.2404 1.1054 29.5802
# 3 33.0842 24.2173 116.1178 -29.2435 15.8135 25.8928
# 4 -20.4413 -38.2404 -29.2435 48.8348 -8.6660 -10.5886
# 5 6.8625 1.1054 15.8135 -8.6660 46.4345 -4.6023
# 6 23.5596 29.5802 25.8928 -10.5886 -4.6023 47.6136
#
#
#
# Elastic Compliance Matrix: (Units=1/GPa)
#
#
# Indices 1 2 3 4 5 6 
#
# 1 0.011659 -0.001769 -0.001604 0.001547 -0.001200 -0.003569
# 2 -0.001769 0.008856 0.000948 0.006033 0.000482 -0.003753
# 3 -0.001604 0.000948 0.011896 0.005432 -0.003356 -0.005381
# 4 0.001547 0.006033 0.005432 0.029550 0.003235 -0.000584
# 5 -0.001200 0.000482 -0.003356 0.003235 0.023959 0.005155
# 6 -0.003569 -0.003753 -0.005381 -0.000584 0.005155 0.028395
#
#
# Mechanical properties :
#
#
# Convention : Reuss Voigt Hill
#
# Bulk Modulus (GPa) = 36.28387 64.21609 50.24998
# Shear Modulus (GPa) = 38.95555 47.36135 43.15845
#
# Velocity S-wave (km/s) = 3.96712 4.37424 4.17565
# Velocity P-wave (km/s) = 5.97015 7.17323 6.59917
#
# Compressibility (1/GPa) = 0.02756046
#
# Stress axis : x y z
#
# Youngs Moduli (GPa) = 85.77294 112.92255 84.05975
#
# Poissons Ratio (x) = 0.19979 0.13481
# Poissons Ratio (y) = 0.15175 -0.07968
# Poissons Ratio (z) = 0.13756 -0.10705
#
# Static dielectric constant tensor:
#      x y z
#    x 6.091100 1.991720 -0.301120 
#    y 1.991720 9.937250 0.351270 
#    z -0.301120 0.351270 4.918340 
# 
# 
# High freq. dielectric constant tensor:
#      x y z
#    x 1.992500 -0.000280 -0.014200 
#    y -0.000280 2.010070 -0.007540 
#    z -0.014200 -0.007540 1.983800 
# 
# From -- ./inp_files/29105.got.cif
#   From: 2010.06.25/outbox.cif.g09.slc.cpg/sg2_15_cif.got.tgz:29105.got - 2010.06.27 13:26:56.
