data_PCOD8025935
_publ_section_title
;
Structure prediction by ZEFSAII (Michael W. Deem and Ramdas Pophale) SiO2 
 PCOD8025935
Probable space group: P -1
;
_chemical_formula_sum "Si O2"
_cell_formula_units_Z 16
_cell_length_a 21.103260
_cell_length_b 8.883019
_cell_length_c 9.168483
_cell_angle_alpha 119.751359
_cell_angle_beta 56.419513
_cell_angle_gamma 149.724794
_cell_volume 721.187666
_symmetry_space_group_name_H-M "P -1"
_symmetry_group_IT_number 2
_symmetry_cell_setting 'triclinic'
loop_
_space_group_symop_operation_xyz
x,y,z
-x,-y,-z
loop_
_atom_site_type_symbol
_atom_site_label
_atom_site_fract_x
_atom_site_fract_y
_atom_site_fract_z
Si Si1 0.388201 0.425030 0.643907
Si Si2 0.110013 0.440905 0.292014
Si Si3 0.789353 0.673698 0.696815
Si Si4 0.274138 0.789206 0.979152
Si Si5 0.923674 0.287562 0.855875
Si Si6 0.539096 0.253876 0.006568
Si Si7 0.120052 0.787170 0.613894
Si Si8 0.356376 0.674248 0.580033
O O1 0.500000 0.500000 0.500000
O O2 0.381406 0.553041 0.587621
O O3 0.248632 0.075413 0.675899
O O4 0.416977 0.544480 0.823439
O O5 0.132836 0.346947 0.347345
O O6 0.188518 0.529860 0.088334
O O7 0.162802 0.732350 0.406080
O O8 0.953395 0.174273 0.332702
O O9 0.652940 0.443975 0.838702
O O10 0.748649 0.565024 0.528349
O O11 0.884440 0.012744 0.769752
O O12 0.208837 0.848460 0.048454
O O13 0.287178 0.692215 0.774582
O O14 0.415838 0.106890 0.010607
O O15 0.018045 0.491090 0.697945
O O16 0.000000 0.500000 0.000000
O O17 0.500000 0.000000 0.000000
O O18 0.500000 0.000000 0.500000
#
# Coordination Sequence:
#
# PCOD8025935 Si02
#       8
#     2   2   2   2   2   2   2   2
#     4  12  27  44  78 101 139 191 242 288 360 432
#     4  10  23  46  76  95 143 194 236 290 346 438
#     4  12  26  44  76 107 143 188 237 296 374 404
#     4  11  24  47  72  96 147 188 231 296 350 426
#     4  11  28  48  69 107 148 185 237 304 356 422
#     4  12  22  46  71 102 137 190 242 286 351 434
#     4  10  25  47  71 104 139 188 250 283 351 438
#     4  12  27  45  68 116 146 179 237 307 362 417
#
# _framework density 22.185627
#
# number of rings (size 3 to 8) (size 9 to 14) (size 15 to 20)
#    0.000    0.750    3.750    1.500   10.500    3.000 
#    0.000    3.125    0.000    0.000    0.000    0.000 
#    0.000    0.000    0.000    0.000    0.000    0.000 
#
# Total GULP energy -198382.639584 kJ/mol
# GULP energy per Si atom -12398.914974 kJ/mol
# Density = 2.213513 g / cm^3
# Si number density = 22.185627 Si / 1000 Ang^3
#
#
#
# Elastic Constant Matrix: (Units=GPa)
#
#
# Indices 1 2 3 4 5 6 
#
# 1 146.8875 56.9170 51.2129 1.9200 -4.0196 18.2133
# 2 56.9170 138.9497 57.3462 15.1959 -6.0770 21.2715
# 3 51.2129 57.3462 158.7509 13.5698 3.2741 14.1332
# 4 1.9200 15.1959 13.5698 39.4806 10.9295 9.2282
# 5 -4.0196 -6.0770 3.2741 10.9295 38.4809 1.3256
# 6 18.2133 21.2715 14.1332 9.2282 1.3256 39.3139
#
#
#
# Elastic Compliance Matrix: (Units=1/GPa)
#
#
# Indices 1 2 3 4 5 6 
#
# 1 0.008742 -0.002648 -0.001802 0.001701 0.000247 -0.002377
# 2 -0.002648 0.010110 -0.002345 -0.002988 0.002464 -0.002782
# 3 -0.001802 -0.002345 0.007899 -0.001410 -0.000817 -0.000377
# 4 0.001701 -0.002988 -0.001410 0.030578 -0.008668 -0.005549
# 5 0.000247 0.002464 -0.000817 -0.008668 0.028937 -0.000095
# 6 -0.002377 -0.002782 -0.000377 -0.005549 -0.000095 0.029484
#
#
# Mechanical properties :
#
#
# Convention : Reuss Voigt Hill
#
# Bulk Modulus (GPa) = 75.99717 86.17114 81.08416
# Shear Modulus (GPa) = 37.38957 42.06255 39.72606
#
# Velocity S-wave (km/s) = 4.10970 4.35896 4.23616
# Velocity P-wave (km/s) = 7.53983 8.01619 7.78166
#
# Compressibility (1/GPa) = 0.01315838
#
# Stress axis : x y z
#
# Youngs Moduli (GPa) = 114.39395 98.91076 126.60121
#
# Poissons Ratio (x) = 0.26195 0.22817
# Poissons Ratio (y) = 0.30296 0.29694
# Poissons Ratio (z) = 0.20617 0.23199
#
# Static dielectric constant tensor:
#      x y z
#    x 4.233910 0.248610 0.115520 
#    y 0.248610 4.153080 0.097230 
#    z 0.115520 0.097230 4.306990 
# 
# 
# High freq. dielectric constant tensor:
#      x y z
#    x 1.886200 0.016180 0.001720 
#    y 0.016180 1.872920 -0.003300 
#    z 0.001720 -0.003300 1.894260 
# 
# From -- ./inp_files/343762.got.cif
#   From: 2010.06.25/outbox.cif.g09.slc.cpg/sg2_172_cif.got.tgz:343762.got - 2010.06.27 13:26:56.
