data_PCOD8025068
_publ_section_title
;
Structure prediction by ZEFSAII (Michael W. Deem and Ramdas Pophale) SiO2 
 PCOD8025068
Probable space group: P -1
;
_chemical_formula_sum "Si O2"
_cell_formula_units_Z 16
_cell_length_a 9.217141
_cell_length_b 14.625530
_cell_length_c 12.461763
_cell_angle_alpha 50.831152
_cell_angle_beta 69.683500
_cell_angle_gamma 110.572203
_cell_volume 756.763004
_symmetry_space_group_name_H-M "P -1"
_symmetry_group_IT_number 2
_symmetry_cell_setting 'triclinic'
loop_
_space_group_symop_operation_xyz
x,y,z
-x,-y,-z
loop_
_atom_site_type_symbol
_atom_site_label
_atom_site_fract_x
_atom_site_fract_y
_atom_site_fract_z
Si Si1 0.319844 0.637966 0.587140
Si Si2 0.854950 0.018286 0.080134
Si Si3 0.041126 0.373547 0.271154
Si Si4 0.174768 0.178717 0.074339
Si Si5 0.080131 0.136418 0.469419
Si Si6 0.350537 0.511357 0.889714
Si Si7 0.964184 0.325016 0.730042
Si Si8 0.295624 0.594074 0.256869
O O1 0.362443 0.585826 0.719582
O O2 0.138829 0.462505 0.682946
O O3 0.205460 0.694412 0.610455
O O4 0.576565 0.812428 0.330613
O O5 0.007316 0.144025 0.054552
O O6 0.842185 0.124639 0.927960
O O7 0.000000 0.000000 0.000000
O O8 0.948736 0.183866 0.449594
O O9 0.236784 0.525184 0.200847
O O10 0.174477 0.472930 0.048352
O O11 0.245332 0.316420 0.044786
O O12 0.420761 0.269556 0.890044
O O13 0.012063 0.973628 0.313867
O O14 0.375387 0.334256 0.245437
O O15 0.000000 0.000000 0.500000
O O16 0.120015 0.412983 0.514778
O O17 0.745089 0.290814 0.798901
#
# Coordination Sequence:
#
# PCOD8025068 Si02
#       8
#     2   2   2   2   2   2   2   2
#     4  11  25  46  66 100 134 174 224 273 332 398
#     4  12  27  43  68 100 131 177 223 273 335 394
#     4  11  24  43  69  96 136 179 216 275 333 392
#     4  12  24  41  67  97 133 176 217 274 327 391
#     4  12  24  41  65 100 134 171 222 268 326 391
#     4  12  23  46  67  99 137 174 227 266 329 402
#     4  10  24  46  67  95 134 172 220 281 338 389
#     4  10  23  44  68  96 131 176 221 274 336 393
#
# _framework density 21.142681
#
# number of rings (size 3 to 8) (size 9 to 14) (size 15 to 20)
#    0.000    0.750    5.000    2.250    5.250    1.000 
#    0.000    3.750    0.000    0.000    0.000    0.000 
#    0.000    0.000    0.000    0.000    0.000    0.000 
#
# Total GULP energy -198492.711971 kJ/mol
# GULP energy per Si atom -12405.794498 kJ/mol
# Density = 2.109456 g / cm^3
# Si number density = 21.142681 Si / 1000 Ang^3
#
#
#
# Elastic Constant Matrix: (Units=GPa)
#
#
# Indices 1 2 3 4 5 6 
#
# 1 77.5683 4.1388 35.0529 -1.3709 5.9490 -20.5935
# 2 4.1388 61.5408 17.2600 3.8254 -0.5459 -11.8736
# 3 35.0529 17.2600 122.2206 12.8393 10.3449 -22.4538
# 4 -1.3709 3.8254 12.8393 35.8823 -2.7367 0.1726
# 5 5.9490 -0.5459 10.3449 -2.7367 43.6212 1.2811
# 6 -20.5935 -11.8736 -22.4538 0.1726 1.2811 36.2227
#
#
#
# Elastic Compliance Matrix: (Units=1/GPa)
#
#
# Indices 1 2 3 4 5 6 
#
# 1 0.016629 0.001254 -0.003574 0.001627 -0.001529 0.007696
# 2 0.001254 0.017789 -0.001761 -0.001227 0.000232 0.005450
# 3 -0.003574 -0.001761 0.010870 -0.004049 -0.002491 0.004236
# 4 0.001627 -0.001227 -0.004049 0.029724 0.002653 -0.002222
# 5 -0.001529 0.000232 -0.002491 0.002653 0.023987 -0.003198
# 6 0.007696 0.005450 0.004236 -0.002222 -0.003198 0.036519
#
#
# Mechanical properties :
#
#
# Convention : Reuss Voigt Hill
#
# Bulk Modulus (GPa) = 26.93544 41.58143 34.25844
# Shear Modulus (GPa) = 32.03995 36.80376 34.42185
#
# Velocity S-wave (km/s) = 3.89706 4.17674 4.03932
# Velocity P-wave (km/s) = 5.74603 6.55514 6.16388
#
# Compressibility (1/GPa) = 0.03712580
#
# Stress axis : x y z
#
# Youngs Moduli (GPa) = 60.13495 56.21499 91.99535
#
# Poissons Ratio (x) = -0.07051 0.32879
# Poissons Ratio (y) = -0.07542 0.16204
# Poissons Ratio (z) = 0.21492 0.09902
#
# Static dielectric constant tensor:
#      x y z
#    x 4.010590 -0.020090 0.098690 
#    y -0.020090 3.799170 0.105690 
#    z 0.098690 0.105690 3.880380 
# 
# 
# High freq. dielectric constant tensor:
#      x y z
#    x 1.837420 -0.000210 0.007470 
#    y -0.000210 1.833710 0.011070 
#    z 0.007470 0.011070 1.835050 
# 
# From -- ./inp_files/70823.got.cif
#   From: 2010.06.25/outbox.cif.g09.slc.cpg/sg2_36_cif.got.tgz:70823.got - 2010.06.27 13:26:56.
