data_PCOD8025186
_publ_section_title
;
Structure prediction by ZEFSAII (Michael W. Deem and Ramdas Pophale) SiO2 
 PCOD8025186
Probable space group: P -1
;
_chemical_formula_sum "Si O2"
_cell_formula_units_Z 16
_cell_length_a 14.215661
_cell_length_b 10.842251
_cell_length_c 8.488194
_cell_angle_alpha 90.794111
_cell_angle_beta 145.091840
_cell_angle_gamma 99.792486
_cell_volume 709.976125
_symmetry_space_group_name_H-M "P -1"
_symmetry_group_IT_number 2
_symmetry_cell_setting 'triclinic'
loop_
_space_group_symop_operation_xyz
x,y,z
-x,-y,-z
loop_
_atom_site_type_symbol
_atom_site_label
_atom_site_fract_x
_atom_site_fract_y
_atom_site_fract_z
Si Si1 0.602210 0.250057 0.550145
Si Si2 0.257142 0.597516 0.550941
Si Si3 0.138987 0.802795 0.880148
Si Si4 0.548800 0.812977 0.122754
Si Si5 0.813315 0.691358 0.623019
Si Si6 0.332099 0.375327 0.244973
Si Si7 0.023424 0.379451 0.621718
Si Si8 0.403995 0.013419 0.096906
O O1 0.710930 0.366564 0.588106
O O2 0.410605 0.258700 0.319786
O O3 0.566974 0.108571 0.418483
O O4 0.714621 0.261274 0.863367
O O5 0.228861 0.444186 0.534114
O O6 0.090412 0.636552 0.376541
O O7 0.418053 0.678179 0.878519
O O8 0.005367 0.783385 0.841472
O O9 0.043239 0.743148 0.586801
O O10 0.235545 0.955248 0.976476
O O11 0.688569 0.774150 0.414277
O O12 0.452359 0.888588 0.101021
O O13 0.642088 0.906290 0.108545
O O14 0.796847 0.659053 0.784459
O O15 0.500000 0.500000 0.500000
O O16 0.221372 0.396881 0.943570
O O17 0.000000 0.500000 0.500000
#
# Coordination Sequence:
#
# PCOD8025186 Si02
#       8
#     2   2   2   2   2   2   2   2
#     4  11  25  47  74  99 138 191 231 279 349 411
#     4  11  23  42  71 101 144 174 229 285 355 410
#     4  12  25  44  70 103 141 186 229 289 341 411
#     4  10  23  44  70 106 133 187 232 292 335 416
#     4  12  26  41  70 103 143 178 232 284 358 403
#     4  12  27  45  68 105 143 180 227 285 343 424
#     4  12  26  41  68 105 142 179 226 285 351 407
#     4  10  23  46  72  96 139 189 237 280 344 404
#
# _framework density 22.535969999999999
#
# number of rings (size 3 to 8) (size 9 to 14) (size 15 to 20)
#    0.000    0.750    3.750    3.000    5.250    1.500 
#    0.000    1.250    0.000    0.000    0.000    0.000 
#    0.000    0.000    0.000    0.000    0.000    0.000 
#
# Total GULP energy -198406.798537 kJ/mol
# GULP energy per Si atom -12400.424909 kJ/mol
# Density = 2.248468 g / cm^3
# Si number density = 22.535970 Si / 1000 Ang^3
#
#
#
# Elastic Constant Matrix: (Units=GPa)
#
#
# Indices 1 2 3 4 5 6 
#
# 1 112.1821 19.2735 29.2302 5.3780 7.9819 23.1949
# 2 19.2735 79.0131 38.6857 3.5370 -2.6714 23.4390
# 3 29.2302 38.6857 142.0318 -20.5886 -5.2750 14.4329
# 4 5.3780 3.5370 -20.5886 30.5124 4.5887 7.5242
# 5 7.9819 -2.6714 -5.2750 4.5887 29.0985 12.2054
# 6 23.1949 23.4390 14.4329 7.5242 12.2054 31.6402
#
#
#
# Elastic Compliance Matrix: (Units=1/GPa)
#
#
# Indices 1 2 3 4 5 6 
#
# 1 0.010856 0.000403 -0.001844 -0.001456 -0.000096 -0.007032
# 2 0.000403 0.019349 -0.003840 -0.002293 0.007760 -0.015326
# 3 -0.001844 -0.003840 0.010002 0.007967 0.001978 -0.003024
# 4 -0.001456 -0.002293 0.007967 0.041336 -0.000475 -0.010515
# 5 -0.000096 0.007760 0.001978 -0.000475 0.045635 -0.024072
# 6 -0.007032 -0.015326 -0.003024 -0.010515 -0.024072 0.061280
#
#
# Mechanical properties :
#
#
# Convention : Reuss Voigt Hill
#
# Bulk Modulus (GPa) = 33.73254 56.40065 45.06659
# Shear Modulus (GPa) = 23.93472 34.65273 29.29373
#
# Velocity S-wave (km/s) = 3.26247 3.92556 3.60928
# Velocity P-wave (km/s) = 5.40300 6.75485 6.11639
#
# Compressibility (1/GPa) = 0.02964497
#
# Stress axis : x y z
#
# Youngs Moduli (GPa) = 92.11543 51.68159 99.98366
#
# Poissons Ratio (x) = -0.02082 0.18435
# Poissons Ratio (y) = -0.03710 0.38393
# Poissons Ratio (z) = 0.16984 0.19845
#
# Static dielectric constant tensor:
#      x y z
#    x 4.420720 0.054130 0.062310 
#    y 0.054130 4.138200 0.071190 
#    z 0.062310 0.071190 3.893000 
# 
# 
# High freq. dielectric constant tensor:
#      x y z
#    x 1.899040 0.013100 -0.002280 
#    y 0.013100 1.886630 0.002400 
#    z -0.002280 0.002400 1.878940 
# 
# From -- ./inp_files/307647.got.cif
#   From: 2010.06.25/outbox.cif.g09.slc.cpg/sg2_154_cif.got.tgz:307647.got - 2010.06.27 13:26:56.
