data_PCOD8025570
_publ_section_title
;
Structure prediction by ZEFSAII (Michael W. Deem and Ramdas Pophale) SiO2 
 PCOD8025570
Probable space group: P -1
;
_chemical_formula_sum "Si O2"
_cell_formula_units_Z 16
_cell_length_a 13.155940
_cell_length_b 14.363212
_cell_length_c 12.502007
_cell_angle_alpha 28.904392
_cell_angle_beta 57.830445
_cell_angle_gamma 40.324294
_cell_volume 666.552527
_symmetry_space_group_name_H-M "P -1"
_symmetry_group_IT_number 2
_symmetry_cell_setting 'triclinic'
loop_
_space_group_symop_operation_xyz
x,y,z
-x,-y,-z
loop_
_atom_site_type_symbol
_atom_site_label
_atom_site_fract_x
_atom_site_fract_y
_atom_site_fract_z
Si Si1 0.129874 0.345318 0.485947
Si Si2 0.348069 0.305369 0.133424
Si Si3 0.627208 0.250349 0.976475
Si Si4 0.315508 0.926712 0.253049
Si Si5 0.995521 0.231407 0.266564
Si Si6 0.585532 0.688977 0.672556
Si Si7 0.698104 0.380323 0.601718
Si Si8 0.893129 0.500619 0.284414
O O1 0.247224 0.397487 0.383101
O O2 0.000000 0.500000 0.500000
O O3 0.038931 0.454596 0.311092
O O4 0.241151 0.020512 0.750731
O O5 0.378029 0.383496 0.149388
O O6 0.413526 0.012042 0.414234
O O7 0.464759 0.295539 0.993302
O O8 0.151358 0.526878 0.978161
O O9 0.557464 0.514716 0.812882
O O10 0.730998 0.196379 0.866252
O O11 0.514959 0.700873 0.406236
O O12 0.294456 0.751157 0.378251
O O13 0.182864 0.086705 0.266287
O O14 0.275735 0.164837 0.967374
O O15 0.963507 0.356975 0.274190
O O16 0.000000 0.000000 0.500000
O O17 0.844099 0.374631 0.512651
#
# Coordination Sequence:
#
# PCOD8025570 Si02
#       8
#     2   2   2   2   2   2   2   2
#     4  11  25  45  69 104 141 177 237 288 345 416
#     4  10  24  44  67 100 140 177 232 291 344 413
#     4  11  24  42  73  96 135 187 229 290 348 407
#     4  11  25  46  68 100 144 183 226 284 346 419
#     4  12  25  46  71 105 145 181 231 293 347 418
#     4  10  23  45  69  99 134 184 233 290 342 412
#     4  11  25  45  68 101 138 183 235 280 346 419
#     4  12  26  44  73 104 139 188 229 283 356 413
#
# _framework density 24.004109
#
# number of rings (size 3 to 8) (size 9 to 14) (size 15 to 20)
#    0.000    1.000    1.250    4.125    5.250    4.000 
#    6.750    0.000    0.000    0.000    0.000    0.000 
#    0.000    0.000    0.000    0.000    0.000    0.000 
#
# Total GULP energy -198419.671511 kJ/mol
# GULP energy per Si atom -12401.229469 kJ/mol
# Density = 2.394947 g / cm^3
# Si number density = 24.004109 Si / 1000 Ang^3
#
#
#
# Elastic Constant Matrix: (Units=GPa)
#
#
# Indices 1 2 3 4 5 6 
#
# 1 49.1527 18.6420 27.0830 -14.3759 7.0761 10.2920
# 2 18.6420 108.0352 33.8104 -3.3705 11.1907 -0.0320
# 3 27.0830 33.8104 98.1028 2.9081 -4.2574 4.4098
# 4 -14.3759 -3.3705 2.9081 38.0973 -0.6899 -5.9196
# 5 7.0761 11.1907 -4.2574 -0.6899 37.7725 2.5124
# 6 10.2920 -0.0320 4.4098 -5.9196 2.5124 34.9365
#
#
#
# Elastic Compliance Matrix: (Units=1/GPa)
#
#
# Indices 1 2 3 4 5 6 
#
# 1 0.030799 -0.001834 -0.008182 0.011088 -0.005563 -0.005763
# 2 -0.001834 0.011054 -0.003533 0.000706 -0.003407 0.001361
# 3 -0.008182 -0.003533 0.013998 -0.004458 0.004103 -0.000410
# 4 0.011088 0.000706 -0.004458 0.031221 -0.002402 0.002760
# 5 -0.005563 -0.003407 0.004103 -0.002402 0.029036 -0.001377
# 6 -0.005763 0.001361 -0.000410 0.002760 -0.001377 0.030941
#
#
# Mechanical properties :
#
#
# Convention : Reuss Voigt Hill
#
# Bulk Modulus (GPa) = 34.77792 46.04017 40.40905
# Shear Modulus (GPa) = 27.21382 33.87827 30.54605
#
# Velocity S-wave (km/s) = 3.37072 3.76087 3.57113
# Velocity P-wave (km/s) = 5.44691 6.17095 5.82020
#
# Compressibility (1/GPa) = 0.02875387
#
# Stress axis : x y z
#
# Youngs Moduli (GPa) = 32.46888 90.46683 71.43627
#
# Poissons Ratio (x) = 0.16587 0.58447
# Poissons Ratio (y) = 0.05953 0.25241
# Poissons Ratio (z) = 0.26565 0.31965
#
# Static dielectric constant tensor:
#      x y z
#    x 4.543790 -0.225530 -0.025500 
#    y -0.225530 4.541750 -0.006960 
#    z -0.025500 -0.006960 4.605330 
# 
# 
# High freq. dielectric constant tensor:
#      x y z
#    x 1.945080 -0.003410 -0.011940 
#    y -0.003410 1.961020 0.004100 
#    z -0.011940 0.004100 1.965360 
# 
# From -- ./inp_files/455391.got.cif
#   From: 2010.06.25/outbox.cif.g09.slc.cpg/sg2_228_cif.got.tgz:455391.got - 2010.06.27 13:26:56.
