data_PCOD8025595
_publ_section_title
;
Structure prediction by ZEFSAII (Michael W. Deem and Ramdas Pophale) SiO2 
 PCOD8025595
Probable space group: P -1
;
_chemical_formula_sum "Si O2"
_cell_formula_units_Z 12
_cell_length_a 9.386725
_cell_length_b 16.967284
_cell_length_c 4.936410
_cell_angle_alpha 73.454014
_cell_angle_beta 85.096578
_cell_angle_gamma 134.859801
_cell_volume 484.458314
_symmetry_space_group_name_H-M "P -1"
_symmetry_group_IT_number 2
_symmetry_cell_setting 'triclinic'
loop_
_space_group_symop_operation_xyz
x,y,z
-x,-y,-z
loop_
_atom_site_type_symbol
_atom_site_label
_atom_site_fract_x
_atom_site_fract_y
_atom_site_fract_z
Si Si1 0.139113 0.347480 0.074885
Si Si2 0.463745 0.576355 0.196286
Si Si3 0.552493 0.271118 0.225654
Si Si4 0.293360 0.911336 0.411854
Si Si5 0.872908 0.494354 0.303173
Si Si6 0.496222 0.138907 0.854063
O O1 0.268461 0.435211 0.234959
O O2 0.946930 0.196239 0.306506
O O3 0.322707 0.386628 0.805763
O O4 0.013506 0.370564 0.938853
O O5 0.368274 0.581296 0.468345
O O6 0.555369 0.687645 0.863918
O O7 0.806661 0.402590 0.157226
O O8 0.419902 0.160929 0.585543
O O9 0.590089 0.237080 0.978964
O O10 0.309022 0.837627 0.291518
O O11 0.500000 0.000000 0.500000
O O12 0.296086 0.995106 0.144898
O O13 0.000000 0.500000 0.500000
#
# Coordination Sequence:
#
# PCOD8025595 Si02
#       6
#     2   2   2   2   2   2
#     4  10  25  45  68 104 148 190 236 288 361 430
#     4  10  23  45  70 105 145 191 230 295 359 429
#     4  11  23  44  73  99 144 181 236 298 354 412
#     4  11  25  42  72 103 142 192 235 295 356 416
#     4  11  25  39  75 110 142 186 237 302 357 414
#     4  11  24  44  71 102 141 180 238 300 341 422
#
# _framework density 24.769933000000002
#
# number of rings (size 3 to 8) (size 9 to 14) (size 15 to 20)
#    0.000    1.333    3.333    0.500    7.000    2.667 
#    0.000    4.167    0.000    0.000    0.000    0.000 
#    0.000    0.000    0.000    0.000    0.000    0.000 
#
# Total GULP energy -148727.976895 kJ/mol
# GULP energy per Si atom -12393.998075 kJ/mol
# Density = 2.471356 g / cm^3
# Si number density = 24.769933 Si / 1000 Ang^3
#
#
#
# Elastic Constant Matrix: (Units=GPa)
#
#
# Indices 1 2 3 4 5 6 
#
# 1 92.6984 41.0812 -0.4706 -4.5042 10.0375 -5.3579
# 2 41.0812 102.0909 28.7443 6.1415 -9.2008 -13.2221
# 3 -0.4706 28.7443 73.8195 -16.3812 12.9596 -0.3877
# 4 -4.5042 6.1415 -16.3812 55.7390 -4.5335 -4.1016
# 5 10.0375 -9.2008 12.9596 -4.5335 49.5695 -1.9161
# 6 -5.3579 -13.2221 -0.3877 -4.1016 -1.9161 30.6563
#
#
#
# Elastic Compliance Matrix: (Units=1/GPa)
#
#
# Indices 1 2 3 4 5 6 
#
# 1 0.015238 -0.008357 0.005038 0.003109 -0.005701 -0.000818
# 2 -0.008357 0.017315 -0.008943 -0.004211 0.007082 0.005774
# 3 0.005038 -0.008943 0.019766 0.006433 -0.007349 -0.002325
# 4 0.003109 -0.004211 0.006433 0.020562 -0.001155 0.001488
# 5 -0.005701 0.007082 -0.007349 -0.001155 0.024588 0.003348
# 6 -0.000818 0.005774 -0.002325 0.001488 0.003348 0.035346
#
#
# Mechanical properties :
#
#
# Convention : Reuss Voigt Hill
#
# Bulk Modulus (GPa) = 35.97742 45.25764 40.61753
# Shear Modulus (GPa) = 30.01113 40.47654 35.24383
#
# Velocity S-wave (km/s) = 3.48457 4.04679 3.77616
# Velocity P-wave (km/s) = 5.54489 6.33610 5.95365
#
# Compressibility (1/GPa) = 0.02779521
#
# Stress axis : x y z
#
# Youngs Moduli (GPa) = 65.62616 57.75250 50.59068
#
# Poissons Ratio (x) = 0.48262 -0.25486
# Poissons Ratio (y) = 0.54842 0.45243
# Poissons Ratio (z) = -0.33060 0.51648
#
# Static dielectric constant tensor:
#      x y z
#    x 4.713480 -0.555260 0.230830 
#    y -0.555260 4.282350 0.111700 
#    z 0.230830 0.111700 4.988440 
# 
# 
# High freq. dielectric constant tensor:
#      x y z
#    x 1.977620 -0.037340 0.021820 
#    y -0.037340 1.965430 0.012270 
#    z 0.021820 0.012270 2.006080 
# 
# From -- ./inp_files/47099.got.cif
#   From: 2010.06.25/outbox.cif.g09.slc.cpg/sg2_24_cif.got.tgz:47099.got - 2010.06.27 13:26:56.
