data_PCOD8025140
_publ_section_title
;
Structure prediction by ZEFSAII (Michael W. Deem and Ramdas Pophale) SiO2 
 PCOD8025140
Probable space group: P -1
;
_chemical_formula_sum "Si O2"
_cell_formula_units_Z 16
_cell_length_a 11.559025
_cell_length_b 9.039277
_cell_length_c 13.780995
_cell_angle_alpha 31.131052
_cell_angle_beta 74.731087
_cell_angle_gamma 75.318686
_cell_volume 717.017657
_symmetry_space_group_name_H-M "P -1"
_symmetry_group_IT_number 2
_symmetry_cell_setting 'triclinic'
loop_
_space_group_symop_operation_xyz
x,y,z
-x,-y,-z
loop_
_atom_site_type_symbol
_atom_site_label
_atom_site_fract_x
_atom_site_fract_y
_atom_site_fract_z
Si Si1 0.725603 0.247073 0.829275
Si Si2 0.715027 0.856807 0.733366
Si Si3 0.968666 0.718008 0.797851
Si Si4 0.560101 0.694743 0.689204
Si Si5 0.359256 0.245635 0.978503
Si Si6 0.966068 0.180791 0.689062
Si Si7 0.184275 0.590995 0.687040
Si Si8 0.877783 0.946307 0.109434
O O1 0.669072 0.576287 0.659170
O O2 0.838214 0.178070 0.772541
O O3 0.622425 0.034368 0.938069
O O4 0.770244 0.168736 0.973537
O O5 0.839220 0.659676 0.813070
O O6 0.612252 0.716315 0.772999
O O7 0.734042 0.169081 0.508635
O O8 0.669168 0.879628 0.839947
O O9 0.060049 0.719430 0.687797
O O10 0.955375 0.040904 0.664153
O O11 0.000000 0.500000 0.000000
O O12 0.471631 0.439372 0.851538
O O13 0.500000 0.000000 0.500000
O O14 0.248533 0.437754 0.850952
O O15 0.000000 0.500000 0.500000
O O16 0.081961 0.015125 0.809263
O O17 0.159994 0.375030 0.725902
O O18 0.000000 0.000000 0.000000
#
# Coordination Sequence:
#
# PCOD8025140 Si02
#       8
#     2   2   2   2   2   2   2   2
#     4  10  23  44  69  96 136 184 224 283 347 399
#     4  12  25  43  71 100 141 178 228 286 356 395
#     4  12  23  40  68 105 140 181 219 278 346 423
#     4  12  27  46  74 100 132 182 244 293 334 408
#     4  11  23  50  69  98 137 183 233 286 338 410
#     4  11  23  38  63 103 145 171 221 273 338 423
#     4  11  23  41  71 102 143 178 228 280 346 414
#     4   9  20  38  65  97 139 179 219 269 341 417
#
# _framework density 22.314653
#
# number of rings (size 3 to 8) (size 9 to 14) (size 15 to 20)
#    0.000    1.000    3.750    3.375    7.000    0.000 
#    0.000    1.875    0.000    0.000    0.000    0.000 
#    0.000    0.000    0.000    0.000    0.000    0.000 
#
# Total GULP energy -198269.751385 kJ/mol
# GULP energy per Si atom -12391.859462 kJ/mol
# Density = 2.226386 g / cm^3
# Si number density = 22.314653 Si / 1000 Ang^3
#
#
#
# Elastic Constant Matrix: (Units=GPa)
#
#
# Indices 1 2 3 4 5 6 
#
# 1 124.8386 44.7991 31.2057 -13.2946 5.5633 22.5006
# 2 44.7991 83.4332 24.2275 -9.3668 14.1677 -0.8329
# 3 31.2057 24.2275 102.2124 -11.8952 1.8824 -3.6263
# 4 -13.2946 -9.3668 -11.8952 35.2229 -1.8312 5.0946
# 5 5.5633 14.1677 1.8824 -1.8312 37.9161 -5.1526
# 6 22.5006 -0.8329 -3.6263 5.0946 -5.1526 31.6581
#
#
#
# Elastic Compliance Matrix: (Units=1/GPa)
#
#
# Indices 1 2 3 4 5 6 
#
# 1 0.013085 -0.005804 -0.002508 0.004026 -0.000863 -0.010528
# 2 -0.005804 0.016573 -0.001848 0.000848 -0.004741 0.003441
# 3 -0.002508 -0.001848 0.011306 0.002017 0.000984 0.002865
# 4 0.004026 0.000848 0.002017 0.031922 -0.000530 -0.007832
# 5 -0.000863 -0.004741 0.000984 -0.000530 0.028931 0.005395
# 6 -0.010528 0.003441 0.002865 -0.007832 0.005395 0.041628
#
#
# Mechanical properties :
#
#
# Convention : Reuss Voigt Hill
#
# Bulk Modulus (GPa) = 48.44298 56.77209 52.60754
# Shear Modulus (GPa) = 29.30026 34.97621 32.13824
#
# Velocity S-wave (km/s) = 3.62753 3.96335 3.79915
# Velocity P-wave (km/s) = 6.26909 6.81476 6.54762
#
# Compressibility (1/GPa) = 0.02064283
#
# Stress axis : x y z
#
# Youngs Moduli (GPa) = 76.42322 60.33732 88.45169
#
# Poissons Ratio (x) = 0.35021 0.22185
# Poissons Ratio (y) = 0.44357 0.16348
# Poissons Ratio (z) = 0.19168 0.11152
#
# Static dielectric constant tensor:
#      x y z
#    x 3.859600 0.272450 0.097870 
#    y 0.272450 3.921320 -0.173990 
#    z 0.097870 -0.173990 4.063350 
# 
# 
# High freq. dielectric constant tensor:
#      x y z
#    x 1.897020 0.024760 0.002560 
#    y 0.024760 1.864880 -0.013320 
#    z 0.002560 -0.013320 1.878740 
# 
# From -- ./inp_files/514801.got.cif
#   From: 2010.06.25/outbox.cif.g09.slc.cpg/sg2_258_cif.got.tgz:514801.got - 2010.06.27 13:26:56.
