data_PCOD8025048
_publ_section_title
;
Structure prediction by ZEFSAII (Michael W. Deem and Ramdas Pophale) SiO2 
 PCOD8025048
Probable space group: P -1
;
_chemical_formula_sum "Si O2"
_cell_formula_units_Z 16
_cell_length_a 18.458680
_cell_length_b 11.030421
_cell_length_c 9.671993
_cell_angle_alpha 100.289307
_cell_angle_beta 141.834774
_cell_angle_gamma 51.120494
_cell_volume 716.141013
_symmetry_space_group_name_H-M "P -1"
_symmetry_group_IT_number 2
_symmetry_cell_setting 'triclinic'
loop_
_space_group_symop_operation_xyz
x,y,z
-x,-y,-z
loop_
_atom_site_type_symbol
_atom_site_label
_atom_site_fract_x
_atom_site_fract_y
_atom_site_fract_z
Si Si1 0.173005 0.044324 0.233618
Si Si2 0.352983 0.021301 0.236260
Si Si3 0.634103 0.006531 0.235315
Si Si4 0.806574 0.172098 0.337725
Si Si5 0.533519 0.664843 0.267960
Si Si6 0.218869 0.754878 0.371471
Si Si7 0.694106 0.530417 0.209455
Si Si8 0.084034 0.300568 0.639043
O O1 0.226439 0.057544 0.169039
O O2 0.238570 0.095178 0.452991
O O3 0.271014 0.827732 0.367318
O O4 0.942930 0.203295 0.926007
O O5 0.505406 0.793810 0.361742
O O6 0.500000 0.000000 0.500000
O O7 0.211640 0.205253 0.950011
O O8 0.792072 0.878216 0.324413
O O9 0.490639 0.244360 0.088457
O O10 0.500000 0.000000 0.000000
O O11 0.855751 0.131717 0.567006
O O12 0.667715 0.405952 0.140343
O O13 0.668671 0.173526 0.091591
O O14 0.000000 0.000000 0.500000
O O15 0.585247 0.491632 0.381430
O O16 0.703253 0.562808 0.392399
O O17 0.894943 0.380208 0.401991
O O18 0.000000 0.500000 0.500000
#
# Coordination Sequence:
#
# PCOD8025048 Si02
#       8
#     2   2   2   2   2   2   2   2
#     4  11  25  45  69 102 155 185 241 312 376 442
#     4  12  27  46  70 105 151 194 245 307 377 442
#     4  12  24  46  71 104 145 198 247 308 358 445
#     4  11  22  40  74 109 139 185 246 306 361 444
#     4  11  22  44  70 104 142 188 246 302 368 440
#     4  10  23  44  68 105 145 193 236 304 384 435
#     4  11  23  41  74 103 140 183 250 300 362 424
#     4  12  26  46  72 105 138 194 260 294 361 446
#
# _framework density 22.341968999999999
#
# number of rings (size 3 to 8) (size 9 to 14) (size 15 to 20)
#    0.000    0.750    2.500    6.750    1.750    1.500 
#    0.000    1.875    0.000    0.000    0.000    0.000 
#    0.000    0.000    0.000    0.000    0.000    0.000 
#
# Total GULP energy -198233.916725 kJ/mol
# GULP energy per Si atom -12389.619795 kJ/mol
# Density = 2.229112 g / cm^3
# Si number density = 22.341969 Si / 1000 Ang^3
#
#
#
# Elastic Constant Matrix: (Units=GPa)
#
#
# Indices 1 2 3 4 5 6 
#
# 1 118.5075 42.9402 40.3933 -5.1084 -3.7393 -2.8926
# 2 42.9402 109.6424 51.0323 -1.9664 -4.6425 -9.7222
# 3 40.3933 51.0323 115.2875 7.3662 -6.2404 -6.2293
# 4 -5.1084 -1.9664 7.3662 42.6291 3.0876 -0.4748
# 5 -3.7393 -4.6425 -6.2404 3.0876 44.8342 -7.6302
# 6 -2.8926 -9.7222 -6.2293 -0.4748 -7.6302 33.4963
#
#
#
# Elastic Compliance Matrix: (Units=1/GPa)
#
#
# Indices 1 2 3 4 5 6 
#
# 1 0.010397 -0.002930 -0.002461 0.001528 0.000052 -0.000377
# 2 -0.002930 0.012631 -0.004429 0.000966 0.000857 0.002798
# 3 -0.002461 -0.004429 0.011787 -0.002621 0.001320 0.000958
# 4 0.001528 0.000966 -0.002621 0.024270 -0.001834 -0.000149
# 5 0.000052 0.000857 0.001320 -0.001834 0.023707 0.005873
# 6 -0.000377 0.002798 0.000958 -0.000149 0.005873 0.032148
#
#
# Mechanical properties :
#
#
# Convention : Reuss Voigt Hill
#
# Bulk Modulus (GPa) = 65.89447 68.01878 66.95663
# Shear Modulus (GPa) = 35.80672 38.13004 36.96838
#
# Velocity S-wave (km/s) = 4.00767 4.13565 4.07217
# Velocity P-wave (km/s) = 7.13953 7.30173 7.22109
#
# Compressibility (1/GPa) = 0.01517578
#
# Stress axis : x y z
#
# Youngs Moduli (GPa) = 96.17995 79.16887 84.83737
#
# Poissons Ratio (x) = 0.23199 0.20878
# Poissons Ratio (y) = 0.28184 0.37572
# Poissons Ratio (z) = 0.23669 0.35061
#
# Static dielectric constant tensor:
#      x y z
#    x 1.266060 -0.975750 1.938820 
#    y -0.975750 3.741310 0.515210 
#    z 1.938820 0.515210 2.996390 
# 
# 
# High freq. dielectric constant tensor:
#      x y z
#    x 1.887900 0.010270 -0.000130 
#    y 0.010270 1.880300 -0.004800 
#    z -0.000130 -0.004800 1.883920 
# 
# From -- ./inp_files/333446.got.cif
#   From: 2010.06.25/outbox.cif.g09.slc.cpg/sg2_167_cif.got.tgz:333446.got - 2010.06.27 13:26:56.
