data_PCOD8025982
_publ_section_title
;
Structure prediction by ZEFSAII (Michael W. Deem and Ramdas Pophale) SiO2 
 PCOD8025982
Probable space group: P -1
;
_chemical_formula_sum "Si O2"
_cell_formula_units_Z 16
_cell_length_a 11.257511
_cell_length_b 11.512262
_cell_length_c 11.583436
_cell_angle_alpha 136.377729
_cell_angle_beta 60.941114
_cell_angle_gamma 86.321673
_cell_volume 655.772242
_symmetry_space_group_name_H-M "P -1"
_symmetry_group_IT_number 2
_symmetry_cell_setting 'triclinic'
loop_
_space_group_symop_operation_xyz
x,y,z
-x,-y,-z
loop_
_atom_site_type_symbol
_atom_site_label
_atom_site_fract_x
_atom_site_fract_y
_atom_site_fract_z
Si Si1 0.528623 0.506494 0.855339
Si Si2 0.826541 0.098668 0.831179
Si Si3 0.849331 0.688567 0.536818
Si Si4 0.732725 0.712152 0.369561
Si Si5 0.062126 0.199955 0.789383
Si Si6 0.191179 0.460100 0.332140
Si Si7 0.333649 0.930577 0.659183
Si Si8 0.113022 0.027919 0.045411
O O1 0.635751 0.591719 0.844259
O O2 0.642956 0.262666 0.562292
O O3 0.500000 0.500000 0.000000
O O4 0.329638 0.682187 0.014549
O O5 0.022008 0.034680 0.667588
O O6 0.835760 0.894275 0.654497
O O7 0.786953 0.157381 0.029554
O O8 0.754646 0.661709 0.460236
O O9 0.738656 0.729207 0.736900
O O10 0.073681 0.459966 0.287803
O O11 0.803458 0.842358 0.404631
O O12 0.523881 0.875897 0.535197
O O13 0.861720 0.464662 0.067378
O O14 0.164227 0.161665 0.834648
O O15 0.033151 0.715376 0.647100
O O16 0.277879 0.962620 0.842307
O O17 0.000000 0.000000 0.000000
#
# Coordination Sequence:
#
# PCOD8025982 Si02
#       8
#     2   2   2   2   2   2   2   2
#     4  12  28  44  73 108 149 197 249 300 361 448
#     4  11  25  46  69 107 143 195 248 295 367 442
#     4  10  24  45  69 101 142 194 235 304 365 424
#     4  11  26  43  72 107 142 196 242 306 360 441
#     4  11  24  46  70 101 149 187 249 294 371 436
#     4  10  23  47  69 105 148 188 248 294 369 437
#     4  12  24  46  73 109 146 188 245 307 363 434
#     4  11  21  43  77 106 136 190 243 304 367 429
#
# _framework density 24.398713000000001
#
# number of rings (size 3 to 8) (size 9 to 14) (size 15 to 20)
#    0.000    1.000    3.750    1.875    5.250    1.500 
#    6.750    0.000    0.000    0.000    0.000    0.000 
#    0.000    0.000    0.000    0.000    0.000    0.000 
#
# Total GULP energy -198275.432332 kJ/mol
# GULP energy per Si atom -12392.214521 kJ/mol
# Density = 2.434318 g / cm^3
# Si number density = 24.398713 Si / 1000 Ang^3
#
#
#
# Elastic Constant Matrix: (Units=GPa)
#
#
# Indices 1 2 3 4 5 6 
#
# 1 114.4468 49.5792 27.3089 -10.7571 -29.6444 -6.0881
# 2 49.5792 144.7435 30.1710 -12.9983 -21.1607 -5.4494
# 3 27.3089 30.1710 58.1116 -10.2831 -22.5270 -0.9310
# 4 -10.7571 -12.9983 -10.2831 31.2118 4.2505 -6.2264
# 5 -29.6444 -21.1607 -22.5270 4.2505 40.8532 -3.1773
# 6 -6.0881 -5.4494 -0.9310 -6.2264 -3.1773 57.6583
#
#
#
# Elastic Compliance Matrix: (Units=1/GPa)
#
#
# Indices 1 2 3 4 5 6 
#
# 1 0.012228 -0.002684 -0.001396 0.002054 0.006623 0.001602
# 2 -0.002684 0.008700 -0.002508 0.001882 0.001039 0.000759
# 3 -0.001396 -0.002508 0.024216 0.005242 0.010586 0.001156
# 4 0.002054 0.001882 0.005242 0.035880 0.001970 0.004462
# 5 0.006623 0.001039 0.010586 0.001970 0.035699 0.003148
# 6 0.001602 0.000759 0.001156 0.004462 0.003148 0.018258
#
#
# Mechanical properties :
#
#
# Convention : Reuss Voigt Hill
#
# Bulk Modulus (GPa) = 31.28119 59.04670 45.16394
# Shear Modulus (GPa) = 31.48355 39.96084 35.72220
#
# Velocity S-wave (km/s) = 3.59608 4.05140 3.83051
# Velocity P-wave (km/s) = 5.48553 6.79252 6.17371
#
# Compressibility (1/GPa) = 0.03196809
#
# Stress axis : x y z
#
# Youngs Moduli (GPa) = 81.78285 114.93670 41.29529
#
# Poissons Ratio (x) = 0.30852 0.05764
# Poissons Ratio (y) = 0.21953 0.10356
# Poissons Ratio (z) = 0.11415 0.28823
#
# Static dielectric constant tensor:
#      x y z
#    x -9.140800 12.159310 -16.803380 
#    y 12.159310 -5.926760 14.639300 
#    z -16.803380 14.639300 -15.745370 
# 
# 
# High freq. dielectric constant tensor:
#      x y z
#    x 1.986490 -0.004180 -0.007430 
#    y -0.004180 1.988170 -0.002170 
#    z -0.007430 -0.002170 1.933870 
# 
# From -- ./inp_files/428878.got.cif
#   From: 2010.06.25/outbox.cif.g09.slc.cpg/sg2_215_cif.got.tgz:428878.got - 2010.06.27 13:26:56.
