data_PCOD8025579
_publ_section_title
;
Structure prediction by ZEFSAII (Michael W. Deem and Ramdas Pophale) SiO2 
 PCOD8025579
Probable space group: P -1
;
_chemical_formula_sum "Si O2"
_cell_formula_units_Z 16
_cell_length_a 6.478775
_cell_length_b 17.100261
_cell_length_c 14.388139
_cell_angle_alpha 38.486111
_cell_angle_beta 111.188069
_cell_angle_gamma 131.692956
_cell_volume 695.923165
_symmetry_space_group_name_H-M "P -1"
_symmetry_group_IT_number 2
_symmetry_cell_setting 'triclinic'
loop_
_space_group_symop_operation_xyz
x,y,z
-x,-y,-z
loop_
_atom_site_type_symbol
_atom_site_label
_atom_site_fract_x
_atom_site_fract_y
_atom_site_fract_z
Si Si1 0.544497 0.383371 0.164587
Si Si2 0.090470 0.678780 0.359883
Si Si3 0.542311 0.139627 0.272423
Si Si4 0.805288 0.405249 0.925497
Si Si5 0.993402 0.213869 0.567076
Si Si6 0.241392 0.232043 0.878813
Si Si7 0.099479 0.298817 0.304780
Si Si8 0.718786 0.898112 0.176049
O O1 0.448170 0.232160 0.223480
O O2 0.328756 0.289050 0.306094
O O3 0.870804 0.494731 0.158852
O O4 0.500000 0.500000 0.000000
O O5 0.099730 0.717754 0.434825
O O6 0.406208 0.833360 0.221954
O O7 0.000000 0.500000 0.500000
O O8 0.844540 0.669599 0.276330
O O9 0.762883 0.135730 0.374382
O O10 0.277215 0.958551 0.362587
O O11 0.712569 0.242577 0.110614
O O12 0.557764 0.362399 0.854997
O O13 0.848851 0.539950 0.878866
O O14 0.149867 0.333249 0.391925
O O15 0.216728 0.199252 0.661374
O O16 0.294574 0.141217 0.897819
O O17 0.987979 0.099606 0.036923
#
# Coordination Sequence:
#
# PCOD8025579 Si02
#       8
#     2   2   2   2   2   2   2   2
#     4  11  21  41  68 102 136 182 234 280 330 406
#     4  11  27  47  73 101 138 178 232 288 348 418
#     4  11  22  44  66  99 143 183 225 285 333 407
#     4  11  22  40  71  99 137 186 225 282 341 396
#     4  11  26  45  68 101 143 184 221 286 353 404
#     4  10  23  45  70 101 136 176 230 291 341 406
#     4  11  24  41  67 101 144 181 230 279 339 407
#     4  10  23  45  70 101 136 173 232 287 344 414
#
# _framework density 22.991043999999999
#
# number of rings (size 3 to 8) (size 9 to 14) (size 15 to 20)
#    0.000    1.250    3.750    1.500    3.500    5.500 
#    2.250    0.000    0.000    0.000    0.000    0.000 
#    0.000    0.000    0.000    0.000    0.000    0.000 
#
# Total GULP energy -198296.677555 kJ/mol
# GULP energy per Si atom -12393.542347 kJ/mol
# Density = 2.293872 g / cm^3
# Si number density = 22.991044 Si / 1000 Ang^3
#
#
#
# Elastic Constant Matrix: (Units=GPa)
#
#
# Indices 1 2 3 4 5 6 
#
# 1 151.9288 69.3854 38.8097 4.1287 -16.5836 1.0741
# 2 69.3854 121.9411 30.8988 -3.2624 -6.6163 9.0778
# 3 38.8097 30.8988 63.2415 -1.1055 -6.1645 -11.7923
# 4 4.1287 -3.2624 -1.1055 33.6593 -2.0679 1.4788
# 5 -16.5836 -6.6163 -6.1645 -2.0679 35.8700 1.1145
# 6 1.0741 9.0778 -11.7923 1.4788 1.1145 39.1108
#
#
#
# Elastic Compliance Matrix: (Units=1/GPa)
#
#
# Indices 1 2 3 4 5 6 
#
# 1 0.010009 -0.004614 -0.003681 -0.001593 0.003063 -0.000341
# 2 -0.004614 0.012111 -0.003813 0.001765 -0.000332 -0.003891
# 3 -0.003681 -0.003813 0.021428 0.000527 0.001078 0.007396
# 4 -0.001593 0.001765 0.000527 0.030245 0.001467 -0.001392
# 5 0.003063 -0.000332 0.001078 0.001467 0.029521 -0.000579
# 6 -0.000341 -0.003891 0.007396 -0.001392 -0.000579 0.028780
#
#
# Mechanical properties :
#
#
# Convention : Reuss Voigt Hill
#
# Bulk Modulus (GPa) = 51.72657 68.36657 60.04657
# Shear Modulus (GPa) = 30.72120 34.92918 32.82519
#
# Velocity S-wave (km/s) = 3.65941 3.90199 3.78264
# Velocity P-wave (km/s) = 6.35629 7.07823 6.72695
#
# Compressibility (1/GPa) = 0.01933242
#
# Stress axis : x y z
#
# Youngs Moduli (GPa) = 99.90546 82.56960 46.66820
#
# Poissons Ratio (x) = 0.38095 0.17180
# Poissons Ratio (y) = 0.46093 0.17795
# Poissons Ratio (z) = 0.36778 0.31484
#
# Static dielectric constant tensor:
#      x y z
#    x 4.238210 0.102480 -0.142770 
#    y 0.102480 4.139880 0.026850 
#    z -0.142770 0.026850 4.236370 
# 
# 
# High freq. dielectric constant tensor:
#      x y z
#    x 1.902960 0.012920 -0.003880 
#    y 0.012920 1.910280 -0.002490 
#    z -0.003880 -0.002490 1.916580 
# 
# From -- ./inp_files/485219.got.cif
#   From: 2010.06.25/outbox.cif.g09.slc.cpg/sg2_243_cif.got.tgz:485219.got - 2010.06.27 13:26:56.
