data_PCOD8025432
_publ_section_title
;
Structure prediction by ZEFSAII (Michael W. Deem and Ramdas Pophale) SiO2 
 PCOD8025432
Probable space group: P -1
;
_chemical_formula_sum "Si O2"
_cell_formula_units_Z 16
_cell_length_a 8.589468
_cell_length_b 12.090484
_cell_length_c 11.458552
_cell_angle_alpha 89.439545
_cell_angle_beta 60.429765
_cell_angle_gamma 49.800028
_cell_volume 699.955266
_symmetry_space_group_name_H-M "P -1"
_symmetry_group_IT_number 2
_symmetry_cell_setting 'triclinic'
loop_
_space_group_symop_operation_xyz
x,y,z
-x,-y,-z
loop_
_atom_site_type_symbol
_atom_site_label
_atom_site_fract_x
_atom_site_fract_y
_atom_site_fract_z
Si Si1 0.710429 0.998996 0.455623
Si Si2 0.749136 0.184795 0.834235
Si Si3 0.181550 0.435541 0.079285
Si Si4 0.280269 0.024474 0.277968
Si Si5 0.198025 0.809410 0.925486
Si Si6 0.107899 0.271808 0.952390
Si Si7 0.408892 0.306271 0.415191
Si Si8 0.089650 0.349445 0.337186
O O1 0.584948 0.169057 0.451429
O O2 0.500000 0.000000 0.500000
O O3 0.778267 0.979814 0.566486
O O4 0.005435 0.847012 0.291057
O O5 0.822189 0.026306 0.769293
O O6 0.446201 0.344558 0.902877
O O7 0.673042 0.242204 0.995428
O O8 0.221556 0.378783 0.199429
O O9 0.984702 0.630953 0.138677
O O10 0.043661 0.391261 0.073310
O O11 0.132969 0.202177 0.286261
O O12 0.591053 0.903843 0.156995
O O13 0.405200 0.720918 0.746543
O O14 0.053040 0.761995 0.956757
O O15 0.000000 0.000000 0.000000
O O16 0.225773 0.300332 0.414846
O O17 0.223745 0.483656 0.540541
#
# Coordination Sequence:
#
# PCOD8025432 Si02
#       8
#     2   2   2   2   2   2   2   2
#     4  12  23  43  67  95 137 174 220 275 344 401
#     4  11  25  40  70  98 135 174 231 273 333 401
#     4  10  23  45  67 101 138 176 221 285 333 404
#     4  11  24  43  68 100 132 184 221 279 330 404
#     4  12  23  43  68 103 134 172 228 276 335 402
#     4  10  24  43  70  98 138 180 222 274 347 393
#     4  11  24  42  66 100 133 175 220 282 334 403
#     4  11  23  42  67  99 135 174 227 275 337 395
#
# _framework density 22.858604
#
# number of rings (size 3 to 8) (size 9 to 14) (size 15 to 20)
#    0.000    1.000    3.750    2.625    1.750    2.500 
#    0.000    3.750    0.000    0.000    0.000    0.000 
#    0.000    0.000    0.000    0.000    0.000    0.000 
#
# Total GULP energy -198256.247794 kJ/mol
# GULP energy per Si atom -12391.015487 kJ/mol
# Density = 2.280658 g / cm^3
# Si number density = 22.858604 Si / 1000 Ang^3
#
#
#
# Elastic Constant Matrix: (Units=GPa)
#
#
# Indices 1 2 3 4 5 6 
#
# 1 95.3139 30.3693 43.1627 6.3271 -29.0210 15.0364
# 2 30.3693 85.0037 45.8659 6.3037 -18.5827 9.0050
# 3 43.1627 45.8659 144.8660 6.1104 -32.2676 10.7839
# 4 6.3271 6.3037 6.1104 34.5031 1.6394 3.2729
# 5 -29.0210 -18.5827 -32.2676 1.6394 20.8949 -1.3990
# 6 15.0364 9.0050 10.7839 3.2729 -1.3990 27.3216
#
#
#
# Elastic Compliance Matrix: (Units=1/GPa)
#
#
# Indices 1 2 3 4 5 6 
#
# 1 0.021425 -0.000171 0.001764 -0.004762 0.032019 -0.010221
# 2 -0.000171 0.015879 -0.002326 -0.002625 0.010272 -0.003381
# 3 0.001764 -0.002326 0.011517 -0.002465 0.018125 -0.003527
# 4 -0.004762 -0.002625 -0.002465 0.031505 -0.015233 -0.000095
# 5 0.032019 0.010272 0.018125 -0.015233 0.129330 -0.019714
# 6 -0.010221 -0.003381 -0.003527 -0.000095 -0.019714 0.043735
#
#
# Mechanical properties :
#
#
# Convention : Reuss Voigt Hill
#
# Bulk Modulus (GPa) = 21.11689 62.66436 41.89063
# Shear Modulus (GPa) = 18.47464 30.26296 24.36880
#
# Velocity S-wave (km/s) = 2.84599 3.64252 3.26861
# Velocity P-wave (km/s) = 4.47858 6.72042 5.71059
#
# Compressibility (1/GPa) = 0.04735546
#
# Stress axis : x y z
#
# Youngs Moduli (GPa) = 46.67513 62.97754 86.82473
#
# Poissons Ratio (x) = 0.01076 -0.15318
# Poissons Ratio (y) = 0.00797 0.20196
# Poissons Ratio (z) = -0.08234 0.14649
#
# Static dielectric constant tensor:
#      x y z
#    x 4.044660 -0.174930 -0.059320 
#    y -0.174930 4.120810 0.029880 
#    z -0.059320 0.029880 4.129680 
# 
# 
# High freq. dielectric constant tensor:
#      x y z
#    x 1.902670 -0.010790 -0.005440 
#    y -0.010790 1.897760 0.004620 
#    z -0.005440 0.004620 1.906000 
# 
# From -- ./inp_files/263152.got.cif
#   From: 2010.06.25/outbox.cif.g09.slc.cpg/sg2_132_cif.got.tgz:263152.got - 2010.06.27 13:26:56.
