data_PCOD8025612
_publ_section_title
;
Structure prediction by ZEFSAII (Michael W. Deem and Ramdas Pophale) SiO2 
 PCOD8025612
Probable space group: P -1
;
_chemical_formula_sum "Si O2"
_cell_formula_units_Z 16
_cell_length_a 8.606264
_cell_length_b 12.715529
_cell_length_c 18.517660
_cell_angle_alpha 143.190176
_cell_angle_beta 131.964544
_cell_angle_gamma 75.132146
_cell_volume 704.229474
_symmetry_space_group_name_H-M "P -1"
_symmetry_group_IT_number 2
_symmetry_cell_setting 'triclinic'
loop_
_space_group_symop_operation_xyz
x,y,z
-x,-y,-z
loop_
_atom_site_type_symbol
_atom_site_label
_atom_site_fract_x
_atom_site_fract_y
_atom_site_fract_z
Si Si1 0.944349 0.527500 0.171184
Si Si2 0.756513 0.004488 0.418670
Si Si3 0.725822 0.989952 0.094469
Si Si4 0.687120 0.577281 0.826751
Si Si5 0.681096 0.648193 0.535774
Si Si6 0.300486 0.149319 0.205500
Si Si7 0.483500 0.114900 0.875928
Si Si8 0.270406 0.558467 0.087588
O O1 0.176512 0.765066 0.407644
O O2 0.052030 0.395375 0.103246
O O3 0.728253 0.378126 0.084347
O O4 0.804432 0.563285 0.081106
O O5 0.700084 0.985194 0.306145
O O6 0.504984 0.820900 0.289189
O O7 0.000000 0.000000 0.500000
O O8 0.683098 0.911875 0.121317
O O9 0.730503 0.807877 0.951460
O O10 0.006791 0.241534 0.313119
O O11 0.500000 0.000000 0.000000
O O12 0.434217 0.365734 0.587117
O O13 0.629301 0.523228 0.864811
O O14 0.494446 0.394195 0.365294
O O15 0.676847 0.810995 0.678945
O O16 0.406197 0.017418 0.143298
O O17 0.000000 0.000000 0.000000
O O18 0.000000 0.500000 0.000000
#
# Coordination Sequence:
#
# PCOD8025612 Si02
#       8
#     2   2   2   2   2   2   2   2
#     4  10  23  45  70  97 136 177 229 279 333 405
#     4  11  26  42  69 103 137 179 234 281 346 417
#     4  12  28  44  64 101 142 180 225 282 344 410
#     4  11  24  42  70  98 132 181 228 279 343 402
#     4  11  24  41  70  96 133 173 230 281 336 403
#     4  11  23  45  70  98 129 177 233 285 339 406
#     4  11  25  42  67  96 138 179 221 279 345 403
#     4   9  23  43  67 100 138 177 224 287 339 407
#
# _framework density 22.719867000000001
#
# number of rings (size 3 to 8) (size 9 to 14) (size 15 to 20)
#    0.000    1.250    0.000    4.500    5.250   10.000 
#    0.000    0.000    0.000    0.000    0.000    0.000 
#    0.000    0.000    0.000    0.000    0.000    0.000 
#
# Total GULP energy -198333.598122 kJ/mol
# GULP energy per Si atom -12395.849883 kJ/mol
# Density = 2.266816 g / cm^3
# Si number density = 22.719867 Si / 1000 Ang^3
#
#
#
# Elastic Constant Matrix: (Units=GPa)
#
#
# Indices 1 2 3 4 5 6 
#
# 1 97.6959 31.6104 55.1465 3.8892 10.9667 9.8558
# 2 31.6104 79.3329 50.6204 -14.1162 -4.8870 2.3890
# 3 55.1465 50.6204 171.2937 -2.3263 13.1536 8.5541
# 4 3.8892 -14.1162 -2.3263 34.8836 0.1270 3.5373
# 5 10.9667 -4.8870 13.1536 0.1270 38.4279 4.9587
# 6 9.8558 2.3890 8.5541 3.5373 4.9587 35.7046
#
#
#
# Elastic Compliance Matrix: (Units=1/GPa)
#
#
# Indices 1 2 3 4 5 6 
#
# 1 0.014028 -0.004491 -0.002876 -0.003349 -0.003309 -0.002091
# 2 -0.004491 0.018967 -0.004431 0.007910 0.005246 -0.000480
# 3 -0.002876 -0.004431 0.008277 -0.000865 -0.002514 -0.000458
# 4 -0.003349 0.007910 -0.000865 0.032475 0.002533 -0.002967
# 5 -0.003309 0.005246 -0.002514 0.002533 0.028886 -0.003098
# 6 -0.002091 -0.000480 -0.000458 -0.002967 -0.003098 0.029451
#
#
# Mechanical properties :
#
#
# Convention : Reuss Voigt Hill
#
# Bulk Modulus (GPa) = 56.57152 69.23077 62.90114
# Shear Modulus (GPa) = 30.94587 35.86624 33.40606
#
# Velocity S-wave (km/s) = 3.69462 3.97751 3.83867
# Velocity P-wave (km/s) = 6.56916 7.18552 6.88424
#
# Compressibility (1/GPa) = 0.01767674
#
# Stress axis : x y z
#
# Youngs Moduli (GPa) = 71.28494 52.72354 120.81263
#
# Poissons Ratio (x) = 0.23680 0.34745
# Poissons Ratio (y) = 0.32017 0.53527
# Poissons Ratio (z) = 0.20501 0.23359
#
# Static dielectric constant tensor:
#      x y z
#    x 3.966770 0.314930 0.042790 
#    y 0.314930 4.337850 -0.256690 
#    z 0.042790 -0.256690 4.169270 
# 
# 
# High freq. dielectric constant tensor:
#      x y z
#    x 1.896620 0.015940 0.001430 
#    y 0.015940 1.902440 -0.012270 
#    z 0.001430 -0.012270 1.906190 
# 
# From -- ./inp_files/135537.got.cif
#   From: 2010.06.25/outbox.cif.g09.slc.cpg/sg2_68_cif.got.tgz:135537.got - 2010.06.27 13:26:56.
