data_PCOD8025318
_publ_section_title
;
Structure prediction by ZEFSAII (Michael W. Deem and Ramdas Pophale) SiO2 
 PCOD8025318
Probable space group: P -1
;
_chemical_formula_sum "Si O2"
_cell_formula_units_Z 16
_cell_length_a 5.583719
_cell_length_b 23.727602
_cell_length_c 11.141342
_cell_angle_alpha 150.223901
_cell_angle_beta 109.397613
_cell_angle_gamma 62.699626
_cell_volume 644.074741
_symmetry_space_group_name_H-M "P -1"
_symmetry_group_IT_number 2
_symmetry_cell_setting 'triclinic'
loop_
_space_group_symop_operation_xyz
x,y,z
-x,-y,-z
loop_
_atom_site_type_symbol
_atom_site_label
_atom_site_fract_x
_atom_site_fract_y
_atom_site_fract_z
Si Si1 0.124321 0.870219 0.838305
Si Si2 0.460033 0.387334 0.219954
Si Si3 0.491639 0.479397 0.145660
Si Si4 0.946670 0.661878 0.313298
Si Si5 0.805102 0.924528 0.361959
Si Si6 0.664864 0.691462 0.556176
Si Si7 0.980469 0.205776 0.072713
Si Si8 0.952194 0.693071 0.111056
O O1 0.451307 0.827275 0.799175
O O2 0.026112 0.883911 0.985873
O O3 0.044838 0.770659 0.568408
O O4 0.000000 0.000000 0.000000
O O5 0.500000 0.500000 0.500000
O O6 0.516712 0.392841 0.101029
O O7 0.676446 0.261039 0.070905
O O8 0.163666 0.371547 0.134962
O O9 0.551343 0.596166 0.421095
O O10 0.198457 0.527642 0.118507
O O11 0.745014 0.391867 0.948537
O O12 0.711686 0.662343 0.368364
O O13 0.804218 0.696985 0.223319
O O14 0.938505 0.824332 0.303325
O O15 0.500000 0.000000 0.500000
O O16 0.000000 0.000000 0.500000
O O17 0.796893 0.860217 0.114379
O O18 0.945405 0.682754 0.652194
#
# Coordination Sequence:
#
# PCOD8025318 Si02
#       8
#     2   2   2   2   2   2   2   2
#     4  10  24  43  75 103 138 191 250 318 378 449
#     4  12  25  42  72 110 149 197 253 305 388 462
#     4  11  23  43  70 104 145 192 246 311 382 460
#     4  10  24  45  66 108 146 191 254 308 383 458
#     4  12  30  51  75 111 154 206 259 321 386 461
#     4  10  23  44  73 105 144 192 240 323 375 456
#     4  11  25  46  72 104 149 188 255 309 381 456
#     4  12  27  45  74 105 151 202 247 319 388 456
#
# _framework density 24.841835
#
# number of rings (size 3 to 8) (size 9 to 14) (size 15 to 20)
#    0.000    1.000    1.250    4.875    7.000    8.000 
#    0.000    0.000    0.000    0.000    0.000    0.000 
#    0.000    0.000    0.000    0.000    0.000    0.000 
#
# Total GULP energy -198223.307011 kJ/mol
# GULP energy per Si atom -12388.956688 kJ/mol
# Density = 2.478529 g / cm^3
# Si number density = 24.841835 Si / 1000 Ang^3
#
#
#
# Elastic Constant Matrix: (Units=GPa)
#
#
# Indices 1 2 3 4 5 6 
#
# 1 116.1605 51.5609 30.7408 2.4305 -14.9857 -10.5377
# 2 51.5609 170.0317 51.5486 7.1614 -6.8961 11.5600
# 3 30.7408 51.5486 73.2103 4.4245 -18.4560 -3.4638
# 4 2.4305 7.1614 4.4245 48.3228 -1.0526 -2.8613
# 5 -14.9857 -6.8961 -18.4560 -1.0526 46.3242 -3.1329
# 6 -10.5377 11.5600 -3.4638 -2.8613 -3.1329 40.9372
#
#
#
# Elastic Compliance Matrix: (Units=1/GPa)
#
#
# Indices 1 2 3 4 5 6 
#
# 1 0.011080 -0.003010 -0.001686 0.000327 0.002728 0.003791
# 2 -0.003010 0.008688 -0.005532 -0.000909 -0.002170 -0.003926
# 3 -0.001686 -0.005532 0.020191 -0.000597 0.006887 0.003322
# 4 0.000327 -0.000909 -0.000597 0.020980 0.000330 0.001782
# 5 0.002728 -0.002170 0.006887 0.000330 0.025158 0.003846
# 6 0.003791 -0.003926 0.003322 0.001782 0.003846 0.027212
#
#
# Mechanical properties :
#
#
# Convention : Reuss Voigt Hill
#
# Bulk Modulus (GPa) = 51.26821 69.67814 60.47317
# Shear Modulus (GPa) = 35.64673 42.15362 38.90018
#
# Velocity S-wave (km/s) = 3.79218 4.12379 3.96146
# Velocity P-wave (km/s) = 6.31323 7.12627 6.73204
#
# Compressibility (1/GPa) = 0.01950526
#
# Stress axis : x y z
#
# Youngs Moduli (GPa) = 90.25365 115.09969 49.52588
#
# Poissons Ratio (x) = 0.34641 0.08349
# Poissons Ratio (y) = 0.27163 0.27396
# Poissons Ratio (z) = 0.15215 0.63669
#
# Static dielectric constant tensor:
#      x y z
#    x 4.839040 0.014460 -0.001900 
#    y 0.014460 4.556280 -0.015980 
#    z -0.001900 -0.015980 4.480990 
# 
# 
# High freq. dielectric constant tensor:
#      x y z
#    x 2.001720 0.009530 0.007870 
#    y 0.009530 1.994890 -0.006150 
#    z 0.007870 -0.006150 1.981690 
# 
# From -- ./inp_files/364038.got.cif
#   From: 2010.06.25/outbox.cif.g09.slc.cpg/sg2_183_cif.got.tgz:364038.got - 2010.06.27 13:26:56.
