data_PCOD8025387
_publ_section_title
;
Structure prediction by ZEFSAII (Michael W. Deem and Ramdas Pophale) SiO2 
 PCOD8025387
Probable space group: P -1
;
_chemical_formula_sum "Si O2"
_cell_formula_units_Z 16
_cell_length_a 21.865634
_cell_length_b 8.006839
_cell_length_c 9.936485
_cell_angle_alpha 78.443539
_cell_angle_beta 48.887425
_cell_angle_gamma 40.840051
_cell_volume 683.720728
_symmetry_space_group_name_H-M "P -1"
_symmetry_group_IT_number 2
_symmetry_cell_setting 'triclinic'
loop_
_space_group_symop_operation_xyz
x,y,z
-x,-y,-z
loop_
_atom_site_type_symbol
_atom_site_label
_atom_site_fract_x
_atom_site_fract_y
_atom_site_fract_z
Si Si1 0.828188 0.752484 0.567587
Si Si2 0.241866 0.173423 0.639847
Si Si3 0.541852 0.832514 0.332831
Si Si4 0.551504 0.041189 0.032048
Si Si5 0.232191 0.757101 0.370384
Si Si6 0.664558 0.276457 0.253483
Si Si7 0.876272 0.991475 0.787880
Si Si8 0.047490 0.841475 0.811830
O O1 0.765781 0.880463 0.489126
O O2 0.994156 0.370769 0.389868
O O3 0.832228 0.936620 0.587211
O O4 0.711103 0.846104 0.804513
O O5 0.121281 0.530852 0.795187
O O6 0.408742 0.952797 0.448690
O O7 0.212570 0.056480 0.790523
O O8 0.674704 0.461529 0.241158
O O9 0.500000 0.000000 0.500000
O O10 0.588162 0.885315 0.145194
O O11 0.414947 0.422407 0.178023
O O12 0.500000 0.000000 0.000000
O O13 0.166995 0.757762 0.584347
O O14 0.175859 0.794166 0.296625
O O15 0.500000 0.500000 0.500000
O O16 0.723640 0.157382 0.031260
O O17 0.924003 0.022276 0.843593
O O18 0.000000 0.000000 0.000000
#
# Coordination Sequence:
#
# PCOD8025387 Si02
#       8
#     2   2   2   2   2   2   2   2
#     4  11  26  44  74 104 146 187 238 294 361 421
#     4  10  23  45  65 102 144 185 231 292 362 418
#     4  11  24  42  70 104 137 183 241 298 347 422
#     4  12  23  47  73 101 146 188 238 291 359 426
#     4  12  26  46  75 103 143 190 246 290 356 426
#     4  10  25  43  72 102 144 181 232 291 361 418
#     4  11  26  48  70 105 144 189 234 299 356 426
#     4  11  26  45  73 105 142 189 237 292 359 426
#
# _framework density 23.401368999999999
#
# number of rings (size 3 to 8) (size 9 to 14) (size 15 to 20)
#    0.000    1.000    2.500    2.625    8.750    4.000 
#    0.000    0.000    0.000    0.000    0.000    0.000 
#    0.000    0.000    0.000    0.000    0.000    0.000 
#
# Total GULP energy -198214.901490 kJ/mol
# GULP energy per Si atom -12388.431343 kJ/mol
# Density = 2.334811 g / cm^3
# Si number density = 23.401369 Si / 1000 Ang^3
#
#
#
# Elastic Constant Matrix: (Units=GPa)
#
#
# Indices 1 2 3 4 5 6 
#
# 1 64.2584 50.4766 38.3957 0.1348 14.0480 6.7677
# 2 50.4766 162.5424 77.8092 -20.3786 15.0672 9.8099
# 3 38.3957 77.8092 177.4600 -2.4709 9.4260 -0.0379
# 4 0.1348 -20.3786 -2.4709 41.3175 -11.2620 10.2727
# 5 14.0480 15.0672 9.4260 -11.2620 34.4540 0.5811
# 6 6.7677 9.8099 -0.0379 10.2727 0.5811 22.2462
#
#
#
# Elastic Compliance Matrix: (Units=1/GPa)
#
#
# Indices 1 2 3 4 5 6 
#
# 1 0.023520 -0.006057 -0.002080 -0.004838 -0.007919 -0.002047
# 2 -0.006057 0.010803 -0.003386 0.006967 0.001053 -0.006171
# 3 -0.002080 -0.003386 0.007567 -0.002122 -0.000488 0.003132
# 4 -0.004838 0.006967 -0.002122 0.035107 0.011288 -0.018110
# 5 -0.007919 0.001053 -0.000488 0.011288 0.035686 -0.004201
# 6 -0.002047 -0.006171 0.003132 -0.018110 -0.004201 0.056773
#
#
# Mechanical properties :
#
#
# Convention : Reuss Voigt Hill
#
# Bulk Modulus (GPa) = 53.07211 81.95819 67.51515
# Shear Modulus (GPa) = 25.15282 35.44213 30.29748
#
# Velocity S-wave (km/s) = 3.28204 3.89592 3.60208
# Velocity P-wave (km/s) = 6.09021 7.43885 6.79806
#
# Compressibility (1/GPa) = 0.01884229
#
# Stress axis : x y z
#
# Youngs Moduli (GPa) = 42.51658 92.57096 132.15504
#
# Poissons Ratio (x) = 0.56073 0.27491
# Poissons Ratio (y) = 0.25754 0.44750
# Poissons Ratio (z) = 0.08844 0.31346
#
# Static dielectric constant tensor:
#      x y z
#    x 4.096950 0.017070 0.042960 
#    y 0.017070 5.112160 -0.083020 
#    z 0.042960 -0.083020 4.493980 
# 
# 
# High freq. dielectric constant tensor:
#      x y z
#    x 1.902840 -0.000960 0.005020 
#    y -0.000960 1.951040 -0.002000 
#    z 0.005020 -0.002000 1.946530 
# 
# From -- ./inp_files/352174.got.cif
#   From: 2010.06.25/outbox.cif.g09.slc.cpg/sg2_177_cif.got.tgz:352174.got - 2010.06.27 13:26:56.
