data_PCOD8025968
_publ_section_title
;
Structure prediction by ZEFSAII (Michael W. Deem and Ramdas Pophale) SiO2 
 PCOD8025968
Probable space group: P -1
;
_chemical_formula_sum "Si O2"
_cell_formula_units_Z 16
_cell_length_a 11.486135
_cell_length_b 20.749187
_cell_length_c 8.882731
_cell_angle_alpha 42.028446
_cell_angle_beta 48.921203
_cell_angle_gamma 28.929300
_cell_volume 685.447304
_symmetry_space_group_name_H-M "P -1"
_symmetry_group_IT_number 2
_symmetry_cell_setting 'triclinic'
loop_
_space_group_symop_operation_xyz
x,y,z
-x,-y,-z
loop_
_atom_site_type_symbol
_atom_site_label
_atom_site_fract_x
_atom_site_fract_y
_atom_site_fract_z
Si Si1 0.997889 0.043320 0.263757
Si Si2 0.489699 0.890608 0.187648
Si Si3 0.784469 0.544665 0.035061
Si Si4 0.887807 0.899490 0.461147
Si Si5 0.397791 0.196403 0.417214
Si Si6 0.119100 0.647854 0.477822
Si Si7 0.045259 0.294848 0.019001
Si Si8 0.724911 0.363137 0.942003
O O1 0.256536 0.970972 0.151077
O O2 0.000000 0.000000 0.500000
O O3 0.971215 0.969969 0.293163
O O4 0.776036 0.224659 0.126004
O O5 0.516349 0.828881 0.437777
O O6 0.714053 0.756820 0.120782
O O7 0.500000 0.000000 0.000000
O O8 0.715526 0.498962 0.300511
O O9 0.855577 0.453854 0.982733
O O10 0.581905 0.713725 0.852542
O O11 0.000000 0.500000 0.000000
O O12 0.926625 0.817620 0.719000
O O13 0.035324 0.785642 0.393521
O O14 0.598354 0.034391 0.445798
O O15 0.128446 0.284335 0.483763
O O16 0.299757 0.585741 0.295853
O O17 0.956779 0.305627 0.911469
O O18 0.500000 0.500000 0.000000
#
# Coordination Sequence:
#
# PCOD8025968 Si02
#       8
#     2   2   2   2   2   2   2   2
#     4  12  23  44  67 105 143 171 234 292 346 407
#     4  12  20  39  72 104 132 177 231 293 337 403
#     4   9  23  43  61 100 143 174 225 287 338 415
#     4  11  23  42  73 102 140 181 225 295 351 407
#     4  11  19  39  72 104 138 179 232 285 342 413
#     4  10  23  47  67  98 143 183 237 277 352 418
#     4  11  22  44  70  97 135 185 232 279 353 410
#     4  12  26  44  70  98 139 187 229 281 355 418
#
# _framework density 23.342421999999999
#
# number of rings (size 3 to 8) (size 9 to 14) (size 15 to 20)
#    0.000    1.000    6.250    0.375    1.750    1.000 
#    4.500    3.750    0.000    0.000    0.000    0.000 
#    0.000    0.000    0.000    0.000    0.000    0.000 
#
# Total GULP energy -198262.561009 kJ/mol
# GULP energy per Si atom -12391.410063 kJ/mol
# Density = 2.328929 g / cm^3
# Si number density = 23.342422 Si / 1000 Ang^3
#
#
#
# Elastic Constant Matrix: (Units=GPa)
#
#
# Indices 1 2 3 4 5 6 
#
# 1 85.4065 26.3363 26.6527 -3.9578 -6.8126 10.6868
# 2 26.3363 107.7195 71.3520 11.7546 3.9509 11.4000
# 3 26.6527 71.3520 137.9695 -3.7812 11.5838 23.3867
# 4 -3.9578 11.7546 -3.7812 40.7571 3.7892 -0.6163
# 5 -6.8126 3.9509 11.5838 3.7892 32.1189 2.9254
# 6 10.6868 11.4000 23.3867 -0.6163 2.9254 34.8294
#
#
#
# Elastic Compliance Matrix: (Units=1/GPa)
#
#
# Indices 1 2 3 4 5 6 
#
# 1 0.013570 -0.002638 -0.001030 0.001600 0.003649 -0.002887
# 2 -0.002638 0.015710 -0.007995 -0.005607 0.000975 0.000855
# 3 -0.001030 -0.007995 0.012912 0.003680 -0.003839 -0.005349
# 4 0.001600 -0.005607 0.003680 0.026964 -0.003446 -0.000360
# 5 0.003649 0.000975 -0.003839 -0.003446 0.033739 -0.001756
# 6 -0.002887 0.000855 -0.005349 -0.000360 -0.001756 0.033050
#
#
# Mechanical properties :
#
#
# Convention : Reuss Voigt Hill
#
# Bulk Modulus (GPa) = 53.01062 64.41972 58.71517
# Shear Modulus (GPa) = 30.20034 35.32470 32.76252
#
# Velocity S-wave (km/s) = 3.60084 3.89437 3.75048
# Velocity P-wave (km/s) = 6.32830 6.91947 6.63048
#
# Compressibility (1/GPa) = 0.01886414
#
# Stress axis : x y z
#
# Youngs Moduli (GPa) = 73.69111 63.65398 77.44937
#
# Poissons Ratio (x) = 0.16794 0.07979
# Poissons Ratio (y) = 0.19442 0.61923
# Poissons Ratio (z) = 0.07592 0.50893
#
# Static dielectric constant tensor:
#      x y z
#    x 4.842480 -0.252700 -0.047600 
#    y -0.252700 4.437920 -0.088560 
#    z -0.047600 -0.088560 4.564150 
# 
# 
# High freq. dielectric constant tensor:
#      x y z
#    x 1.923740 -0.001600 0.002740 
#    y -0.001600 1.915530 -0.009070 
#    z 0.002740 -0.009070 1.928900 
# 
# From -- ./inp_files/282697.got.cif
#   From: 2010.06.25/outbox.cif.g09.slc.cpg/sg2_142_cif.got.tgz:282697.got - 2010.06.27 13:26:56.
