data_PCOD8025878
_publ_section_title
;
Structure prediction by ZEFSAII (Michael W. Deem and Ramdas Pophale) SiO2 
 PCOD8025878
Probable space group: P -1
;
_chemical_formula_sum "Si O2"
_cell_formula_units_Z 14
_cell_length_a 20.904126
_cell_length_b 8.579602
_cell_length_c 18.688725
_cell_angle_alpha 43.178080
_cell_angle_beta 161.186459
_cell_angle_gamma 146.651225
_cell_volume 557.344686
_symmetry_space_group_name_H-M "P -1"
_symmetry_group_IT_number 2
_symmetry_cell_setting 'triclinic'
loop_
_space_group_symop_operation_xyz
x,y,z
-x,-y,-z
loop_
_atom_site_type_symbol
_atom_site_label
_atom_site_fract_x
_atom_site_fract_y
_atom_site_fract_z
Si Si1 0.098249 0.009826 0.357248
Si Si2 0.268864 0.667365 0.684562
Si Si3 0.388100 0.374488 0.672407
Si Si4 0.756814 0.477127 0.764633
Si Si5 0.622686 0.126772 0.510807
Si Si6 0.145381 0.347315 0.030729
Si Si7 0.487730 0.422518 0.913611
O O1 0.132829 0.141361 0.430377
O O2 0.205713 0.260295 0.326574
O O3 0.284598 0.922571 0.575508
O O4 0.786407 0.737541 0.110208
O O5 0.291289 0.475080 0.716341
O O6 0.000000 0.500000 0.500000
O O7 0.498109 0.779527 0.948021
O O8 0.448185 0.678608 0.658210
O O9 0.370095 0.235185 0.777006
O O10 0.629492 0.469390 0.850167
O O11 0.486469 0.152887 0.562558
O O12 0.731478 0.499636 0.813990
O O13 0.000000 0.500000 0.000000
O O14 0.935514 0.365928 0.771522
O O15 0.500000 0.000000 0.500000
O O16 0.000000 0.000000 0.000000
#
# Coordination Sequence:
#
# PCOD8025878 Si02
#       7
#     2   2   2   2   2   2   2
#     4  11  23  41  66  99 128 168 226 260 323 390
#     4   9  22  47  71  97 125 162 214 270 336 402
#     4  12  26  41  63  99 130 172 219 267 320 386
#     4  12  23  40  65  91 136 187 217 268 319 370
#     4  12  23  44  58  89 137 175 225 268 312 378
#     4  12  24  40  61  91 134 176 225 265 311 379
#     4  10  23  46  71  92 132 166 204 278 340 387
#
# _framework density 25.119105999999999
#
# number of rings (size 3 to 8) (size 9 to 14) (size 15 to 20)
#    0.000    0.857    4.286    1.714    0.000   10.857 
#    0.000    6.429    0.000    0.000    0.000    0.000 
#    0.000    0.000    0.000    0.000    0.000    0.000 
#
# Total GULP energy -173484.446070 kJ/mol
# GULP energy per Si atom -12391.746148 kJ/mol
# Density = 2.506193 g / cm^3
# Si number density = 25.119106 Si / 1000 Ang^3
#
#
#
# Elastic Constant Matrix: (Units=GPa)
#
#
# Indices 1 2 3 4 5 6 
#
# 1 160.5078 14.2634 67.3893 -13.0821 -17.9061 -18.5118
# 2 14.2634 71.4999 43.7883 -23.0548 6.2244 -13.1893
# 3 67.3893 43.7883 132.8904 -19.8300 -9.8607 -12.7186
# 4 -13.0821 -23.0548 -19.8300 52.7680 -11.4381 -3.1100
# 5 -17.9061 6.2244 -9.8607 -11.4381 48.9997 -3.3642
# 6 -18.5118 -13.1893 -12.7186 -3.1100 -3.3642 25.8696
#
#
#
# Elastic Compliance Matrix: (Units=1/GPa)
#
#
# Indices 1 2 3 4 5 6 
#
# 1 0.009116 0.002609 -0.004169 0.002936 0.003298 0.006585
# 2 0.002609 0.022152 -0.006326 0.008513 -0.000389 0.011024
# 3 -0.004169 -0.006326 0.012057 0.001172 0.001988 0.000119
# 4 0.002936 0.008513 0.001172 0.026021 0.007061 0.011064
# 5 0.003298 -0.000389 0.001988 0.007061 0.024201 0.007135
# 6 0.006585 0.011024 0.000119 0.011064 0.007135 0.051305
#
#
# Mechanical properties :
#
#
# Convention : Reuss Voigt Hill
#
# Bulk Modulus (GPa) = 36.29301 68.42000 52.35651
# Shear Modulus (GPa) = 29.44494 41.49126 35.46810
#
# Velocity S-wave (km/s) = 3.42747 4.06862 3.76173
# Velocity P-wave (km/s) = 5.49028 7.02630 6.30524
#
# Compressibility (1/GPa) = 0.02755351
#
# Stress axis : x y z
#
# Youngs Moduli (GPa) = 109.70268 45.14222 82.93707
#
# Poissons Ratio (x) = -0.11779 0.34578
# Poissons Ratio (y) = -0.28624 0.52465
# Poissons Ratio (z) = 0.45737 0.28557
#
# Static dielectric constant tensor:
#      x y z
#    x 4.983780 -0.053180 0.172910 
#    y -0.053180 4.632130 -0.385580 
#    z 0.172910 -0.385580 5.067300 
# 
# 
# High freq. dielectric constant tensor:
#      x y z
#    x 2.013680 -0.002680 -0.002680 
#    y -0.002680 1.982970 -0.015560 
#    z -0.002680 -0.015560 2.019210 
# 
# From -- ./inp_files/577277.got.cif
#   From: 2010.06.25/outbox.cif.g09.slc.cpg/sg2_289_cif.got.tgz:577277.got - 2010.06.27 13:26:56.
