data_PCOD8025504
_publ_section_title
;
Structure prediction by ZEFSAII (Michael W. Deem and Ramdas Pophale) SiO2 
 PCOD8025504
Probable space group: P -1
;
_chemical_formula_sum "Si O2"
_cell_formula_units_Z 12
_cell_length_a 12.428477
_cell_length_b 7.592867
_cell_length_c 6.391649
_cell_angle_alpha 69.382646
_cell_angle_beta 102.267453
_cell_angle_gamma 71.704705
_cell_volume 499.334835
_symmetry_space_group_name_H-M "P -1"
_symmetry_group_IT_number 2
_symmetry_cell_setting 'triclinic'
loop_
_space_group_symop_operation_xyz
x,y,z
-x,-y,-z
loop_
_atom_site_type_symbol
_atom_site_label
_atom_site_fract_x
_atom_site_fract_y
_atom_site_fract_z
Si Si1 0.750545 0.643156 0.216385
Si Si2 0.351247 0.990515 0.283254
Si Si3 0.413745 0.389192 0.483563
Si Si4 0.956585 0.334970 0.147429
Si Si5 0.196118 0.081833 0.569393
Si Si6 0.764188 0.242858 0.945137
O O1 0.664921 0.577721 0.352728
O O2 0.850122 0.442561 0.227937
O O3 0.824715 0.738765 0.346591
O O4 0.663979 0.816762 0.947555
O O5 0.496617 0.851218 0.422640
O O6 0.271103 0.872484 0.210083
O O7 0.299580 0.076690 0.454321
O O8 0.500000 0.500000 0.500000
O O9 0.326144 0.509186 0.202082
O O10 0.068473 0.141706 0.375782
O O11 0.900008 0.236336 0.987286
O O12 0.000000 0.500000 0.000000
O O13 0.244155 0.857648 0.793994
#
# Coordination Sequence:
#
# PCOD8025504 Si02
#       6
#     2   2   2   2   2   2
#     4  11  24  45  68 100 134 173 224 270 332 390
#     4  10  23  46  69  97 135 172 225 270 332 390
#     4  10  23  45  68  98 135 174 220 273 327 396
#     4  12  24  45  69  98 135 175 222 274 329 392
#     4  11  24  45  68 102 131 179 217 274 332 392
#     4  10  25  43  66 100 133 178 218 269 330 393
#
# _framework density 24.031969
#
# number of rings (size 3 to 8) (size 9 to 14) (size 15 to 20)
#    0.000    1.333    1.667    2.500    4.667    2.000 
#    6.000    0.000    0.000    0.000    0.000    0.000 
#    0.000    0.000    0.000    0.000    0.000    0.000 
#
# Total GULP energy -148764.353104 kJ/mol
# GULP energy per Si atom -12397.029425 kJ/mol
# Density = 2.397727 g / cm^3
# Si number density = 24.031969 Si / 1000 Ang^3
#
#
#
# Elastic Constant Matrix: (Units=GPa)
#
#
# Indices 1 2 3 4 5 6 
#
# 1 109.0155 18.0750 48.0129 -18.5182 -17.4506 -17.3708
# 2 18.0750 69.2981 31.6145 -6.1258 -6.7042 -24.9033
# 3 48.0129 31.6145 161.9290 -43.0174 -1.3523 -21.9726
# 4 -18.5182 -6.1258 -43.0174 32.1743 -4.3553 4.9518
# 5 -17.4506 -6.7042 -1.3523 -4.3553 42.6686 -6.0248
# 6 -17.3708 -24.9033 -21.9726 4.9518 -6.0248 51.4802
#
#
#
# Elastic Compliance Matrix: (Units=1/GPa)
#
#
# Indices 1 2 3 4 5 6 
#
# 1 0.012349 -0.000101 -0.001790 0.004955 0.005989 0.003578
# 2 -0.000101 0.019099 -0.002724 -0.000845 0.004000 0.008592
# 3 -0.001790 -0.002724 0.010866 0.012835 0.000716 0.001565
# 4 0.004955 -0.000845 0.012835 0.051592 0.007949 0.002709
# 5 0.005989 0.004000 0.000716 0.007949 0.028310 0.006810
# 6 0.003578 0.008592 0.001565 0.002709 0.006810 0.025993
#
#
# Mechanical properties :
#
#
# Convention : Reuss Voigt Hill
#
# Bulk Modulus (GPa) = 30.22579 59.51637 44.87108
# Shear Modulus (GPa) = 29.67935 41.43395 35.55665
#
# Velocity S-wave (km/s) = 3.51806 4.15675 3.85067
# Velocity P-wave (km/s) = 5.39509 6.91790 6.20340
#
# Compressibility (1/GPa) = 0.03308433
#
# Stress axis : x y z
#
# Youngs Moduli (GPa) = 80.98124 52.35746 92.02792
#
# Poissons Ratio (x) = 0.00529 0.16471
# Poissons Ratio (y) = 0.00819 0.25069
# Poissons Ratio (z) = 0.14494 0.14263
#
# Static dielectric constant tensor:
#      x y z
#    x 4.706580 -0.197530 0.439090 
#    y -0.197530 4.493560 -0.490370 
#    z 0.439090 -0.490370 4.921520 
# 
# 
# High freq. dielectric constant tensor:
#      x y z
#    x 1.962120 0.015280 0.012480 
#    y 0.015280 1.947200 -0.017830 
#    z 0.012480 -0.017830 1.965030 
# 
# From -- ./inp_files/24283.got.cif
#   From: 2010.06.25/outbox.cif.g09.slc.cpg/sg2_13_cif.got.tgz:24283.got - 2010.06.27 13:26:56.
