data_PCOD8025297
_publ_section_title
;
Structure prediction by ZEFSAII (Michael W. Deem and Ramdas Pophale) SiO2 
 PCOD8025297
Probable space group: P -1
;
_chemical_formula_sum "Si O2"
_cell_formula_units_Z 14
_cell_length_a 11.834064
_cell_length_b 8.358936
_cell_length_c 14.067816
_cell_angle_alpha 33.265715
_cell_angle_beta 62.307658
_cell_angle_gamma 54.289703
_cell_volume 618.948766
_symmetry_space_group_name_H-M "P -1"
_symmetry_group_IT_number 2
_symmetry_cell_setting 'triclinic'
loop_
_space_group_symop_operation_xyz
x,y,z
-x,-y,-z
loop_
_atom_site_type_symbol
_atom_site_label
_atom_site_fract_x
_atom_site_fract_y
_atom_site_fract_z
Si Si1 0.607094 0.779433 0.145796
Si Si2 0.224524 0.123575 0.618856
Si Si3 0.932672 0.277146 0.705665
Si Si4 0.071200 0.247958 0.360727
Si Si5 0.631255 0.124153 0.508478
Si Si6 0.086897 0.348253 0.948758
Si Si7 0.432208 0.868688 0.821700
O O1 0.561973 0.507967 0.341547
O O2 0.605447 0.989914 0.130603
O O3 0.765937 0.613006 0.126690
O O4 0.500000 0.000000 0.000000
O O5 0.180193 0.506116 0.435859
O O6 0.079195 0.074933 0.695610
O O7 0.331634 0.960103 0.574179
O O8 0.288047 0.975051 0.768729
O O9 0.954410 0.525164 0.649078
O O10 0.874144 0.029331 0.892124
O O11 0.234919 0.024653 0.401698
O O12 0.000000 0.000000 0.500000
O O13 0.017683 0.487184 0.176515
O O14 0.523838 0.991623 0.657728
O O15 0.000000 0.500000 0.000000
O O16 0.500000 0.500000 0.000000
#
# Coordination Sequence:
#
# PCOD8025297 Si02
#       7
#     2   2   2   2   2   2   2
#     4  12  28  47  69 104 146 185 237 286 356 422
#     4  10  23  44  72  99 136 175 237 285 357 412
#     4  10  24  42  74 102 137 180 230 298 348 417
#     4  11  24  45  70 101 141 179 238 287 356 417
#     4  11  25  46  70 100 139 187 228 295 350 424
#     4  12  27  43  75 104 140 185 237 292 349 419
#     4  12  28  44  71 100 140 188 234 286 354 423
#
# _framework density 22.618997
#
# number of rings (size 3 to 8) (size 9 to 14) (size 15 to 20)
#    0.000    0.857    1.429    3.857   14.000    0.000 
#    0.000    0.000    0.000    0.000    0.000    0.000 
#    0.000    0.000    0.000    0.000    0.000    0.000 
#
# Total GULP energy -173476.717048 kJ/mol
# GULP energy per Si atom -12391.194075 kJ/mol
# Density = 2.256751 g / cm^3
# Si number density = 22.618997 Si / 1000 Ang^3
#
#
#
# Elastic Constant Matrix: (Units=GPa)
#
#
# Indices 1 2 3 4 5 6 
#
# 1 82.7941 19.2093 48.6653 -7.2083 29.9571 -0.2421
# 2 19.2093 97.0223 17.7564 0.9291 5.6752 2.5140
# 3 48.6653 17.7564 183.4275 -20.3734 21.0856 0.9999
# 4 -7.2083 0.9291 -20.3734 36.5248 -2.2012 2.1580
# 5 29.9571 5.6752 21.0856 -2.2012 63.9300 -0.7042
# 6 -0.2421 2.5140 0.9999 2.1580 -0.7042 28.3637
#
#
#
# Elastic Compliance Matrix: (Units=1/GPa)
#
#
# Indices 1 2 3 4 5 6 
#
# 1 0.017157 -0.002396 -0.003432 0.001118 -0.006654 0.000230
# 2 -0.002396 0.010899 -0.000559 -0.000992 0.000296 -0.000884
# 3 -0.003432 -0.000559 0.006824 0.003142 -0.000490 -0.000472
# 4 0.001118 -0.000992 0.003142 0.029482 -0.000482 -0.002268
# 5 -0.006654 0.000296 -0.000490 -0.000482 0.018884 0.000440
# 6 0.000230 -0.000884 -0.000472 -0.002268 0.000440 0.035537
#
#
# Mechanical properties :
#
#
# Convention : Reuss Voigt Hill
#
# Bulk Modulus (GPa) = 45.23658 59.38954 52.31306
# Shear Modulus (GPa) = 35.99065 44.27124 40.13095
#
# Velocity S-wave (km/s) = 3.99327 4.42889 4.21671
# Velocity P-wave (km/s) = 6.42685 7.24341 6.84731
#
# Compressibility (1/GPa) = 0.02210600
#
# Stress axis : x y z
#
# Youngs Moduli (GPa) = 58.28499 91.75439 146.53601
#
# Poissons Ratio (x) = 0.21986 0.50294
# Poissons Ratio (y) = 0.13966 0.08186
# Poissons Ratio (z) = 0.20005 0.05125
#
# Static dielectric constant tensor:
#      x y z
#    x 1.152400 0.020420 -2.948750 
#    y 0.020420 3.979990 -0.107820 
#    z -2.948750 -0.107820 1.164000 
# 
# 
# High freq. dielectric constant tensor:
#      x y z
#    x 1.887870 -0.004280 0.012400 
#    y -0.004280 1.893570 -0.005380 
#    z 0.012400 -0.005380 1.918550 
# 
# From -- ./inp_files/158450.got.cif
#   From: 2010.06.25/outbox.cif.g09.slc.cpg/sg2_80_cif.got.tgz:158450.got - 2010.06.27 13:26:56.
