data_PCOD8025947
_publ_section_title
;
Structure prediction by ZEFSAII (Michael W. Deem and Ramdas Pophale) SiO2 
 PCOD8025947
Probable space group: P -1
;
_chemical_formula_sum "Si O2"
_cell_formula_units_Z 14
_cell_length_a 12.246681
_cell_length_b 22.167053
_cell_length_c 9.418887
_cell_angle_alpha 37.796013
_cell_angle_beta 53.890822
_cell_angle_gamma 27.384066
_cell_volume 661.070770
_symmetry_space_group_name_H-M "P -1"
_symmetry_group_IT_number 2
_symmetry_cell_setting 'triclinic'
loop_
_space_group_symop_operation_xyz
x,y,z
-x,-y,-z
loop_
_atom_site_type_symbol
_atom_site_label
_atom_site_fract_x
_atom_site_fract_y
_atom_site_fract_z
Si Si1 0.826574 0.067530 0.133262
Si Si2 0.766006 0.284870 0.347270
Si Si3 0.209748 0.571790 0.168262
Si Si4 0.964748 0.467278 0.852429
Si Si5 0.461922 0.939385 0.757005
Si Si6 0.677625 0.512726 0.204691
Si Si7 0.033102 0.305424 0.577651
O O1 0.669989 0.069552 0.202452
O O2 0.626847 0.275413 0.948799
O O3 0.004897 0.931791 0.384542
O O4 0.000000 0.000000 0.000000
O O5 0.513454 0.378185 0.331668
O O6 0.709978 0.390164 0.327603
O O7 0.855946 0.292003 0.129433
O O8 0.146156 0.511876 0.244213
O O9 0.038344 0.685899 0.227284
O O10 0.896322 0.623852 0.609833
O O11 0.831865 0.504347 0.024440
O O12 0.271179 0.260730 0.006816
O O13 0.500000 0.000000 0.500000
O O14 0.285011 0.088380 0.742864
O O15 0.792293 0.430873 0.426232
#
# Coordination Sequence:
#
# PCOD8025947 Si02
#       7
#     2   2   2   2   2   2   2
#     4  12  25  40  69 108 128 165 228 285 324 385
#     4  10  23  47  64  92 137 175 214 268 334 396
#     4  10  24  43  65  91 138 180 210 265 334 401
#     4  11  23  43  63  99 132 173 220 268 333 393
#     4  12  23  41  68 100 135 169 218 281 332 384
#     4  11  22  41  72  96 127 174 219 277 333 380
#     4  12  22  39  68  98 128 169 223 272 325 388
#
# _framework density 21.177761
#
# number of rings (size 3 to 8) (size 9 to 14) (size 15 to 20)
#    0.000    0.857    4.286    3.429    2.000    1.714 
#    0.000   10.714    0.000    0.000    0.000    0.000 
#    0.000    0.000    0.000    0.000    0.000    0.000 
#
# Total GULP energy -173709.762485 kJ/mol
# GULP energy per Si atom -12407.840178 kJ/mol
# Density = 2.112956 g / cm^3
# Si number density = 21.177761 Si / 1000 Ang^3
#
#
#
# Elastic Constant Matrix: (Units=GPa)
#
#
# Indices 1 2 3 4 5 6 
#
# 1 83.3692 4.0560 17.2563 9.5326 24.5039 -9.4683
# 2 4.0560 98.4767 29.6224 -8.3862 17.6310 6.2683
# 3 17.2563 29.6224 62.7345 -7.9224 16.9710 -5.7755
# 4 9.5326 -8.3862 -7.9224 37.1567 -0.9462 6.7917
# 5 24.5039 17.6310 16.9710 -0.9462 27.4983 -1.8489
# 6 -9.4683 6.2683 -5.7755 6.7917 -1.8489 32.2797
#
#
#
# Elastic Compliance Matrix: (Units=1/GPa)
#
#
# Indices 1 2 3 4 5 6 
#
# 1 0.018317 0.001876 -0.001818 -0.005994 -0.016273 0.005012
# 2 0.001876 0.013269 -0.004890 0.001966 -0.007345 -0.003736
# 3 -0.001818 -0.004890 0.021691 0.003201 -0.008310 0.003148
# 4 -0.005994 0.001966 0.003201 0.031099 0.002640 -0.007960
# 5 -0.016273 -0.007345 -0.008310 0.002640 0.060667 -0.001914
# 6 0.005012 -0.003736 0.003148 -0.007960 -0.001914 0.035303
#
#
# Mechanical properties :
#
#
# Convention : Reuss Voigt Hill
#
# Bulk Modulus (GPa) = 22.92816 38.49443 30.71130
# Shear Modulus (GPa) = 24.44413 32.29664 28.37038
#
# Velocity S-wave (km/s) = 3.40109 3.90939 3.66407
# Velocity P-wave (km/s) = 5.12574 6.21242 5.69506
#
# Compressibility (1/GPa) = 0.04361449
#
# Stress axis : x y z
#
# Youngs Moduli (GPa) = 54.59273 75.36578 46.10153
#
# Poissons Ratio (x) = -0.14142 0.08380
# Poissons Ratio (y) = -0.10244 0.22544
# Poissons Ratio (z) = 0.09924 0.36854
#
# Static dielectric constant tensor:
#      x y z
#    x 4.012840 -0.099230 0.094770 
#    y -0.099230 3.984180 -0.064850 
#    z 0.094770 -0.064850 3.885910 
# 
# 
# High freq. dielectric constant tensor:
#      x y z
#    x 1.841500 -0.007020 0.001580 
#    y -0.007020 1.837740 0.003550 
#    z 0.001580 0.003550 1.829600 
# 
# From -- ./inp_files/255669.got.cif
#   From: 2010.06.25/outbox.cif.g09.slc.cpg/sg2_128_cif.got.tgz:255669.got - 2010.06.27 13:26:56.
