data_PCOD8025758
_publ_section_title
;
Structure prediction by ZEFSAII (Michael W. Deem and Ramdas Pophale) SiO2 
 PCOD8025758
Probable space group: P -1
;
_chemical_formula_sum "Si O2"
_cell_formula_units_Z 14
_cell_length_a 12.089229
_cell_length_b 11.014074
_cell_length_c 11.582464
_cell_angle_alpha 91.443688
_cell_angle_beta 63.212817
_cell_angle_gamma 37.920468
_cell_volume 609.194069
_symmetry_space_group_name_H-M "P -1"
_symmetry_group_IT_number 2
_symmetry_cell_setting 'triclinic'
loop_
_space_group_symop_operation_xyz
x,y,z
-x,-y,-z
loop_
_atom_site_type_symbol
_atom_site_label
_atom_site_fract_x
_atom_site_fract_y
_atom_site_fract_z
Si Si1 0.428625 0.058181 0.260417
Si Si2 0.832898 0.268252 0.551952
Si Si3 0.052818 0.603349 0.357401
Si Si4 0.904059 0.939944 0.807131
Si Si5 0.356796 0.345307 0.985257
Si Si6 0.220091 0.838323 0.796256
Si Si7 0.091140 0.194108 0.955836
O O1 0.261783 0.323298 0.307941
O O2 0.268376 0.138459 0.446928
O O3 0.741389 0.827308 0.139979
O O4 0.462632 0.933999 0.135398
O O5 0.851451 0.346079 0.650045
O O6 0.512635 0.515409 0.678599
O O7 0.959235 0.228153 0.380057
O O8 0.000000 0.000000 0.500000
O O9 0.092925 0.555235 0.199691
O O10 0.074487 0.916215 0.749628
O O11 0.933733 0.822168 0.898250
O O12 0.573029 0.249359 0.942926
O O13 0.228006 0.509332 0.930724
O O14 0.250705 0.956875 0.791548
O O15 0.000000 0.000000 0.000000
#
# Coordination Sequence:
#
# PCOD8025758 Si02
#       7
#     2   2   2   2   2   2   2
#     4  11  23  47  71 108 148 188 242 299 362 436
#     4  12  26  46  74 109 146 194 249 298 367 440
#     4  11  24  44  75 106 144 193 243 298 367 428
#     4  11  25  45  72 101 149 187 238 305 361 423
#     4  12  25  45  74 108 142 195 239 300 362 441
#     4  10  23  46  66 102 142 188 238 299 358 424
#     4  11  25  45  73 102 147 187 248 292 374 427
#
# _framework density 22.981182
#
# number of rings (size 3 to 8) (size 9 to 14) (size 15 to 20)
#    0.000    0.857    4.286    2.143    6.000    1.143 
#    2.571    0.000    0.000    0.000    0.000    0.000 
#    0.000    0.000    0.000    0.000    0.000    0.000 
#
# Total GULP energy -173514.717645 kJ/mol
# GULP energy per Si atom -12393.908403 kJ/mol
# Density = 2.292888 g / cm^3
# Si number density = 22.981182 Si / 1000 Ang^3
#
#
#
# Elastic Constant Matrix: (Units=GPa)
#
#
# Indices 1 2 3 4 5 6 
#
# 1 122.2566 49.0617 46.7548 11.0513 -6.3112 -6.7859
# 2 49.0617 117.5912 47.2362 17.6573 -10.2752 -19.8547
# 3 46.7548 47.2362 153.8090 -6.2019 -1.7539 -4.2371
# 4 11.0513 17.6573 -6.2019 32.2921 -0.0775 4.3066
# 5 -6.3112 -10.2752 -1.7539 -0.0775 39.5212 13.0553
# 6 -6.7859 -19.8547 -4.2371 4.3066 13.0553 32.0655
#
#
#
# Elastic Compliance Matrix: (Units=1/GPa)
#
#
# Indices 1 2 3 4 5 6 
#
# 1 0.010557 -0.003007 -0.002373 -0.002432 0.000770 0.000072
# 2 -0.003007 0.013848 -0.003438 -0.008344 0.000126 0.008553
# 3 -0.002373 -0.003438 0.008405 0.004579 -0.000214 -0.002048
# 4 -0.002432 -0.008344 0.004579 0.038684 0.001288 -0.010796
# 5 0.000770 0.000126 -0.000214 0.001288 0.029392 -0.011927
# 6 0.000072 0.008553 -0.002048 -0.010796 -0.011927 0.042533
#
#
# Mechanical properties :
#
#
# Convention : Reuss Voigt Hill
#
# Bulk Modulus (GPa) = 65.90430 75.52915 70.71672
# Shear Modulus (GPa) = 30.10018 37.48269 33.79144
#
# Velocity S-wave (km/s) = 3.62301 4.04297 3.83873
# Velocity P-wave (km/s) = 6.80010 7.39805 7.10537
#
# Compressibility (1/GPa) = 0.01517352
#
# Stress axis : x y z
#
# Youngs Moduli (GPa) = 94.72096 72.21468 118.98257
#
# Poissons Ratio (x) = 0.21713 0.28236
# Poissons Ratio (y) = 0.28480 0.40908
# Poissons Ratio (z) = 0.22478 0.24828
#
# Static dielectric constant tensor:
#      x y z
#    x 6.158980 -0.086980 0.431530 
#    y -0.086980 3.864850 0.098290 
#    z 0.431530 0.098290 4.525460 
# 
# 
# High freq. dielectric constant tensor:
#      x y z
#    x 1.918630 -0.010120 -0.001200 
#    y -0.010120 1.880670 0.006120 
#    z -0.001200 0.006120 1.917230 
# 
# From -- ./inp_files/428366.got.cif
#   From: 2010.06.25/outbox.cif.g09.slc.cpg/sg2_215_cif.got.tgz:428366.got - 2010.06.27 13:26:56.
