data_PCOD8025803
_publ_section_title
;
Structure prediction by ZEFSAII (Michael W. Deem and Ramdas Pophale) SiO2 
 PCOD8025803
Probable space group: P -1
;
_chemical_formula_sum "Si O2"
_cell_formula_units_Z 16
_cell_length_a 12.067378
_cell_length_b 6.556198
_cell_length_c 26.404407
_cell_angle_alpha 45.020407
_cell_angle_beta 29.268858
_cell_angle_gamma 50.079777
_cell_volume 720.544968
_symmetry_space_group_name_H-M "P -1"
_symmetry_group_IT_number 2
_symmetry_cell_setting 'triclinic'
loop_
_space_group_symop_operation_xyz
x,y,z
-x,-y,-z
loop_
_atom_site_type_symbol
_atom_site_label
_atom_site_fract_x
_atom_site_fract_y
_atom_site_fract_z
Si Si1 0.865452 0.889473 0.885699
Si Si2 0.039824 0.335357 0.432444
Si Si3 0.761675 0.390606 0.278677
Si Si4 0.319090 0.332868 0.417229
Si Si5 0.969924 0.989622 0.091852
Si Si6 0.703538 0.304720 0.427621
Si Si7 0.177333 0.492117 0.241035
Si Si8 0.326588 0.705405 0.926713
O O1 0.050605 0.843540 0.775730
O O2 0.744955 0.202078 0.864905
O O3 0.699281 0.632444 0.992851
O O4 0.975244 0.872664 0.900640
O O5 0.236847 0.404091 0.381019
O O6 0.104850 0.496506 0.327490
O O7 0.807859 0.482081 0.520752
O O8 0.000000 0.000000 0.500000
O O9 0.575978 0.416777 0.303591
O O10 0.851041 0.698265 0.200061
O O11 0.651978 0.272934 0.394245
O O12 0.289983 0.997165 0.494391
O O13 0.792245 0.210821 0.094313
O O14 0.205077 0.917591 0.979911
O O15 0.500000 0.500000 0.500000
O O16 0.956953 0.415683 0.310540
O O17 0.400156 0.263322 0.186575
#
# Coordination Sequence:
#
# PCOD8025803 Si02
#       8
#     2   2   2   2   2   2   2   2
#     4  11  23  46  67 100 131 178 227 280 344 406
#     4  11  25  44  64  98 140 175 232 279 339 402
#     4  11  24  40  71  96 132 179 232 268 343 410
#     4  11  25  42  66  97 137 183 225 281 331 408
#     4  10  23  46  68  98 136 172 223 284 341 409
#     4  12  24  43  69  99 142 186 227 283 334 404
#     4  12  24  43  72  97 137 183 219 284 344 396
#     4  10  25  43  69 101 131 170 232 281 339 413
#
# _framework density 22.205414000000001
#
# number of rings (size 3 to 8) (size 9 to 14) (size 15 to 20)
#    0.000    1.000    2.500    3.375    3.500    0.500 
#    4.500    0.000    0.000    0.000    0.000    0.000 
#    0.000    0.000    0.000    0.000    0.000    0.000 
#
# Total GULP energy -198381.586321 kJ/mol
# GULP energy per Si atom -12398.849145 kJ/mol
# Density = 2.215487 g / cm^3
# Si number density = 22.205414 Si / 1000 Ang^3
#
#
#
# Elastic Constant Matrix: (Units=GPa)
#
#
# Indices 1 2 3 4 5 6 
#
# 1 87.2008 21.9235 48.5964 7.2324 7.5434 -9.5841
# 2 21.9235 100.1760 18.9440 15.2471 -5.6971 -4.4603
# 3 48.5964 18.9440 57.5414 22.1450 -9.4532 2.6204
# 4 7.2324 15.2471 22.1450 2.3510 -10.4787 -4.2229
# 5 7.5434 -5.6971 -9.4532 -10.4787 44.7336 3.5900
# 6 -9.5841 -4.4603 2.6204 -4.2229 3.5900 31.6311
#
#
#
# Elastic Compliance Matrix: (Units=1/GPa)
#
#
# Indices 1 2 3 4 5 6 
#
# 1 0.020051 0.000954 -0.009060 -0.026894 -0.011852 0.004715
# 2 0.000954 0.010169 -0.006955 0.007394 0.001143 0.003157
# 3 -0.009060 -0.006955 0.009368 0.052925 0.014950 0.000867
# 4 -0.026894 0.007394 0.052925 -0.082548 -0.000877 -0.022412
# 5 -0.011852 0.001143 0.014950 -0.000877 0.028092 -0.007974
# 6 0.004715 0.003157 0.000867 -0.022412 -0.007974 0.031329
#
#
# Mechanical properties :
#
#
# Convention : Reuss Voigt Hill
#
# Bulk Modulus (GPa) = 105.63140 47.09401 76.36271
# Shear Modulus (GPa) = 100.52498 26.10674 63.31586
#
# Velocity S-wave (km/s) = 6.73563 3.43256 5.34562
# Velocity P-wave (km/s) = 10.40024 6.07983 8.51849
#
# Compressibility (1/GPa) = 0.00946688
#
# Stress axis : x y z
#
# Youngs Moduli (GPa) = 49.87317 98.33716 106.74424
#
# Poissons Ratio (x) = -0.09385 0.96706
# Poissons Ratio (y) = -0.04760 0.74245
# Poissons Ratio (z) = 0.45183 0.68398
#
# Static dielectric constant tensor:
#      x y z
#    x 4.087300 -0.038030 0.022040 
#    y -0.038030 4.013930 0.099020 
#    z 0.022040 0.099020 3.953620 
# 
# 
# High freq. dielectric constant tensor:
#      x y z
#    x 1.884550 -0.006590 0.003240 
#    y -0.006590 1.879690 0.003810 
#    z 0.003240 0.003810 1.873770 
# 
# From -- ./inp_files/47520.got.cif
#   From: 2010.06.25/outbox.cif.g09.slc.cpg/sg2_24_cif.got.tgz:47520.got - 2010.06.27 13:26:56.
