data_PCOD8025313
_publ_section_title
;
Structure prediction by ZEFSAII (Michael W. Deem and Ramdas Pophale) SiO2 
 PCOD8025313
Probable space group: P -1
;
_chemical_formula_sum "Si O2"
_cell_formula_units_Z 12
_cell_length_a 15.292760
_cell_length_b 18.943626
_cell_length_c 7.238740
_cell_angle_alpha 128.373447
_cell_angle_beta 117.526033
_cell_angle_gamma 18.183560
_cell_volume 437.700279
_symmetry_space_group_name_H-M "P -1"
_symmetry_group_IT_number 2
_symmetry_cell_setting 'triclinic'
loop_
_space_group_symop_operation_xyz
x,y,z
-x,-y,-z
loop_
_atom_site_type_symbol
_atom_site_label
_atom_site_fract_x
_atom_site_fract_y
_atom_site_fract_z
Si Si1 0.577960 0.141334 0.329682
Si Si2 0.401907 0.474541 0.559400
Si Si3 0.619630 0.316496 0.111254
Si Si4 0.289438 0.956196 0.312647
Si Si5 0.823287 0.633504 0.237305
Si Si6 0.852292 0.744469 0.737100
O O1 0.645947 0.182593 0.384796
O O2 0.208746 0.463466 0.563920
O O3 0.803579 0.925338 0.380303
O O4 0.638296 0.017268 0.026488
O O5 0.425473 0.473091 0.364361
O O6 0.494282 0.488606 0.777876
O O7 0.016902 0.780121 0.698925
O O8 0.560491 0.275426 0.873786
O O9 0.000000 0.000000 0.000000
O O10 0.556638 0.787157 0.199988
O O11 0.115154 0.349147 0.203865
O O12 0.671395 0.853667 0.560027
O O13 0.000000 0.500000 0.000000
#
# Coordination Sequence:
#
# PCOD8025313 Si02
#       6
#     2   2   2   2   2   2
#     4  11  26  46  73 106 153 195 235 311 370 430
#     4  10  23  44  73 103 146 189 239 303 377 430
#     4   9  21  44  70 106 141 183 245 307 354 455
#     4  10  24  44  73 107 144 190 258 296 362 454
#     4  10  24  48  77 106 148 202 246 305 372 432
#     4  10  26  48  69 112 154 187 257 309 354 449
#
# _framework density 27.416022000000002
#
# number of rings (size 3 to 8) (size 9 to 14) (size 15 to 20)
#    0.000    2.000    0.000    0.000   11.667    6.667 
#    0.000   15.000    0.000    0.000    0.000    0.000 
#    0.000    0.000    0.000    0.000    0.000    0.000 
#
# Total GULP energy -148705.844295 kJ/mol
# GULP energy per Si atom -12392.153691 kJ/mol
# Density = 2.735362 g / cm^3
# Si number density = 27.416022 Si / 1000 Ang^3
#
#
#
# Elastic Constant Matrix: (Units=GPa)
#
#
# Indices 1 2 3 4 5 6 
#
# 1 163.5232 36.8496 95.8287 -9.5971 19.4426 -14.6128
# 2 36.8496 55.3481 27.6419 -17.6927 -12.4963 -20.4180
# 3 95.8287 27.6419 190.5008 -16.9699 18.3648 -1.8988
# 4 -9.5971 -17.6927 -16.9699 33.0332 -0.4186 2.0018
# 5 19.4426 -12.4963 18.3648 -0.4186 49.8658 -7.7653
# 6 -14.6128 -20.4180 -1.8988 2.0018 -7.7653 33.4241
#
#
#
# Elastic Compliance Matrix: (Units=1/GPa)
#
#
# Indices 1 2 3 4 5 6 
#
# 1 0.010371 -0.007244 -0.003995 -0.002916 -0.004569 -0.001005
# 2 -0.007244 0.044989 -0.002792 0.019135 0.019579 0.027560
# 3 -0.003995 -0.002792 0.008032 0.001661 -0.002665 -0.003715
# 4 -0.002916 0.019135 0.001661 0.040026 0.007179 0.009780
# 5 -0.004569 0.019579 -0.002665 0.007179 0.030342 0.016431
# 6 -0.001005 0.027560 -0.003715 0.009780 0.016431 0.049336
#
#
# Mechanical properties :
#
#
# Convention : Reuss Voigt Hill
#
# Bulk Modulus (GPa) = 28.30494 81.11250 54.70872
# Shear Modulus (GPa) = 22.42788 39.86809 31.14799
#
# Velocity S-wave (km/s) = 2.86327 3.81752 3.37430
# Velocity P-wave (km/s) = 4.61278 7.00581 5.93123
#
# Compressibility (1/GPa) = 0.03532952
#
# Stress axis : x y z
#
# Youngs Moduli (GPa) = 96.41822 22.22751 124.49918
#
# Poissons Ratio (x) = 0.16102 0.49743
# Poissons Ratio (y) = 0.69845 0.34763
# Poissons Ratio (z) = 0.38524 0.06206
#
# Static dielectric constant tensor:
#      x y z
#    x 5.695070 -0.261280 0.353500 
#    y -0.261280 5.332700 -0.000310 
#    z 0.353500 -0.000310 5.664260 
# 
# 
# High freq. dielectric constant tensor:
#      x y z
#    x 2.126580 -0.012400 0.012850 
#    y -0.012400 2.081910 -0.006450 
#    z 0.012850 -0.006450 2.114690 
# 
# From -- ./inp_files/318501.got.cif
#   From: 2010.06.25/outbox.cif.g09.slc.cpg/sg2_160_cif.got.tgz:318501.got - 2010.06.27 13:26:56.
