data_PCOD8025091
_publ_section_title
;
Structure prediction by ZEFSAII (Michael W. Deem and Ramdas Pophale) SiO2 
 PCOD8025091
Probable space group: P -1
;
_chemical_formula_sum "Si O2"
_cell_formula_units_Z 14
_cell_length_a 8.927059
_cell_length_b 15.379196
_cell_length_c 16.023059
_cell_angle_alpha 152.552278
_cell_angle_beta 39.016495
_cell_angle_gamma 141.450877
_cell_volume 604.994605
_symmetry_space_group_name_H-M "P -1"
_symmetry_group_IT_number 2
_symmetry_cell_setting 'triclinic'
loop_
_space_group_symop_operation_xyz
x,y,z
-x,-y,-z
loop_
_atom_site_type_symbol
_atom_site_label
_atom_site_fract_x
_atom_site_fract_y
_atom_site_fract_z
Si Si1 0.481602 0.056368 0.151609
Si Si2 0.367885 0.737490 0.400925
Si Si3 0.244819 0.338784 0.720345
Si Si4 0.004681 0.623336 0.804367
Si Si5 0.312930 0.759010 0.114564
Si Si6 0.647884 0.853203 0.211097
Si Si7 0.285182 0.374750 0.546708
O O1 0.249063 0.144321 0.341247
O O2 0.736685 0.227444 0.216722
O O3 0.439331 0.865177 0.064936
O O4 0.500000 0.000000 0.000000
O O5 0.594168 0.783679 0.409095
O O6 0.168826 0.514182 0.310610
O O7 0.469206 0.735760 0.261796
O O8 0.240453 0.911129 0.614251
O O9 0.363732 0.407407 0.636946
O O10 0.953207 0.202890 0.722025
O O11 0.264969 0.525518 0.929353
O O12 0.047698 0.453372 0.702846
O O13 0.872578 0.760701 0.027336
O O14 0.498500 0.838997 0.178159
O O15 0.500000 0.500000 0.500000
#
# Coordination Sequence:
#
# PCOD8025091 Si02
#       7
#     2   2   2   2   2   2   2
#     4  11  26  44  72 101 138 185 236 285 342 417
#     4  11  25  43  70 105 140 181 231 285 354 403
#     4  11  24  43  73 100 139 183 230 296 334 410
#     4  11  24  45  69  98 143 180 224 287 346 409
#     4  11  24  44  70 103 138 183 239 278 347 409
#     4  11  25  43  69 104 140 184 227 287 350 412
#     4  10  23  44  68  99 136 179 228 278 344 408
#
# _framework density 23.140699999999999
#
# number of rings (size 3 to 8) (size 9 to 14) (size 15 to 20)
#    0.000    1.143    1.429    3.857    8.000    4.000 
#    0.000    3.571    0.000    0.000    0.000    0.000 
#    0.000    0.000    0.000    0.000    0.000    0.000 
#
# Total GULP energy -173563.512712 kJ/mol
# GULP energy per Si atom -12397.393765 kJ/mol
# Density = 2.308803 g / cm^3
# Si number density = 23.140700 Si / 1000 Ang^3
#
#
#
# Elastic Constant Matrix: (Units=GPa)
#
#
# Indices 1 2 3 4 5 6 
#
# 1 109.2830 33.4294 42.1161 -19.8029 -9.7900 -18.8529
# 2 33.4294 92.8249 19.7840 -6.9975 2.7982 -3.5827
# 3 42.1161 19.7840 145.1169 -3.0778 -25.8380 2.5264
# 4 -19.8029 -6.9975 -3.0778 27.0289 -9.7653 6.2823
# 5 -9.7900 2.7982 -25.8380 -9.7653 41.5921 -5.5796
# 6 -18.8529 -3.5827 2.5264 6.2823 -5.5796 36.4526
#
#
#
# Elastic Compliance Matrix: (Units=1/GPa)
#
#
# Indices 1 2 3 4 5 6 
#
# 1 0.014789 -0.003904 -0.002730 0.009887 0.005248 0.006554
# 2 -0.003904 0.012399 -0.001019 -0.000475 -0.002639 -0.001052
# 3 -0.002730 -0.001019 0.008728 0.000832 0.004839 -0.001519
# 4 0.009887 -0.000475 0.000832 0.049719 0.014367 -0.001361
# 5 0.005248 -0.002639 0.004839 0.014367 0.032454 0.004611
# 6 0.006554 -0.001052 -0.001519 -0.001361 0.004611 0.031765
#
#
# Mechanical properties :
#
#
# Convention : Reuss Voigt Hill
#
# Bulk Modulus (GPa) = 48.51917 59.76487 54.14202
# Shear Modulus (GPa) = 29.06457 37.80773 33.43615
#
# Velocity S-wave (km/s) = 3.54784 4.04644 3.80532
# Velocity P-wave (km/s) = 6.14780 6.90756 6.53872
#
# Compressibility (1/GPa) = 0.02061041
#
# Stress axis : x y z
#
# Youngs Moduli (GPa) = 67.61674 80.64968 114.57498
#
# Poissons Ratio (x) = 0.31488 0.31277
# Poissons Ratio (y) = 0.26399 0.11674
# Poissons Ratio (z) = 0.18458 0.08218
#
# Static dielectric constant tensor:
#      x y z
#    x 4.286230 0.021020 -0.397100 
#    y 0.021020 3.971080 0.150980 
#    z -0.397100 0.150980 4.555030 
# 
# 
# High freq. dielectric constant tensor:
#      x y z
#    x 1.913440 -0.002610 -0.009760 
#    y -0.002610 1.899110 0.010490 
#    z -0.009760 0.010490 1.933790 
# 
# From -- ./inp_files/185287.got.cif
#   From: 2010.06.25/outbox.cif.g09.slc.cpg/sg2_93_cif.got.tgz:185287.got - 2010.06.27 13:26:56.
