data_PCOD8025799
_publ_section_title
;
Structure prediction by ZEFSAII (Michael W. Deem and Ramdas Pophale) SiO2 
 PCOD8025799
Probable space group: P -1
;
_chemical_formula_sum "Si O2"
_cell_formula_units_Z 14
_cell_length_a 10.749551
_cell_length_b 12.861144
_cell_length_c 9.737439
_cell_angle_alpha 148.550561
_cell_angle_beta 125.524555
_cell_angle_gamma 58.701016
_cell_volume 570.746519
_symmetry_space_group_name_H-M "P -1"
_symmetry_group_IT_number 2
_symmetry_cell_setting 'triclinic'
loop_
_space_group_symop_operation_xyz
x,y,z
-x,-y,-z
loop_
_atom_site_type_symbol
_atom_site_label
_atom_site_fract_x
_atom_site_fract_y
_atom_site_fract_z
Si Si1 0.870787 0.226905 0.055322
Si Si2 0.411824 0.995467 0.293790
Si Si3 0.911486 0.177068 0.727147
Si Si4 0.186929 0.337807 0.445205
Si Si5 0.703564 0.191391 0.380001
Si Si6 0.848932 0.525369 0.733839
Si Si7 0.593056 0.797614 0.937331
O O1 0.832831 0.459506 0.250250
O O2 0.033059 0.212832 0.227331
O O3 0.730606 0.146758 0.959807
O O4 0.888022 0.104029 0.785297
O O5 0.500000 0.000000 0.500000
O O6 0.340387 0.214939 0.453994
O O7 0.529360 0.911064 0.159494
O O8 0.746232 0.225421 0.605390
O O9 0.000000 0.000000 0.500000
O O10 0.995719 0.385453 0.014543
O O11 0.195450 0.412124 0.377915
O O12 0.839763 0.285818 0.482026
O O13 0.539068 0.290232 0.341158
O O14 0.689255 0.952586 0.079689
O O15 0.712699 0.617745 0.850447
#
# Coordination Sequence:
#
# PCOD8025799 Si02
#       7
#     2   2   2   2   2   2   2
#     4  10  24  45  68  95 133 175 215 273 329 386
#     4  12  26  42  66  96 134 180 215 264 333 390
#     4  11  23  43  68 100 132 163 220 279 321 385
#     4  10  23  46  68  98 130 169 227 270 323 394
#     4  11  22  40  65  97 131 170 214 264 333 378
#     4  11  23  42  69  98 131 173 216 272 325 384
#     4  11  24  40  64  98 135 171 219 267 315 399
#
# _framework density 24.529278000000001
#
# number of rings (size 3 to 8) (size 9 to 14) (size 15 to 20)
#    0.000    1.143    1.429    4.714    2.000    2.857 
#    7.714    0.000    0.000    0.000    0.000    0.000 
#    0.000    0.000    0.000    0.000    0.000    0.000 
#
# Total GULP energy -173472.185242 kJ/mol
# GULP energy per Si atom -12390.870374 kJ/mol
# Density = 2.447345 g / cm^3
# Si number density = 24.529278 Si / 1000 Ang^3
#
#
#
# Elastic Constant Matrix: (Units=GPa)
#
#
# Indices 1 2 3 4 5 6 
#
# 1 82.9283 17.4871 33.3636 6.5328 -2.8266 -2.0951
# 2 17.4871 70.3324 30.4663 -17.2445 -1.7454 -4.4629
# 3 33.3636 30.4663 111.1355 -13.9100 14.3433 2.3375
# 4 6.5328 -17.2445 -13.9100 36.8338 1.6718 15.1806
# 5 -2.8266 -1.7454 14.3433 1.6718 51.0038 13.7945
# 6 -2.0951 -4.4629 2.3375 15.1806 13.7945 36.8602
#
#
#
# Elastic Compliance Matrix: (Units=1/GPa)
#
#
# Indices 1 2 3 4 5 6 
#
# 1 0.015492 -0.003326 -0.004956 -0.007639 0.001473 0.003387
# 2 -0.003326 0.018470 -0.003125 0.008795 0.001569 -0.001964
# 3 -0.004956 -0.003125 0.012492 0.005249 -0.003437 -0.002328
# 4 -0.007639 0.008795 0.005249 0.041764 0.001785 -0.017570
# 5 0.001473 0.001569 -0.003437 0.001785 0.023048 -0.008869
# 6 0.003387 -0.001964 -0.002328 -0.017570 -0.008869 0.037787
#
#
# Mechanical properties :
#
#
# Convention : Reuss Voigt Hill
#
# Bulk Modulus (GPa) = 42.30480 47.44780 44.87630
# Shear Modulus (GPa) = 27.81672 37.14485 32.48079
#
# Velocity S-wave (km/s) = 3.37118 3.89563 3.64285
# Velocity P-wave (km/s) = 5.69537 6.29444 6.00238
#
# Compressibility (1/GPa) = 0.02363798
#
# Stress axis : x y z
#
# Youngs Moduli (GPa) = 64.55086 54.14274 80.05033
#
# Poissons Ratio (x) = 0.18010 0.39675
# Poissons Ratio (y) = 0.21472 0.25016
# Poissons Ratio (z) = 0.31993 0.16920
#
# Static dielectric constant tensor:
#      x y z
#    x 4.495700 -0.015800 0.202380 
#    y -0.015800 4.371590 -0.001860 
#    z 0.202380 -0.001860 4.690260 
# 
# 
# High freq. dielectric constant tensor:
#      x y z
#    x 1.969830 0.004280 0.017060 
#    y 0.004280 1.963310 0.000580 
#    z 0.017060 0.000580 1.985080 
# 
# From -- ./inp_files/263816.got.cif
#   From: 2010.06.25/outbox.cif.g09.slc.cpg/sg2_132_cif.got.tgz:263816.got - 2010.06.27 13:26:56.
