data_PCOD8025426
_publ_section_title
;
Structure prediction by ZEFSAII (Michael W. Deem and Ramdas Pophale) SiO2 
 PCOD8025426
Probable space group: P -1
;
_chemical_formula_sum "Si O2"
_cell_formula_units_Z 16
_cell_length_a 11.121228
_cell_length_b 9.005688
_cell_length_c 11.571015
_cell_angle_alpha 59.182968
_cell_angle_beta 126.317027
_cell_angle_gamma 87.050727
_cell_volume 688.458976
_symmetry_space_group_name_H-M "P -1"
_symmetry_group_IT_number 2
_symmetry_cell_setting 'triclinic'
loop_
_space_group_symop_operation_xyz
x,y,z
-x,-y,-z
loop_
_atom_site_type_symbol
_atom_site_label
_atom_site_fract_x
_atom_site_fract_y
_atom_site_fract_z
Si Si1 0.893504 0.926580 0.248982
Si Si2 0.934333 0.521076 0.082099
Si Si3 0.895060 0.214348 0.291643
Si Si4 0.492815 0.107822 0.619446
Si Si5 0.873352 0.915419 0.983676
Si Si6 0.358873 0.185000 0.769481
Si Si7 0.444400 0.286624 0.285463
Si Si8 0.724735 0.394607 0.348193
O O1 0.813359 0.948551 0.068510
O O2 0.814438 0.829521 0.328724
O O3 0.101922 0.781952 0.421152
O O4 0.829442 0.155938 0.161573
O O5 0.014320 0.309555 0.282505
O O6 0.972364 0.676955 0.107864
O O7 0.732182 0.586016 0.936930
O O8 0.000000 0.500000 0.000000
O O9 0.743666 0.368737 0.230083
O O10 0.000000 0.000000 0.500000
O O11 0.417194 0.190338 0.669800
O O12 0.404531 0.280786 0.402205
O O13 0.454563 0.934527 0.626983
O O14 0.699534 0.027613 0.763206
O O15 0.000000 0.000000 0.000000
O O16 0.308404 0.389109 0.724177
O O17 0.500000 0.000000 0.000000
O O18 0.559112 0.387851 0.298744
#
# Coordination Sequence:
#
# PCOD8025426 Si02
#       8
#     2   2   2   2   2   2   2   2
#     4  11  23  43  67  98 133 182 226 283 344 405
#     4  11  25  42  68 102 137 183 237 287 346 415
#     4  10  24  44  70  98 139 182 236 288 342 409
#     4  10  23  45  66  98 137 179 226 281 348 409
#     4  11  22  40  69  98 141 178 227 286 349 414
#     4  12  25  41  67 100 140 179 223 285 346 412
#     4  10  24  43  69  96 135 182 229 284 340 411
#     4  11  25  43  68 100 135 176 235 278 348 406
#
# _framework density 23.240310000000001
#
# number of rings (size 3 to 8) (size 9 to 14) (size 15 to 20)
#    0.000    1.250    1.250    3.375    3.500   11.000 
#    0.000    0.000    0.000    0.000    0.000    0.000 
#    0.000    0.000    0.000    0.000    0.000    0.000 
#
# Total GULP energy -198381.362356 kJ/mol
# GULP energy per Si atom -12398.835147 kJ/mol
# Density = 2.318741 g / cm^3
# Si number density = 23.240310 Si / 1000 Ang^3
#
#
#
# Elastic Constant Matrix: (Units=GPa)
#
#
# Indices 1 2 3 4 5 6 
#
# 1 120.6346 60.8941 10.0989 -7.1261 -21.6648 9.1158
# 2 60.8941 197.3075 20.4658 -7.8371 -22.3999 -2.1246
# 3 10.0989 20.4658 59.6345 2.6090 -14.9505 -0.0463
# 4 -7.1261 -7.8371 2.6090 32.2361 1.6794 -7.1803
# 5 -21.6648 -22.3999 -14.9505 1.6794 40.2583 9.8957
# 6 9.1158 -2.1246 -0.0463 -7.1803 9.8957 57.4555
#
#
#
# Elastic Compliance Matrix: (Units=1/GPa)
#
#
# Indices 1 2 3 4 5 6 
#
# 1 0.010815 -0.002801 0.000340 0.000850 0.004984 -0.002571
# 2 -0.002801 0.006272 -0.001407 0.001085 0.001269 0.000592
# 3 0.000340 -0.001407 0.019053 -0.002531 0.006977 -0.001609
# 4 0.000850 0.001085 -0.002531 0.032779 -0.002328 0.004401
# 5 0.004984 0.001269 0.006977 -0.002328 0.032547 -0.006635
# 6 -0.002571 0.000592 -0.001609 0.004401 -0.006635 0.019526
#
#
# Mechanical properties :
#
#
# Convention : Reuss Voigt Hill
#
# Bulk Modulus (GPa) = 35.20663 62.27716 48.74189
# Shear Modulus (GPa) = 36.18077 45.06448 40.62263
#
# Velocity S-wave (km/s) = 3.94992 4.40826 4.18537
# Velocity P-wave (km/s) = 5.99870 7.26399 6.66145
#
# Compressibility (1/GPa) = 0.02840375
#
# Stress axis : x y z
#
# Youngs Moduli (GPa) = 92.46811 159.43320 52.48628
#
# Poissons Ratio (x) = 0.44658 -0.01786
# Poissons Ratio (y) = 0.25901 0.07385
# Poissons Ratio (z) = -0.03146 0.22433
#
# Static dielectric constant tensor:
#      x y z
#    x 4.173700 0.014480 -0.142070 
#    y 0.014480 4.791320 0.154720 
#    z -0.142070 0.154720 4.239190 
# 
# 
# High freq. dielectric constant tensor:
#      x y z
#    x 1.923890 0.001970 -0.011860 
#    y 0.001970 1.935780 0.009140 
#    z -0.011860 0.009140 1.910580 
# 
# From -- ./inp_files/419208.got.cif
#   From: 2010.06.25/outbox.cif.g09.slc.cpg/sg2_210_cif.got.tgz:419208.got - 2010.06.27 13:26:56.
