data_PCOD8025065
_publ_section_title
;
Structure prediction by ZEFSAII (Michael W. Deem and Ramdas Pophale) SiO2 
 PCOD8025065
Probable space group: P -1
;
_chemical_formula_sum "Si O2"
_cell_formula_units_Z 14
_cell_length_a 9.091234
_cell_length_b 17.153151
_cell_length_c 5.183185
_cell_angle_alpha 130.122063
_cell_angle_beta 115.122467
_cell_angle_gamma 71.107107
_cell_volume 558.130748
_symmetry_space_group_name_H-M "P -1"
_symmetry_group_IT_number 2
_symmetry_cell_setting 'triclinic'
loop_
_space_group_symop_operation_xyz
x,y,z
-x,-y,-z
loop_
_atom_site_type_symbol
_atom_site_label
_atom_site_fract_x
_atom_site_fract_y
_atom_site_fract_z
Si Si1 0.491337 0.381940 0.273960
Si Si2 0.947454 0.729510 0.493206
Si Si3 0.071853 0.083205 0.416649
Si Si4 0.603044 0.024112 0.378119
Si Si5 0.198429 0.801327 0.191123
Si Si6 0.785010 0.377651 0.809011
Si Si7 0.300280 0.383909 0.644912
O O1 0.500000 0.500000 0.500000
O O2 0.670532 0.339261 0.407563
O O3 0.360891 0.357422 0.346791
O O4 0.430880 0.340971 0.867395
O O5 0.846794 0.821890 0.466206
O O6 0.856990 0.678660 0.553431
O O7 0.024852 0.639061 0.168588
O O8 0.101135 0.786639 0.827090
O O9 0.218258 0.036851 0.608674
O O10 0.917596 0.127796 0.558441
O O11 0.000000 0.000000 0.000000
O O12 0.500000 0.000000 0.500000
O O13 0.637734 0.143771 0.641858
O O14 0.500000 0.000000 0.000000
O O15 0.250999 0.690789 0.117126
O O16 0.740573 0.494755 0.100839
#
# Coordination Sequence:
#
# PCOD8025065 Si02
#       7
#     2   2   2   2   2   2   2
#     4  10  23  44  68  95 140 195 231 283 356 406
#     4  11  26  42  73 104 137 188 242 287 350 424
#     4  11  24  50  74  98 145 190 233 294 367 432
#     4  12  28  47  75 107 138 179 238 300 356 425
#     4  11  26  45  73 102 140 193 232 287 371 422
#     4  10  24  43  69 100 147 186 230 293 347 421
#     4  11  25  44  70 105 142 189 240 286 346 419
#
# _framework density 25.083729999999999
#
# number of rings (size 3 to 8) (size 9 to 14) (size 15 to 20)
#    0.000    1.143    1.429    3.429   14.000    2.857 
#    0.000    0.000    0.000    0.000    0.000    0.000 
#    0.000    0.000    0.000    0.000    0.000    0.000 
#
# Total GULP energy -173522.916358 kJ/mol
# GULP energy per Si atom -12394.494026 kJ/mol
# Density = 2.502664 g / cm^3
# Si number density = 25.083730 Si / 1000 Ang^3
#
#
#
# Elastic Constant Matrix: (Units=GPa)
#
#
# Indices 1 2 3 4 5 6 
#
# 1 117.4125 45.1490 10.4634 15.2138 8.9935 30.6064
# 2 45.1490 143.3228 26.3846 -2.1864 10.2858 15.3447
# 3 10.4634 26.3846 70.9210 -8.9235 17.3322 -2.0972
# 4 15.2138 -2.1864 -8.9235 39.5252 3.4797 3.6650
# 5 8.9935 10.2858 17.3322 3.4797 41.5294 4.0162
# 6 30.6064 15.3447 -2.0972 3.6650 4.0162 53.1364
#
#
#
# Elastic Compliance Matrix: (Units=1/GPa)
#
#
# Indices 1 2 3 4 5 6 
#
# 1 0.011848 -0.002925 -0.001297 -0.004454 -0.000376 -0.005695
# 2 -0.002925 0.008508 -0.002509 0.001153 -0.000434 -0.000918
# 3 -0.001297 -0.002509 0.017622 0.004742 -0.007079 0.002375
# 4 -0.004454 0.001153 0.004742 0.028410 -0.003752 0.000743
# 5 -0.000376 -0.000434 -0.007079 -0.003752 0.027709 -0.001773
# 6 -0.005695 -0.000918 0.002375 0.000743 -0.001773 0.022541
#
#
# Mechanical properties :
#
#
# Convention : Reuss Voigt Hill
#
# Bulk Modulus (GPa) = 40.79055 55.07227 47.93141
# Shear Modulus (GPa) = 36.16076 43.48215 39.82145
#
# Velocity S-wave (km/s) = 3.80096 4.16803 3.98872
# Velocity P-wave (km/s) = 5.96323 6.72059 6.35321
#
# Compressibility (1/GPa) = 0.02451548
#
# Stress axis : x y z
#
# Youngs Moduli (GPa) = 84.40477 117.54205 56.74708
#
# Poissons Ratio (x) = 0.34377 0.07359
# Poissons Ratio (y) = 0.24686 0.14241
# Poissons Ratio (z) = 0.10945 0.29497
#
# Static dielectric constant tensor:
#      x y z
#    x 5.084780 -0.261280 0.302500 
#    y -0.261280 5.361000 -0.382880 
#    z 0.302500 -0.382880 4.668950 
# 
# 
# High freq. dielectric constant tensor:
#      x y z
#    x 2.004150 0.007040 -0.000550 
#    y 0.007040 2.024010 -0.006630 
#    z -0.000550 -0.006630 1.989720 
# 
# From -- ./inp_files/49458.got.cif
#   From: 2010.06.25/outbox.cif.g09.slc.cpg/sg2_25_cif.got.tgz:49458.got - 2010.06.27 13:26:56.
