data_PCOD8025767
_publ_section_title
;
Structure prediction by ZEFSAII (Michael W. Deem and Ramdas Pophale) SiO2 
 PCOD8025767
Probable space group: P -1
;
_chemical_formula_sum "Si O2"
_cell_formula_units_Z 12
_cell_length_a 9.744104
_cell_length_b 13.074627
_cell_length_c 9.495211
_cell_angle_alpha 81.098815
_cell_angle_beta 111.526058
_cell_angle_gamma 41.321830
_cell_volume 530.238691
_symmetry_space_group_name_H-M "P -1"
_symmetry_group_IT_number 2
_symmetry_cell_setting 'triclinic'
loop_
_space_group_symop_operation_xyz
x,y,z
-x,-y,-z
loop_
_atom_site_type_symbol
_atom_site_label
_atom_site_fract_x
_atom_site_fract_y
_atom_site_fract_z
Si Si1 0.663728 0.055366 0.722030
Si Si2 0.376465 0.657287 0.032539
Si Si3 0.608893 0.944447 0.211866
Si Si4 0.606140 0.706804 0.940379
Si Si5 0.292060 0.470159 0.568424
Si Si6 0.260173 0.401750 0.292071
O O1 0.646072 0.951625 0.804050
O O2 0.477144 0.248343 0.717000
O O3 0.500561 0.163540 0.483733
O O4 0.015501 0.871080 0.875138
O O5 0.542515 0.542822 0.272864
O O6 0.500000 0.500000 0.000000
O O7 0.460169 0.719588 0.994360
O O8 0.931791 0.690330 0.426936
O O9 0.631500 0.052730 0.230757
O O10 0.500000 0.000000 0.000000
O O11 0.670499 0.606348 0.839301
O O12 0.919685 0.563940 0.147863
O O13 0.301694 0.475910 0.398136
#
# Coordination Sequence:
#
# PCOD8025767 Si02
#       6
#     2   2   2   2   2   2
#     4  10  24  45  66  98 138 178 216 270 344 392
#     4  12  28  45  67  96 141 181 217 273 344 396
#     4  12  22  41  75 103 127 173 231 278 321 393
#     4  11  24  44  69 104 133 167 233 278 322 396
#     4  10  23  46  66  99 133 179 218 271 333 400
#     4   9  23  44  72  93 137 174 225 275 326 389
#
# _framework density 22.631316999999999
#
# number of rings (size 3 to 8) (size 9 to 14) (size 15 to 20)
#    1.000    0.333    1.667    3.000    7.000    1.333 
#    0.000    2.500    0.000    0.000    0.000    0.000 
#    0.000    0.000    0.000    0.000    0.000    0.000 
#
# Total GULP energy -148659.530877 kJ/mol
# GULP energy per Si atom -12388.294240 kJ/mol
# Density = 2.257981 g / cm^3
# Si number density = 22.631317 Si / 1000 Ang^3
#
#
#
# Elastic Constant Matrix: (Units=GPa)
#
#
# Indices 1 2 3 4 5 6 
#
# 1 84.5801 31.7145 39.6968 -16.8969 8.2442 -15.2375
# 2 31.7145 128.4132 67.4736 10.1677 11.6504 0.8806
# 3 39.6968 67.4736 138.1322 -2.4231 9.1723 -15.3955
# 4 -16.8969 10.1677 -2.4231 48.2397 -12.4323 0.2925
# 5 8.2442 11.6504 9.1723 -12.4323 17.7419 -1.7609
# 6 -15.2375 0.8806 -15.3955 0.2925 -1.7609 26.7983
#
#
#
# Elastic Compliance Matrix: (Units=1/GPa)
#
#
# Indices 1 2 3 4 5 6 
#
# 1 0.017053 -0.003912 -0.001994 0.007021 0.001458 0.008699
# 2 -0.003912 0.013036 -0.005450 -0.006745 -0.009279 -0.006320
# 3 -0.001994 -0.005450 0.011096 0.000971 -0.000013 0.005408
# 4 0.007021 -0.006745 0.000971 0.030444 0.022586 0.005923
# 5 0.001458 -0.009279 -0.000013 0.022586 0.078210 0.006019
# 6 0.008699 -0.006320 0.005408 0.005923 0.006019 0.045907
#
#
# Mechanical properties :
#
#
# Convention : Reuss Voigt Hill
#
# Bulk Modulus (GPa) = 54.13393 69.87726 62.00559
# Shear Modulus (GPa) = 22.26015 32.70533 27.48274
#
# Velocity S-wave (km/s) = 3.13964 3.80562 3.48856
# Velocity P-wave (km/s) = 6.09221 7.08898 6.60941
#
# Compressibility (1/GPa) = 0.01847270
#
# Stress axis : x y z
#
# Youngs Moduli (GPa) = 58.63967 76.70794 90.12612
#
# Poissons Ratio (x) = 0.30006 0.17974
# Poissons Ratio (y) = 0.22938 0.49122
# Poissons Ratio (z) = 0.11694 0.41809
#
# Static dielectric constant tensor:
#      x y z
#    x 3.664230 -0.034890 -0.076830 
#    y -0.034890 4.278500 0.023270 
#    z -0.076830 0.023270 4.202600 
# 
# 
# High freq. dielectric constant tensor:
#      x y z
#    x 1.856930 -0.012660 -0.004710 
#    y -0.012660 1.899800 0.003620 
#    z -0.004710 0.003620 1.904220 
# 
# From -- ./inp_files/390070.got.cif
#   From: 2010.06.25/outbox.cif.g09.slc.cpg/sg2_196_cif.got.tgz:390070.got - 2010.06.27 13:26:56.
