data_PCOD8025620
_publ_section_title
;
Structure prediction by ZEFSAII (Michael W. Deem and Ramdas Pophale) SiO2 
 PCOD8025620
Probable space group: P -1
;
_chemical_formula_sum "Si O2"
_cell_formula_units_Z 16
_cell_length_a 9.235728
_cell_length_b 8.794576
_cell_length_c 10.953677
_cell_angle_alpha 83.902784
_cell_angle_beta 83.043335
_cell_angle_gamma 49.744123
_cell_volume 673.535111
_symmetry_space_group_name_H-M "P -1"
_symmetry_group_IT_number 2
_symmetry_cell_setting 'triclinic'
loop_
_space_group_symop_operation_xyz
x,y,z
-x,-y,-z
loop_
_atom_site_type_symbol
_atom_site_label
_atom_site_fract_x
_atom_site_fract_y
_atom_site_fract_z
Si Si1 0.866563 0.561280 0.758317
Si Si2 0.785705 0.386116 0.971851
Si Si3 0.437094 0.880015 0.730140
Si Si4 0.198519 0.275909 0.575070
Si Si5 0.508723 0.315749 0.491922
Si Si6 0.411949 0.791697 0.009138
Si Si7 0.898061 0.837935 0.850773
Si Si8 0.128588 0.045198 0.423389
O O1 0.872500 0.391903 0.836131
O O2 0.662418 0.760477 0.717621
O O3 0.928708 0.636663 0.851140
O O4 0.003518 0.468406 0.635947
O O5 0.639771 0.614859 0.020719
O O6 0.675694 0.312769 0.943535
O O7 0.944595 0.218728 0.062454
O O8 0.399822 0.770050 0.644944
O O9 0.363480 0.876872 0.869346
O O10 0.329023 0.104774 0.677669
O O11 0.312095 0.351947 0.513832
O O12 0.133217 0.203102 0.481872
O O13 0.500000 0.500000 0.500000
O O14 0.653888 0.155857 0.591699
O O15 0.315906 0.978111 0.095199
O O16 0.944942 0.883706 0.712603
O O17 0.000000 0.000000 0.500000
#
# Coordination Sequence:
#
# PCOD8025620 Si02
#       8
#     2   2   2   2   2   2   2   2
#     4  11  25  42  73 102 135 184 236 285 354 420
#     4  10  24  43  68 102 135 183 230 283 350 412
#     4  10  23  45  70  99 140 188 229 288 356 412
#     4  11  25  48  70  99 148 185 231 297 353 417
#     4  11  26  46  72 105 139 189 239 289 356 422
#     4  10  24  44  68  98 141 180 230 290 344 417
#     4  12  25  42  67  99 138 177 232 287 343 419
#     4  11  28  45  70 109 138 183 238 290 356 425
#
# _framework density 23.755258999999999
#
# number of rings (size 3 to 8) (size 9 to 14) (size 15 to 20)
#    0.000    1.250    0.000    4.500    8.750    7.000 
#    0.000    0.000    0.000    0.000    0.000    0.000 
#    0.000    0.000    0.000    0.000    0.000    0.000 
#
# Total GULP energy -198339.641280 kJ/mol
# GULP energy per Si atom -12396.227580 kJ/mol
# Density = 2.370119 g / cm^3
# Si number density = 23.755259 Si / 1000 Ang^3
#
#
#
# Elastic Constant Matrix: (Units=GPa)
#
#
# Indices 1 2 3 4 5 6 
#
# 1 87.9430 21.0917 15.5870 1.3147 -15.8493 14.6087
# 2 21.0917 117.1906 31.3009 10.1420 -2.9366 5.7679
# 3 15.5870 31.3009 107.4153 -4.3635 -17.9358 6.6794
# 4 1.3147 10.1420 -4.3635 43.9843 -4.2075 7.5829
# 5 -15.8493 -2.9366 -17.9358 -4.2075 36.8048 -8.0428
# 6 14.6087 5.7679 6.6794 7.5829 -8.0428 47.2074
#
#
#
# Elastic Compliance Matrix: (Units=1/GPa)
#
#
# Indices 1 2 3 4 5 6 
#
# 1 0.013318 -0.002145 -0.000253 0.001084 0.004873 -0.003168
# 2 -0.002145 0.009908 -0.003003 -0.002699 -0.001908 -0.000013
# 3 -0.000253 -0.003003 0.011239 0.002429 0.005267 -0.000638
# 4 0.001084 -0.002699 0.002429 0.024533 0.003430 -0.003706
# 5 0.004873 -0.001908 0.005267 0.003430 0.032732 0.003006
# 6 -0.003168 -0.000013 -0.000638 -0.003706 0.003006 0.023363
#
#
# Mechanical properties :
#
#
# Convention : Reuss Voigt Hill
#
# Bulk Modulus (GPa) = 42.26070 49.83424 46.04747
# Shear Modulus (GPa) = 37.37377 41.90392 39.63885
#
# Velocity S-wave (km/s) = 3.97077 4.20454 4.08932
# Velocity P-wave (km/s) = 6.23308 6.67792 6.45933
#
# Compressibility (1/GPa) = 0.02366265
#
# Stress axis : x y z
#
# Youngs Moduli (GPa) = 75.08378 100.93115 88.97356
#
# Poissons Ratio (x) = 0.21652 0.02250
# Poissons Ratio (y) = 0.16107 0.26721
# Poissons Ratio (z) = 0.01899 0.30312
#
# Static dielectric constant tensor:
#      x y z
#    x 4.285640 -0.122890 -0.012500 
#    y -0.122890 4.484020 -0.036620 
#    z -0.012500 -0.036620 4.282170 
# 
# 
# High freq. dielectric constant tensor:
#      x y z
#    x 1.937970 -0.004070 -0.005740 
#    y -0.004070 1.953710 -0.011840 
#    z -0.005740 -0.011840 1.946390 
# 
# From -- ./inp_files/381966.got.cif
#   From: 2010.06.25/outbox.cif.g09.slc.cpg/sg2_191_cif.got.tgz:381966.got - 2010.06.27 13:26:56.
