data_PCOD8025725
_publ_section_title
;
Structure prediction by ZEFSAII (Michael W. Deem and Ramdas Pophale) SiO2 
 PCOD8025725
Probable space group: P -1
;
_chemical_formula_sum "Si O2"
_cell_formula_units_Z 16
_cell_length_a 8.122141
_cell_length_b 10.992810
_cell_length_c 18.550613
_cell_angle_alpha 154.870090
_cell_angle_beta 104.529769
_cell_angle_gamma 72.919919
_cell_volume 671.898757
_symmetry_space_group_name_H-M "P -1"
_symmetry_group_IT_number 2
_symmetry_cell_setting 'triclinic'
loop_
_space_group_symop_operation_xyz
x,y,z
-x,-y,-z
loop_
_atom_site_type_symbol
_atom_site_label
_atom_site_fract_x
_atom_site_fract_y
_atom_site_fract_z
Si Si1 0.268770 0.317839 0.521896
Si Si2 0.054847 0.383226 0.279863
Si Si3 0.409680 0.281243 0.917879
Si Si4 0.126979 0.719681 0.926053
Si Si5 0.719429 0.288834 0.742694
Si Si6 0.546049 0.320280 0.163880
Si Si7 0.636787 0.699361 0.636958
Si Si8 0.074889 0.360058 0.859063
O O1 0.378093 0.564856 0.692297
O O2 0.260944 0.280233 0.415152
O O3 0.071385 0.411649 0.571839
O O4 0.347147 0.008246 0.401542
O O5 0.245359 0.424145 0.348192
O O6 0.003182 0.450265 0.226412
O O7 0.034730 0.046812 0.105516
O O8 0.256569 0.153510 0.788301
O O9 0.548691 0.019730 0.821893
O O10 0.500000 0.500000 0.000000
O O11 0.321582 0.451092 0.066676
O O12 0.311859 0.688442 0.888934
O O13 0.145374 0.589270 0.937385
O O14 0.622643 0.434888 0.739337
O O15 0.930463 0.212645 0.721769
O O16 0.500000 0.000000 0.000000
O O17 0.500000 0.500000 0.500000
O O18 0.000000 0.500000 0.000000
#
# Coordination Sequence:
#
# PCOD8025725 Si02
#       8
#     2   2   2   2   2   2   2   2
#     4  11  26  45  66 102 145 191 235 305 359 423
#     4  10  24  44  70  98 144 185 236 287 373 411
#     4  11  22  45  69  98 137 189 235 292 365 421
#     4  10  23  45  75 102 139 189 239 302 352 434
#     4  11  24  43  70  99 141 186 238 297 357 431
#     4  11  26  46  74 104 143 189 244 293 365 437
#     4  12  27  41  70 104 144 188 243 303 357 427
#     4  10  24  40  72 106 135 181 243 293 357 425
#
# _framework density 23.813110999999999
#
# number of rings (size 3 to 8) (size 9 to 14) (size 15 to 20)
#    0.000    1.250    1.250    3.000   12.250    1.000 
#    0.000    2.500    0.000    0.000    0.000    0.000 
#    0.000    0.000    0.000    0.000    0.000    0.000 
#
# Total GULP energy -198239.105415 kJ/mol
# GULP energy per Si atom -12389.944088 kJ/mol
# Density = 2.375891 g / cm^3
# Si number density = 23.813111 Si / 1000 Ang^3
#
#
#
# Elastic Constant Matrix: (Units=GPa)
#
#
# Indices 1 2 3 4 5 6 
#
# 1 92.4385 43.7448 29.2433 -9.7777 3.8991 -21.1955
# 2 43.7448 94.8652 16.1965 -10.7042 7.5585 -15.8631
# 3 29.2433 16.1965 100.7670 -1.8972 5.9030 -9.2671
# 4 -9.7777 -10.7042 -1.8972 28.3051 -5.0880 4.7332
# 5 3.8991 7.5585 5.9030 -5.0880 39.4774 -2.3016
# 6 -21.1955 -15.8631 -9.2671 4.7332 -2.3016 48.6404
#
#
#
# Elastic Compliance Matrix: (Units=1/GPa)
#
#
# Indices 1 2 3 4 5 6 
#
# 1 0.015777 -0.005796 -0.003254 0.002453 0.000596 0.004154
# 2 -0.005796 0.013967 -0.000267 0.002697 -0.001619 0.001640
# 3 -0.003254 -0.000267 0.011031 -0.000830 -0.001348 0.000614
# 4 0.002453 0.002697 -0.000830 0.038182 0.004186 -0.001727
# 5 0.000596 -0.001619 -0.001348 0.004186 0.026341 0.000314
# 6 0.004154 0.001640 0.000614 -0.001727 0.000314 0.023204
#
#
# Mechanical properties :
#
#
# Convention : Reuss Voigt Hill
#
# Bulk Modulus (GPa) = 45.16200 51.82664 48.49432
# Shear Modulus (GPa) = 32.35938 36.54365 34.45152
#
# Velocity S-wave (km/s) = 3.69031 3.92165 3.80774
# Velocity P-wave (km/s) = 6.09625 6.50515 6.30401
#
# Compressibility (1/GPa) = 0.02214251
#
# Stress axis : x y z
#
# Youngs Moduli (GPa) = 63.38387 71.59846 90.65547
#
# Poissons Ratio (x) = 0.41496 0.29497
# Poissons Ratio (y) = 0.36735 0.02417
# Poissons Ratio (z) = 0.20623 0.01909
#
# Static dielectric constant tensor:
#      x y z
#    x 4.428260 -0.359480 0.056010 
#    y -0.359480 4.906380 -0.213740 
#    z 0.056010 -0.213740 3.935240 
# 
# 
# High freq. dielectric constant tensor:
#      x y z
#    x 1.947440 -0.021600 -0.000580 
#    y -0.021600 1.952180 -0.011820 
#    z -0.000580 -0.011820 1.930190 
# 
# From -- ./inp_files/405202.got.cif
#   From: 2010.06.25/outbox.cif.g09.slc.cpg/sg2_203_cif.got.tgz:405202.got - 2010.06.27 13:26:56.
