data_PCOD8025974
_publ_section_title
;
Structure prediction by ZEFSAII (Michael W. Deem and Ramdas Pophale) SiO2 
 PCOD8025974
Probable space group: P -1
;
_chemical_formula_sum "Si O2"
_cell_formula_units_Z 14
_cell_length_a 7.781677
_cell_length_b 12.815320
_cell_length_c 8.968699
_cell_angle_alpha 128.798006
_cell_angle_beta 124.588342
_cell_angle_gamma 66.017940
_cell_volume 572.057330
_symmetry_space_group_name_H-M "P -1"
_symmetry_group_IT_number 2
_symmetry_cell_setting 'triclinic'
loop_
_space_group_symop_operation_xyz
x,y,z
-x,-y,-z
loop_
_atom_site_type_symbol
_atom_site_label
_atom_site_fract_x
_atom_site_fract_y
_atom_site_fract_z
Si Si1 0.568781 0.124044 0.792659
Si Si2 0.871523 0.321605 0.172935
Si Si3 0.490062 0.253788 0.577006
Si Si4 0.081116 0.644939 0.184222
Si Si5 0.157310 0.091953 0.743915
Si Si6 0.930720 0.598642 0.372844
Si Si7 0.237501 0.098670 0.116570
O O1 0.555208 0.125173 0.604672
O O2 0.346808 0.108931 0.742825
O O3 0.747208 0.017685 0.853616
O O4 0.638363 0.274386 0.997490
O O5 0.910773 0.439670 0.176308
O O6 0.894375 0.395096 0.407510
O O7 0.025298 0.189025 0.116905
O O8 0.672954 0.351475 0.725066
O O9 0.295513 0.339147 0.631385
O O10 0.431050 0.190106 0.331503
O O11 0.959136 0.764240 0.136694
O O12 0.022274 0.683498 0.360895
O O13 0.000000 0.500000 0.000000
O O14 0.247327 0.035319 0.897452
O O15 0.000000 0.000000 0.500000
#
# Coordination Sequence:
#
# PCOD8025974 Si02
#       7
#     2   2   2   2   2   2   2
#     4  12  24  42  72 101 145 189 238 293 361 420
#     4  10  24  43  71 102 141 186 241 292 358 425
#     4  11  25  45  75 107 141 189 241 292 361 424
#     4  12  26  45  74 104 148 189 242 294 359 426
#     4  12  28  46  69 109 148 188 244 299 363 428
#     4  10  23  47  68 106 146 182 238 301 352 420
#     4  11  25  46  69 104 142 190 242 292 357 433
#
# _framework density 24.473072999999999
#
# number of rings (size 3 to 8) (size 9 to 14) (size 15 to 20)
#    0.000    0.857    1.429    4.714    6.000    2.286 
#    0.000    2.857    0.000    0.000    0.000    0.000 
#    0.000    0.000    0.000    0.000    0.000    0.000 
#
# Total GULP energy -173537.971079 kJ/mol
# GULP energy per Si atom -12395.569363 kJ/mol
# Density = 2.441737 g / cm^3
# Si number density = 24.473073 Si / 1000 Ang^3
#
#
#
# Elastic Constant Matrix: (Units=GPa)
#
#
# Indices 1 2 3 4 5 6 
#
# 1 127.8858 33.3241 54.8011 -1.3897 18.2095 23.0170
# 2 33.3241 114.4319 42.8294 -4.7184 7.3819 3.3784
# 3 54.8011 42.8294 149.5783 -10.9078 11.8003 20.0815
# 4 -1.3897 -4.7184 -10.9078 36.1863 1.8772 -3.6049
# 5 18.2095 7.3819 11.8003 1.8772 23.2573 7.9471
# 6 23.0170 3.3784 20.0815 -3.6049 7.9471 37.8115
#
#
#
# Elastic Compliance Matrix: (Units=1/GPa)
#
#
# Indices 1 2 3 4 5 6 
#
# 1 0.010840 -0.001773 -0.002563 -0.000723 -0.005178 -0.004060
# 2 -0.001773 0.010199 -0.002345 0.000800 -0.001328 0.001769
# 3 -0.002563 -0.002345 0.008869 0.002073 -0.001055 -0.002521
# 4 -0.000723 0.000800 0.002073 0.028832 -0.004046 0.002867
# 5 -0.005178 -0.001328 -0.001055 -0.004046 0.050807 -0.007233
# 6 -0.004060 0.001769 -0.002521 0.002867 -0.007233 0.031893
#
#
# Mechanical properties :
#
#
# Convention : Reuss Voigt Hill
#
# Bulk Modulus (GPa) = 60.43998 72.64501 66.54249
# Shear Modulus (GPa) = 31.18824 36.84713 34.01769
#
# Velocity S-wave (km/s) = 3.57373 3.88444 3.73232
# Velocity P-wave (km/s) = 6.46366 7.06163 6.76925
#
# Compressibility (1/GPa) = 0.01654534
#
# Stress axis : x y z
#
# Youngs Moduli (GPa) = 92.25123 98.04480 112.75574
#
# Poissons Ratio (x) = 0.17388 0.28897
# Poissons Ratio (y) = 0.16360 0.26442
# Poissons Ratio (z) = 0.23643 0.22993
#
# Static dielectric constant tensor:
#      x y z
#    x 4.243380 0.278890 -0.033520 
#    y 0.278890 4.872420 -0.246060 
#    z -0.033520 -0.246060 4.886320 
# 
# 
# High freq. dielectric constant tensor:
#      x y z
#    x 1.960300 0.010750 0.002810 
#    y 0.010750 1.983610 -0.002680 
#    z 0.002810 -0.002680 1.996320 
# 
# From -- ./inp_files/190472.got.cif
#   From: 2010.06.25/outbox.cif.g09.slc.cpg/sg2_96_cif.got.tgz:190472.got - 2010.06.27 13:26:56.
