data_PCOD8025853
_publ_section_title
;
Structure prediction by ZEFSAII (Michael W. Deem and Ramdas Pophale) SiO2 
 PCOD8025853
Probable space group: P -1
;
_chemical_formula_sum "Si O2"
_cell_formula_units_Z 16
_cell_length_a 11.713512
_cell_length_b 9.459325
_cell_length_c 17.893100
_cell_angle_alpha 122.433126
_cell_angle_beta 149.766571
_cell_angle_gamma 45.409030
_cell_volume 697.142400
_symmetry_space_group_name_H-M "P -1"
_symmetry_group_IT_number 2
_symmetry_cell_setting 'triclinic'
loop_
_space_group_symop_operation_xyz
x,y,z
-x,-y,-z
loop_
_atom_site_type_symbol
_atom_site_label
_atom_site_fract_x
_atom_site_fract_y
_atom_site_fract_z
Si Si1 0.624420 0.328652 0.961628
Si Si2 0.562387 0.459529 0.640834
Si Si3 0.920586 0.125248 0.564418
Si Si4 0.441989 0.108297 0.889814
Si Si5 0.815881 0.682187 0.048746
Si Si6 0.663064 0.388839 0.838325
Si Si7 0.688646 0.054937 0.546782
Si Si8 0.193277 0.030294 0.246927
O O1 0.556886 0.168675 0.903323
O O2 0.510065 0.412482 0.837057
O O3 0.500000 0.500000 0.000000
O O4 0.953559 0.222313 0.119804
O O5 0.376567 0.664842 0.548310
O O6 0.472678 0.505225 0.691099
O O7 0.510201 0.293499 0.534431
O O8 0.881415 0.370966 0.781540
O O9 0.909528 0.999242 0.591233
O O10 0.144638 0.170738 0.717045
O O11 0.000000 0.000000 0.500000
O O12 0.382868 0.240508 0.968902
O O13 0.659544 0.868303 0.955003
O O14 0.847702 0.479719 0.978128
O O15 0.830579 0.153558 0.843450
O O16 0.486179 0.993511 0.384657
O O17 0.857011 0.930522 0.680864
#
# Coordination Sequence:
#
# PCOD8025853 Si02
#       8
#     2   2   2   2   2   2   2   2
#     4  12  26  42  68  99 142 179 224 278 346 410
#     4  11  24  44  71 100 133 186 233 278 340 408
#     4  12  27  41  70 102 142 176 230 286 345 404
#     4  11  25  44  68 107 137 181 227 287 347 401
#     4  11  23  44  75  99 140 178 232 288 340 407
#     4  11  24  44  67 103 131 179 230 285 334 399
#     4  10  23  46  70  95 136 183 228 279 337 417
#     4  10  25  44  70  99 134 182 232 279 338 409
#
# _framework density 22.950834
#
# number of rings (size 3 to 8) (size 9 to 14) (size 15 to 20)
#    0.000    1.000    2.500    3.375    7.000    2.000 
#    0.000    0.625    0.000    0.000    0.000    0.000 
#    0.000    0.000    0.000    0.000    0.000    0.000 
#
# Total GULP energy -198332.759298 kJ/mol
# GULP energy per Si atom -12395.797456 kJ/mol
# Density = 2.289860 g / cm^3
# Si number density = 22.950834 Si / 1000 Ang^3
#
#
#
# Elastic Constant Matrix: (Units=GPa)
#
#
# Indices 1 2 3 4 5 6 
#
# 1 122.7443 2.1585 33.5125 9.7257 -6.4134 20.3430
# 2 2.1585 81.4529 42.7027 15.5983 13.6813 0.3369
# 3 33.5125 42.7027 91.7756 6.6652 7.8753 0.3765
# 4 9.7257 15.5983 6.6652 39.0498 -1.1433 0.8115
# 5 -6.4134 13.6813 7.8753 -1.1433 26.6610 1.6661
# 6 20.3430 0.3369 0.3765 0.8115 1.6661 33.4364
#
#
#
# Elastic Compliance Matrix: (Units=1/GPa)
#
#
# Indices 1 2 3 4 5 6 
#
# 1 0.011027 0.002417 -0.005216 -0.002585 0.003265 -0.006774
# 2 0.002417 0.019326 -0.008762 -0.007009 -0.006983 -0.001048
# 3 -0.005216 -0.008762 0.016895 0.001796 -0.001867 0.003121
# 4 -0.002585 -0.007009 0.001796 0.028836 0.003634 0.000742
# 5 0.003265 -0.006983 -0.001867 0.003634 0.042841 -0.004118
# 6 -0.006774 -0.001048 0.003121 0.000742 -0.004118 0.034192
#
#
# Mechanical properties :
#
#
# Convention : Reuss Voigt Hill
#
# Bulk Modulus (GPa) = 41.45071 50.30223 45.87647
# Shear Modulus (GPa) = 27.13249 34.33605 30.73427
#
# Velocity S-wave (km/s) = 3.44204 3.87210 3.66339
# Velocity P-wave (km/s) = 5.82209 6.47734 6.15843
#
# Compressibility (1/GPa) = 0.02412504
#
# Stress axis : x y z
#
# Youngs Moduli (GPa) = 90.68879 51.74349 59.19021
#
# Poissons Ratio (x) = -0.12505 0.30872
# Poissons Ratio (y) = -0.21917 0.51864
# Poissons Ratio (z) = 0.47300 0.45339
#
# Static dielectric constant tensor:
#      x y z
#    x 4.400560 0.267060 -0.235550 
#    y 0.267060 4.134490 0.096550 
#    z -0.235550 0.096550 4.112400 
# 
# 
# High freq. dielectric constant tensor:
#      x y z
#    x 1.915390 0.012360 -0.016490 
#    y 0.012360 1.904340 0.013570 
#    z -0.016490 0.013570 1.896560 
# 
# From -- ./inp_files/216527.got.cif
#   From: 2010.06.25/outbox.cif.g09.slc.cpg/sg2_109_cif.got.tgz:216527.got - 2010.06.27 13:26:56.
