data_PCOD8025042
_publ_section_title
;
Structure prediction by ZEFSAII (Michael W. Deem and Ramdas Pophale) SiO2 
 PCOD8025042
Probable space group: P -1
;
_chemical_formula_sum "Si O2"
_cell_formula_units_Z 16
_cell_length_a 15.821738
_cell_length_b 9.327398
_cell_length_c 8.733168
_cell_angle_alpha 96.547439
_cell_angle_beta 29.554412
_cell_angle_gamma 93.855904
_cell_volume 630.212565
_symmetry_space_group_name_H-M "P -1"
_symmetry_group_IT_number 2
_symmetry_cell_setting 'triclinic'
loop_
_space_group_symop_operation_xyz
x,y,z
-x,-y,-z
loop_
_atom_site_type_symbol
_atom_site_label
_atom_site_fract_x
_atom_site_fract_y
_atom_site_fract_z
Si Si1 0.351288 0.598649 0.831651
Si Si2 0.968539 0.874454 0.651044
Si Si3 0.164595 0.400954 0.688335
Si Si4 0.029999 0.387138 0.573015
Si Si5 0.523343 0.123987 0.810227
Si Si6 0.650336 0.139503 0.939606
Si Si7 0.842023 0.914506 0.185217
Si Si8 0.491223 0.554906 0.189103
O O1 0.500000 0.500000 0.500000
O O2 0.336218 0.508626 0.004396
O O3 0.164483 0.621250 0.048555
O O4 0.412356 0.757471 0.805936
O O5 0.891376 0.753771 0.654094
O O6 0.158919 0.822893 0.407608
O O7 0.000000 0.000000 0.500000
O O8 0.844831 0.906006 0.994573
O O9 0.155275 0.242790 0.758890
O O10 0.326182 0.480170 0.511134
O O11 0.166224 0.400597 0.498260
O O12 0.000000 0.500000 0.000000
O O13 0.000000 0.500000 0.500000
O O14 0.526611 0.167794 0.990438
O O15 0.527416 0.272904 0.729240
O O16 0.676554 0.010371 0.508530
O O17 0.356827 0.031857 0.025120
O O18 0.000000 0.000000 0.000000
O O19 0.500000 0.500000 0.000000
#
# Coordination Sequence:
#
# PCOD8025042 Si02
#       8
#     2   2   2   2   2   2   2   2
#     4  11  24  45  67 100 141 185 230 297 357 428
#     4  11  25  45  69 101 144 184 230 292 369 435
#     4  12  26  44  71 108 141 188 248 297 351 436
#     4  11  25  43  66  99 145 184 228 294 362 419
#     4  11  24  43  72 103 138 180 246 301 350 419
#     4  10  23  44  68 101 141 181 234 298 357 424
#     4  12  24  42  72 104 141 188 242 298 358 432
#     4  12  25  44  73 100 137 190 248 292 357 428
#
# _framework density 25.388259000000001
#
# number of rings (size 3 to 8) (size 9 to 14) (size 15 to 20)
#    0.000    0.750    2.500    4.500    3.500    4.000 
#    0.000    1.250    0.000    0.000    0.000    0.000 
#    0.000    0.000    0.000    0.000    0.000    0.000 
#
# Total GULP energy -198226.823051 kJ/mol
# GULP energy per Si atom -12389.176441 kJ/mol
# Density = 2.533047 g / cm^3
# Si number density = 25.388259 Si / 1000 Ang^3
#
#
#
# Elastic Constant Matrix: (Units=GPa)
#
#
# Indices 1 2 3 4 5 6 
#
# 1 80.1250 23.4653 2.5597 -0.4118 12.4395 -1.5403
# 2 23.4653 186.3550 12.4445 -11.0373 2.7755 -2.8128
# 3 2.5597 12.4445 68.3871 10.5048 14.5452 6.1561
# 4 -0.4118 -11.0373 10.5048 45.5533 1.5298 7.9642
# 5 12.4395 2.7755 14.5452 1.5298 45.7558 -3.7171
# 6 -1.5403 -2.8128 6.1561 7.9642 -3.7171 43.9400
#
#
#
# Elastic Compliance Matrix: (Units=1/GPa)
#
#
# Indices 1 2 3 4 5 6 
#
# 1 0.013546 -0.001712 0.000655 -0.000319 -0.003776 0.000012
# 2 -0.001712 0.005766 -0.001369 0.001637 0.000516 0.000248
# 3 0.000655 -0.001369 0.016770 -0.003620 -0.005486 -0.002222
# 4 -0.000319 0.001637 -0.003620 0.023829 0.000040 -0.003715
# 5 -0.003776 0.000516 -0.005486 0.000040 0.024817 0.002761
# 6 0.000012 0.000248 -0.002222 -0.003715 0.002761 0.023993
#
#
# Mechanical properties :
#
#
# Convention : Reuss Voigt Hill
#
# Bulk Modulus (GPa) = 32.01901 45.75626 38.88763
# Shear Modulus (GPa) = 40.32868 46.80967 43.56918
#
# Velocity S-wave (km/s) = 3.98989 4.29855 4.14710
# Velocity P-wave (km/s) = 5.81935 6.53441 6.18722
#
# Compressibility (1/GPa) = 0.03123145
#
# Stress axis : x y z
#
# Youngs Moduli (GPa) = 73.82453 173.42941 59.63023
#
# Poissons Ratio (x) = 0.29689 -0.03908
# Poissons Ratio (y) = 0.12638 0.08161
# Poissons Ratio (z) = -0.04839 0.23737
#
# Static dielectric constant tensor:
#      x y z
#    x 5.732140 0.861410 -0.995960 
#    y 0.861410 4.667980 0.346420 
#    z -0.995960 0.346420 4.345310 
# 
# 
# High freq. dielectric constant tensor:
#      x y z
#    x 2.022250 0.009900 -0.008400 
#    y 0.009900 2.028710 0.006560 
#    z -0.008400 0.006560 2.017800 
# 
# From -- ./inp_files/328991.got.cif
#   From: 2010.06.25/outbox.cif.g09.slc.cpg/sg2_165_cif.got.tgz:328991.got - 2010.06.27 13:26:56.
