data_PCOD8025300
_publ_section_title
;
Structure prediction by ZEFSAII (Michael W. Deem and Ramdas Pophale) SiO2 
 PCOD8025300
Probable space group: P -1
;
_chemical_formula_sum "Si O2"
_cell_formula_units_Z 14
_cell_length_a 17.937731
_cell_length_b 8.713546
_cell_length_c 5.239639
_cell_angle_alpha 123.938199
_cell_angle_beta 67.014562
_cell_angle_gamma 116.100931
_cell_volume 598.508174
_symmetry_space_group_name_H-M "P -1"
_symmetry_group_IT_number 2
_symmetry_cell_setting 'triclinic'
loop_
_space_group_symop_operation_xyz
x,y,z
-x,-y,-z
loop_
_atom_site_type_symbol
_atom_site_label
_atom_site_fract_x
_atom_site_fract_y
_atom_site_fract_z
Si Si1 0.795573 0.086554 0.791494
Si Si2 0.895095 0.242838 0.312479
Si Si3 0.085404 0.322924 0.147818
Si Si4 0.422701 0.936278 0.354856
Si Si5 0.817931 0.701290 0.524782
Si Si6 0.520279 0.302845 0.335322
Si Si7 0.314567 0.703876 0.655340
O O1 0.843822 0.105463 0.476417
O O2 0.767920 0.858808 0.683066
O O3 0.852701 0.205528 0.056233
O O4 0.715766 0.177385 0.964427
O O5 0.902315 0.459499 0.581344
O O6 0.986908 0.208575 0.140597
O O7 0.122715 0.222668 0.236129
O O8 0.129781 0.321719 0.815895
O O9 0.330065 0.856649 0.537775
O O10 0.500000 0.000000 0.500000
O O11 0.433171 0.131458 0.353931
O O12 0.435393 0.753955 0.020970
O O13 0.752481 0.498854 0.502795
O O14 0.500000 0.500000 0.500000
O O15 0.594554 0.334336 0.474514
#
# Coordination Sequence:
#
# PCOD8025300 Si02
#       7
#     2   2   2   2   2   2   2
#     4  12  26  43  68 102 137 188 228 286 349 394
#     4  11  23  45  72  95 141 186 233 289 341 401
#     4  11  23  45  70 100 136 187 237 285 339 406
#     4   9  22  43  68  95 131 169 212 272 330 410
#     4  12  26  42  68 103 139 182 236 281 345 402
#     4  10  23  44  73 100 127 173 223 271 334 412
#     4  11  25  43  65  96 143 169 222 280 341 408
#
# _framework density 23.391490999999998
#
# number of rings (size 3 to 8) (size 9 to 14) (size 15 to 20)
#    0.000    1.143    2.857    1.714    4.000   12.571 
#    0.000    0.000    0.000    0.000    0.000    0.000 
#    0.000    0.000    0.000    0.000    0.000    0.000 
#
# Total GULP energy -173504.320698 kJ/mol
# GULP energy per Si atom -12393.165764 kJ/mol
# Density = 2.333825 g / cm^3
# Si number density = 23.391491 Si / 1000 Ang^3
#
#
#
# Elastic Constant Matrix: (Units=GPa)
#
#
# Indices 1 2 3 4 5 6 
#
# 1 68.3541 38.4571 24.6565 -4.4497 -18.0657 -8.8677
# 2 38.4571 133.9675 48.3102 -7.7274 -27.9458 3.5159
# 3 24.6565 48.3102 86.5778 -9.8823 0.0481 4.2124
# 4 -4.4497 -7.7274 -9.8823 46.1332 -14.2267 -5.7954
# 5 -18.0657 -27.9458 0.0481 -14.2267 38.2037 -3.8561
# 6 -8.8677 3.5159 4.2124 -5.7954 -3.8561 28.8920
#
#
#
# Elastic Compliance Matrix: (Units=1/GPa)
#
#
# Indices 1 2 3 4 5 6 
#
# 1 0.022781 -0.001927 -0.005261 0.006040 0.012719 0.010902
# 2 -0.001927 0.012361 -0.005975 0.003658 0.009580 0.000788
# 3 -0.005261 -0.005975 0.016502 -0.000903 -0.007669 -0.004498
# 4 0.006040 0.003658 -0.000903 0.029272 0.017416 0.009736
# 5 0.012719 0.009580 -0.007669 0.017416 0.047069 0.013632
# 6 0.010902 0.000788 -0.004498 0.009736 0.013632 0.042290
#
#
# Mechanical properties :
#
#
# Convention : Reuss Voigt Hill
#
# Bulk Modulus (GPa) = 39.49548 56.86077 48.17813
# Shear Modulus (GPa) = 24.38554 34.47747 29.43150
#
# Velocity S-wave (km/s) = 3.23227 3.84335 3.55098
# Velocity P-wave (km/s) = 5.55440 6.63748 6.11995
#
# Compressibility (1/GPa) = 0.02531935
#
# Stress axis : x y z
#
# Youngs Moduli (GPa) = 43.89704 80.90000 60.59750
#
# Poissons Ratio (x) = 0.15590 0.31878
# Poissons Ratio (y) = 0.08459 0.36205
# Poissons Ratio (z) = 0.23092 0.48335
#
# Static dielectric constant tensor:
#      x y z
#    x 4.103380 0.060090 0.029520 
#    y 0.060090 4.914510 -0.365020 
#    z 0.029520 -0.365020 4.396250 
# 
# 
# High freq. dielectric constant tensor:
#      x y z
#    x 1.919160 -0.002000 0.005760 
#    y -0.002000 1.939590 -0.003250 
#    z 0.005760 -0.003250 1.931260 
# 
# From -- ./inp_files/46453.got.cif
#   From: 2010.06.25/outbox.cif.g09.slc.cpg/sg2_24_cif.got.tgz:46453.got - 2010.06.27 13:26:56.
