data_PCOD8025732
_publ_section_title
;
Structure prediction by ZEFSAII (Michael W. Deem and Ramdas Pophale) SiO2 
 PCOD8025732
Probable space group: P -1
;
_chemical_formula_sum "Si O2"
_cell_formula_units_Z 14
_cell_length_a 9.064824
_cell_length_b 8.080219
_cell_length_c 9.542795
_cell_angle_alpha 60.903379
_cell_angle_beta 109.133428
_cell_angle_gamma 105.786743
_cell_volume 571.620991
_symmetry_space_group_name_H-M "P -1"
_symmetry_group_IT_number 2
_symmetry_cell_setting 'triclinic'
loop_
_space_group_symop_operation_xyz
x,y,z
-x,-y,-z
loop_
_atom_site_type_symbol
_atom_site_label
_atom_site_fract_x
_atom_site_fract_y
_atom_site_fract_z
Si Si1 0.310011 0.456493 0.949783
Si Si2 0.727128 0.208349 0.696595
Si Si3 0.715552 0.563233 0.365695
Si Si4 0.846571 0.852598 0.493798
Si Si5 0.866174 0.860906 0.800676
Si Si6 0.423205 0.077145 0.789037
Si Si7 0.209300 0.765414 0.991944
O O1 0.242754 0.479880 0.763098
O O2 0.500000 0.500000 0.000000
O O3 0.241580 0.244651 0.066886
O O4 0.221747 0.592748 0.963194
O O5 0.665743 0.362449 0.510668
O O6 0.580726 0.053667 0.764391
O O7 0.802643 0.308194 0.821195
O O8 0.848073 0.086471 0.708155
O O9 0.858435 0.680760 0.454575
O O10 0.574562 0.697635 0.258253
O O11 0.803114 0.769226 0.669990
O O12 0.714901 0.977345 0.346527
O O13 0.000000 0.000000 0.500000
O O14 0.052952 0.859040 0.873555
O O15 0.370906 0.923187 0.962268
#
# Coordination Sequence:
#
# PCOD8025732 Si02
#       7
#     2   2   2   2   2   2   2
#     4  12  27  47  74 106 146 188 242 295 360 427
#     4  12  25  43  76 109 143 188 242 294 355 426
#     4  10  25  44  72 108 142 183 241 293 356 419
#     4  10  23  46  73 100 148 181 237 293 359 413
#     4  12  26  46  69 103 148 196 236 292 357 428
#     4  10  23  45  75  99 148 181 242 290 361 412
#     4  12  25  47  70 103 148 192 238 293 359 424
#
# _framework density 24.491754
#
# number of rings (size 3 to 8) (size 9 to 14) (size 15 to 20)
#    0.857    0.000    1.429    5.143    4.000    1.714 
#    0.000    4.286    0.000    0.000    0.000    0.000 
#    0.000    0.000    0.000    0.000    0.000    0.000 
#
# Total GULP energy -173499.532529 kJ/mol
# GULP energy per Si atom -12392.823752 kJ/mol
# Density = 2.443601 g / cm^3
# Si number density = 24.491754 Si / 1000 Ang^3
#
#
#
# Elastic Constant Matrix: (Units=GPa)
#
#
# Indices 1 2 3 4 5 6 
#
# 1 86.8788 35.9757 7.0765 -0.0523 -8.0557 -8.7582
# 2 35.9757 118.2186 57.5644 16.8442 -5.4466 -16.0742
# 3 7.0765 57.5644 156.8651 13.9823 -30.2707 -18.4442
# 4 -0.0523 16.8442 13.9823 57.3426 -3.8969 0.7789
# 5 -8.0557 -5.4466 -30.2707 -3.8969 25.1440 -10.9713
# 6 -8.7582 -16.0742 -18.4442 0.7789 -10.9713 37.3687
#
#
#
# Elastic Compliance Matrix: (Units=1/GPa)
#
#
# Indices 1 2 3 4 5 6 
#
# 1 0.015235 -0.005438 0.004357 0.001282 0.012171 0.006929
# 2 -0.005438 0.012853 -0.005355 -0.002873 -0.005873 -0.000053
# 3 0.004357 -0.005355 0.013878 -0.000466 0.022141 0.012078
# 4 0.001282 -0.002873 -0.000466 0.018523 0.001629 -0.001073
# 5 0.012171 -0.005873 0.022141 0.001629 0.085105 0.036207
# 6 0.006929 -0.000053 0.012078 -0.001073 0.036207 0.044975
#
#
# Mechanical properties :
#
#
# Convention : Reuss Voigt Hill
#
# Bulk Modulus (GPa) = 34.37030 62.57728 48.47379
# Shear Modulus (GPa) = 23.45910 41.39413 32.42661
#
# Velocity S-wave (km/s) = 3.09825 4.11557 3.64260
# Velocity P-wave (km/s) = 5.18293 6.94188 6.12587
#
# Compressibility (1/GPa) = 0.02909488
#
# Stress axis : x y z
#
# Youngs Moduli (GPa) = 65.63901 77.80548 72.05824
#
# Poissons Ratio (x) = 0.42308 -0.31398
# Poissons Ratio (y) = 0.35692 0.38585
# Poissons Ratio (z) = -0.28601 0.41662
#
# Static dielectric constant tensor:
#      x y z
#    x 4.144440 -0.052980 -0.072420 
#    y -0.052980 4.185820 0.250300 
#    z -0.072420 0.250300 5.041850 
# 
# 
# High freq. dielectric constant tensor:
#      x y z
#    x 1.963580 -0.000750 0.001340 
#    y -0.000750 1.963470 0.008980 
#    z 0.001340 0.008980 1.999680 
# 
# From -- ./inp_files/156967.got.cif
#   From: 2010.06.25/outbox.cif.g09.slc.cpg/sg2_79_cif.got.tgz:156967.got - 2010.06.27 13:26:56.
