data_PCOD8025943
_publ_section_title
;
Structure prediction by ZEFSAII (Michael W. Deem and Ramdas Pophale) SiO2 
 PCOD8025943
Probable space group: P -1
;
_chemical_formula_sum "Si O2"
_cell_formula_units_Z 12
_cell_length_a 8.702221
_cell_length_b 9.657942
_cell_length_c 7.536724
_cell_angle_alpha 74.597634
_cell_angle_beta 128.421658
_cell_angle_gamma 100.043671
_cell_volume 478.404431
_symmetry_space_group_name_H-M "P -1"
_symmetry_group_IT_number 2
_symmetry_cell_setting 'triclinic'
loop_
_space_group_symop_operation_xyz
x,y,z
-x,-y,-z
loop_
_atom_site_type_symbol
_atom_site_label
_atom_site_fract_x
_atom_site_fract_y
_atom_site_fract_z
Si Si1 0.393108 0.844844 0.486121
Si Si2 0.041223 0.205142 0.895077
Si Si3 0.010694 0.524283 0.793487
Si Si4 0.662722 0.880590 0.154459
Si Si5 0.405160 0.652730 0.911309
Si Si6 0.751025 0.759063 0.593682
O O1 0.174445 0.865617 0.245931
O O2 0.396323 0.766647 0.704498
O O3 0.522731 0.741455 0.489748
O O4 0.500000 0.000000 0.500000
O O5 0.023434 0.370912 0.754709
O O6 0.188941 0.115098 0.908009
O O7 0.883295 0.797772 0.847581
O O8 0.188006 0.630132 0.835029
O O9 0.813912 0.613333 0.585022
O O10 0.000000 0.500000 0.000000
O O11 0.778366 0.887369 0.423827
O O12 0.543907 0.729426 0.127997
O O13 0.500000 0.000000 0.000000
O O14 0.500000 0.500000 0.000000
#
# Coordination Sequence:
#
# PCOD8025943 Si02
#       6
#     2   2   2   2   2   2
#     4  12  28  50  80 115 164 216 264 336 416 486
#     4  11  26  52  78 114 165 206 269 341 409 483
#     4  10  23  46  77 121 152 205 271 333 405 479
#     4  12  27  48  79 117 161 217 272 332 409 491
#     4  12  24  49  82 116 165 214 275 336 407 484
#     4  11  26  47  77 115 153 209 267 327 410 475
#
# _framework density 25.083376999999999
#
# number of rings (size 3 to 8) (size 9 to 14) (size 15 to 20)
#    0.000    0.667    3.333    3.000    7.000    4.000 
#    0.000    3.333    0.000    0.000    0.000    0.000 
#    0.000    0.000    0.000    0.000    0.000    0.000 
#
# Total GULP energy -148681.855195 kJ/mol
# GULP energy per Si atom -12390.154600 kJ/mol
# Density = 2.502629 g / cm^3
# Si number density = 25.083377 Si / 1000 Ang^3
#
#
#
# Elastic Constant Matrix: (Units=GPa)
#
#
# Indices 1 2 3 4 5 6 
#
# 1 188.2976 80.4200 70.3866 -9.3422 22.1463 -15.5156
# 2 80.4200 138.9401 58.3463 -14.8962 19.6239 5.3840
# 3 70.3866 58.3463 144.7259 -18.8115 -0.2459 -6.0982
# 4 -9.3422 -14.8962 -18.8115 45.7091 9.6795 11.5691
# 5 22.1463 19.6239 -0.2459 9.6795 49.7657 -15.0767
# 6 -15.5156 5.3840 -6.0982 11.5691 -15.0767 49.8416
#
#
#
# Elastic Compliance Matrix: (Units=1/GPa)
#
#
# Indices 1 2 3 4 5 6 
#
# 1 0.008109 -0.003666 -0.002483 -0.000913 -0.001256 0.002449
# 2 -0.003666 0.011963 -0.002678 0.004661 -0.005692 -0.005565
# 3 -0.002483 -0.002678 0.009478 0.001847 0.002118 0.000888
# 4 -0.000913 0.004661 0.001847 0.028719 -0.010126 -0.010291
# 5 -0.001256 -0.005692 0.002118 -0.010126 0.028332 0.011404
# 6 0.002449 -0.005565 0.000888 -0.010291 0.011404 0.027374
#
#
# Mechanical properties :
#
#
# Convention : Reuss Voigt Hill
#
# Bulk Modulus (GPa) = 84.07026 98.91883 91.49455
# Shear Modulus (GPa) = 36.87423 46.58399 41.72911
#
# Velocity S-wave (km/s) = 3.83830 4.31416 4.08317
# Velocity P-wave (km/s) = 7.29606 8.02107 7.66714
#
# Compressibility (1/GPa) = 0.01189481
#
# Stress axis : x y z
#
# Youngs Moduli (GPa) = 123.32038 83.58898 105.50433
#
# Poissons Ratio (x) = 0.30645 0.26201
# Poissons Ratio (y) = 0.45210 0.28258
# Poissons Ratio (z) = 0.30626 0.22388
#
# Static dielectric constant tensor:
#      x y z
#    x 4.895990 -0.078750 0.305050 
#    y -0.078750 3.937830 -0.916640 
#    z 0.305050 -0.916640 4.620250 
# 
# 
# High freq. dielectric constant tensor:
#      x y z
#    x 2.018550 -0.014290 0.003500 
#    y -0.014290 1.999510 -0.025740 
#    z 0.003500 -0.025740 2.006680 
# 
# From -- ./inp_files/150600.got.cif
#   From: 2010.06.25/outbox.cif.g09.slc.cpg/sg2_76_cif.got.tgz:150600.got - 2010.06.27 13:26:56.
