data_PCOD8025919
_publ_section_title
;
Structure prediction by ZEFSAII (Michael W. Deem and Ramdas Pophale) SiO2 
 PCOD8025919
Probable space group: P -1
;
_chemical_formula_sum "Si O2"
_cell_formula_units_Z 16
_cell_length_a 21.240737
_cell_length_b 9.373094
_cell_length_c 5.515442
_cell_angle_alpha 128.380123
_cell_angle_beta 109.837250
_cell_angle_gamma 49.438627
_cell_volume 650.119887
_symmetry_space_group_name_H-M "P -1"
_symmetry_group_IT_number 2
_symmetry_cell_setting 'triclinic'
loop_
_space_group_symop_operation_xyz
x,y,z
-x,-y,-z
loop_
_atom_site_type_symbol
_atom_site_label
_atom_site_fract_x
_atom_site_fract_y
_atom_site_fract_z
Si Si1 0.515415 0.779998 0.406878
Si Si2 0.612849 0.305858 0.753369
Si Si3 0.774001 0.119736 0.050487
Si Si4 0.088878 0.922401 0.127166
Si Si5 0.808855 0.670920 0.728156
Si Si6 0.007506 0.598233 0.358860
Si Si7 0.652560 0.496795 0.634678
Si Si8 0.227291 0.443797 0.936952
O O1 0.428186 0.827070 0.420758
O O2 0.574463 0.727336 0.657676
O O3 0.500000 0.000000 0.500000
O O4 0.560714 0.556087 0.066113
O O5 0.619305 0.353286 0.529879
O O6 0.706740 0.145874 0.804072
O O7 0.729686 0.338460 0.392022
O O8 0.848159 0.120215 0.044935
O O9 0.813099 0.882274 0.983706
O O10 0.137487 0.690829 0.099666
O O11 0.067941 0.135461 0.481426
O O12 0.000000 0.000000 0.000000
O O13 0.903123 0.445030 0.576895
O O14 0.761745 0.687955 0.436309
O O15 0.765352 0.679126 0.930457
O O16 0.000000 0.500000 0.500000
O O17 0.000000 0.500000 0.000000
O O18 0.692458 0.551250 0.962411
#
# Coordination Sequence:
#
# PCOD8025919 Si02
#       8
#     2   2   2   2   2   2   2   2
#     4  10  24  46  76 111 152 197 247 321 383 473
#     4  10  23  46  73 110 152 191 257 305 396 461
#     4  11  26  47  73 105 151 203 250 321 383 459
#     4  12  26  50  74 106 150 203 255 325 386 448
#     4  12  28  47  71 110 151 197 262 315 388 455
#     4  12  27  46  73 102 143 197 260 317 380 456
#     4  11  25  46  74 108 153 199 253 311 388 466
#     4  12  28  46  73 111 148 197 254 319 379 460
#
# _framework density 24.610847
#
# number of rings (size 3 to 8) (size 9 to 14) (size 15 to 20)
#    0.000    0.750    3.750    1.875    7.000    2.000 
#    0.000    0.000    0.000    0.000    0.000    0.000 
#    0.000    0.000    0.000    0.000    0.000    0.000 
#
# Total GULP energy -198306.534299 kJ/mol
# GULP energy per Si atom -12394.158394 kJ/mol
# Density = 2.455483 g / cm^3
# Si number density = 24.610847 Si / 1000 Ang^3
#
#
#
# Elastic Constant Matrix: (Units=GPa)
#
#
# Indices 1 2 3 4 5 6 
#
# 1 180.5046 50.1151 34.4534 -19.2731 15.5402 7.1018
# 2 50.1151 107.1186 30.5952 -7.8213 9.8535 8.6786
# 3 34.4534 30.5952 97.5124 -30.3030 11.0974 13.5350
# 4 -19.2731 -7.8213 -30.3030 36.2379 2.3005 5.3139
# 5 15.5402 9.8535 11.0974 2.3005 35.6200 -11.8088
# 6 7.1018 8.6786 13.5350 5.3139 -11.8088 39.8816
#
#
#
# Elastic Compliance Matrix: (Units=1/GPa)
#
#
# Indices 1 2 3 4 5 6 
#
# 1 0.007013 -0.002562 0.000283 0.003979 -0.003474 -0.002346
# 2 -0.002562 0.011493 -0.002429 -0.000549 -0.001829 -0.001689
# 3 0.000283 -0.002429 0.019396 0.018224 -0.010535 -0.011652
# 4 0.003979 -0.000549 0.018224 0.048526 -0.016394 -0.018093
# 5 -0.003474 -0.001829 -0.010535 -0.016394 0.040676 0.018820
# 6 -0.002346 -0.001689 -0.011652 -0.018093 0.018820 0.037797
#
#
# Mechanical properties :
#
#
# Convention : Reuss Voigt Hill
#
# Bulk Modulus (GPa) = 35.10301 68.38479 51.74390
# Shear Modulus (GPa) = 27.20157 40.34603 33.77380
#
# Velocity S-wave (km/s) = 3.32816 4.05329 3.70849
# Velocity P-wave (km/s) = 5.39102 7.05353 6.27756
#
# Compressibility (1/GPa) = 0.02848759
#
# Stress axis : x y z
#
# Youngs Moduli (GPa) = 142.58231 87.01131 51.55573
#
# Poissons Ratio (x) = 0.22292 -0.01460
# Poissons Ratio (y) = 0.36529 0.12522
# Poissons Ratio (z) = -0.04039 0.21134
#
# Static dielectric constant tensor:
#      x y z
#    x 4.690640 -0.079100 0.089760 
#    y -0.079100 4.712550 0.040130 
#    z 0.089760 0.040130 4.304800 
# 
# 
# High freq. dielectric constant tensor:
#      x y z
#    x 1.993130 -0.003050 0.004510 
#    y -0.003050 1.986650 0.001090 
#    z 0.004510 0.001090 1.970930 
# 
# From -- ./inp_files/117445.got.cif
#   From: 2010.06.25/outbox.cif.g09.slc.cpg/sg2_59_cif.got.tgz:117445.got - 2010.06.27 13:26:56.
