data_PCOD8025139
_publ_section_title
;
Structure prediction by ZEFSAII (Michael W. Deem and Ramdas Pophale) SiO2 
 PCOD8025139
Probable space group: P -1
;
_chemical_formula_sum "Si O2"
_cell_formula_units_Z 10
_cell_length_a 8.156621
_cell_length_b 12.210795
_cell_length_c 5.182326
_cell_angle_alpha 78.099641
_cell_angle_beta 119.032981
_cell_angle_gamma 117.545052
_cell_volume 400.028139
_symmetry_space_group_name_H-M "P -1"
_symmetry_group_IT_number 2
_symmetry_cell_setting 'triclinic'
loop_
_space_group_symop_operation_xyz
x,y,z
-x,-y,-z
loop_
_atom_site_type_symbol
_atom_site_label
_atom_site_fract_x
_atom_site_fract_y
_atom_site_fract_z
Si Si1 0.087638 0.885106 0.389336
Si Si2 0.183516 0.473334 0.398126
Si Si3 0.824694 0.847298 0.716481
Si Si4 0.532406 0.641981 0.263693
Si Si5 0.760592 0.309003 0.308033
O O1 0.244386 0.819464 0.531696
O O2 0.989389 0.865830 0.606985
O O3 0.218249 0.030252 0.358401
O O4 0.908591 0.824635 0.066166
O O5 0.322835 0.518271 0.225011
O O6 0.294849 0.402169 0.687639
O O7 0.180226 0.593724 0.464108
O O8 0.948793 0.373330 0.209643
O O9 0.614118 0.728475 0.539694
O O10 0.465939 0.718215 0.965019
#
# Coordination Sequence:
#
# PCOD8025139 Si02
#       5
#     2   2   2   2   2
#     4  10  23  44  69  96 133 174 217 275 335 387
#     4  10  24  40  60  98 138 170 218 272 334 384
#     4  10  23  44  69  96 133 174 217 275 335 387
#     4  11  23  40  67  96 131 175 222 271 326 397
#     4  11  23  40  67  96 131 175 222 271 326 397
#
# _framework density 24.998244
#
# number of rings (size 3 to 8) (size 9 to 14) (size 15 to 20)
#    0.000    1.600    2.000    1.200    5.600    7.200 
#    0.000    1.000    0.000    0.000    0.000    0.000 
#    0.000    0.000    0.000    0.000    0.000    0.000 
#
# Total GULP energy -123945.330563 kJ/mol
# GULP energy per Si atom -12394.533056 kJ/mol
# Density = 2.494135 g / cm^3
# Si number density = 24.998244 Si / 1000 Ang^3
#
#
#
# Elastic Constant Matrix: (Units=GPa)
#
#
# Indices 1 2 3 4 5 6 
#
# 1 47.3264 17.3702 12.4938 -6.6123 19.1390 -17.7476
# 2 17.3702 140.2345 37.9726 -24.5012 18.2093 -44.3580
# 3 12.4938 37.9726 91.5832 -17.8725 22.9812 -30.9914
# 4 -6.6123 -24.5012 -17.8725 32.5871 -14.7597 16.2454
# 5 19.1390 18.2093 22.9812 -14.7597 37.8965 -6.7426
# 6 -17.7476 -44.3580 -30.9914 16.2454 -6.7426 44.2349
#
#
#
# Elastic Compliance Matrix: (Units=1/GPa)
#
#
# Indices 1 2 3 4 5 6 
#
# 1 0.032956 0.001562 0.004295 -0.007489 -0.019797 0.017531
# 2 0.001562 0.011025 -0.000003 0.001778 -0.003526 0.010490
# 3 0.004295 -0.000003 0.017005 -0.000718 -0.010574 0.012286
# 4 -0.007489 0.001778 -0.000718 0.046511 0.018638 -0.015965
# 5 -0.019797 -0.003526 -0.010574 0.018638 0.048488 -0.018340
# 6 0.017531 0.010490 0.012286 -0.015965 -0.018340 0.051835
#
#
# Mechanical properties :
#
#
# Convention : Reuss Voigt Hill
#
# Bulk Modulus (GPa) = 13.75607 46.09081 29.92344
# Shear Modulus (GPa) = 22.69197 37.03089 29.86143
#
# Velocity S-wave (km/s) = 3.01615 3.85299 3.45996
# Velocity P-wave (km/s) = 4.20051 6.18641 5.28753
#
# Compressibility (1/GPa) = 0.07269520
#
# Stress axis : x y z
#
# Youngs Moduli (GPa) = 30.34308 90.70536 58.80620
#
# Poissons Ratio (x) = -0.14171 -0.25257
# Poissons Ratio (y) = -0.04741 0.00016
# Poissons Ratio (z) = -0.13032 0.00025
#
# Static dielectric constant tensor:
#      x y z
#    x 4.491440 -0.141850 0.337610 
#    y -0.141850 4.885100 -0.170810 
#    z 0.337610 -0.170810 4.329710 
# 
# 
# High freq. dielectric constant tensor:
#      x y z
#    x 1.982630 -0.011590 0.009450 
#    y -0.011590 2.007170 -0.015840 
#    z 0.009450 -0.015840 1.980700 
# 
# From -- ./inp_files/1711.got.cif
#   From: 2010.06.25/outbox.cif.g09.slc.cpg/sg2_1_cif.got.tgz:1711.got - 2010.06.27 13:26:56.
