data_PCOD8025993
_publ_section_title
;
Structure prediction by ZEFSAII (Michael W. Deem and Ramdas Pophale) SiO2 
 PCOD8025993
Probable space group: P -1
;
_chemical_formula_sum "Si O2"
_cell_formula_units_Z 14
_cell_length_a 18.496418
_cell_length_b 11.610344
_cell_length_c 17.652430
_cell_angle_alpha 26.815315
_cell_angle_beta 157.428474
_cell_angle_gamma 150.550825
_cell_volume 632.093158
_symmetry_space_group_name_H-M "P -1"
_symmetry_group_IT_number 2
_symmetry_cell_setting 'triclinic'
loop_
_space_group_symop_operation_xyz
x,y,z
-x,-y,-z
loop_
_atom_site_type_symbol
_atom_site_label
_atom_site_fract_x
_atom_site_fract_y
_atom_site_fract_z
Si Si1 0.850313 0.709409 0.034194
Si Si2 0.059767 0.326286 0.543857
Si Si3 0.544715 0.742254 0.344643
Si Si4 0.268776 0.963666 0.513206
Si Si5 0.528952 0.366651 0.184555
Si Si6 0.209950 0.473849 0.082576
Si Si7 0.051515 0.163369 0.378649
O O1 0.977432 0.518524 0.297827
O O2 0.670880 0.715451 0.912783
O O3 0.751382 0.596129 0.925303
O O4 0.000000 0.000000 0.000000
O O5 0.291490 0.438767 0.711750
O O6 0.031130 0.031923 0.656033
O O7 0.929110 0.276251 0.524489
O O8 0.500000 0.500000 0.500000
O O9 0.606737 0.001714 0.306964
O O10 0.370875 0.727124 0.125453
O O11 0.717579 0.726040 0.466039
O O12 0.200001 0.221408 0.273515
O O13 0.400944 0.895784 0.613823
O O14 0.500000 0.500000 0.000000
O O15 0.013743 0.565718 0.844374
O O16 0.000000 0.000000 0.500000
#
# Coordination Sequence:
#
# PCOD8025993 Si02
#       7
#     2   2   2   2   2   2   2
#     4  12  28  46  70 104 139 180 231 289 344 401
#     4  11  25  46  69 105 140 173 240 280 339 420
#     4   9  23  43  67 103 137 172 231 274 334 410
#     4  10  23  47  70 105 140 179 233 284 334 413
#     4  12  27  45  75  98 135 194 227 278 351 405
#     4  11  25  44  73 100 143 178 225 288 339 403
#     4  11  24  43  70 102 138 180 218 282 351 397
#
# _framework density 22.148633
#
# number of rings (size 3 to 8) (size 9 to 14) (size 15 to 20)
#    0.000    1.143    2.857    1.286    6.000   10.286 
#    0.000    0.000    0.000    0.000    0.000    0.000 
#    0.000    0.000    0.000    0.000    0.000    0.000 
#
# Total GULP energy -173506.906908 kJ/mol
# GULP energy per Si atom -12393.350493 kJ/mol
# Density = 2.209822 g / cm^3
# Si number density = 22.148633 Si / 1000 Ang^3
#
#
#
# Elastic Constant Matrix: (Units=GPa)
#
#
# Indices 1 2 3 4 5 6 
#
# 1 115.6092 37.0843 26.5268 13.2913 7.7254 10.4460
# 2 37.0843 89.9676 26.9264 8.9582 1.3573 7.4800
# 3 26.5268 26.9264 68.4242 0.1250 -7.4390 2.8846
# 4 13.2913 8.9582 0.1250 46.3224 -1.4399 4.0233
# 5 7.7254 1.3573 -7.4390 -1.4399 39.7743 3.1317
# 6 10.4460 7.4800 2.8846 4.0233 3.1317 40.9248
#
#
#
# Elastic Compliance Matrix: (Units=1/GPa)
#
#
# Indices 1 2 3 4 5 6 
#
# 1 0.011004 -0.003150 -0.003239 -0.002485 -0.002603 -0.001561
# 2 -0.003150 0.013980 -0.004294 -0.001701 -0.000633 -0.001233
# 3 -0.003239 -0.004294 0.018023 0.001857 0.004227 -0.000165
# 4 -0.002485 -0.001701 0.001857 0.022818 0.001838 -0.001570
# 5 -0.002603 -0.000633 0.004227 0.001838 0.026663 -0.001739
# 6 -0.001561 -0.001233 -0.000165 -0.001570 -0.001739 0.025358
#
#
# Mechanical properties :
#
#
# Convention : Reuss Voigt Hill
#
# Bulk Modulus (GPa) = 46.20777 50.56399 48.38588
# Shear Modulus (GPa) = 34.14684 37.63520 35.89102
#
# Velocity S-wave (km/s) = 3.93073 4.12662 4.02986
# Velocity P-wave (km/s) = 6.44272 6.75161 6.59898
#
# Compressibility (1/GPa) = 0.02164138
#
# Stress axis : x y z
#
# Youngs Moduli (GPa) = 90.87490 71.53052 55.48369
#
# Poissons Ratio (x) = 0.22532 0.17972
# Poissons Ratio (y) = 0.28625 0.23825
# Poissons Ratio (z) = 0.29436 0.30715
#
# Static dielectric constant tensor:
#      x y z
#    x 4.557550 -0.380410 0.120070 
#    y -0.380410 4.366900 0.201350 
#    z 0.120070 0.201350 4.205260 
# 
# 
# High freq. dielectric constant tensor:
#      x y z
#    x 1.880810 -0.006350 0.000920 
#    y -0.006350 1.877950 0.003710 
#    z 0.000920 0.003710 1.872730 
# 
# From -- ./inp_files/69517.got.cif
#   From: 2010.06.25/outbox.cif.g09.slc.cpg/sg2_35_cif.got.tgz:69517.got - 2010.06.27 13:26:56.
