data_PCOD8025950
_publ_section_title
;
Structure prediction by ZEFSAII (Michael W. Deem and Ramdas Pophale) SiO2 
 PCOD8025950
Probable space group: P -1
;
_chemical_formula_sum "Si O2"
_cell_formula_units_Z 16
_cell_length_a 13.866104
_cell_length_b 14.010534
_cell_length_c 8.194625
_cell_angle_alpha 136.854137
_cell_angle_beta 42.905329
_cell_angle_gamma 134.012868
_cell_volume 695.795357
_symmetry_space_group_name_H-M "P -1"
_symmetry_group_IT_number 2
_symmetry_cell_setting 'triclinic'
loop_
_space_group_symop_operation_xyz
x,y,z
-x,-y,-z
loop_
_atom_site_type_symbol
_atom_site_label
_atom_site_fract_x
_atom_site_fract_y
_atom_site_fract_z
Si Si1 0.406372 0.525807 0.995440
Si Si2 0.231787 0.640204 0.824478
Si Si3 0.503583 0.733689 0.842105
Si Si4 0.213157 0.257267 0.690714
Si Si5 0.938554 0.676421 0.338719
Si Si6 0.362477 0.960470 0.447739
Si Si7 0.647878 0.213544 0.459507
Si Si8 0.061630 0.974150 0.718702
O O1 0.507967 0.615036 0.828337
O O2 0.292056 0.369282 0.878632
O O3 0.500000 0.500000 0.000000
O O4 0.314694 0.628141 0.301079
O O5 0.379181 0.652705 0.760817
O O6 0.169984 0.471259 0.619338
O O7 0.266608 0.759689 0.784621
O O8 0.107004 0.670866 0.129662
O O9 0.665584 0.790073 0.623801
O O10 0.466524 0.873493 0.134465
O O11 0.121256 0.331813 0.782688
O O12 0.086027 0.113212 0.743846
O O13 0.937470 0.826206 0.614442
O O14 0.298482 0.893429 0.621723
O O15 0.222167 0.950372 0.497616
O O16 0.467675 0.132952 0.551005
O O17 0.000000 0.000000 0.000000
#
# Coordination Sequence:
#
# PCOD8025950 Si02
#       8
#     2   2   2   2   2   2   2   2
#     4  11  23  41  66 109 143 169 227 292 354 403
#     4  11  23  45  73  99 136 194 226 292 336 412
#     4  11  23  44  76  98 137 179 238 292 339 405
#     4  12  27  44  73 105 136 189 231 292 348 406
#     4  11  27  46  67 103 143 181 241 273 350 427
#     4  10  23  47  65 106 132 180 237 288 339 418
#     4  10  24  39  74  98 137 180 230 293 349 393
#     4  12  28  46  69  98 146 188 228 282 357 414
#
# _framework density 22.995266999999998
#
# number of rings (size 3 to 8) (size 9 to 14) (size 15 to 20)
#    0.000    1.000    2.500    3.000    7.000    4.000 
#    0.000    1.250    0.000    0.000    0.000    0.000 
#    0.000    0.000    0.000    0.000    0.000    0.000 
#
# Total GULP energy -198411.609429 kJ/mol
# GULP energy per Si atom -12400.725589 kJ/mol
# Density = 2.294293 g / cm^3
# Si number density = 22.995267 Si / 1000 Ang^3
#
#
#
# Elastic Constant Matrix: (Units=GPa)
#
#
# Indices 1 2 3 4 5 6 
#
# 1 84.3516 26.0158 7.7829 1.0955 8.2956 -5.5302
# 2 26.0158 123.5568 31.8064 6.6516 17.8411 -20.1770
# 3 7.7829 31.8064 65.7684 7.3717 10.3167 -0.3742
# 4 1.0955 6.6516 7.3717 40.0747 4.0175 11.7149
# 5 8.2956 17.8411 10.3167 4.0175 36.8090 0.5655
# 6 -5.5302 -20.1770 -0.3742 11.7149 0.5655 34.3921
#
#
#
# Elastic Compliance Matrix: (Units=1/GPa)
#
#
# Indices 1 2 3 4 5 6 
#
# 1 0.012793 -0.002288 -0.000130 0.000014 -0.001751 0.000738
# 2 -0.002288 0.011606 -0.004403 -0.002856 -0.003678 0.007427
# 3 -0.000130 -0.004403 0.017955 -0.001790 -0.002647 -0.001755
# 4 0.000014 -0.002856 -0.001790 0.029274 -0.001133 -0.011646
# 5 -0.001751 -0.003678 -0.002647 -0.001133 0.030250 -0.002580
# 6 0.000738 0.007427 -0.001755 -0.011646 -0.002580 0.037542
#
#
# Mechanical properties :
#
#
# Convention : Reuss Voigt Hill
#
# Bulk Modulus (GPa) = 34.82721 44.98742 39.90732
# Shear Modulus (GPa) = 30.74394 36.12661 33.43528
#
# Velocity S-wave (km/s) = 3.66042 3.96794 3.81728
# Velocity P-wave (km/s) = 5.74832 6.37173 6.06804
#
# Compressibility (1/GPa) = 0.02871318
#
# Stress axis : x y z
#
# Youngs Moduli (GPa) = 78.16729 86.16105 55.69366
#
# Poissons Ratio (x) = 0.19710 0.00726
# Poissons Ratio (y) = 0.17882 0.24521
# Poissons Ratio (z) = 0.01019 0.37935
#
# Static dielectric constant tensor:
#      x y z
#    x 4.196990 -0.116590 0.151010 
#    y -0.116590 4.349010 0.138090 
#    z 0.151010 0.138090 3.918520 
# 
# 
# High freq. dielectric constant tensor:
#      x y z
#    x 1.911490 -0.007680 0.009240 
#    y -0.007680 1.920020 0.012710 
#    z 0.009240 0.012710 1.893630 
# 
# From -- ./inp_files/316040.got.cif
#   From: 2010.06.25/outbox.cif.g09.slc.cpg/sg2_159_cif.got.tgz:316040.got - 2010.06.27 13:26:56.
