data_PCOD8025052
_publ_section_title
;
Structure prediction by ZEFSAII (Michael W. Deem and Ramdas Pophale) SiO2 
 PCOD8025052
Probable space group: P -1
;
_chemical_formula_sum "Si O2"
_cell_formula_units_Z 16
_cell_length_a 15.779310
_cell_length_b 9.202961
_cell_length_c 14.406442
_cell_angle_alpha 91.476761
_cell_angle_beta 137.330929
_cell_angle_gamma 54.642837
_cell_volume 798.737205
_symmetry_space_group_name_H-M "P -1"
_symmetry_group_IT_number 2
_symmetry_cell_setting 'triclinic'
loop_
_space_group_symop_operation_xyz
x,y,z
-x,-y,-z
loop_
_atom_site_type_symbol
_atom_site_label
_atom_site_fract_x
_atom_site_fract_y
_atom_site_fract_z
Si Si1 0.093747 0.768358 0.021947
Si Si2 0.655695 0.583855 0.071414
Si Si3 0.212905 0.152573 0.310117
Si Si4 0.689024 0.714568 0.762673
Si Si5 0.002749 0.021029 0.392966
Si Si6 0.805763 0.681818 0.062347
Si Si7 0.318511 0.890602 0.965194
Si Si8 0.505256 0.529447 0.789496
O O1 0.153537 0.577013 0.136249
O O2 0.320796 0.581694 0.147681
O O3 0.902980 0.892834 0.800915
O O4 0.000000 0.000000 0.000000
O O5 0.691430 0.703494 0.053525
O O6 0.512256 0.751806 0.049506
O O7 0.515124 0.612740 0.893003
O O8 0.889112 0.284171 0.281421
O O9 0.230048 0.223733 0.228147
O O10 0.064846 0.391000 0.264032
O O11 0.444931 0.900694 0.540174
O O12 0.690791 0.750020 0.873583
O O13 0.254723 0.779794 0.553093
O O14 0.000000 0.000000 0.500000
O O15 0.873169 0.016143 0.237903
O O16 0.792891 0.863217 0.074834
O O17 0.431527 0.695869 0.137754
#
# Coordination Sequence:
#
# PCOD8025052 Si02
#       8
#     2   2   2   2   2   2   2   2
#     4  11  24  40  67  95 124 157 208 266 310 366
#     4  11  21  41  63  90 124 168 208 253 308 368
#     4  10  23  45  65  91 121 165 205 252 314 383
#     4  10  23  44  68  86 125 164 201 255 323 369
#     4  11  21  41  64  86 128 171 210 250 309 367
#     4  11  23  40  64  91 128 160 206 259 307 365
#     4  11  24  38  62  95 127 165 210 253 305 372
#     4  11  22  40  64  88 124 173 200 255 316 365
#
# _framework density 20.031621000000001
#
# number of rings (size 3 to 8) (size 9 to 14) (size 15 to 20)
#    0.000    1.250    5.000    2.625    5.250    1.500 
#    2.250    0.625    0.000    0.000    0.000    0.000 
#    0.000    0.000    0.000    0.000    0.000    0.000 
#
# Total GULP energy -198410.009561 kJ/mol
# GULP energy per Si atom -12400.625598 kJ/mol
# Density = 1.998603 g / cm^3
# Si number density = 20.031621 Si / 1000 Ang^3
#
#
#
# Elastic Constant Matrix: (Units=GPa)
#
#
# Indices 1 2 3 4 5 6 
#
# 1 75.4552 11.5561 34.4267 2.6361 12.1038 -1.2869
# 2 11.5561 130.1033 40.8900 -6.3631 5.7925 -1.1572
# 3 34.4267 40.8900 109.8253 -12.8632 13.9120 0.5293
# 4 2.6361 -6.3631 -12.8632 13.4580 -1.3772 0.2543
# 5 12.1038 5.7925 13.9120 -1.3772 35.4335 -5.2251
# 6 -1.2869 -1.1572 0.5293 0.2543 -5.2251 18.6739
#
#
#
# Elastic Compliance Matrix: (Units=1/GPa)
#
#
# Indices 1 2 3 4 5 6 
#
# 1 0.016888 0.000082 -0.005946 -0.009344 -0.003750 0.000416
# 2 0.000082 0.008728 -0.003139 0.001090 -0.000092 0.000595
# 3 -0.005946 -0.003139 0.013995 0.012813 -0.002739 -0.001942
# 4 -0.009344 0.001090 0.012813 0.089052 0.001175 -0.001824
# 5 -0.003750 -0.000092 -0.002739 0.001175 0.031926 0.008731
# 6 0.000416 0.000595 -0.001942 -0.001824 0.008731 0.056139
#
#
# Mechanical properties :
#
#
# Convention : Reuss Voigt Hill
#
# Bulk Modulus (GPa) = 46.28321 54.34773 50.31547
# Shear Modulus (GPa) = 20.66660 28.74713 24.70686
#
# Velocity S-wave (km/s) = 3.21549 3.79236 3.51578
# Velocity P-wave (km/s) = 6.07792 6.80925 6.45395
#
# Compressibility (1/GPa) = 0.02160611
#
# Stress axis : x y z
#
# Youngs Moduli (GPa) = 59.21311 114.57199 71.45417
#
# Poissons Ratio (x) = -0.00943 0.42486
# Poissons Ratio (y) = -0.00488 0.22429
# Poissons Ratio (z) = 0.35208 0.35964
#
# Static dielectric constant tensor:
#      x y z
#    x 3.758240 0.122930 0.032590 
#    y 0.122930 3.592750 -0.138400 
#    z 0.032590 -0.138400 3.761650 
# 
# 
# High freq. dielectric constant tensor:
#      x y z
#    x 1.794900 0.009080 0.006520 
#    y 0.009080 1.769470 -0.012370 
#    z 0.006520 -0.012370 1.786180 
# 
# From -- ./inp_files/500285.got.cif
#   From: 2010.06.25/outbox.cif.g09.slc.cpg/sg2_251_cif.got.tgz:500285.got - 2010.06.27 13:26:56.
