data_PCOD8025781
_publ_section_title
;
Structure prediction by ZEFSAII (Michael W. Deem and Ramdas Pophale) SiO2 
 PCOD8025781
Probable space group: P -1
;
_chemical_formula_sum "Si O2"
_cell_formula_units_Z 16
_cell_length_a 6.760089
_cell_length_b 12.025718
_cell_length_c 12.018152
_cell_angle_alpha 124.004125
_cell_angle_beta 63.540584
_cell_angle_gamma 121.352266
_cell_volume 674.987651
_symmetry_space_group_name_H-M "P -1"
_symmetry_group_IT_number 2
_symmetry_cell_setting 'triclinic'
loop_
_space_group_symop_operation_xyz
x,y,z
-x,-y,-z
loop_
_atom_site_type_symbol
_atom_site_label
_atom_site_fract_x
_atom_site_fract_y
_atom_site_fract_z
Si Si1 0.232640 0.009901 0.883091
Si Si2 0.719474 0.211598 0.954042
Si Si3 0.741738 0.278996 0.239414
Si Si4 0.775578 0.733004 0.585110
Si Si5 0.348063 0.308939 0.651919
Si Si6 0.803108 0.553704 0.678079
Si Si7 0.917902 0.934896 0.276837
Si Si8 0.575665 0.457286 0.074383
O O1 0.454722 0.093522 0.951706
O O2 0.237799 0.090495 0.810352
O O3 0.234648 0.851998 0.768569
O O4 0.000000 0.000000 0.000000
O O5 0.891004 0.141929 0.816520
O O6 0.796070 0.257369 0.085948
O O7 0.722160 0.352425 0.963441
O O8 0.487493 0.287936 0.321562
O O9 0.944521 0.425416 0.316936
O O10 0.770976 0.680928 0.430184
O O11 0.858019 0.632124 0.588571
O O12 0.952285 0.897259 0.638923
O O13 0.637669 0.383369 0.609469
O O14 0.263951 0.398461 0.817220
O O15 0.266394 0.143123 0.621010
O O16 0.659703 0.624030 0.836049
O O17 0.500000 0.500000 0.000000
#
# Coordination Sequence:
#
# PCOD8025781 Si02
#       8
#     2   2   2   2   2   2   2   2
#     4  12  22  38  67 104 143 174 220 291 349 395
#     4  12  24  39  70 107 137 176 233 282 348 415
#     4  12  22  39  70 107 131 178 231 289 335 405
#     4  12  23  48  69 101 135 181 247 271 336 412
#     4  10  26  46  70  93 142 192 221 282 343 412
#     4  10  24  44  69  99 135 184 225 286 340 401
#     4  12  25  43  70 103 139 182 227 290 347 399
#     4  10  23  46  67  98 140 177 221 281 349 405
#
# _framework density 23.704139000000001
#
# number of rings (size 3 to 8) (size 9 to 14) (size 15 to 20)
#    0.750    0.000    5.000    3.375    1.750    1.000 
#    2.250    3.125    0.000    0.000    0.000    0.000 
#    0.000    0.000    0.000    0.000    0.000    0.000 
#
# Total GULP energy -198353.472318 kJ/mol
# GULP energy per Si atom -12397.092020 kJ/mol
# Density = 2.365019 g / cm^3
# Si number density = 23.704139 Si / 1000 Ang^3
#
#
#
# Elastic Constant Matrix: (Units=GPa)
#
#
# Indices 1 2 3 4 5 6 
#
# 1 91.7556 42.0718 23.3781 -0.0305 33.7189 16.7448
# 2 42.0718 136.5981 33.0425 -13.4530 26.8582 22.5216
# 3 23.3781 33.0425 99.5316 -13.2548 36.3949 -0.6493
# 4 -0.0305 -13.4530 -13.2548 31.2836 -9.3053 9.9779
# 5 33.7189 26.8582 36.3949 -9.3053 40.2106 3.7033
# 6 16.7448 22.5216 -0.6493 9.9779 3.7033 41.2897
#
#
#
# Elastic Compliance Matrix: (Units=1/GPa)
#
#
# Indices 1 2 3 4 5 6 
#
# 1 0.018024 -0.002760 0.001804 -0.003916 -0.015493 -0.003440
# 2 -0.002760 0.010260 -0.001608 0.005106 -0.001385 -0.005612
# 3 0.001804 -0.001608 0.015592 0.001186 -0.014405 0.001396
# 4 -0.003916 0.005106 0.001186 0.041306 0.009464 -0.012009
# 5 -0.015493 -0.001385 -0.014405 0.009464 0.054043 -0.000322
# 6 -0.003440 -0.005612 0.001396 -0.012009 -0.000322 0.031628
#
#
# Mechanical properties :
#
#
# Convention : Reuss Voigt Hill
#
# Bulk Modulus (GPa) = 25.80798 58.31888 42.06343
# Shear Modulus (GPa) = 26.46924 37.84965 32.15944
#
# Velocity S-wave (km/s) = 3.34526 4.00027 3.68734
# Velocity P-wave (km/s) = 5.08254 6.78178 5.99269
#
# Compressibility (1/GPa) = 0.03874771
#
# Stress axis : x y z
#
# Youngs Moduli (GPa) = 55.48021 97.46256 64.13732
#
# Poissons Ratio (x) = 0.26901 -0.11570
# Poissons Ratio (y) = 0.15313 0.10315
# Poissons Ratio (z) = -0.10009 0.15674
#
# Static dielectric constant tensor:
#      x y z
#    x 4.423770 0.009250 0.433720 
#    y 0.009250 4.454100 -0.032890 
#    z 0.433720 -0.032890 4.312930 
# 
# 
# High freq. dielectric constant tensor:
#      x y z
#    x 1.936470 0.005690 0.023010 
#    y 0.005690 1.945170 0.000670 
#    z 0.023010 0.000670 1.929280 
# 
# From -- ./inp_files/365006.got.cif
#   From: 2010.06.25/outbox.cif.g09.slc.cpg/sg2_183_cif.got.tgz:365006.got - 2010.06.27 13:26:56.
