data_PCOD8025798
_publ_section_title
;
Structure prediction by ZEFSAII (Michael W. Deem and Ramdas Pophale) SiO2 
 PCOD8025798
Probable space group: P -1
;
_chemical_formula_sum "Si O2"
_cell_formula_units_Z 16
_cell_length_a 24.581405
_cell_length_b 6.638865
_cell_length_c 11.362294
_cell_angle_alpha 44.170616
_cell_angle_beta 146.690818
_cell_angle_gamma 121.003891
_cell_volume 692.079211
_symmetry_space_group_name_H-M "P -1"
_symmetry_group_IT_number 2
_symmetry_cell_setting 'triclinic'
loop_
_space_group_symop_operation_xyz
x,y,z
-x,-y,-z
loop_
_atom_site_type_symbol
_atom_site_label
_atom_site_fract_x
_atom_site_fract_y
_atom_site_fract_z
Si Si1 0.108541 0.322094 0.732308
Si Si2 0.435370 0.524317 0.753199
Si Si3 0.082560 0.701057 0.942448
Si Si4 0.946167 0.291965 0.846955
Si Si5 0.287198 0.211667 0.507682
Si Si6 0.687899 0.824726 0.703378
Si Si7 0.232073 0.596928 0.666285
Si Si8 0.424880 0.311379 0.235268
O O1 0.142649 0.541803 0.610581
O O2 0.000000 0.500000 0.500000
O O3 0.098740 0.008299 0.786858
O O4 0.191595 0.258344 0.015340
O O5 0.370618 0.273850 0.725715
O O6 0.510159 0.470532 0.796133
O O7 0.356869 0.840079 0.476775
O O8 0.500000 0.500000 0.000000
O O9 0.997142 0.561286 0.781272
O O10 0.036558 0.778485 0.956166
O O11 0.186026 0.458998 0.232737
O O12 0.822861 0.369988 0.573614
O O13 0.000000 0.000000 0.000000
O O14 0.329288 0.216118 0.448388
O O15 0.267109 0.895268 0.640196
O O16 0.625378 0.620296 0.753423
O O17 0.329471 0.323499 0.967359
O O18 0.500000 0.000000 0.500000
#
# Coordination Sequence:
#
# PCOD8025798 Si02
#       8
#     2   2   2   2   2   2   2   2
#     4  11  24  44  67 100 145 189 233 287 344 420
#     4  11  24  44  75 103 136 180 237 297 357 419
#     4  11  25  42  70 102 138 190 236 278 365 424
#     4  11  23  43  71 101 141 184 234 296 347 420
#     4  12  25  43  74 105 136 184 238 290 362 424
#     4  10  23  46  68  97 144 182 230 292 349 420
#     4  11  24  42  69 103 141 181 234 294 347 412
#     4   9  22  45  68  97 136 187 229 285 356 407
#
# _framework density 23.118741
#
# number of rings (size 3 to 8) (size 9 to 14) (size 15 to 20)
#    0.000    1.250    2.500    2.250    5.250    3.000 
#    0.000    6.250    0.000    0.000    0.000    0.000 
#    0.000    0.000    0.000    0.000    0.000    0.000 
#
# Total GULP energy -198244.654763 kJ/mol
# GULP energy per Si atom -12390.290923 kJ/mol
# Density = 2.306612 g / cm^3
# Si number density = 23.118741 Si / 1000 Ang^3
#
#
#
# Elastic Constant Matrix: (Units=GPa)
#
#
# Indices 1 2 3 4 5 6 
#
# 1 122.8807 58.0570 30.7050 -4.4596 9.7847 14.7705
# 2 58.0570 147.7804 55.7611 20.0987 -1.5731 20.1512
# 3 30.7050 55.7611 147.5695 6.1797 21.6329 6.7420
# 4 -4.4596 20.0987 6.1797 36.3554 1.6146 2.9088
# 5 9.7847 -1.5731 21.6329 1.6146 38.6582 -2.8114
# 6 14.7705 20.1512 6.7420 2.9088 -2.8114 36.6055
#
#
#
# Elastic Compliance Matrix: (Units=1/GPa)
#
#
# Indices 1 2 3 4 5 6 
#
# 1 0.011040 -0.004543 -0.000168 0.004239 -0.003245 -0.002509
# 2 -0.004543 0.011077 -0.003373 -0.006033 0.003530 -0.002893
# 3 -0.000168 -0.003373 0.008809 0.000582 -0.005058 -0.000133
# 4 0.004239 -0.006033 0.000582 0.031497 -0.003049 -0.001234
# 5 -0.003245 0.003530 -0.005058 -0.003049 0.029997 0.002844
# 6 -0.002509 -0.002893 -0.000133 -0.001234 0.002844 0.030264
#
#
# Mechanical properties :
#
#
# Convention : Reuss Voigt Hill
#
# Bulk Modulus (GPa) = 67.75573 78.58634 73.17103
# Shear Modulus (GPa) = 34.77764 40.57098 37.67431
#
# Velocity S-wave (km/s) = 3.88274 4.19369 4.04121
# Velocity P-wave (km/s) = 7.03365 7.58391 7.31396
#
# Compressibility (1/GPa) = 0.01475890
#
# Stress axis : x y z
#
# Youngs Moduli (GPa) = 90.57933 90.27966 113.51945
#
# Poissons Ratio (x) = 0.41012 0.01904
# Poissons Ratio (y) = 0.41149 0.38289
# Poissons Ratio (z) = 0.01520 0.30450
#
# Static dielectric constant tensor:
#      x y z
#    x 4.628950 0.413670 -0.001260 
#    y 0.413670 4.239550 0.132110 
#    z -0.001260 0.132110 4.586060 
# 
# 
# High freq. dielectric constant tensor:
#      x y z
#    x 1.920700 0.022050 0.012180 
#    y 0.022050 1.892150 0.002270 
#    z 0.012180 0.002270 1.932710 
# 
# From -- ./inp_files/475974.got.cif
#   From: 2010.06.25/outbox.cif.g09.slc.cpg/sg2_238_cif.got.tgz:475974.got - 2010.06.27 13:26:56.
