data_PCOD8025015
_publ_section_title
;
Structure prediction by ZEFSAII (Michael W. Deem and Ramdas Pophale) SiO2 
 PCOD8025015
Probable space group: P -1
;
_chemical_formula_sum "Si O2"
_cell_formula_units_Z 14
_cell_length_a 24.434387
_cell_length_b 5.145452
_cell_length_c 8.050667
_cell_angle_alpha 69.580006
_cell_angle_beta 44.797044
_cell_angle_gamma 96.607734
_cell_volume 558.541398
_symmetry_space_group_name_H-M "P -1"
_symmetry_group_IT_number 2
_symmetry_cell_setting 'triclinic'
loop_
_space_group_symop_operation_xyz
x,y,z
-x,-y,-z
loop_
_atom_site_type_symbol
_atom_site_label
_atom_site_fract_x
_atom_site_fract_y
_atom_site_fract_z
Si Si1 0.395720 0.581064 0.970115
Si Si2 0.004538 0.627017 0.643929
Si Si3 0.158751 0.763712 0.492711
Si Si4 0.853903 0.722531 0.956614
Si Si5 0.694401 0.603460 0.139700
Si Si6 0.203918 0.233413 0.590323
Si Si7 0.495686 0.780270 0.210731
O O1 0.346860 0.578774 0.905319
O O2 0.446307 0.384612 0.903192
O O3 0.464525 0.969415 0.774944
O O4 0.314058 0.383255 0.326605
O O5 0.054854 0.523328 0.691672
O O6 0.000000 0.500000 0.500000
O O7 0.902452 0.526176 0.953071
O O8 0.076246 0.027208 0.390882
O O9 0.195844 0.546679 0.522598
O O10 0.153156 0.971819 0.610305
O O11 0.233446 0.004545 0.136843
O O12 0.753508 0.480184 0.138039
O O13 0.843445 0.914862 0.093912
O O14 0.609049 0.523988 0.459113
O O15 0.500000 0.000000 0.000000
#
# Coordination Sequence:
#
# PCOD8025015 Si02
#       7
#     2   2   2   2   2   2   2
#     4  11  24  44  67  97 137 173 221 274 326 399
#     4  10  24  44  67  97 136 175 227 270 340 398
#     4  10  25  43  69  96 137 177 222 281 328 402
#     4  10  24  44  67  98 133 179 220 282 326 403
#     4  10  23  44  67  97 132 182 220 269 337 393
#     4  11  24  45  68 102 134 176 228 271 338 386
#     4  12  25  44  68 100 134 173 222 277 328 389
#
# _framework density 25.065287000000001
#
# number of rings (size 3 to 8) (size 9 to 14) (size 15 to 20)
#    0.000    1.429    0.000    3.857   10.000    3.429 
#    2.571    0.000    0.000    0.000    0.000    0.000 
#    0.000    0.000    0.000    0.000    0.000    0.000 
#
# Total GULP energy -173513.599242 kJ/mol
# GULP energy per Si atom -12393.828517 kJ/mol
# Density = 2.500824 g / cm^3
# Si number density = 25.065287 Si / 1000 Ang^3
#
#
#
# Elastic Constant Matrix: (Units=GPa)
#
#
# Indices 1 2 3 4 5 6 
#
# 1 140.4856 44.1387 62.7631 21.5595 -34.3624 9.9089
# 2 44.1387 118.2338 38.1167 31.3355 -19.5262 -1.2750
# 3 62.7631 38.1167 138.6538 34.8499 -17.6234 -11.1186
# 4 21.5595 31.3355 34.8499 35.8140 -7.4832 0.1029
# 5 -34.3624 -19.5262 -17.6234 -7.4832 46.5225 5.3419
# 6 9.9089 -1.2750 -11.1186 0.1029 5.3419 33.9716
#
#
#
# Elastic Compliance Matrix: (Units=1/GPa)
#
#
# Indices 1 2 3 4 5 6 
#
# 1 0.011830 -0.002008 -0.004540 0.000525 0.006961 -0.006108
# 2 -0.002008 0.011855 0.000227 -0.008960 0.002044 0.000811
# 3 -0.004540 0.000227 0.011831 -0.009175 -0.000869 0.005369
# 4 0.000525 -0.008960 -0.009175 0.044540 0.000746 -0.003745
# 5 0.006961 0.002044 -0.000869 0.000746 0.028049 -0.006651
# 6 -0.006108 0.000811 0.005369 -0.003745 -0.006651 0.034063
#
#
# Mechanical properties :
#
#
# Convention : Reuss Voigt Hill
#
# Bulk Modulus (GPa) = 43.71826 76.37892 60.04859
# Shear Modulus (GPa) = 30.78114 40.08527 35.43321
#
# Velocity S-wave (km/s) = 3.50814 4.00338 3.76391
# Velocity P-wave (km/s) = 5.82143 7.20469 6.54968
#
# Compressibility (1/GPa) = 0.02287374
#
# Stress axis : x y z
#
# Youngs Moduli (GPa) = 84.52804 84.34984 84.52184
#
# Poissons Ratio (x) = 0.16940 0.38374
# Poissons Ratio (y) = 0.16976 -0.01917
# Poissons Ratio (z) = 0.38377 -0.01913
#
# Static dielectric constant tensor:
#      x y z
#    x 4.919420 0.020390 -0.194110 
#    y 0.020390 4.184070 0.019370 
#    z -0.194110 0.019370 5.207340 
# 
# 
# High freq. dielectric constant tensor:
#      x y z
#    x 2.011650 0.001650 -0.009210 
#    y 0.001650 1.975450 0.007730 
#    z -0.009210 0.007730 2.017030 
# 
# From -- ./inp_files/350680.got.cif
#   From: 2010.06.25/outbox.cif.g09.slc.cpg/sg2_176_cif.got.tgz:350680.got - 2010.06.27 13:26:56.
