data_PCOD8025680
_publ_section_title
;
Structure prediction by ZEFSAII (Michael W. Deem and Ramdas Pophale) SiO2 
 PCOD8025680
Probable space group: P -1
;
_chemical_formula_sum "Si O2"
_cell_formula_units_Z 12
_cell_length_a 11.971489
_cell_length_b 8.200481
_cell_length_c 9.145153
_cell_angle_alpha 97.233640
_cell_angle_beta 96.142498
_cell_angle_gamma 36.424920
_cell_volume 528.816860
_symmetry_space_group_name_H-M "P -1"
_symmetry_group_IT_number 2
_symmetry_cell_setting 'triclinic'
loop_
_space_group_symop_operation_xyz
x,y,z
-x,-y,-z
loop_
_atom_site_type_symbol
_atom_site_label
_atom_site_fract_x
_atom_site_fract_y
_atom_site_fract_z
Si Si1 0.115115 0.527345 0.837007
Si Si2 0.542870 0.982385 0.337149
Si Si3 0.519259 0.569334 0.661416
Si Si4 0.240913 0.218471 0.091656
Si Si5 0.757442 0.131294 0.094638
Si Si6 0.120175 0.866811 0.165490
O O1 0.251704 0.332750 0.699090
O O2 0.958990 0.566584 0.830731
O O3 0.012535 0.817534 0.822435
O O4 0.233321 0.377911 0.990952
O O5 0.500000 0.000000 0.500000
O O6 0.552915 0.162734 0.331683
O O7 0.393745 0.072309 0.219955
O O8 0.500000 0.500000 0.500000
O O9 0.389042 0.637866 0.775490
O O10 0.741414 0.301406 0.697138
O O11 0.291933 0.991922 0.984348
O O12 0.976922 0.879584 0.153353
O O13 0.748983 0.277465 0.978891
#
# Coordination Sequence:
#
# PCOD8025680 Si02
#       6
#     2   2   2   2   2   2
#     4  10  23  45  73 102 132 175 237 287 336 399
#     4  12  29  46  69 101 143 188 226 278 346 414
#     4  12  29  47  66 103 147 185 222 278 351 415
#     4  10  23  45  76 101 133 177 240 288 338 396
#     4  10  23  45  75 102 136 176 233 284 344 396
#     4  10  25  44  74 106 134 175 234 287 343 401
#
# _framework density 22.692166
#
# number of rings (size 3 to 8) (size 9 to 14) (size 15 to 20)
#    0.000    1.333    1.667    1.000   16.333    1.333 
#    0.000    0.000    0.000    0.000    0.000    0.000 
#    0.000    0.000    0.000    0.000    0.000    0.000 
#
# Total GULP energy -148757.696399 kJ/mol
# GULP energy per Si atom -12396.474700 kJ/mol
# Density = 2.264052 g / cm^3
# Si number density = 22.692166 Si / 1000 Ang^3
#
#
#
# Elastic Constant Matrix: (Units=GPa)
#
#
# Indices 1 2 3 4 5 6 
#
# 1 78.6997 25.0976 48.5953 14.0419 1.2307 -7.6899
# 2 25.0976 85.3203 61.3753 9.0162 -12.8065 -10.3383
# 3 48.5953 61.3753 144.2981 16.7667 11.3979 -22.7765
# 4 14.0419 9.0162 16.7667 34.1380 -10.2936 -8.5151
# 5 1.2307 -12.8065 11.3979 -10.2936 38.1303 -0.0546
# 6 -7.6899 -10.3383 -22.7765 -8.5151 -0.0546 31.8548
#
#
#
# Elastic Compliance Matrix: (Units=1/GPa)
#
#
# Indices 1 2 3 4 5 6 
#
# 1 0.016748 -0.001390 -0.004568 -0.004801 -0.000939 -0.000959
# 2 -0.001390 0.019967 -0.009113 0.002985 0.010282 0.000444
# 3 -0.004568 -0.009113 0.014251 -0.003931 -0.008227 0.005064
# 4 -0.004801 0.002985 -0.003931 0.038000 0.012601 0.007179
# 5 -0.000939 0.010282 -0.008227 0.012601 0.035571 0.000657
# 6 -0.000959 0.000444 0.005064 0.007179 0.000657 0.036846
#
#
# Mechanical properties :
#
#
# Convention : Reuss Voigt Hill
#
# Bulk Modulus (GPa) = 48.02668 64.27271 56.14969
# Shear Modulus (GPa) = 25.19303 32.37462 28.78382
#
# Velocity S-wave (km/s) = 3.33559 3.78125 3.56539
# Velocity P-wave (km/s) = 6.00377 6.88832 6.46120
#
# Compressibility (1/GPa) = 0.02082176
#
# Stress axis : x y z
#
# Youngs Moduli (GPa) = 59.70758 50.08318 70.17163
#
# Poissons Ratio (x) = 0.06963 0.32058
# Poissons Ratio (y) = 0.08301 0.63950
# Poissons Ratio (z) = 0.27277 0.45643
#
# Static dielectric constant tensor:
#      x y z
#    x 4.370840 -0.155680 0.015950 
#    y -0.155680 4.134320 -0.022200 
#    z 0.015950 -0.022200 3.679880 
# 
# 
# High freq. dielectric constant tensor:
#      x y z
#    x 1.907220 -0.005360 0.001020 
#    y -0.005360 1.903590 -0.000390 
#    z 0.001020 -0.000390 1.876190 
# 
# From -- ./inp_files/239838.got.cif
#   From: 2010.06.25/outbox.cif.g09.slc.cpg/sg2_120_cif.got.tgz:239838.got - 2010.06.27 13:26:56.
