data_PCOD8025443
_publ_section_title
;
Structure prediction by ZEFSAII (Michael W. Deem and Ramdas Pophale) SiO2 
 PCOD8025443
Probable space group: P -1
;
_chemical_formula_sum "Si O2"
_cell_formula_units_Z 14
_cell_length_a 14.474339
_cell_length_b 7.785871
_cell_length_c 8.453449
_cell_angle_alpha 125.718504
_cell_angle_beta 128.949310
_cell_angle_gamma 73.134851
_cell_volume 597.049111
_symmetry_space_group_name_H-M "P -1"
_symmetry_group_IT_number 2
_symmetry_cell_setting 'triclinic'
loop_
_space_group_symop_operation_xyz
x,y,z
-x,-y,-z
loop_
_atom_site_type_symbol
_atom_site_label
_atom_site_fract_x
_atom_site_fract_y
_atom_site_fract_z
Si Si1 0.633162 0.455272 0.281393
Si Si2 0.933445 0.522117 0.173972
Si Si3 0.790908 0.233806 0.099299
Si Si4 0.375333 0.052754 0.461514
Si Si5 0.413796 0.138968 0.895673
Si Si6 0.168498 0.053342 0.718350
Si Si7 0.169772 0.646325 0.340048
O O1 0.644443 0.704220 0.454882
O O2 0.697561 0.364499 0.454301
O O3 0.698674 0.381600 0.155427
O O4 0.492295 0.365854 0.066767
O O5 0.924649 0.776037 0.308444
O O6 0.069640 0.496573 0.256828
O O7 0.901011 0.395871 0.234210
O O8 0.838160 0.426214 0.887889
O O9 0.730778 0.093128 0.816860
O O10 0.841932 0.078575 0.198871
O O11 0.368643 0.012165 0.620042
O O12 0.500000 0.000000 0.500000
O O13 0.303369 0.175281 0.909954
O O14 0.500000 0.000000 0.000000
O O15 0.142463 0.889897 0.456708
#
# Coordination Sequence:
#
# PCOD8025443 Si02
#       7
#     2   2   2   2   2   2   2
#     4  11  24  43  65  93 135 170 211 269 322 380
#     4  11  24  43  70  95 127 174 217 270 323 374
#     4  11  24  42  65 100 129 167 224 261 318 394
#     4  12  24  40  64  96 129 169 219 261 319 389
#     4  12  22  42  65  94 135 170 208 267 324 386
#     4  11  23  43  66  97 134 168 217 265 324 384
#     4  10  23  45  67  94 131 166 219 267 322 387
#
# _framework density 23.448657000000001
#
# number of rings (size 3 to 8) (size 9 to 14) (size 15 to 20)
#    0.000    0.857    4.286    3.429    2.000    2.286 
#    0.000   10.000    0.000    0.000    0.000    0.000 
#    0.000    0.000    0.000    0.000    0.000    0.000 
#
# Total GULP energy -173606.175382 kJ/mol
# GULP energy per Si atom -12400.441099 kJ/mol
# Density = 2.339529 g / cm^3
# Si number density = 23.448657 Si / 1000 Ang^3
#
#
#
# Elastic Constant Matrix: (Units=GPa)
#
#
# Indices 1 2 3 4 5 6 
#
# 1 98.9171 35.2836 -7.9055 -0.8137 6.2905 16.4798
# 2 35.2836 103.3775 18.2072 17.0777 -16.3905 7.0327
# 3 -7.9055 18.2072 89.1736 16.2350 -16.3763 -12.0537
# 4 -0.8137 17.0777 16.2350 36.4332 -2.2816 -0.4027
# 5 6.2905 -16.3905 -16.3763 -2.2816 33.0901 1.0887
# 6 16.4798 7.0327 -12.0537 -0.4027 1.0887 37.0202
#
#
#
# Elastic Compliance Matrix: (Units=1/GPa)
#
#
# Indices 1 2 3 4 5 6 
#
# 1 0.013119 -0.005351 0.000369 0.002295 -0.004654 -0.004542
# 2 -0.005351 0.013788 -0.001100 -0.005668 0.006940 -0.000861
# 3 0.000369 -0.001100 0.014118 -0.005352 0.005858 0.004411
# 4 0.002295 -0.005668 -0.005352 0.032300 -0.003625 -0.001229
# 5 -0.004654 0.006940 0.005858 -0.003625 0.037142 0.001529
# 6 -0.004542 -0.000861 0.004411 -0.001229 0.001529 0.030575
#
#
# Mechanical properties :
#
#
# Convention : Reuss Voigt Hill
#
# Bulk Modulus (GPa) = 34.64679 42.51543 38.58111
# Shear Modulus (GPa) = 30.70777 37.70091 34.20434
#
# Velocity S-wave (km/s) = 3.62273 4.01410 3.82342
# Velocity P-wave (km/s) = 5.68389 6.29719 5.99838
#
# Compressibility (1/GPa) = 0.02886270
#
# Stress axis : x y z
#
# Youngs Moduli (GPa) = 76.22503 72.52443 70.83345
#
# Poissons Ratio (x) = 0.38806 -0.02615
# Poissons Ratio (y) = 0.40786 0.07789
# Poissons Ratio (z) = -0.02814 0.07975
#
# Static dielectric constant tensor:
#      x y z
#    x 4.063700 0.115470 0.217930 
#    y 0.115470 4.056600 0.231730 
#    z 0.217930 0.231730 4.670410 
# 
# 
# High freq. dielectric constant tensor:
#      x y z
#    x 1.930070 0.008220 0.009290 
#    y 0.008220 1.919490 0.006140 
#    z 0.009290 0.006140 1.944270 
# 
# From -- ./inp_files/187314.got.cif
#   From: 2010.06.25/outbox.cif.g09.slc.cpg/sg2_94_cif.got.tgz:187314.got - 2010.06.27 13:26:56.
