data_PCOD8025236
_publ_section_title
;
Structure prediction by ZEFSAII (Michael W. Deem and Ramdas Pophale) SiO2 
 PCOD8025236
Probable space group: P -1
;
_chemical_formula_sum "Si O2"
_cell_formula_units_Z 16
_cell_length_a 23.250672
_cell_length_b 5.378599
_cell_length_c 11.614128
_cell_angle_alpha 82.670046
_cell_angle_beta 35.129361
_cell_angle_gamma 104.585896
_cell_volume 647.690811
_symmetry_space_group_name_H-M "P -1"
_symmetry_group_IT_number 2
_symmetry_cell_setting 'triclinic'
loop_
_space_group_symop_operation_xyz
x,y,z
-x,-y,-z
loop_
_atom_site_type_symbol
_atom_site_label
_atom_site_fract_x
_atom_site_fract_y
_atom_site_fract_z
Si Si1 0.904477 0.827741 0.772179
Si Si2 0.226586 0.896928 0.434036
Si Si3 0.037391 0.618871 0.189767
Si Si4 0.125502 0.027782 0.807283
Si Si5 0.664127 0.194706 0.130993
Si Si6 0.576437 0.865231 0.514674
Si Si7 0.655961 0.267278 0.569704
Si Si8 0.586209 0.814937 0.075411
O O1 0.929040 0.608787 0.813062
O O2 0.760683 0.577094 0.971616
O O3 0.000000 0.000000 0.500000
O O4 0.914351 0.089594 0.819422
O O5 0.115676 0.601296 0.555851
O O6 0.300153 0.783313 0.379782
O O7 0.167699 0.001153 0.613676
O O8 0.332079 0.192712 0.159190
O O9 0.095435 0.752169 0.959067
O O10 0.243232 0.360188 0.652481
O O11 0.000000 0.000000 0.000000
O O12 0.519324 0.056662 0.356542
O O13 0.667776 0.000566 0.243882
O O14 0.694043 0.105304 0.966005
O O15 0.498432 0.492850 0.686095
O O16 0.662335 0.062168 0.473718
O O17 0.511865 0.144182 0.826040
#
# Coordination Sequence:
#
# PCOD8025236 Si02
#       8
#     2   2   2   2   2   2   2   2
#     4  12  28  48  78 112 151 198 259 323 392 459
#     4  12  27  45  74 105 157 196 253 316 382 462
#     4  12  28  47  76 111 153 203 257 316 391 464
#     4  12  26  48  74 107 150 204 254 314 382 467
#     4  10  24  44  72 102 147 194 253 317 375 455
#     4  10  23  44  71 103 142 194 253 308 382 446
#     4  11  25  44  73 107 150 189 254 308 386 453
#     4  11  25  45  73 109 147 198 251 314 388 450
#
# _framework density 24.703143000000001
#
# number of rings (size 3 to 8) (size 9 to 14) (size 15 to 20)
#    0.000    0.750    1.250    4.500    8.750    4.000 
#    0.000    0.000    0.000    0.000    0.000    0.000 
#    0.000    0.000    0.000    0.000    0.000    0.000 
#
# Total GULP energy -198368.912619 kJ/mol
# GULP energy per Si atom -12398.057039 kJ/mol
# Density = 2.464692 g / cm^3
# Si number density = 24.703143 Si / 1000 Ang^3
#
#
#
# Elastic Constant Matrix: (Units=GPa)
#
#
# Indices 1 2 3 4 5 6 
#
# 1 62.0962 22.6009 29.5700 -4.6414 -4.4856 5.5271
# 2 22.6009 104.8816 30.1996 -3.7682 -15.2777 9.0704
# 3 29.5700 30.1996 125.8870 2.9263 -3.1396 15.7962
# 4 -4.6414 -3.7682 2.9263 47.4927 10.7876 -2.5291
# 5 -4.4856 -15.2777 -3.1396 10.7876 26.4597 -19.6017
# 6 5.5271 9.0704 15.7962 -2.5291 -19.6017 34.3884
#
#
#
# Elastic Compliance Matrix: (Units=1/GPa)
#
#
# Indices 1 2 3 4 5 6 
#
# 1 0.019150 -0.002926 -0.003788 0.001836 0.000068 -0.000392
# 2 -0.002926 0.011822 -0.002341 -0.001087 0.009124 0.003548
# 3 -0.003788 -0.002341 0.010092 -0.000260 -0.005591 -0.006615
# 4 0.001836 -0.001087 -0.000260 0.024277 -0.015302 -0.006825
# 5 0.000068 0.009124 -0.005591 -0.015302 0.082956 0.046311
# 6 -0.000392 0.003548 -0.006615 -0.006825 0.046311 0.057141
#
#
# Mechanical properties :
#
#
# Convention : Reuss Voigt Hill
#
# Bulk Modulus (GPa) = 43.56635 50.84508 47.20571
# Shear Modulus (GPa) = 21.62628 35.70111 28.66370
#
# Velocity S-wave (km/s) = 2.96200 3.80571 3.41005
# Velocity P-wave (km/s) = 5.41961 6.31968 5.88687
#
# Compressibility (1/GPa) = 0.02295349
#
# Stress axis : x y z
#
# Youngs Moduli (GPa) = 52.21940 84.58517 99.09070
#
# Poissons Ratio (x) = 0.24750 0.37536
# Poissons Ratio (y) = 0.15280 0.23199
# Poissons Ratio (z) = 0.19781 0.19803
#
# Static dielectric constant tensor:
#      x y z
#    x 4.797290 0.289750 -0.078930 
#    y 0.289750 4.245430 -0.127150 
#    z -0.078930 -0.127150 4.580530 
# 
# 
# High freq. dielectric constant tensor:
#      x y z
#    x 2.000830 0.011480 -0.006090 
#    y 0.011480 1.970370 -0.005780 
#    z -0.006090 -0.005780 1.993420 
# 
# From -- ./inp_files/473412.got.cif
#   From: 2010.06.25/outbox.cif.g09.slc.cpg/sg2_237_cif.got.tgz:473412.got - 2010.06.27 13:26:56.
