data_PCOD8025659
_publ_section_title
;
Structure prediction by ZEFSAII (Michael W. Deem and Ramdas Pophale) SiO2 
 PCOD8025659
Probable space group: P -1
;
_chemical_formula_sum "Si O2"
_cell_formula_units_Z 16
_cell_length_a 8.653837
_cell_length_b 22.804515
_cell_length_c 19.479407
_cell_angle_alpha 158.756002
_cell_angle_beta 29.588879
_cell_angle_gamma 148.575369
_cell_volume 667.783474
_symmetry_space_group_name_H-M "P -1"
_symmetry_group_IT_number 2
_symmetry_cell_setting 'triclinic'
loop_
_space_group_symop_operation_xyz
x,y,z
-x,-y,-z
loop_
_atom_site_type_symbol
_atom_site_label
_atom_site_fract_x
_atom_site_fract_y
_atom_site_fract_z
Si Si1 0.164436 0.254651 0.391186
Si Si2 0.206511 0.626298 0.791419
Si Si3 0.644448 0.421122 0.636486
Si Si4 0.272710 0.352122 0.272875
Si Si5 0.225849 0.065170 0.421024
Si Si6 0.385259 0.286190 0.935874
Si Si7 0.209228 0.057429 0.881104
Si Si8 0.163404 0.871502 0.480339
O O1 0.051354 0.428565 0.622676
O O2 0.553843 0.301819 0.286764
O O3 0.049818 0.168285 0.413045
O O4 0.032880 0.124005 0.236405
O O5 0.415861 0.664604 0.822140
O O6 0.918724 0.723433 0.009104
O O7 0.597747 0.488080 0.651508
O O8 0.370735 0.260828 0.585077
O O9 0.576365 0.545867 0.855039
O O10 0.003734 0.389670 0.469509
O O11 0.089188 0.192156 0.122174
O O12 0.034839 0.036069 0.392150
O O13 0.500232 0.964955 0.207583
O O14 0.000000 0.000000 0.500000
O O15 0.316370 0.129363 0.843055
O O16 0.723035 0.289302 0.769659
O O17 0.500000 0.000000 0.500000
#
# Coordination Sequence:
#
# PCOD8025659 Si02
#       8
#     2   2   2   2   2   2   2   2
#     4  11  24  47  69 102 145 182 230 283 349 411
#     4  11  24  43  72 101 140 186 229 287 344 411
#     4  10  23  45  72 101 140 175 226 295 338 412
#     4  10  23  45  72 107 134 176 237 285 350 399
#     4  12  24  44  70  96 138 184 227 279 345 409
#     4  11  24  45  70 103 140 181 230 285 349 409
#     4  11  24  44  71 103 136 183 230 287 343 413
#     4  12  26  46  69 102 141 183 229 286 345 416
#
# _framework density 23.959861
#
# number of rings (size 3 to 8) (size 9 to 14) (size 15 to 20)
#    0.000    1.000    2.500    3.750    1.750    5.500 
#    2.250    0.000    0.000    0.000    0.000    0.000 
#    0.000    0.000    0.000    0.000    0.000    0.000 
#
# Total GULP energy -198300.779060 kJ/mol
# GULP energy per Si atom -12393.798691 kJ/mol
# Density = 2.390533 g / cm^3
# Si number density = 23.959861 Si / 1000 Ang^3
#
#
#
# Elastic Constant Matrix: (Units=GPa)
#
#
# Indices 1 2 3 4 5 6 
#
# 1 138.5224 44.7134 34.0219 6.1972 -21.4891 -3.1344
# 2 44.7134 116.9664 22.9602 22.5765 2.7355 -13.8896
# 3 34.0219 22.9602 87.9096 14.0191 5.3401 -3.9568
# 4 6.1972 22.5765 14.0191 38.3586 4.6093 5.5590
# 5 -21.4891 2.7355 5.3401 4.6093 50.1915 -4.6247
# 6 -3.1344 -13.8896 -3.9568 5.5590 -4.6247 32.2093
#
#
#
# Elastic Compliance Matrix: (Units=1/GPa)
#
#
# Indices 1 2 3 4 5 6 
#
# 1 0.009827 -0.003499 -0.003389 0.001233 0.004597 -0.000522
# 2 -0.003499 0.012059 -0.000331 -0.007159 -0.000917 0.005923
# 3 -0.003389 -0.000331 0.013657 -0.004197 -0.002354 0.001591
# 4 0.001233 -0.007159 -0.004197 0.033320 -0.002580 -0.009604
# 5 0.004597 -0.000917 -0.002354 -0.002580 0.022749 0.003475
# 6 -0.000522 0.005923 0.001591 -0.009604 0.003475 0.035902
#
#
# Mechanical properties :
#
#
# Convention : Reuss Voigt Hill
#
# Bulk Modulus (GPa) = 47.38274 60.75439 54.06857
# Shear Modulus (GPa) = 33.55994 40.26540 36.91267
#
# Velocity S-wave (km/s) = 3.74662 4.10388 3.92931
# Velocity P-wave (km/s) = 6.20766 6.91864 6.57277
#
# Compressibility (1/GPa) = 0.02110473
#
# Stress axis : x y z
#
# Youngs Moduli (GPa) = 101.76108 82.92789 73.22147
#
# Poissons Ratio (x) = 0.29016 0.24813
# Poissons Ratio (y) = 0.35605 0.02427
# Poissons Ratio (z) = 0.34484 0.02748
#
# Static dielectric constant tensor:
#      x y z
#    x 4.558250 0.006190 -0.264430 
#    y 0.006190 4.562350 -0.270460 
#    z -0.264430 -0.270460 5.077320 
# 
# 
# High freq. dielectric constant tensor:
#      x y z
#    x 1.963160 -0.008010 -0.000380 
#    y -0.008010 1.943820 0.013920 
#    z -0.000380 0.013920 1.955000 
# 
# From -- ./inp_files/591977.got.cif
#   From: 2010.06.25/outbox.cif.g09.slc.cpg/sg2_296_cif.got.tgz:591977.got - 2010.06.27 13:26:56.
