data_PCOD8025715
_publ_section_title
;
Structure prediction by ZEFSAII (Michael W. Deem and Ramdas Pophale) SiO2 
 PCOD8025715
Probable space group: P -1
;
_chemical_formula_sum "Si O2"
_cell_formula_units_Z 10
_cell_length_a 11.575686
_cell_length_b 10.278444
_cell_length_c 13.163345
_cell_angle_alpha 21.004978
_cell_angle_beta 43.046920
_cell_angle_gamma 39.844990
_cell_volume 359.020181
_symmetry_space_group_name_H-M "P -1"
_symmetry_group_IT_number 2
_symmetry_cell_setting 'triclinic'
loop_
_space_group_symop_operation_xyz
x,y,z
-x,-y,-z
loop_
_atom_site_type_symbol
_atom_site_label
_atom_site_fract_x
_atom_site_fract_y
_atom_site_fract_z
Si Si1 0.402457 0.239392 0.485442
Si Si2 0.617904 0.467305 0.349190
Si Si3 0.914597 0.724509 0.641554
Si Si4 0.203266 0.748927 0.076732
Si Si5 0.893353 0.815377 0.918422
O O1 0.525358 0.420661 0.338275
O O2 0.241813 0.619510 0.265207
O O3 0.500000 0.000000 0.500000
O O4 0.335504 0.969292 0.797402
O O5 0.500000 0.500000 0.500000
O O6 0.804574 0.089547 0.517802
O O7 0.682098 0.843971 0.026592
O O8 0.763506 0.641063 0.728174
O O9 0.071768 0.793212 0.420699
O O10 0.022463 0.330141 0.919087
O O11 0.000000 0.000000 0.000000
O O12 0.000000 0.500000 0.000000
#
# Coordination Sequence:
#
# PCOD8025715 Si02
#       5
#     2   2   2   2   2
#     4  12  27  52  81 109 157 204 250 319 388 441
#     4  11  26  48  78 117 153 192 255 319 379 447
#     4  11  24  49  78 105 150 203 249 308 376 453
#     4  12  28  51  80 111 151 205 263 310 374 463
#     4  10  23  45  74 105 148 199 246 305 379 451
#
# _framework density 27.853587999999998
#
# number of rings (size 3 to 8) (size 9 to 14) (size 15 to 20)
#    0.000    0.800    2.000    4.800    5.600    1.600 
#    3.600   10.000    0.000    0.000    0.000    0.000 
#    0.000    0.000    0.000    0.000    0.000    0.000 
#
# Total GULP energy -124031.266870 kJ/mol
# GULP energy per Si atom -12403.126687 kJ/mol
# Density = 2.779019 g / cm^3
# Si number density = 27.853588 Si / 1000 Ang^3
#
#
#
# Elastic Constant Matrix: (Units=GPa)
#
#
# Indices 1 2 3 4 5 6 
#
# 1 183.7761 27.1249 54.0275 19.0839 2.3936 -0.4982
# 2 27.1249 96.7146 39.4849 18.7469 -0.4004 -2.1552
# 3 54.0275 39.4849 173.0162 28.4391 3.5806 -4.0945
# 4 19.0839 18.7469 28.4391 52.1647 -4.8749 -0.6300
# 5 2.3936 -0.4004 3.5806 -4.8749 50.5579 11.1645
# 6 -0.4982 -2.1552 -4.0945 -0.6300 11.1645 30.8235
#
#
#
# Elastic Compliance Matrix: (Units=1/GPa)
#
#
# Indices 1 2 3 4 5 6 
#
# 1 0.006141 -0.000884 -0.001528 -0.001123 -0.000279 -0.000088
# 2 -0.000884 0.011964 -0.001960 -0.002913 -0.000127 0.000548
# 3 -0.001528 -0.001960 0.007200 -0.002738 -0.000957 0.001085
# 4 -0.001123 -0.002913 -0.002738 0.022352 0.002617 -0.001077
# 5 -0.000279 -0.000127 -0.000957 0.002617 0.021881 -0.008012
# 6 -0.000088 0.000548 0.001085 -0.001077 -0.008012 0.035504
#
#
# Mechanical properties :
#
#
# Convention : Reuss Voigt Hill
#
# Bulk Modulus (GPa) = 60.38037 77.19793 68.78915
# Shear Modulus (GPa) = 41.90918 48.90053 45.40485
#
# Velocity S-wave (km/s) = 3.88316 4.19457 4.04186
# Velocity P-wave (km/s) = 6.46761 7.15786 6.82147
#
# Compressibility (1/GPa) = 0.01656167
#
# Stress axis : x y z
#
# Youngs Moduli (GPa) = 162.83995 83.58315 138.89522
#
# Poissons Ratio (x) = 0.07389 0.21217
# Poissons Ratio (y) = 0.14396 0.27223
# Poissons Ratio (z) = 0.24875 0.16382
#
# Static dielectric constant tensor:
#      x y z
#    x 9.115400 1.582020 -3.200590 
#    y 1.582020 6.046320 -1.413990 
#    z -3.200590 -1.413990 8.562140 
# 
# 
# High freq. dielectric constant tensor:
#      x y z
#    x 2.147960 0.008210 -0.007310 
#    y 0.008210 2.142130 -0.012400 
#    z -0.007310 -0.012400 2.135590 
# 
# From -- ./inp_files/518490.got.cif
#   From: 2010.06.25/outbox.cif.g09.slc.cpg/sg2_260_cif.got.tgz:518490.got - 2010.06.27 13:26:56.
