data_PCOD8025150
_publ_section_title
;
Structure prediction by ZEFSAII (Michael W. Deem and Ramdas Pophale) SiO2 
 PCOD8025150
Probable space group: P -1
;
_chemical_formula_sum "Si O2"
_cell_formula_units_Z 14
_cell_length_a 5.185174
_cell_length_b 13.818191
_cell_length_c 13.575788
_cell_angle_alpha 139.260227
_cell_angle_beta 87.757622
_cell_angle_gamma 77.701763
_cell_volume 588.777430
_symmetry_space_group_name_H-M "P -1"
_symmetry_group_IT_number 2
_symmetry_cell_setting 'triclinic'
loop_
_space_group_symop_operation_xyz
x,y,z
-x,-y,-z
loop_
_atom_site_type_symbol
_atom_site_label
_atom_site_fract_x
_atom_site_fract_y
_atom_site_fract_z
Si Si1 0.376582 0.440197 0.080936
Si Si2 0.131709 0.548131 0.782681
Si Si3 0.465364 0.000751 0.118832
Si Si4 0.949842 0.124016 0.007830
Si Si5 0.769669 0.075535 0.438227
Si Si6 0.763670 0.236333 0.761255
Si Si7 0.201162 0.211505 0.447030
O O1 0.609888 0.480777 0.170730
O O2 0.190843 0.605345 0.155854
O O3 0.161107 0.392232 0.110756
O O4 0.517180 0.295871 0.891250
O O5 0.164136 0.394262 0.599659
O O6 0.109743 0.693253 0.819631
O O7 0.263190 0.170040 0.297649
O O8 0.315159 0.875827 0.051127
O O9 0.773456 0.942538 0.116200
O O10 0.500000 0.000000 0.000000
O O11 0.000000 0.000000 0.000000
O O12 0.686828 0.140599 0.600443
O O13 0.477369 0.096529 0.409399
O O14 0.932442 0.178629 0.462994
O O15 0.955282 0.886900 0.288212
#
# Coordination Sequence:
#
# PCOD8025150 Si02
#       7
#     2   2   2   2   2   2   2
#     4  11  25  41  66  96 138 179 228 271 335 384
#     4  12  24  43  66 101 133 177 225 277 332 404
#     4  10  23  44  69  99 129 166 220 278 337 411
#     4  10  23  44  69  99 129 166 220 278 337 411
#     4  11  25  41  66  96 138 179 228 271 335 384
#     4  10  24  44  62  98 140 182 224 284 322 390
#     4  12  24  43  66 101 133 177 225 277 332 404
#
# _framework density 23.778082999999999
#
# number of rings (size 3 to 8) (size 9 to 14) (size 15 to 20)
#    0.000    1.143    2.857    1.714    6.000    6.857 
#    0.000    5.714    0.000    0.000    0.000    0.000 
#    0.000    0.000    0.000    0.000    0.000    0.000 
#
# Total GULP energy -173483.193191 kJ/mol
# GULP energy per Si atom -12391.656656 kJ/mol
# Density = 2.372396 g / cm^3
# Si number density = 23.778083 Si / 1000 Ang^3
#
#
#
# Elastic Constant Matrix: (Units=GPa)
#
#
# Indices 1 2 3 4 5 6 
#
# 1 158.0747 18.8740 27.3522 0.2038 -7.7252 14.5590
# 2 18.8740 75.5514 48.8583 13.3692 2.4503 4.4326
# 3 27.3522 48.8583 172.0249 5.7722 -10.3152 17.7585
# 4 0.2038 13.3692 5.7722 44.5254 1.2534 -1.1746
# 5 -7.7252 2.4503 -10.3152 1.2534 25.6642 8.2949
# 6 14.5590 4.4326 17.7585 -1.1746 8.2949 17.5816
#
#
#
# Elastic Compliance Matrix: (Units=1/GPa)
#
#
# Indices 1 2 3 4 5 6 
#
# 1 0.007561 -0.001957 0.000623 0.000075 0.005635 -0.009051
# 2 -0.001957 0.017973 -0.005549 -0.004360 -0.006016 0.005241
# 3 0.000623 -0.005549 0.009045 -0.000064 0.008289 -0.012169
# 4 0.000075 -0.004360 -0.000064 0.023926 -0.001921 0.003607
# 5 0.005635 -0.006016 0.008289 -0.001921 0.057139 -0.038608
# 6 -0.009051 0.005241 -0.012169 0.003607 -0.038608 0.093799
#
#
# Mechanical properties :
#
#
# Convention : Reuss Voigt Hill
#
# Bulk Modulus (GPa) = 48.04507 66.20223 57.12365
# Shear Modulus (GPa) = 21.72544 38.25868 29.99206
#
# Velocity S-wave (km/s) = 3.02598 4.01557 3.55538
# Velocity P-wave (km/s) = 5.69721 7.02865 6.39766
#
# Compressibility (1/GPa) = 0.02081379
#
# Stress axis : x y z
#
# Youngs Moduli (GPa) = 132.26128 55.64053 110.55382
#
# Poissons Ratio (x) = 0.10888 -0.06891
# Poissons Ratio (y) = 0.25882 0.61345
# Poissons Ratio (z) = -0.08244 0.30874
#
# Static dielectric constant tensor:
#      x y z
#    x 3.455230 0.400060 -0.039020 
#    y 0.400060 4.008060 0.026660 
#    z -0.039020 0.026660 4.426420 
# 
# 
# High freq. dielectric constant tensor:
#      x y z
#    x 1.959600 0.006240 -0.008410 
#    y 0.006240 1.921940 0.010180 
#    z -0.008410 0.010180 1.950570 
# 
# From -- ./inp_files/324013.got.cif
#   From: 2010.06.25/outbox.cif.g09.slc.cpg/sg2_163_cif.got.tgz:324013.got - 2010.06.27 13:26:56.
