data_PCOD8025559
_publ_section_title
;
Structure prediction by ZEFSAII (Michael W. Deem and Ramdas Pophale) SiO2 
 PCOD8025559
Probable space group: P -1
;
_chemical_formula_sum "Si O2"
_cell_formula_units_Z 12
_cell_length_a 8.611392
_cell_length_b 11.412467
_cell_length_c 8.653223
_cell_angle_alpha 48.678254
_cell_angle_beta 126.163542
_cell_angle_gamma 129.340744
_cell_volume 471.916046
_symmetry_space_group_name_H-M "P -1"
_symmetry_group_IT_number 2
_symmetry_cell_setting 'triclinic'
loop_
_space_group_symop_operation_xyz
x,y,z
-x,-y,-z
loop_
_atom_site_type_symbol
_atom_site_label
_atom_site_fract_x
_atom_site_fract_y
_atom_site_fract_z
Si Si1 0.110752 0.673199 0.624400
Si Si2 0.246493 0.374383 0.001549
Si Si3 0.851283 0.158728 0.817335
Si Si4 0.519270 0.183150 0.797753
Si Si5 0.517225 0.781776 0.922644
Si Si6 0.701655 0.624368 0.608984
O O1 0.063381 0.754140 0.372348
O O2 0.324473 0.813527 0.704584
O O3 0.916251 0.626694 0.666124
O O4 0.158146 0.507160 0.763009
O O5 0.442198 0.363907 0.026856
O O6 0.305410 0.412597 0.181250
O O7 0.051705 0.190713 0.017906
O O8 0.712172 0.251890 0.731206
O O9 0.723251 0.956097 0.901393
O O10 0.315434 0.191456 0.585558
O O11 0.559897 0.294370 0.883795
O O12 0.500000 0.000000 0.000000
O O13 0.500000 0.500000 0.500000
#
# Coordination Sequence:
#
# PCOD8025559 Si02
#       6
#     2   2   2   2   2   2
#     4  12  25  44  71 105 143 189 237 290 350 419
#     4  12  25  44  71 105 143 189 237 290 350 419
#     4  11  24  45  70 105 145 186 234 290 349 421
#     4  10  23  45  69  96 137 184 232 285 344 414
#     4  11  24  45  70 105 145 186 234 290 349 421
#     4  12  26  47  72 102 140 188 239 295 353 418
#
# _framework density 25.428253999999999
#
# number of rings (size 3 to 8) (size 9 to 14) (size 15 to 20)
#    0.000    0.667    0.000    7.500    0.000    5.333 
#    0.000    7.500    0.000    0.000    0.000    0.000 
#    0.000    0.000    0.000    0.000    0.000    0.000 
#
# Total GULP energy -148747.060860 kJ/mol
# GULP energy per Si atom -12395.588405 kJ/mol
# Density = 2.537038 g / cm^3
# Si number density = 25.428254 Si / 1000 Ang^3
#
#
#
# Elastic Constant Matrix: (Units=GPa)
#
#
# Indices 1 2 3 4 5 6 
#
# 1 206.1928 38.8454 41.5205 6.9636 -7.1900 -16.8462
# 2 38.8454 112.2786 30.6527 22.5757 -7.1017 -4.9877
# 3 41.5205 30.6527 92.5555 12.4636 -3.8905 -7.8638
# 4 6.9636 22.5757 12.4636 38.1106 -6.2962 6.3351
# 5 -7.1900 -7.1017 -3.8905 -6.2962 55.3173 5.3236
# 6 -16.8462 -4.9877 -7.8638 6.3351 5.3236 43.3822
#
#
#
# Elastic Compliance Matrix: (Units=1/GPa)
#
#
# Indices 1 2 3 4 5 6 
#
# 1 0.005636 -0.001367 -0.001953 0.000198 0.000287 0.001613
# 2 -0.001367 0.011224 -0.002208 -0.005816 0.000334 0.001168
# 3 -0.001953 -0.002208 0.012945 -0.002884 -0.000126 0.001771
# 4 0.000198 -0.005816 -0.002884 0.032178 0.003338 -0.006223
# 5 0.000287 0.000334 -0.000126 0.003338 0.018785 -0.002666
# 6 0.001613 0.001168 0.001771 -0.006223 -0.002666 0.025369
#
#
# Mechanical properties :
#
#
# Convention : Reuss Voigt Hill
#
# Bulk Modulus (GPa) = 53.33203 70.34045 61.83624
# Shear Modulus (GPa) = 40.50489 47.36258 43.93374
#
# Velocity S-wave (km/s) = 3.99546 4.32046 4.16113
# Velocity P-wave (km/s) = 6.50415 7.25334 6.88894
#
# Compressibility (1/GPa) = 0.01875046
#
# Stress axis : x y z
#
# Youngs Moduli (GPa) = 177.44019 89.09148 77.24871
#
# Poissons Ratio (x) = 0.12175 0.15087
# Poissons Ratio (y) = 0.24248 0.17055
# Poissons Ratio (z) = 0.34656 0.19670
#
# Static dielectric constant tensor:
#      x y z
#    x 5.389300 -0.260440 0.225380 
#    y -0.260440 4.864940 0.111810 
#    z 0.225380 0.111810 4.913660 
# 
# 
# High freq. dielectric constant tensor:
#      x y z
#    x 2.038410 -0.007130 0.003080 
#    y -0.007130 2.030950 0.003290 
#    z 0.003080 0.003290 2.017600 
# 
# From -- ./inp_files/184577.got.cif
#   From: 2010.06.25/outbox.cif.g09.slc.cpg/sg2_93_cif.got.tgz:184577.got - 2010.06.27 13:26:56.
