data_PCOD8025755
_publ_section_title
;
Structure prediction by ZEFSAII (Michael W. Deem and Ramdas Pophale) SiO2 
 PCOD8025755
Probable space group: P -1
;
_chemical_formula_sum "Si O2"
_cell_formula_units_Z 16
_cell_length_a 20.122814
_cell_length_b 8.284155
_cell_length_c 5.557949
_cell_angle_alpha 117.210634
_cell_angle_beta 61.502837
_cell_angle_gamma 124.291261
_cell_volume 649.671733
_symmetry_space_group_name_H-M "P -1"
_symmetry_group_IT_number 2
_symmetry_cell_setting 'triclinic'
loop_
_space_group_symop_operation_xyz
x,y,z
-x,-y,-z
loop_
_atom_site_type_symbol
_atom_site_label
_atom_site_fract_x
_atom_site_fract_y
_atom_site_fract_z
Si Si1 0.774477 0.966245 0.133970
Si Si2 0.383928 0.204264 0.984846
Si Si3 0.091080 0.742689 0.235713
Si Si4 0.915949 0.625903 0.238626
Si Si5 0.236898 0.667026 0.437163
Si Si6 0.908043 0.960551 0.209270
Si Si7 0.546950 0.434600 0.571280
Si Si8 0.328030 0.740743 0.840796
O O1 0.683678 0.793137 0.093579
O O2 0.835637 0.875247 0.072740
O O3 0.759385 0.111620 0.450051
O O4 0.819125 0.101132 0.916448
O O5 0.478471 0.289985 0.780760
O O6 0.358370 0.980121 0.974763
O O7 0.382869 0.356369 0.295694
O O8 0.014335 0.744156 0.214334
O O9 0.085656 0.823525 0.565030
O O10 0.090331 0.522499 0.078142
O O11 0.860401 0.499202 0.474320
O O12 0.880676 0.786872 0.340687
O O13 0.285849 0.659975 0.595340
O O14 0.270774 0.627945 0.096561
O O15 0.000000 0.000000 0.000000
O O16 0.500000 0.500000 0.500000
O O17 0.591909 0.305386 0.299603
#
# Coordination Sequence:
#
# PCOD8025755 Si02
#       8
#     2   2   2   2   2   2   2   2
#     4  10  24  46  72 102 149 196 248 305 372 443
#     4  10  26  49  75 108 151 196 240 310 374 448
#     4  10  23  46  65  95 148 187 251 306 372 438
#     4  10  23  46  66 103 142 196 248 315 368 430
#     4  10  26  47  74 111 149 204 254 303 371 445
#     4  12  25  42  71 107 139 198 252 312 373 442
#     4  11  27  48  78 117 145 189 249 304 381 455
#     4  11  26  51  76 109 155 199 247 303 378 451
#
# _framework density 24.627821000000001
#
# number of rings (size 3 to 8) (size 9 to 14) (size 15 to 20)
#    0.000    1.500    1.250    0.750   12.250    4.000 
#    0.000    0.000    0.000    0.000    0.000    0.000 
#    0.000    0.000    0.000    0.000    0.000    0.000 
#
# Total GULP energy -198322.513001 kJ/mol
# GULP energy per Si atom -12395.157063 kJ/mol
# Density = 2.457177 g / cm^3
# Si number density = 24.627821 Si / 1000 Ang^3
#
#
#
# Elastic Constant Matrix: (Units=GPa)
#
#
# Indices 1 2 3 4 5 6 
#
# 1 153.5531 35.1107 44.6505 10.6121 -8.7325 -0.5560
# 2 35.1107 85.7994 31.7472 12.4831 -2.2115 6.1487
# 3 44.6505 31.7472 122.9468 -2.4606 -3.8810 4.6546
# 4 10.6121 12.4831 -2.4606 26.5603 1.4447 4.2625
# 5 -8.7325 -2.2115 -3.8810 1.4447 31.3262 -7.3642
# 6 -0.5560 6.1487 4.6546 4.2625 -7.3642 28.3815
#
#
#
# Elastic Compliance Matrix: (Units=1/GPa)
#
#
# Indices 1 2 3 4 5 6 
#
# 1 0.008041 -0.002040 -0.002455 -0.002945 0.002416 0.002071
# 2 -0.002040 0.014645 -0.003096 -0.006061 -0.000065 -0.001812
# 3 -0.002455 -0.003096 0.009951 0.003628 -0.000216 -0.001610
# 4 -0.002945 -0.006061 0.003628 0.043378 -0.004448 -0.007008
# 5 0.002416 -0.000065 -0.000216 -0.004448 0.035090 0.009869
# 6 0.002071 -0.001812 -0.001610 -0.007008 0.009869 0.039545
#
#
# Mechanical properties :
#
#
# Convention : Reuss Voigt Hill
#
# Bulk Modulus (GPa) = 57.28312 65.03510 61.15911
# Shear Modulus (GPa) = 29.12917 33.97300 31.55109
#
# Velocity S-wave (km/s) = 3.44288 3.71813 3.58315
# Velocity P-wave (km/s) = 6.25416 6.70054 6.48119
#
# Compressibility (1/GPa) = 0.01745715
#
# Stress axis : x y z
#
# Youngs Moduli (GPa) = 124.36177 68.28160 100.49111
#
# Poissons Ratio (x) = 0.13929 0.24667
# Poissons Ratio (y) = 0.25369 0.31108
# Poissons Ratio (z) = 0.30526 0.21137
#
# Static dielectric constant tensor:
#      x y z
#    x 4.618260 0.045250 -0.221460 
#    y 0.045250 4.615040 0.151560 
#    z -0.221460 0.151560 4.611010 
# 
# 
# High freq. dielectric constant tensor:
#      x y z
#    x 1.985170 0.007170 -0.011020 
#    y 0.007170 1.976550 0.002600 
#    z -0.011020 0.002600 1.974390 
# 
# From -- ./inp_files/117316.got.cif
#   From: 2010.06.25/outbox.cif.g09.slc.cpg/sg2_59_cif.got.tgz:117316.got - 2010.06.27 13:26:56.
