data_PCOD8025522
_publ_section_title
;
Structure prediction by ZEFSAII (Michael W. Deem and Ramdas Pophale) SiO2 
 PCOD8025522
Probable space group: P -1
;
_chemical_formula_sum "Si O2"
_cell_formula_units_Z 14
_cell_length_a 12.444814
_cell_length_b 8.852447
_cell_length_c 8.403489
_cell_angle_alpha 93.105696
_cell_angle_beta 84.871713
_cell_angle_gamma 141.635081
_cell_volume 572.116982
_symmetry_space_group_name_H-M "P -1"
_symmetry_group_IT_number 2
_symmetry_cell_setting 'triclinic'
loop_
_space_group_symop_operation_xyz
x,y,z
-x,-y,-z
loop_
_atom_site_type_symbol
_atom_site_label
_atom_site_fract_x
_atom_site_fract_y
_atom_site_fract_z
Si Si1 0.580177 0.986517 0.854919
Si Si2 0.725854 0.639680 0.799290
Si Si3 0.248308 0.439042 0.850249
Si Si4 0.788996 0.413730 0.625114
Si Si5 0.833744 0.190997 0.423784
Si Si6 0.603769 0.665408 0.338323
Si Si7 0.891566 0.135582 0.769454
O O1 0.428449 0.714875 0.789775
O O2 0.639056 0.173140 0.731736
O O3 0.747051 0.067276 0.889440
O O4 0.500000 0.000000 0.000000
O O5 0.751094 0.551185 0.640199
O O6 0.527872 0.478545 0.802077
O O7 0.858573 0.920639 0.771857
O O8 0.758326 0.597644 0.962022
O O9 0.243596 0.281592 0.733441
O O10 0.085777 0.368942 0.825870
O O11 0.778692 0.308974 0.452393
O O12 0.984621 0.612043 0.685545
O O13 0.877471 0.176073 0.593515
O O14 0.684878 0.922649 0.355488
O O15 0.500000 0.500000 0.500000
#
# Coordination Sequence:
#
# PCOD8025522 Si02
#       7
#     2   2   2   2   2   2   2
#     4  11  23  49  67 102 147 187 238 290 357 430
#     4  12  24  45  71 108 143 182 240 296 357 426
#     4  12  26  45  73 108 143 190 238 297 362 424
#     4  10  23  45  69 101 145 183 243 293 354 427
#     4  10  23  47  67 107 142 188 241 292 361 424
#     4  12  24  44  76 104 147 189 241 300 357 426
#     4  11  25  45  76 102 146 185 239 296 357 432
#
# _framework density 24.470517999999998
#
# number of rings (size 3 to 8) (size 9 to 14) (size 15 to 20)
#    0.000    0.857    4.286    2.571    2.000    2.286 
#    7.714    0.000    0.000    0.000    0.000    0.000 
#    0.000    0.000    0.000    0.000    0.000    0.000 
#
# Total GULP energy -173475.748323 kJ/mol
# GULP energy per Si atom -12391.124880 kJ/mol
# Density = 2.441482 g / cm^3
# Si number density = 24.470518 Si / 1000 Ang^3
#
#
#
# Elastic Constant Matrix: (Units=GPa)
#
#
# Indices 1 2 3 4 5 6 
#
# 1 140.6732 28.0491 28.2304 7.6207 -25.8192 14.8018
# 2 28.0491 115.3844 11.9607 -2.8797 -15.1402 7.1042
# 3 28.2304 11.9607 64.4794 5.8312 0.5383 9.4315
# 4 7.6207 -2.8797 5.8312 28.6929 0.5783 -1.2638
# 5 -25.8192 -15.1402 0.5383 0.5783 44.5760 10.2001
# 6 14.8018 7.1042 9.4315 -1.2638 10.2001 51.9089
#
#
#
# Elastic Compliance Matrix: (Units=1/GPa)
#
#
# Indices 1 2 3 4 5 6 
#
# 1 0.009546 -0.001046 -0.003367 -0.002217 0.005974 -0.003195
# 2 -0.001046 0.009554 -0.001270 0.001377 0.002939 -0.001323
# 3 -0.003367 -0.001270 0.017751 -0.002873 -0.002161 -0.001736
# 4 -0.002217 0.001377 -0.002873 0.036295 -0.001755 0.002194
# 5 0.005974 0.002939 -0.002161 -0.001755 0.028630 -0.007382
# 6 -0.003195 -0.001323 -0.001736 0.002194 -0.007382 0.022176
#
#
# Mechanical properties :
#
#
# Convention : Reuss Voigt Hill
#
# Bulk Modulus (GPa) = 39.24070 50.77972 45.01021
# Shear Modulus (GPa) = 34.76737 41.85535 38.31136
#
# Velocity S-wave (km/s) = 3.77342 4.14023 3.96108
# Velocity P-wave (km/s) = 5.92078 6.60695 6.27326
#
# Compressibility (1/GPa) = 0.02548375
#
# Stress axis : x y z
#
# Youngs Moduli (GPa) = 104.75766 104.66714 56.33622
#
# Poissons Ratio (x) = 0.10950 0.18970
# Poissons Ratio (y) = 0.10959 0.07154
# Poissons Ratio (z) = 0.35276 0.13291
#
# Static dielectric constant tensor:
#      x y z
#    x 4.576460 -0.515320 0.003750 
#    y -0.515320 4.260380 0.537740 
#    z 0.003750 0.537740 3.528470 
# 
# 
# High freq. dielectric constant tensor:
#      x y z
#    x 1.984520 -0.003690 -0.022930 
#    y -0.003690 1.997010 -0.010150 
#    z -0.022930 -0.010150 1.936780 
# 
# From -- ./inp_files/191108.got.cif
#   From: 2010.06.25/outbox.cif.g09.slc.cpg/sg2_96_cif.got.tgz:191108.got - 2010.06.27 13:26:56.
