data_PCOD8025647
_publ_section_title
;
Structure prediction by ZEFSAII (Michael W. Deem and Ramdas Pophale) SiO2 
 PCOD8025647
Probable space group: P -1
;
_chemical_formula_sum "Si O2"
_cell_formula_units_Z 14
_cell_length_a 22.273676
_cell_length_b 21.747866
_cell_length_c 13.070183
_cell_angle_alpha 161.425609
_cell_angle_beta 28.270639
_cell_angle_gamma 160.724492
_cell_volume 659.773339
_symmetry_space_group_name_H-M "P -1"
_symmetry_group_IT_number 2
_symmetry_cell_setting 'triclinic'
loop_
_space_group_symop_operation_xyz
x,y,z
-x,-y,-z
loop_
_atom_site_type_symbol
_atom_site_label
_atom_site_fract_x
_atom_site_fract_y
_atom_site_fract_z
Si Si1 0.143300 0.996047 0.309390
Si Si2 0.430091 0.471728 0.767740
Si Si3 0.635714 0.324364 0.290581
Si Si4 0.780363 0.083164 0.145631
Si Si5 0.929251 0.487394 0.976806
Si Si6 0.076387 0.299945 0.366699
Si Si7 0.148346 0.417220 0.215706
O O1 0.332812 0.304807 0.544991
O O2 0.186224 0.910350 0.013845
O O3 0.000000 0.000000 0.500000
O O4 0.069939 0.786808 0.183104
O O5 0.519780 0.389159 0.557573
O O6 0.275799 0.382597 0.934855
O O7 0.582265 0.798210 0.030113
O O8 0.772180 0.506630 0.467944
O O9 0.739747 0.392284 0.133643
O O10 0.500000 0.000000 0.000000
O O11 0.790203 0.323197 0.527998
O O12 0.935680 0.141130 0.069654
O O13 0.911495 0.272270 0.595158
O O14 0.000000 0.500000 0.000000
O O15 0.169159 0.460134 0.373474
O O16 0.000000 0.000000 0.000000
#
# Coordination Sequence:
#
# PCOD8025647 Si02
#       7
#     2   2   2   2   2   2   2
#     4  12  23  44  72 102 135 187 237 283 351 422
#     4  12  25  43  72 101 142 180 237 293 344 423
#     4  11  26  46  67 105 141 183 241 294 345 419
#     4  11  24  46  66 105 136 184 233 284 357 418
#     4  10  23  45  71  96 140 188 230 286 354 415
#     4  11  24  44  73 100 133 191 235 284 360 426
#     4  11  25  45  69  99 149 175 228 292 360 419
#
# _framework density 21.219408999999999
#
# number of rings (size 3 to 8) (size 9 to 14) (size 15 to 20)
#    0.000    0.857    2.857    4.286    6.000    0.571 
#    2.571    0.000    0.000    0.000    0.000    0.000 
#    0.000    0.000    0.000    0.000    0.000    0.000 
#
# Total GULP energy -173608.537821 kJ/mol
# GULP energy per Si atom -12400.609844 kJ/mol
# Density = 2.117111 g / cm^3
# Si number density = 21.219409 Si / 1000 Ang^3
#
#
#
# Elastic Constant Matrix: (Units=GPa)
#
#
# Indices 1 2 3 4 5 6 
#
# 1 102.9182 38.3796 37.0193 -4.1479 0.1519 6.5658
# 2 38.3796 99.5985 50.2868 -2.0247 0.3130 11.7976
# 3 37.0193 50.2868 126.8462 -6.5549 -0.9834 9.7154
# 4 -4.1479 -2.0247 -6.5549 53.0881 2.8650 -1.3639
# 5 0.1519 0.3130 -0.9834 2.8650 37.9530 1.2188
# 6 6.5658 11.7976 9.7154 -1.3639 1.2188 34.0746
#
#
#
# Elastic Compliance Matrix: (Units=1/GPa)
#
#
# Indices 1 2 3 4 5 6 
#
# 1 0.011779 -0.003460 -0.002003 0.000534 -0.000096 -0.000476
# 2 -0.003460 0.013878 -0.004286 -0.000340 -0.000092 -0.002926
# 3 -0.002003 -0.004286 0.010296 0.000910 0.000275 -0.001039
# 4 0.000534 -0.000340 0.000910 0.019070 -0.001434 0.000570
# 5 -0.000096 -0.000092 0.000275 -0.001434 0.026498 -0.001033
# 6 -0.000476 -0.002926 -0.001039 0.000570 -0.001033 0.030808
#
#
# Mechanical properties :
#
#
# Convention : Reuss Voigt Hill
#
# Bulk Modulus (GPa) = 60.77194 64.52603 62.64898
# Shear Modulus (GPa) = 36.41349 38.60162 37.50756
#
# Velocity S-wave (km/s) = 4.14701 4.26979 4.20885
# Velocity P-wave (km/s) = 7.18556 7.40157 7.29436
#
# Compressibility (1/GPa) = 0.01645496
#
# Stress axis : x y z
#
# Youngs Moduli (GPa) = 84.89520 72.05790 97.12658
#
# Poissons Ratio (x) = 0.24935 0.19450
# Poissons Ratio (y) = 0.29378 0.41628
# Poissons Ratio (z) = 0.17001 0.30884
#
# Static dielectric constant tensor:
#      x y z
#    x 3.878490 0.100470 -0.012580 
#    y 0.100470 4.134970 -0.092150 
#    z -0.012580 -0.092150 4.190030 
# 
# 
# High freq. dielectric constant tensor:
#      x y z
#    x 1.834680 -0.003130 -0.007170 
#    y -0.003130 1.831680 -0.009290 
#    z -0.007170 -0.009290 1.851340 
# 
# From -- ./inp_files/258359.got.cif
#   From: 2010.06.25/outbox.cif.g09.slc.cpg/sg2_130_cif.got.tgz:258359.got - 2010.06.27 13:26:56.
