data_PCOD8025018
_publ_section_title
;
Structure prediction by ZEFSAII (Michael W. Deem and Ramdas Pophale) SiO2 
 PCOD8025018
Probable space group: P -1
;
_chemical_formula_sum "Si O2"
_cell_formula_units_Z 16
_cell_length_a 8.987632
_cell_length_b 18.549385
_cell_length_c 12.005420
_cell_angle_alpha 28.126585
_cell_angle_beta 67.937196
_cell_angle_gamma 55.814825
_cell_volume 742.718698
_symmetry_space_group_name_H-M "P -1"
_symmetry_group_IT_number 2
_symmetry_cell_setting 'triclinic'
loop_
_space_group_symop_operation_xyz
x,y,z
-x,-y,-z
loop_
_atom_site_type_symbol
_atom_site_label
_atom_site_fract_x
_atom_site_fract_y
_atom_site_fract_z
Si Si1 0.084993 0.177723 0.347290
Si Si2 0.712037 0.422655 0.009443
Si Si3 0.350872 0.035299 0.857908
Si Si4 0.421731 0.693087 0.203823
Si Si5 0.212678 0.344335 0.908290
Si Si6 0.135006 0.324590 0.353807
Si Si7 0.770506 0.865800 0.004238
Si Si8 0.848625 0.180175 0.093352
O O1 0.101157 0.299554 0.269933
O O2 0.864282 0.259725 0.267677
O O3 0.183124 0.971524 0.637934
O O4 0.190720 0.196785 0.184506
O O5 0.751070 0.352585 0.966936
O O6 0.500000 0.500000 0.000000
O O7 0.738466 0.589669 0.786299
O O8 0.239988 0.132196 0.645222
O O9 0.554400 0.019482 0.822587
O O10 0.226862 0.153477 0.836738
O O11 0.370572 0.840221 0.115842
O O12 0.500000 0.500000 0.500000
O O13 0.580561 0.689600 0.084773
O O14 0.243439 0.751319 0.095453
O O15 0.066427 0.548097 0.705427
O O16 0.182113 0.317499 0.822551
O O17 0.925915 0.911445 0.860106
#
# Coordination Sequence:
#
# PCOD8025018 Si02
#       8
#     2   2   2   2   2   2   2   2
#     4  11  24  45  69 100 143 183 227 276 346 416
#     4  11  26  41  66 107 140 176 228 283 343 403
#     4  10  24  46  68  99 130 190 231 281 345 411
#     4  11  27  46  65 101 135 181 236 286 346 406
#     4  10  23  44  67  98 139 185 220 280 343 416
#     4  11  23  44  70  98 138 188 224 277 348 413
#     4  10  23  44  67  97 138 173 238 278 341 397
#     4  12  25  44  70 105 135 185 224 293 340 401
#
# _framework density 21.542475
#
# number of rings (size 3 to 8) (size 9 to 14) (size 15 to 20)
#    0.000    1.250    3.750    1.875    7.000    6.500 
#    0.000    0.000    0.000    0.000    0.000    0.000 
#    0.000    0.000    0.000    0.000    0.000    0.000 
#
# Total GULP energy -198368.138629 kJ/mol
# GULP energy per Si atom -12398.008664 kJ/mol
# Density = 2.149344 g / cm^3
# Si number density = 21.542475 Si / 1000 Ang^3
#
#
#
# Elastic Constant Matrix: (Units=GPa)
#
#
# Indices 1 2 3 4 5 6 
#
# 1 101.5632 60.4109 28.6346 4.6868 -6.5899 5.5463
# 2 60.4109 139.7909 15.5735 1.7277 -7.1477 3.8671
# 3 28.6346 15.5735 95.0272 -1.7117 4.7341 5.3802
# 4 4.6868 1.7277 -1.7117 21.9531 6.7682 -2.7847
# 5 -6.5899 -7.1477 4.7341 6.7682 27.8912 4.3748
# 6 5.5463 3.8671 5.3802 -2.7847 4.3748 44.4481
#
#
#
# Elastic Compliance Matrix: (Units=1/GPa)
#
#
# Indices 1 2 3 4 5 6 
#
# 1 0.014834 -0.005692 -0.003727 -0.004444 0.004005 -0.001577
# 2 -0.005692 0.009667 0.000090 0.000079 0.001137 -0.000249
# 3 -0.003727 0.000090 0.011880 0.002723 -0.003461 -0.000469
# 4 -0.004444 0.000079 0.002723 0.051915 -0.014863 0.004933
# 5 0.004005 0.001137 -0.003461 -0.014863 0.042110 -0.005256
# 6 -0.001577 -0.000249 -0.000469 0.004933 -0.005256 0.023600
#
#
# Mechanical properties :
#
#
# Convention : Reuss Voigt Hill
#
# Bulk Modulus (GPa) = 56.42758 60.62435 58.52596
# Shear Modulus (GPa) = 28.00007 34.30932 31.15469
#
# Velocity S-wave (km/s) = 3.60913 3.99511 3.80702
# Velocity P-wave (km/s) = 6.60441 7.03449 6.82284
#
# Compressibility (1/GPa) = 0.01772183
#
# Stress axis : x y z
#
# Youngs Moduli (GPa) = 67.41480 103.44136 84.17647
#
# Poissons Ratio (x) = 0.58877 0.31375
# Poissons Ratio (y) = 0.38371 -0.00755
# Poissons Ratio (z) = 0.25127 -0.00927
#
# Static dielectric constant tensor:
#      x y z
#    x 4.051660 0.070020 0.009280 
#    y 0.070020 4.003240 -0.045840 
#    z 0.009280 -0.045840 3.558190 
# 
# 
# High freq. dielectric constant tensor:
#      x y z
#    x 1.859430 0.008280 0.001040 
#    y 0.008280 1.857010 -0.007140 
#    z 0.001040 -0.007140 1.821480 
# 
# From -- ./inp_files/401655.got.cif
#   From: 2010.06.25/outbox.cif.g09.slc.cpg/sg2_201_cif.got.tgz:401655.got - 2010.06.27 13:26:56.
