data_PCOD8025098
_publ_section_title
;
Structure prediction by ZEFSAII (Michael W. Deem and Ramdas Pophale) SiO2 
 PCOD8025098
Probable space group: P -1
;
_chemical_formula_sum "Si O2"
_cell_formula_units_Z 16
_cell_length_a 11.549328
_cell_length_b 11.474087
_cell_length_c 12.158170
_cell_angle_alpha 56.827159
_cell_angle_beta 133.084528
_cell_angle_gamma 88.240669
_cell_volume 738.549914
_symmetry_space_group_name_H-M "P -1"
_symmetry_group_IT_number 2
_symmetry_cell_setting 'triclinic'
loop_
_space_group_symop_operation_xyz
x,y,z
-x,-y,-z
loop_
_atom_site_type_symbol
_atom_site_label
_atom_site_fract_x
_atom_site_fract_y
_atom_site_fract_z
Si Si1 0.048298 0.787792 0.584760
Si Si2 0.571329 0.770269 0.413835
Si Si3 0.165964 0.425665 0.742324
Si Si4 0.842965 0.163222 0.899346
Si Si5 0.030522 0.073097 0.308994
Si Si6 0.285798 0.166858 0.330052
Si Si7 0.551044 0.041850 0.125470
Si Si8 0.966538 0.390544 0.816293
O O1 0.111373 0.777733 0.759723
O O2 0.145903 0.587829 0.704779
O O3 0.793963 0.944358 0.334670
O O4 0.130149 0.868154 0.520581
O O5 0.391036 0.759965 0.301164
O O6 0.656803 0.732397 0.612762
O O7 0.781370 0.610803 0.563902
O O8 0.487757 0.966479 0.216192
O O9 0.000000 0.500000 0.500000
O O10 0.125001 0.322978 0.853625
O O11 0.403758 0.264134 0.934194
O O12 0.840277 0.320425 0.771724
O O13 0.904748 0.117306 0.091571
O O14 0.000000 0.000000 0.000000
O O15 0.216666 0.074297 0.405872
O O16 0.500000 0.000000 0.500000
O O17 0.101438 0.324255 0.048942
O O18 0.500000 0.000000 0.000000
#
# Coordination Sequence:
#
# PCOD8025098 Si02
#       8
#     2   2   2   2   2   2   2   2
#     4  11  23  44  71  95 146 182 233 286 349 417
#     4  12  22  42  66  96 136 178 231 283 350 412
#     4  12  24  42  69 104 136 181 237 286 349 423
#     4  11  24  41  67 100 138 180 237 290 354 411
#     4  10  23  44  68  99 141 187 223 295 352 409
#     4  11  22  42  70  99 133 180 230 282 346 419
#     4  12  22  40  68 100 136 180 227 284 350 409
#     4  11  24  41  65 100 134 178 227 289 350 413
#
# _framework density 21.664073999999999
#
# number of rings (size 3 to 8) (size 9 to 14) (size 15 to 20)
#    0.000    0.750    3.750    4.500    1.750    1.000 
#    0.000    2.500    2.750    0.000    0.000    0.000 
#    0.000    0.000    0.000    0.000    0.000    0.000 
#
# Total GULP energy -198306.121651 kJ/mol
# GULP energy per Si atom -12394.132603 kJ/mol
# Density = 2.161477 g / cm^3
# Si number density = 21.664074 Si / 1000 Ang^3
#
#
#
# Elastic Constant Matrix: (Units=GPa)
#
#
# Indices 1 2 3 4 5 6 
#
# 1 96.3859 41.7423 36.4951 9.4811 -15.8716 -2.4811
# 2 41.7423 145.7009 61.5723 7.1611 -1.7551 -10.3411
# 3 36.4951 61.5723 100.0463 -5.3818 8.0178 -6.0157
# 4 9.4811 7.1611 -5.3818 45.5226 -3.5354 7.7144
# 5 -15.8716 -1.7551 8.0178 -3.5354 38.6326 -2.9878
# 6 -2.4811 -10.3411 -6.0157 7.7144 -2.9878 32.6401
#
#
#
# Elastic Compliance Matrix: (Units=1/GPa)
#
#
# Indices 1 2 3 4 5 6 
#
# 1 0.014359 -0.001818 -0.004749 -0.002911 0.006608 0.000933
# 2 -0.001818 0.010033 -0.005542 -0.002233 0.000858 0.002625
# 3 -0.004749 -0.005542 0.015708 0.003400 -0.005190 -0.000501
# 4 -0.002911 -0.002233 0.003400 0.024337 -0.000246 -0.006077
# 5 0.006608 0.000858 -0.005190 -0.000246 0.029895 0.002612
# 6 0.000933 0.002625 -0.000501 -0.006077 0.002612 0.033123
#
#
# Mechanical properties :
#
#
# Convention : Reuss Voigt Hill
#
# Bulk Modulus (GPa) = 62.97102 69.08361 66.02731
# Shear Modulus (GPa) = 31.85380 36.84730 34.35055
#
# Velocity S-wave (km/s) = 3.83868 4.12861 3.98628
# Velocity P-wave (km/s) = 6.98408 7.39493 7.19244
#
# Compressibility (1/GPa) = 0.01588032
#
# Stress axis : x y z
#
# Youngs Moduli (GPa) = 69.64329 99.67291 63.66358
#
# Poissons Ratio (x) = 0.18119 0.30235
# Poissons Ratio (y) = 0.12660 0.35285
# Poissons Ratio (z) = 0.33074 0.55243
#
# Static dielectric constant tensor:
#      x y z
#    x 4.302110 -0.040220 -0.132210 
#    y -0.040220 4.014460 0.326350 
#    z -0.132210 0.326350 3.561410 
# 
# 
# High freq. dielectric constant tensor:
#      x y z
#    x 1.860570 -0.003210 -0.005520 
#    y -0.003210 1.866080 0.009480 
#    z -0.005520 0.009480 1.843580 
# 
# From -- ./inp_files/283298.got.cif
#   From: 2010.06.25/outbox.cif.g09.slc.cpg/sg2_142_cif.got.tgz:283298.got - 2010.06.27 13:26:56.
