data_PCOD8025738
_publ_section_title
;
Structure prediction by ZEFSAII (Michael W. Deem and Ramdas Pophale) SiO2 
 PCOD8025738
Probable space group: P -1
;
_chemical_formula_sum "Si O2"
_cell_formula_units_Z 16
_cell_length_a 6.406643
_cell_length_b 7.869083
_cell_length_c 15.251152
_cell_angle_alpha 95.875480
_cell_angle_beta 115.735254
_cell_angle_gamma 90.405238
_cell_volume 687.834519
_symmetry_space_group_name_H-M "P -1"
_symmetry_group_IT_number 2
_symmetry_cell_setting 'triclinic'
loop_
_space_group_symop_operation_xyz
x,y,z
-x,-y,-z
loop_
_atom_site_type_symbol
_atom_site_label
_atom_site_fract_x
_atom_site_fract_y
_atom_site_fract_z
Si Si1 0.854951 0.667469 0.846636
Si Si2 0.765962 0.386099 0.459204
Si Si3 0.710732 0.201404 0.967578
Si Si4 0.769694 0.278828 0.792728
Si Si5 0.513043 0.310986 0.578997
Si Si6 0.961137 0.885038 0.570271
Si Si7 0.528339 0.841884 0.908644
Si Si8 0.037204 0.967493 0.779221
O O1 0.869836 0.473398 0.804954
O O2 0.605652 0.697917 0.847550
O O3 0.893312 0.798900 0.780212
O O4 0.043364 0.704700 0.959200
O O5 0.722089 0.315304 0.546760
O O6 0.547159 0.493373 0.397183
O O7 0.000000 0.500000 0.500000
O O8 0.814906 0.232491 0.393701
O O9 0.637321 0.266959 0.861618
O O10 0.729739 0.994494 0.961836
O O11 0.525185 0.247616 0.011586
O O12 0.591262 0.224472 0.678953
O O13 0.971250 0.143081 0.824182
O O14 0.289485 0.214110 0.489963
O O15 0.968729 0.990833 0.666611
O O16 0.000000 0.000000 0.500000
O O17 0.307233 0.939666 0.838839
#
# Coordination Sequence:
#
# PCOD8025738 Si02
#       8
#     2   2   2   2   2   2   2   2
#     4  11  25  47  71 100 137 186 226 285 358 410
#     4   9  21  43  68  93 136 181 226 282 339 410
#     4  10  23  46  69 103 138 177 229 289 345 419
#     4  12  26  44  71 103 141 177 235 287 342 417
#     4  10  24  44  68 101 137 184 229 286 347 409
#     4  11  25  43  68 100 141 182 231 285 349 410
#     4  10  23  45  76  95 137 188 223 282 359 409
#     4  11  27  45  67 105 141 178 234 290 337 419
#
# _framework density 23.261410000000001
#
# number of rings (size 3 to 8) (size 9 to 14) (size 15 to 20)
#    0.000    1.500    1.250    1.500   12.250    2.500 
#    4.500    0.000    0.000    0.000    0.000    0.000 
#    0.000    0.000    0.000    0.000    0.000    0.000 
#
# Total GULP energy -198328.212320 kJ/mol
# GULP energy per Si atom -12395.513270 kJ/mol
# Density = 2.320847 g / cm^3
# Si number density = 23.261410 Si / 1000 Ang^3
#
#
#
# Elastic Constant Matrix: (Units=GPa)
#
#
# Indices 1 2 3 4 5 6 
#
# 1 115.2217 43.3915 38.4933 -1.4271 -13.3776 1.0897
# 2 43.3915 117.4079 19.3769 8.3461 -11.8955 -2.1829
# 3 38.4933 19.3769 112.9064 -15.6397 -16.6968 7.9418
# 4 -1.4271 8.3461 -15.6397 36.1814 6.2429 -11.4110
# 5 -13.3776 -11.8955 -16.6968 6.2429 32.6343 -5.7488
# 6 1.0897 -2.1829 7.9418 -11.4110 -5.7488 32.8491
#
#
#
# Elastic Compliance Matrix: (Units=1/GPa)
#
#
# Indices 1 2 3 4 5 6 
#
# 1 0.011187 -0.003416 -0.003009 -0.000288 0.001920 0.000366
# 2 -0.003416 0.010401 -0.000685 -0.003192 0.002710 0.000336
# 3 -0.003009 -0.000685 0.011097 0.004065 0.003304 -0.000638
# 4 -0.000288 -0.003192 0.004065 0.033927 -0.003946 0.009909
# 5 0.001920 0.002710 0.003304 -0.003946 0.035599 0.004177
# 6 0.000366 0.000336 -0.000638 0.009909 0.004177 0.034780
#
#
# Mechanical properties :
#
#
# Convention : Reuss Voigt Hill
#
# Bulk Modulus (GPa) = 54.16144 60.89548 57.52846
# Shear Modulus (GPa) = 31.77333 36.61792 34.19562
#
# Velocity S-wave (km/s) = 3.69985 3.97191 3.83829
# Velocity P-wave (km/s) = 6.44874 6.87535 6.66546
#
# Compressibility (1/GPa) = 0.01846332
#
# Stress axis : x y z
#
# Youngs Moduli (GPa) = 89.39301 96.14870 90.11432
#
# Poissons Ratio (x) = 0.32843 0.27117
# Poissons Ratio (y) = 0.30536 0.06176
# Poissons Ratio (z) = 0.26900 0.06589
#
# Static dielectric constant tensor:
#      x y z
#    x 4.615340 -0.152050 -0.156010 
#    y -0.152050 4.609840 0.183060 
#    z -0.156010 0.183060 4.101440 
# 
# 
# High freq. dielectric constant tensor:
#      x y z
#    x 1.921640 -0.000710 -0.017450 
#    y -0.000710 1.915740 -0.002070 
#    z -0.017450 -0.002070 1.913260 
# 
# From -- ./inp_files/480684.got.cif
#   From: 2010.06.25/outbox.cif.g09.slc.cpg/sg2_241_cif.got.tgz:480684.got - 2010.06.27 13:26:56.
