data_PCOD8025457
_publ_section_title
;
Structure prediction by ZEFSAII (Michael W. Deem and Ramdas Pophale) SiO2 
 PCOD8025457
Probable space group: P -1
;
_chemical_formula_sum "Si O2"
_cell_formula_units_Z 14
_cell_length_a 17.293489
_cell_length_b 8.540291
_cell_length_c 16.271423
_cell_angle_alpha 117.025283
_cell_angle_beta 153.299465
_cell_angle_gamma 45.605329
_cell_volume 653.601496
_symmetry_space_group_name_H-M "P -1"
_symmetry_group_IT_number 2
_symmetry_cell_setting 'triclinic'
loop_
_space_group_symop_operation_xyz
x,y,z
-x,-y,-z
loop_
_atom_site_type_symbol
_atom_site_label
_atom_site_fract_x
_atom_site_fract_y
_atom_site_fract_z
Si Si1 0.346570 0.104193 0.463192
Si Si2 0.580225 0.418729 0.902194
Si Si3 0.123517 0.744346 0.012115
Si Si4 0.717091 0.996996 0.035245
Si Si5 0.329144 0.271319 0.860160
Si Si6 0.757377 0.660812 0.864795
Si Si7 0.104757 0.595715 0.441373
O O1 0.294612 0.336581 0.504527
O O2 0.081022 0.209220 0.223162
O O3 0.500000 0.000000 0.500000
O O4 0.503641 0.874394 0.623087
O O5 0.280202 0.598180 0.660356
O O6 0.664649 0.346538 0.870546
O O7 0.627110 0.573577 0.020404
O O8 0.744284 0.155538 0.047329
O O9 0.252771 0.525546 0.151306
O O10 0.000000 0.000000 0.000000
O O11 0.913952 0.849507 0.262985
O O12 0.777014 0.785152 0.986236
O O13 0.425646 0.207061 0.842087
O O14 0.041033 0.421525 0.635524
O O15 0.500000 0.000000 0.000000
O O16 0.000000 0.500000 0.000000
#
# Coordination Sequence:
#
# PCOD8025457 Si02
#       7
#     2   2   2   2   2   2   2
#     4  12  22  42  70  96 131 178 220 274 341 395
#     4  12  24  43  68 102 137 176 230 277 336 401
#     4  12  25  41  66 101 141 173 225 283 332 407
#     4  11  23  42  70  99 133 180 226 279 336 400
#     4  10  23  45  67  98 140 178 227 281 333 397
#     4  12  23  43  70  98 134 179 222 277 341 400
#     4  11  23  45  69  98 137 181 223 280 338 394
#
# _framework density 21.419781
#
# number of rings (size 3 to 8) (size 9 to 14) (size 15 to 20)
#    0.000    0.571    5.714    3.000    0.000    4.571 
#    0.000    0.000    0.000    0.000    0.000    0.000 
#    0.000    0.000    0.000    0.000    0.000    0.000 
#
# Total GULP energy -173629.858090 kJ/mol
# GULP energy per Si atom -12402.132721 kJ/mol
# Density = 2.137103 g / cm^3
# Si number density = 21.419781 Si / 1000 Ang^3
#
#
#
# Elastic Constant Matrix: (Units=GPa)
#
#
# Indices 1 2 3 4 5 6 
#
# 1 136.6606 54.1968 30.1572 -14.0327 17.5408 10.8786
# 2 54.1968 125.9133 14.4776 -3.7932 11.3005 12.0553
# 3 30.1572 14.4776 113.7418 -2.3823 5.0171 16.2151
# 4 -14.0327 -3.7932 -2.3823 33.0022 9.3926 -1.7347
# 5 17.5408 11.3005 5.0171 9.3926 41.8257 -15.8238
# 6 10.8786 12.0553 16.2151 -1.7347 -15.8238 51.5910
#
#
#
# Elastic Compliance Matrix: (Units=1/GPa)
#
#
# Indices 1 2 3 4 5 6 
#
# 1 0.010472 -0.003453 -0.001656 0.005334 -0.005344 -0.002341
# 2 -0.003453 0.009825 0.000078 0.000145 -0.002092 -0.002229
# 3 -0.001656 0.000078 0.009778 0.000357 -0.001824 -0.003290
# 4 0.005334 0.000145 0.000357 0.035759 -0.011737 -0.003668
# 5 -0.005344 -0.002092 -0.001824 -0.011737 0.034219 0.012290
# 6 -0.002341 -0.002229 -0.003290 -0.003668 0.012290 0.025078
#
#
# Mechanical properties :
#
#
# Convention : Reuss Voigt Hill
#
# Bulk Modulus (GPa) = 49.96719 63.77543 56.87131
# Shear Modulus (GPa) = 35.24532 43.78272 39.51402
#
# Velocity S-wave (km/s) = 4.06082 4.52600 4.29971
# Velocity P-wave (km/s) = 6.73538 7.55987 7.15950
#
# Compressibility (1/GPa) = 0.02001313
#
# Stress axis : x y z
#
# Youngs Moduli (GPa) = 95.49280 101.78515 102.27133
#
# Poissons Ratio (x) = 0.35143 0.16936
# Poissons Ratio (y) = 0.32971 -0.00797
# Poissons Ratio (z) = 0.15813 -0.00793
#
# Static dielectric constant tensor:
#      x y z
#    x 4.490730 0.063630 0.420720 
#    y 0.063630 4.321040 0.185800 
#    z 0.420720 0.185800 4.532160 
# 
# 
# High freq. dielectric constant tensor:
#      x y z
#    x 1.856820 -0.002060 0.004390 
#    y -0.002060 1.852220 -0.009770 
#    z 0.004390 -0.009770 1.833420 
# 
# From -- ./inp_files/221392.got.cif
#   From: 2010.06.25/outbox.cif.g09.slc.cpg/sg2_111_cif.got.tgz:221392.got - 2010.06.27 13:26:56.
