data_PCOD8025380
_publ_section_title
;
Structure prediction by ZEFSAII (Michael W. Deem and Ramdas Pophale) SiO2 
 PCOD8025380
Probable space group: P -1
;
_chemical_formula_sum "Si O2"
_cell_formula_units_Z 16
_cell_length_a 6.795587
_cell_length_b 20.878753
_cell_length_c 12.791197
_cell_angle_alpha 147.464973
_cell_angle_beta 126.404739
_cell_angle_gamma 59.585628
_cell_volume 785.502192
_symmetry_space_group_name_H-M "P -1"
_symmetry_group_IT_number 2
_symmetry_cell_setting 'triclinic'
loop_
_space_group_symop_operation_xyz
x,y,z
-x,-y,-z
loop_
_atom_site_type_symbol
_atom_site_label
_atom_site_fract_x
_atom_site_fract_y
_atom_site_fract_z
Si Si1 0.779216 0.510892 0.309238
Si Si2 0.011930 0.791619 0.377134
Si Si3 0.479665 0.107144 0.562037
Si Si4 0.429792 0.955127 0.721624
Si Si5 0.919529 0.282791 0.931023
Si Si6 0.522519 0.270825 0.456786
Si Si7 0.589619 0.772776 0.873317
Si Si8 0.322375 0.579160 0.625169
O O1 0.612801 0.623441 0.376210
O O2 0.647908 0.450793 0.284889
O O3 0.043516 0.562734 0.485629
O O4 0.798884 0.413008 0.089449
O O5 0.750465 0.808125 0.369334
O O6 0.142421 0.919391 0.572239
O O7 0.978770 0.722520 0.162090
O O8 0.187324 0.716844 0.409500
O O9 0.443425 0.050831 0.359224
O O10 0.720745 0.183522 0.750783
O O11 0.500000 0.000000 0.500000
O O12 0.566632 0.858581 0.707354
O O13 0.456355 0.086527 0.956144
O O14 0.135059 0.260409 0.051787
O O15 0.458672 0.285046 0.334552
O O16 0.399352 0.716263 0.818032
O O17 0.500000 0.500000 0.500000
#
# Coordination Sequence:
#
# PCOD8025380 Si02
#       8
#     2   2   2   2   2   2   2   2
#     4  11  23  42  64  97 134 170 217 271 323 386
#     4   9  23  45  61  93 135 169 215 265 326 382
#     4  11  22  42  67  96 130 173 221 269 319 383
#     4   9  23  42  64  97 132 169 212 265 325 390
#     4  11  24  39  69  99 125 169 226 269 315 381
#     4  10  23  45  64  92 143 174 204 272 327 388
#     4  12  21  42  72  97 127 174 216 272 328 380
#     4  11  22  41  63  99 133 164 222 275 322 371
#
# _framework density 20.369133999999999
#
# number of rings (size 3 to 8) (size 9 to 14) (size 15 to 20)
#    0.750    0.750    2.500    2.625    3.500    3.500 
#    2.250    1.875    0.000    0.000    0.000    0.000 
#    0.000    0.000    0.000    0.000    0.000    0.000 
#
# Total GULP energy -198354.903606 kJ/mol
# GULP energy per Si atom -12397.181475 kJ/mol
# Density = 2.032277 g / cm^3
# Si number density = 20.369134 Si / 1000 Ang^3
#
#
#
# Elastic Constant Matrix: (Units=GPa)
#
#
# Indices 1 2 3 4 5 6 
#
# 1 100.6877 31.9280 22.2538 -7.5777 -3.5089 -4.5338
# 2 31.9280 98.5934 34.7726 1.1351 0.2691 -15.1195
# 3 22.2538 34.7726 76.3958 4.2211 -9.2861 -4.3632
# 4 -7.5777 1.1351 4.2211 46.5475 0.9887 0.9489
# 5 -3.5089 0.2691 -9.2861 0.9887 30.2627 4.3607
# 6 -4.5338 -15.1195 -4.3632 0.9489 4.3607 31.7418
#
#
#
# Elastic Compliance Matrix: (Units=1/GPa)
#
#
# Indices 1 2 3 4 5 6 
#
# 1 0.011527 -0.003097 -0.001993 0.002123 0.000721 -0.000265
# 2 -0.003097 0.013992 -0.005472 -0.000406 -0.002999 0.005894
# 3 -0.001993 -0.005472 0.016824 -0.001802 0.005218 -0.001242
# 4 0.002123 -0.000406 -0.001802 0.022036 -0.000927 -0.000669
# 5 0.000721 -0.002999 0.005218 -0.000927 0.035574 -0.005467
# 6 -0.000265 0.005894 -0.001242 -0.000669 -0.005467 0.034874
#
#
# Mechanical properties :
#
#
# Convention : Reuss Voigt Hill
#
# Bulk Modulus (GPa) = 47.12708 50.39840 48.76274
# Shear Modulus (GPa) = 30.67027 34.15857 32.41442
#
# Velocity S-wave (km/s) = 3.88457 4.09953 3.99350
# Velocity P-wave (km/s) = 6.58078 6.87055 6.72723
#
# Compressibility (1/GPa) = 0.02121922
#
# Stress axis : x y z
#
# Youngs Moduli (GPa) = 86.75115 71.46767 59.43944
#
# Poissons Ratio (x) = 0.22135 0.11846
# Poissons Ratio (y) = 0.26868 0.32526
# Poissons Ratio (z) = 0.17288 0.39108
#
# Static dielectric constant tensor:
#      x y z
#    x 3.455420 -0.016740 -0.081150 
#    y -0.016740 3.603980 0.095110 
#    z -0.081150 0.095110 3.673000 
# 
# 
# High freq. dielectric constant tensor:
#      x y z
#    x 1.796570 -0.000500 -0.006900 
#    y -0.000500 1.791060 0.006440 
#    z -0.006900 0.006440 1.794130 
# 
# From -- ./inp_files/370470.got.cif
#   From: 2010.06.25/outbox.cif.g09.slc.cpg/sg2_186_cif.got.tgz:370470.got - 2010.06.27 13:26:56.
