data_PCOD8025475
_publ_section_title
;
Structure prediction by ZEFSAII (Michael W. Deem and Ramdas Pophale) SiO2 
 PCOD8025475
Probable space group: P -1
;
_chemical_formula_sum "Si O2"
_cell_formula_units_Z 16
_cell_length_a 16.234448
_cell_length_b 15.654898
_cell_length_c 8.762603
_cell_angle_alpha 41.818027
_cell_angle_beta 40.687356
_cell_angle_gamma 27.253409
_cell_volume 645.676563
_symmetry_space_group_name_H-M "P -1"
_symmetry_group_IT_number 2
_symmetry_cell_setting 'triclinic'
loop_
_space_group_symop_operation_xyz
x,y,z
-x,-y,-z
loop_
_atom_site_type_symbol
_atom_site_label
_atom_site_fract_x
_atom_site_fract_y
_atom_site_fract_z
Si Si1 0.125220 0.080445 0.107818
Si Si2 0.731623 0.934180 0.384427
Si Si3 0.430006 0.697724 0.345896
Si Si4 0.151688 0.871329 0.740769
Si Si5 0.898003 0.245531 0.744937
Si Si6 0.355568 0.341540 0.414477
Si Si7 0.288155 0.336186 0.173845
Si Si8 0.065919 0.382790 0.907724
O O1 0.245004 0.866578 0.277466
O O2 0.243317 0.064857 0.832135
O O3 0.921537 0.187410 0.189022
O O4 0.093400 0.207892 0.120126
O O5 0.581827 0.154358 0.361122
O O6 0.930547 0.799336 0.369003
O O7 0.641455 0.862720 0.636913
O O8 0.500000 0.500000 0.500000
O O9 0.352048 0.774624 0.526428
O O10 0.589165 0.681234 0.102703
O O11 0.983461 0.105117 0.667024
O O12 0.183592 0.797128 0.965423
O O13 0.723777 0.469158 0.644963
O O14 0.295720 0.400260 0.241554
O O15 0.263394 0.292471 0.696914
O O16 0.076559 0.489546 0.203301
O O17 0.000000 0.500000 0.000000
#
# Coordination Sequence:
#
# PCOD8025475 Si02
#       8
#     2   2   2   2   2   2   2   2
#     4  11  23  46  72  99 140 185 246 287 352 433
#     4  11  22  43  75 111 134 187 242 304 348 423
#     4  12  25  42  67 101 139 186 241 290 348 425
#     4  10  24  45  68  96 141 192 232 288 353 420
#     4  10  23  45  68 103 143 182 239 295 350 422
#     4  12  22  43  74 104 142 185 237 289 364 427
#     4  12  23  45  73 105 144 184 244 295 359 429
#     4  12  27  43  71 110 143 183 230 302 375 419
#
# _framework density 24.78021
#
# number of rings (size 3 to 8) (size 9 to 14) (size 15 to 20)
#    0.000    0.750    3.750    4.875    1.750    1.000 
#    2.250    3.750    0.000    0.000    0.000    0.000 
#    0.000    0.000    0.000    0.000    0.000    0.000 
#
# Total GULP energy -198353.906688 kJ/mol
# GULP energy per Si atom -12397.119168 kJ/mol
# Density = 2.472381 g / cm^3
# Si number density = 24.780210 Si / 1000 Ang^3
#
#
#
# Elastic Constant Matrix: (Units=GPa)
#
#
# Indices 1 2 3 4 5 6 
#
# 1 14.4040 4.0122 5.5381 -0.0064 -0.5867 16.2352
# 2 4.0122 156.0102 51.1320 -11.4613 -6.4712 14.2539
# 3 5.5381 51.1320 148.1270 8.4898 -13.7556 11.5818
# 4 -0.0064 -11.4613 8.4898 52.7258 -3.2295 -0.2803
# 5 -0.5867 -6.4712 -13.7556 -3.2295 20.6779 -6.3367
# 6 16.2352 14.2539 11.5818 -0.2803 -6.3367 41.1312
#
#
#
# Elastic Compliance Matrix: (Units=1/GPa)
#
#
# Indices 1 2 3 4 5 6 
#
# 1 0.129031 0.001762 -0.002552 -0.000315 -0.013760 -0.052945
# 2 0.001762 0.007609 -0.002588 0.002073 0.000251 -0.002550
# 3 -0.002552 -0.002588 0.008222 -0.001615 0.004414 0.000258
# 4 -0.000315 0.002073 -0.001615 0.019850 0.002796 0.000427
# 5 -0.013760 0.000251 0.004414 0.002796 0.055295 0.012639
# 6 -0.052945 -0.002550 0.000258 0.000427 0.012639 0.047972
#
#
# Mechanical properties :
#
#
# Convention : Reuss Voigt Hill
#
# Bulk Modulus (GPa) = 7.24092 48.87842 28.05967
# Shear Modulus (GPa) = 15.58738 40.09758 27.84248
#
# Velocity S-wave (km/s) = 2.51076 4.02696 3.35562
# Velocity P-wave (km/s) = 3.36654 6.43347 5.13435
#
# Compressibility (1/GPa) = 0.13810405
#
# Stress axis : x y z
#
# Youngs Moduli (GPa) = 7.75005 131.43093 121.62299
#
# Poissons Ratio (x) = -0.23153 0.31043
# Poissons Ratio (y) = -0.01365 0.31480
# Poissons Ratio (z) = 0.01978 0.34018
#
# Static dielectric constant tensor:
#      x y z
#    x 4.018250 0.145780 -0.059350 
#    y 0.145780 4.654470 0.018540 
#    z -0.059350 0.018540 4.610590 
# 
# 
# High freq. dielectric constant tensor:
#      x y z
#    x 1.950340 0.002570 -0.009900 
#    y 0.002570 2.001950 0.000570 
#    z -0.009900 0.000570 1.997420 
# 
# From -- ./inp_files/335627.got.cif
#   From: 2010.06.25/outbox.cif.g09.slc.cpg/sg2_168_cif.got.tgz:335627.got - 2010.06.27 13:26:56.
