data_PCOD8025515
_publ_section_title
;
Structure prediction by ZEFSAII (Michael W. Deem and Ramdas Pophale) SiO2 
 PCOD8025515
Probable space group: P -1
;
_chemical_formula_sum "Si O2"
_cell_formula_units_Z 12
_cell_length_a 9.413935
_cell_length_b 8.766463
_cell_length_c 8.290962
_cell_angle_alpha 57.576544
_cell_angle_beta 83.021269
_cell_angle_gamma 73.765936
_cell_volume 554.193083
_symmetry_space_group_name_H-M "P -1"
_symmetry_group_IT_number 2
_symmetry_cell_setting 'triclinic'
loop_
_space_group_symop_operation_xyz
x,y,z
-x,-y,-z
loop_
_atom_site_type_symbol
_atom_site_label
_atom_site_fract_x
_atom_site_fract_y
_atom_site_fract_z
Si Si1 0.952685 0.377354 0.937141
Si Si2 0.881711 0.161273 0.339434
Si Si3 0.674495 0.485554 0.698649
Si Si4 0.554484 0.170184 0.330979
Si Si5 0.499275 0.205665 0.943032
Si Si6 0.792247 0.550618 0.301677
O O1 0.792173 0.476483 0.830185
O O2 0.077373 0.340014 0.799808
O O3 0.940656 0.188122 0.135529
O O4 0.000000 0.500000 0.000000
O O5 0.727864 0.108170 0.375933
O O6 0.860773 0.342683 0.349618
O O7 0.000000 0.000000 0.500000
O O8 0.523966 0.641166 0.670630
O O9 0.627867 0.288921 0.795459
O O10 0.744033 0.547959 0.493670
O O11 0.500000 0.000000 0.500000
O O12 0.522071 0.204115 0.129774
O O13 0.342259 0.345228 0.850017
O O14 0.500000 0.000000 0.000000
#
# Coordination Sequence:
#
# PCOD8025515 Si02
#       6
#     2   2   2   2   2   2
#     4  10  23  45  69 100 138 186 230 284 351 420
#     4  11  25  45  70 103 144 187 233 288 355 424
#     4  12  24  48  74 103 144 186 238 294 357 419
#     4  12  26  43  74 105 141 188 239 290 356 425
#     4  12  26  46  72 106 143 182 241 297 352 418
#     4  11  25  44  73 104 142 186 232 295 354 420
#
# _framework density 21.653102000000001
#
# number of rings (size 3 to 8) (size 9 to 14) (size 15 to 20)
#    0.000    0.667    3.333    4.500    9.333    0.000 
#    3.000    1.667    0.000    0.000    0.000    0.000 
#    0.000    0.000    0.000    0.000    0.000    0.000 
#
# Total GULP energy -148795.204863 kJ/mol
# GULP energy per Si atom -12399.600405 kJ/mol
# Density = 2.160382 g / cm^3
# Si number density = 21.653102 Si / 1000 Ang^3
#
#
#
# Elastic Constant Matrix: (Units=GPa)
#
#
# Indices 1 2 3 4 5 6 
#
# 1 185.5721 47.9414 96.5305 -15.1397 -5.1564 -9.8893
# 2 47.9414 99.9378 55.6739 -3.0903 -0.9272 -8.6688
# 3 96.5305 55.6739 177.6594 -1.5501 -7.3753 -21.6197
# 4 -15.1397 -3.0903 -1.5501 30.0319 -9.5883 -1.0032
# 5 -5.1564 -0.9272 -7.3753 -9.5883 59.5052 -4.2411
# 6 -9.8893 -8.6688 -21.6197 -1.0032 -4.2411 29.5717
#
#
#
# Elastic Compliance Matrix: (Units=1/GPa)
#
#
# Indices 1 2 3 4 5 6 
#
# 1 0.008172 -0.001648 -0.003897 0.003999 0.000819 -0.000346
# 2 -0.001648 0.012510 -0.002913 0.000276 -0.000195 0.000968
# 3 -0.003897 -0.002913 0.009255 -0.001349 0.000881 0.004689
# 4 0.003999 0.000276 -0.001349 0.037403 0.006397 0.002618
# 5 0.000819 -0.000195 0.000881 0.006397 0.018277 0.003699
# 6 -0.000346 0.000968 0.004689 0.002618 0.003699 0.038032
#
#
# Mechanical properties :
#
#
# Convention : Reuss Voigt Hill
#
# Bulk Modulus (GPa) = 76.79949 95.94011 86.36980
# Shear Modulus (GPa) = 34.50547 41.35664 37.93106
#
# Velocity S-wave (km/s) = 3.99627 4.37505 4.18994
# Velocity P-wave (km/s) = 7.53914 8.36214 7.96129
#
# Compressibility (1/GPa) = 0.01302092
#
# Stress axis : x y z
#
# Youngs Moduli (GPa) = 122.36469 79.93472 108.05552
#
# Poissons Ratio (x) = 0.13174 0.42111
# Poissons Ratio (y) = 0.20167 0.31475
# Poissons Ratio (z) = 0.47687 0.23284
#
# Static dielectric constant tensor:
#      x y z
#    x 4.565630 -0.080940 -0.448150 
#    y -0.080940 3.028620 0.589790 
#    z -0.448150 0.589790 4.042940 
# 
# 
# High freq. dielectric constant tensor:
#      x y z
#    x 1.875610 -0.000920 -0.007280 
#    y -0.000920 1.821540 0.003260 
#    z -0.007280 0.003260 1.878980 
# 
# From -- ./inp_files/148779.got.cif
#   From: 2010.06.25/outbox.cif.g09.slc.cpg/sg2_75_cif.got.tgz:148779.got - 2010.06.27 13:26:56.
