data_PCOD8025804
_publ_section_title
;
Structure prediction by ZEFSAII (Michael W. Deem and Ramdas Pophale) SiO2 
 PCOD8025804
Probable space group: P -1
;
_chemical_formula_sum "Si O2"
_cell_formula_units_Z 14
_cell_length_a 14.666810
_cell_length_b 8.280104
_cell_length_c 14.865740
_cell_angle_alpha 106.600810
_cell_angle_beta 28.067675
_cell_angle_gamma 124.811734
_cell_volume 575.706756
_symmetry_space_group_name_H-M "P -1"
_symmetry_group_IT_number 2
_symmetry_cell_setting 'triclinic'
loop_
_space_group_symop_operation_xyz
x,y,z
-x,-y,-z
loop_
_atom_site_type_symbol
_atom_site_label
_atom_site_fract_x
_atom_site_fract_y
_atom_site_fract_z
Si Si1 0.798825 0.033698 0.679951
Si Si2 0.207825 0.958539 0.510509
Si Si3 0.619355 0.328767 0.365208
Si Si4 0.215932 0.577339 0.437246
Si Si5 0.607003 0.715521 0.261764
Si Si6 0.372091 0.243417 0.045634
Si Si7 0.965197 0.245623 0.049418
O O1 0.651549 0.941413 0.695632
O O2 0.953834 0.309983 0.591150
O O3 0.606460 0.880357 0.909914
O O4 0.000000 0.000000 0.500000
O O5 0.130853 0.715391 0.559548
O O6 0.937781 0.909992 0.741230
O O7 0.418695 0.159696 0.431307
O O8 0.462734 0.336234 0.579191
O O9 0.752406 0.243025 0.281023
O O10 0.884836 0.590254 0.142186
O O11 0.332749 0.542832 0.414877
O O12 0.454531 0.734208 0.180495
O O13 0.808065 0.679186 0.063418
O O14 0.781533 0.984858 0.127095
O O15 0.500000 0.500000 0.000000
#
# Coordination Sequence:
#
# PCOD8025804 Si02
#       7
#     2   2   2   2   2   2   2
#     4  10  23  46  68  99 130 174 225 277 336 396
#     4  11  25  44  70 100 138 174 224 280 326 403
#     4  11  24  45  66 100 140 174 221 274 331 391
#     4  12  25  45  69 102 135 174 229 274 332 404
#     4  11  25  42  69  99 136 177 220 275 330 392
#     4  11  25  45  69  94 134 177 221 275 339 390
#     4  10  24  43  65  95 135 180 225 265 325 399
#
# _framework density 24.317936
#
# number of rings (size 3 to 8) (size 9 to 14) (size 15 to 20)
#    0.000    1.143    4.286    1.286    8.000    1.714 
#    0.000    0.000    0.000    0.000    0.000    0.000 
#    0.000    0.000    0.000    0.000    0.000    0.000 
#
# Total GULP energy -173531.880445 kJ/mol
# GULP energy per Si atom -12395.134317 kJ/mol
# Density = 2.426259 g / cm^3
# Si number density = 24.317936 Si / 1000 Ang^3
#
#
#
# Elastic Constant Matrix: (Units=GPa)
#
#
# Indices 1 2 3 4 5 6 
#
# 1 -146.9313 -283.9420 -83.4076 -42.6461 60.9789 23.4048
# 2 -283.9420 -285.1732 -106.3646 -52.5710 73.8740 13.1581
# 3 -83.4076 -106.3646 43.6826 -28.5566 38.1418 7.9080
# 4 -42.6461 -52.5710 -28.5566 20.4214 -2.7427 1.5661
# 5 60.9789 73.8740 38.1418 -2.7427 31.5340 2.2298
# 6 23.4048 13.1581 7.9080 1.5661 2.2298 40.3779
#
#
#
# Elastic Compliance Matrix: (Units=1/GPa)
#
#
# Indices 1 2 3 4 5 6 
#
# 1 0.008349 -0.006420 -0.002699 -0.002410 0.002108 -0.002242
# 2 -0.006420 0.005718 -0.003571 -0.003492 0.002856 0.002535
# 3 -0.002699 -0.003571 0.013403 0.003594 -0.002320 0.000092
# 4 -0.002410 -0.003492 0.003594 0.041639 0.012146 -0.000455
# 5 0.002108 0.002856 -0.002320 0.012146 0.025060 -0.003553
# 6 -0.002242 0.002535 0.000092 -0.000455 -0.003553 0.025435
#
#
# Mechanical properties :
#
#
# Convention : Reuss Voigt Hill
#
# Bulk Modulus (GPa) = 478.42892 -148.42781 165.00055
# Shear Modulus (GPa) = 34.32171 24.15282 29.23726
#
# Velocity S-wave (km/s) = 3.76090 3.15494 3.47117
# Velocity P-wave (km/s) = 14.69780 6.92079 9.16864
#
# Compressibility (1/GPa) = 0.00209017
#
# Stress axis : x y z
#
# Youngs Moduli (GPa) = 119.77102 174.90022 74.61171
#
# Poissons Ratio (x) = 1.12280 0.20140
# Poissons Ratio (y) = 0.76889 0.26642
# Poissons Ratio (z) = 0.32329 0.62453
#
# Static dielectric constant tensor:
#      x y z
#    x 4.817670 -0.444190 0.068750 
#    y -0.444190 4.346240 0.051470 
#    z 0.068750 0.051470 4.711270 
# 
# 
# High freq. dielectric constant tensor:
#      x y z
#    x 1.975170 -0.024780 -0.005990 
#    y -0.024780 1.961250 0.002320 
#    z -0.005990 0.002320 1.963420 
# 
# From -- ./inp_files/504897.got.cif
#   From: 2010.06.25/outbox.cif.g09.slc.cpg/sg2_253_cif.got.tgz:504897.got - 2010.06.27 13:26:56.
