data_PCOD8025969
_publ_section_title
;
Structure prediction by ZEFSAII (Michael W. Deem and Ramdas Pophale) SiO2 
 PCOD8025969
Probable space group: P -1
;
_chemical_formula_sum "Si O2"
_cell_formula_units_Z 16
_cell_length_a 11.447110
_cell_length_b 13.210438
_cell_length_c 11.245167
_cell_angle_alpha 117.469238
_cell_angle_beta 126.788379
_cell_angle_gamma 32.667894
_cell_volume 731.466481
_symmetry_space_group_name_H-M "P -1"
_symmetry_group_IT_number 2
_symmetry_cell_setting 'triclinic'
loop_
_space_group_symop_operation_xyz
x,y,z
-x,-y,-z
loop_
_atom_site_type_symbol
_atom_site_label
_atom_site_fract_x
_atom_site_fract_y
_atom_site_fract_z
Si Si1 0.725437 0.599943 0.323328
Si Si2 0.714090 0.007285 0.084806
Si Si3 0.781498 0.318052 0.258915
Si Si4 0.552921 0.553175 0.458747
Si Si5 0.769724 0.708935 0.918686
Si Si6 0.271064 0.842777 0.036057
Si Si7 0.859695 0.562428 0.640802
Si Si8 0.065908 0.962819 0.383448
O O1 0.867699 0.388894 0.303713
O O2 0.448513 0.744821 0.202779
O O3 0.732593 0.663193 0.488163
O O4 0.856048 0.590914 0.292903
O O5 0.943385 0.928355 0.234414
O O6 0.478298 0.182955 0.116148
O O7 0.785037 0.831423 0.028481
O O8 0.677915 0.077059 0.967789
O O9 0.561639 0.475358 0.301240
O O10 0.671916 0.308282 0.083051
O O11 0.992763 0.122834 0.355317
O O12 0.500000 0.500000 0.500000
O O13 0.805926 0.463132 0.587419
O O14 0.352307 0.775474 0.444674
O O15 0.764044 0.698912 0.766044
O O16 0.000000 0.500000 0.000000
O O17 0.000000 0.000000 0.000000
O O18 0.000000 0.000000 0.500000
#
# Coordination Sequence:
#
# PCOD8025969 Si02
#       8
#     2   2   2   2   2   2   2   2
#     4  10  23  47  67  99 139 180 238 279 336 430
#     4  10  26  42  64 107 129 173 239 277 342 417
#     4  10  24  40  69 100 131 182 229 279 351 401
#     4  11  23  41  68  99 137 179 223 281 355 407
#     4  11  24  45  71  95 140 179 222 283 353 411
#     4  11  25  45  70  99 139 179 237 289 344 406
#     4  10  24  42  70  99 133 183 229 275 352 410
#     4  11  22  40  66 103 142 169 227 286 336 415
#
# _framework density 21.873867000000001
#
# number of rings (size 3 to 8) (size 9 to 14) (size 15 to 20)
#    0.000    1.500    1.250    1.875   12.250    1.000 
#    0.000    3.750    0.000    0.000    0.000    0.000 
#    0.000    0.000    0.000    0.000    0.000    0.000 
#
# Total GULP energy -198286.413613 kJ/mol
# GULP energy per Si atom -12392.900851 kJ/mol
# Density = 2.182408 g / cm^3
# Si number density = 21.873867 Si / 1000 Ang^3
#
#
#
# Elastic Constant Matrix: (Units=GPa)
#
#
# Indices 1 2 3 4 5 6 
#
# 1 148.5491 50.5147 33.5442 -3.6998 4.5861 -14.7596
# 2 50.5147 127.6598 48.9523 1.5319 -1.5934 -6.7454
# 3 33.5442 48.9523 115.9367 4.2864 -6.4340 -8.2482
# 4 -3.6998 1.5319 4.2864 34.4724 -6.4306 -6.2426
# 5 4.5861 -1.5934 -6.4340 -6.4306 36.4819 4.8224
# 6 -14.7596 -6.7454 -8.2482 -6.2426 4.8224 39.1024
#
#
#
# Elastic Compliance Matrix: (Units=1/GPa)
#
#
# Indices 1 2 3 4 5 6 
#
# 1 0.008281 -0.002708 -0.001186 0.001387 -0.001496 0.002814
# 2 -0.002708 0.010263 -0.003536 -0.000295 0.000121 -0.000060
# 3 -0.001186 -0.003536 0.010643 -0.000838 0.001611 0.000855
# 4 0.001387 -0.000295 -0.000838 0.030963 0.004504 0.004684
# 5 -0.001496 0.000121 0.001611 0.004504 0.029088 -0.003072
# 6 0.002814 -0.000060 0.000855 0.004684 -0.003072 0.027933
#
#
# Mechanical properties :
#
#
# Convention : Reuss Voigt Hill
#
# Bulk Modulus (GPa) = 69.81033 73.12978 71.47006
# Shear Modulus (GPa) = 36.54735 39.28695 37.91715
#
# Velocity S-wave (km/s) = 4.09200 4.24260 4.16798
# Velocity P-wave (km/s) = 7.36955 7.58318 7.47713
#
# Compressibility (1/GPa) = 0.01432453
#
# Stress axis : x y z
#
# Youngs Moduli (GPa) = 120.75711 97.43752 93.95806
#
# Poissons Ratio (x) = 0.26391 0.11148
# Poissons Ratio (y) = 0.32707 0.33227
# Poissons Ratio (z) = 0.14328 0.34457
#
# Static dielectric constant tensor:
#      x y z
#    x 4.346800 -0.081040 -0.203700 
#    y -0.081040 4.000090 0.078760 
#    z -0.203700 0.078760 4.190610 
# 
# 
# High freq. dielectric constant tensor:
#      x y z
#    x 1.877090 -0.009790 -0.004910 
#    y -0.009790 1.842390 0.011960 
#    z -0.004910 0.011960 1.868210 
# 
# From -- ./inp_files/433129.got.cif
#   From: 2010.06.25/outbox.cif.g09.slc.cpg/sg2_217_cif.got.tgz:433129.got - 2010.06.27 13:26:56.
