data_PCOD8025951
_publ_section_title
;
Structure prediction by ZEFSAII (Michael W. Deem and Ramdas Pophale) SiO2 
 PCOD8025951
Probable space group: P -1
;
_chemical_formula_sum "Si O2"
_cell_formula_units_Z 16
_cell_length_a 14.848099
_cell_length_b 15.045018
_cell_length_c 9.489503
_cell_angle_alpha 132.117971
_cell_angle_beta 45.021639
_cell_angle_gamma 149.390280
_cell_volume 752.029863
_symmetry_space_group_name_H-M "P -1"
_symmetry_group_IT_number 2
_symmetry_cell_setting 'triclinic'
loop_
_space_group_symop_operation_xyz
x,y,z
-x,-y,-z
loop_
_atom_site_type_symbol
_atom_site_label
_atom_site_fract_x
_atom_site_fract_y
_atom_site_fract_z
Si Si1 0.094578 0.144189 0.166782
Si Si2 0.503959 0.627302 0.043934
Si Si3 0.649221 0.356714 0.024810
Si Si4 0.057821 0.572538 0.855323
Si Si5 0.135261 0.021538 0.476881
Si Si6 0.361389 0.973763 0.020802
Si Si7 0.482005 0.599500 0.527773
Si Si8 0.253876 0.493393 0.402638
O O1 0.137146 0.311241 0.250407
O O2 0.979483 0.088002 0.374778
O O3 0.281483 0.194983 0.042690
O O4 0.000000 0.000000 0.000000
O O5 0.396905 0.564204 0.944890
O O6 0.404802 0.651832 0.290612
O O7 0.500000 0.500000 0.000000
O O8 0.867633 0.479405 0.886368
O O9 0.622820 0.370796 0.233826
O O10 0.498935 0.142582 0.940067
O O11 0.124692 0.504401 0.622024
O O12 0.225650 0.786631 0.889593
O O13 0.000000 0.500000 0.000000
O O14 0.214681 0.957015 0.247767
O O15 0.307450 0.219353 0.553241
O O16 0.000000 0.000000 0.500000
O O17 0.500000 0.000000 0.000000
O O18 0.500000 0.500000 0.500000
O O19 0.363147 0.494960 0.407014
#
# Coordination Sequence:
#
# PCOD8025951 Si02
#       8
#     2   2   2   2   2   2   2   2
#     4  11  23  41  65  94 130 175 223 282 347 408
#     4  10  23  47  65  93 139 177 223 286 346 413
#     4  11  24  42  68 101 139 179 229 284 343 414
#     4  12  22  42  72 100 136 182 229 282 345 417
#     4  11  23  39  64 103 132 167 228 285 343 411
#     4  11  23  42  67 105 145 178 227 292 348 416
#     4  11  21  37  66  97 131 172 219 283 346 404
#     4  11  23  43  65  95 132 181 227 273 345 419
#
# _framework density 21.275749999999999
#
# number of rings (size 3 to 8) (size 9 to 14) (size 15 to 20)
#    0.000    1.000    2.500    6.000    1.750    1.500 
#    4.500    0.625    0.000    0.000    0.000    0.000 
#    0.000    0.000    0.000    0.000    0.000    0.000 
#
# Total GULP energy -198229.815668 kJ/mol
# GULP energy per Si atom -12389.363479 kJ/mol
# Density = 2.122733 g / cm^3
# Si number density = 21.275750 Si / 1000 Ang^3
#
#
#
# Elastic Constant Matrix: (Units=GPa)
#
#
# Indices 1 2 3 4 5 6 
#
# 1 110.8741 40.6691 31.3707 -4.0276 -8.8640 18.5614
# 2 40.6691 132.1847 50.1890 4.7419 -10.0649 19.4105
# 3 31.3707 50.1890 121.3293 -7.5738 -11.4223 18.9913
# 4 -4.0276 4.7419 -7.5738 44.9607 4.2799 -2.0525
# 5 -8.8640 -10.0649 -11.4223 4.2799 34.2727 -6.6355
# 6 18.5614 19.4105 18.9913 -2.0525 -6.6355 35.4193
#
#
#
# Elastic Compliance Matrix: (Units=1/GPa)
#
#
# Indices 1 2 3 4 5 6 
#
# 1 0.010912 -0.002349 -0.001149 0.000777 0.000957 -0.003591
# 2 -0.002349 0.010007 -0.003172 -0.002013 0.001047 -0.002473
# 3 -0.001149 -0.003172 0.010562 0.001733 0.001505 -0.002940
# 4 0.000777 -0.002013 0.001733 0.023089 -0.002575 0.000622
# 5 0.000957 0.001047 0.001505 -0.002575 0.031298 0.003832
# 6 -0.003591 -0.002473 -0.002940 0.000622 0.003832 0.033800
#
#
# Mechanical properties :
#
#
# Convention : Reuss Voigt Hill
#
# Bulk Modulus (GPa) = 55.12591 67.64952 61.38771
# Shear Modulus (GPa) = 35.95704 39.07448 37.51576
#
# Velocity S-wave (km/s) = 4.11548 4.29018 4.20373
# Velocity P-wave (km/s) = 6.96774 7.51042 7.24416
#
# Compressibility (1/GPa) = 0.01814029
#
# Stress axis : x y z
#
# Youngs Moduli (GPa) = 91.64466 99.92682 94.68338
#
# Poissons Ratio (x) = 0.23468 0.10881
# Poissons Ratio (y) = 0.21523 0.30037
# Poissons Ratio (z) = 0.10532 0.31701
#
# Static dielectric constant tensor:
#      x y z
#    x 3.787240 0.215710 -0.190490 
#    y 0.215710 4.213500 -0.236230 
#    z -0.190490 -0.236230 4.275040 
# 
# 
# High freq. dielectric constant tensor:
#      x y z
#    x 1.826280 0.013290 -0.012280 
#    y 0.013290 1.842740 -0.017760 
#    z -0.012280 -0.017760 1.839220 
# 
# From -- ./inp_files/315833.got.cif
#   From: 2010.06.25/outbox.cif.g09.slc.cpg/sg2_158_cif.got.tgz:315833.got - 2010.06.27 13:26:56.
