data_PCOD8025558
_publ_section_title
;
Structure prediction by ZEFSAII (Michael W. Deem and Ramdas Pophale) SiO2 
 PCOD8025558
Probable space group: P -1
;
_chemical_formula_sum "Si O2"
_cell_formula_units_Z 14
_cell_length_a 20.601965
_cell_length_b 9.496115
_cell_length_c 17.642991
_cell_angle_alpha 54.599356
_cell_angle_beta 19.501627
_cell_angle_gamma 42.540166
_cell_volume 669.855953
_symmetry_space_group_name_H-M "P -1"
_symmetry_group_IT_number 2
_symmetry_cell_setting 'triclinic'
loop_
_space_group_symop_operation_xyz
x,y,z
-x,-y,-z
loop_
_atom_site_type_symbol
_atom_site_label
_atom_site_fract_x
_atom_site_fract_y
_atom_site_fract_z
Si Si1 0.230468 0.127081 0.161575
Si Si2 0.853061 0.549326 0.328833
Si Si3 0.855703 0.766192 0.601539
Si Si4 0.362564 0.957745 0.838751
Si Si5 0.239948 0.636000 0.645122
Si Si6 0.718145 0.231019 0.875541
Si Si7 0.327600 0.372988 0.777670
O O1 0.133751 0.220724 0.323723
O O2 0.050378 0.365692 0.235376
O O3 0.185979 0.956596 0.238576
O O4 0.548346 0.971038 0.846922
O O5 0.756703 0.447111 0.416293
O O6 0.584475 0.804210 0.577107
O O7 0.023073 0.585514 0.081646
O O8 0.000000 0.500000 0.500000
O O9 0.019917 0.824669 0.366525
O O10 0.389865 0.131142 0.789624
O O11 0.067025 0.109401 0.078788
O O12 0.412010 0.791033 0.903876
O O13 0.330481 0.435715 0.668645
O O14 0.447746 0.666185 0.408387
O O15 0.500000 0.500000 0.000000
#
# Coordination Sequence:
#
# PCOD8025558 Si02
#       7
#     2   2   2   2   2   2   2
#     4  11  24  44  64  93 130 173 222 275 323 383
#     4  11  23  41  66  98 132 172 215 267 328 391
#     4  11  25  43  64  92 127 175 223 272 325 381
#     4  11  24  41  65  99 132 172 217 267 325 392
#     4  10  23  45  69  97 129 172 215 272 333 390
#     4  12  23  43  66  92 133 172 219 269 323 384
#     4  10  23  45  69  96 134 166 216 277 328 390
#
# _framework density 20.900015
#
# number of rings (size 3 to 8) (size 9 to 14) (size 15 to 20)
#    0.000    1.143    4.286    3.000    2.000    3.429 
#    2.571    2.857    0.000    0.000    0.000    0.000 
#    0.000    0.000    0.000    0.000    0.000    0.000 
#
# Total GULP energy -173619.543910 kJ/mol
# GULP energy per Si atom -12401.395994 kJ/mol
# Density = 2.085245 g / cm^3
# Si number density = 20.900015 Si / 1000 Ang^3
#
#
#
# Elastic Constant Matrix: (Units=GPa)
#
#
# Indices 1 2 3 4 5 6 
#
# 1 90.4121 23.4807 48.7813 -2.2906 -10.4645 10.1792
# 2 23.4807 80.3227 51.8332 -13.0080 -3.6744 5.7189
# 3 48.7813 51.8332 156.4983 -4.1000 -6.9751 28.4097
# 4 -2.2906 -13.0080 -4.1000 38.4856 9.0271 0.1266
# 5 -10.4645 -3.6744 -6.9751 9.0271 41.5586 0.5044
# 6 10.1792 5.7189 28.4097 0.1266 0.5044 35.3299
#
#
#
# Elastic Compliance Matrix: (Units=1/GPa)
#
#
# Indices 1 2 3 4 5 6 
#
# 1 0.013796 -0.001744 -0.003438 -0.000819 0.002932 -0.000967
# 2 -0.001744 0.017120 -0.005409 0.005339 -0.001018 0.002076
# 3 -0.003438 -0.005409 0.010444 -0.001068 0.000720 -0.006539
# 4 -0.000819 0.005339 -0.001068 0.029087 -0.006234 0.000215
# 5 0.002932 -0.001018 0.000720 -0.006234 0.026205 -0.001611
# 6 -0.000967 0.002076 -0.006539 0.000215 -0.001611 0.033527
#
#
# Mechanical properties :
#
#
# Convention : Reuss Voigt Hill
#
# Bulk Modulus (GPa) = 49.55864 63.93594 56.74729
# Shear Modulus (GPa) = 31.62791 36.61737 34.12264
#
# Velocity S-wave (km/s) = 3.89433 4.19026 4.04500
# Velocity P-wave (km/s) = 6.63210 7.35315 7.00191
#
# Compressibility (1/GPa) = 0.02017812
#
# Stress axis : x y z
#
# Youngs Moduli (GPa) = 72.48600 58.40997 95.74810
#
# Poissons Ratio (x) = 0.10188 0.32916
# Poissons Ratio (y) = 0.12643 0.51791
# Poissons Ratio (z) = 0.24919 0.31595
#
# Static dielectric constant tensor:
#      x y z
#    x 3.844180 0.089850 -0.084780 
#    y 0.089850 3.659070 -0.046740 
#    z -0.084780 -0.046740 4.316740 
# 
# 
# High freq. dielectric constant tensor:
#      x y z
#    x 1.824670 -0.002370 -0.007740 
#    y -0.002370 1.811490 -0.002970 
#    z -0.007740 -0.002970 1.832300 
# 
# From -- ./inp_files/577226.got.cif
#   From: 2010.06.25/outbox.cif.g09.slc.cpg/sg2_289_cif.got.tgz:577226.got - 2010.06.27 13:26:56.
