data_PCOD8025459
_publ_section_title
;
Structure prediction by ZEFSAII (Michael W. Deem and Ramdas Pophale) SiO2 
 PCOD8025459
Probable space group: P -1
;
_chemical_formula_sum "Si O2"
_cell_formula_units_Z 14
_cell_length_a 11.349101
_cell_length_b 6.397131
_cell_length_c 11.601351
_cell_angle_alpha 76.495969
_cell_angle_beta 52.725194
_cell_angle_gamma 62.749191
_cell_volume 594.701922
_symmetry_space_group_name_H-M "P -1"
_symmetry_group_IT_number 2
_symmetry_cell_setting 'triclinic'
loop_
_space_group_symop_operation_xyz
x,y,z
-x,-y,-z
loop_
_atom_site_type_symbol
_atom_site_label
_atom_site_fract_x
_atom_site_fract_y
_atom_site_fract_z
Si Si1 0.759906 0.606434 0.067328
Si Si2 0.775376 0.035554 0.887065
Si Si3 0.990383 0.838140 0.126724
Si Si4 0.316656 0.227787 0.670098
Si Si5 0.171162 0.015168 0.384805
Si Si6 0.365857 0.203457 0.393224
Si Si7 0.561855 0.414462 0.813712
O O1 0.755580 0.573463 0.213063
O O2 0.622383 0.544829 0.098625
O O3 0.733958 0.878259 0.026115
O O4 0.928628 0.429890 0.935058
O O5 0.920034 0.111408 0.824118
O O6 0.826099 0.881678 0.758902
O O7 0.620169 0.287337 0.921414
O O8 0.804238 0.902873 0.260562
O O9 0.000000 0.000000 0.000000
O O10 0.324808 0.336723 0.525153
O O11 0.491716 0.050398 0.634058
O O12 0.318666 0.755412 0.333381
O O13 0.207230 0.174759 0.439360
O O14 0.000000 0.000000 0.500000
O O15 0.424485 0.337804 0.244680
#
# Coordination Sequence:
#
# PCOD8025459 Si02
#       7
#     2   2   2   2   2   2   2
#     4  12  24  46  68 101 139 178 224 285 338 400
#     4  10  25  42  68 103 132 177 225 280 342 396
#     4  12  25  43  67 103 137 176 227 273 344 406
#     4  11  24  45  68 101 137 183 224 277 336 400
#     4  10  23  45  67  99 135 172 227 278 336 400
#     4  11  24  47  71  96 141 178 230 279 331 408
#     4  10  25  42  67 102 129 180 228 272 342 396
#
# _framework density 23.541207
#
# number of rings (size 3 to 8) (size 9 to 14) (size 15 to 20)
#    0.857    0.286    2.857    2.571    2.000    2.857 
#    2.571    0.000    0.000    0.000    0.000    0.000 
#    0.000    0.000    0.000    0.000    0.000    0.000 
#
# Total GULP energy -173495.162627 kJ/mol
# GULP energy per Si atom -12392.511616 kJ/mol
# Density = 2.348763 g / cm^3
# Si number density = 23.541207 Si / 1000 Ang^3
#
#
#
# Elastic Constant Matrix: (Units=GPa)
#
#
# Indices 1 2 3 4 5 6 
#
# 1 143.4732 16.5934 26.2757 -0.6832 0.2519 20.8802
# 2 16.5934 60.1547 3.0448 -14.2494 7.8724 -0.6091
# 3 26.2757 3.0448 61.3116 -3.6293 4.1402 -2.0818
# 4 -0.6832 -14.2494 -3.6293 29.3563 4.7511 -1.4840
# 5 0.2519 7.8724 4.1402 4.7511 50.3614 -1.0090
# 6 20.8802 -0.6091 -2.0818 -1.4840 -1.0090 31.4772
#
#
#
# Elastic Compliance Matrix: (Units=1/GPa)
#
#
# Indices 1 2 3 4 5 6 
#
# 1 0.008978 -0.002962 -0.004102 -0.002192 0.000835 -0.006360
# 2 -0.002962 0.020545 0.001278 0.010896 -0.004273 0.002823
# 3 -0.004102 0.001278 0.018470 0.003326 -0.001930 0.004063
# 4 -0.002192 0.010896 0.003326 0.040826 -0.005745 0.003626
# 5 0.000835 -0.004273 -0.001930 -0.005745 0.021214 -0.000355
# 6 -0.006360 0.002823 0.004063 0.003626 -0.000355 0.036471
#
#
# Mechanical properties :
#
#
# Convention : Reuss Voigt Hill
#
# Bulk Modulus (GPa) = 27.45681 39.64080 33.54881
# Shear Modulus (GPa) = 29.37454 36.84069 33.10762
#
# Velocity S-wave (km/s) = 3.53624 3.96023 3.75423
# Velocity P-wave (km/s) = 5.32560 6.14709 5.75103
#
# Compressibility (1/GPa) = 0.03642083
#
# Stress axis : x y z
#
# Youngs Moduli (GPa) = 111.38887 48.67385 54.14200
#
# Poissons Ratio (x) = 0.14416 0.22212
# Poissons Ratio (y) = 0.32991 -0.06922
# Poissons Ratio (z) = 0.45697 -0.06223
#
# Static dielectric constant tensor:
#      x y z
#    x 4.671470 -0.170320 -0.025590 
#    y -0.170320 5.196890 1.262310 
#    z -0.025590 1.262310 5.306640 
# 
# 
# High freq. dielectric constant tensor:
#      x y z
#    x 1.954390 0.000910 0.002510 
#    y 0.000910 1.897970 0.002840 
#    z 0.002510 0.002840 1.933030 
# 
# From -- ./inp_files/410171.got.cif
#   From: 2010.06.25/outbox.cif.g09.slc.cpg/sg2_206_cif.got.tgz:410171.got - 2010.06.27 13:26:56.
