data_PCOD8025998
_publ_section_title
;
Structure prediction by ZEFSAII (Michael W. Deem and Ramdas Pophale) SiO2 
 PCOD8025998
Probable space group: P -1
;
_chemical_formula_sum "Si O2"
_cell_formula_units_Z 16
_cell_length_a 6.817492
_cell_length_b 9.024245
_cell_length_c 19.874199
_cell_angle_alpha 45.225993
_cell_angle_beta 124.307368
_cell_angle_gamma 122.159048
_cell_volume 697.638834
_symmetry_space_group_name_H-M "P -1"
_symmetry_group_IT_number 2
_symmetry_cell_setting 'triclinic'
loop_
_space_group_symop_operation_xyz
x,y,z
-x,-y,-z
loop_
_atom_site_type_symbol
_atom_site_label
_atom_site_fract_x
_atom_site_fract_y
_atom_site_fract_z
Si Si1 0.110244 0.819084 0.473208
Si Si2 0.258564 0.494105 0.412499
Si Si3 0.985282 0.832103 0.299115
Si Si4 0.276314 0.313175 0.198448
Si Si5 0.450714 0.029993 0.875945
Si Si6 0.388049 0.293028 0.375391
Si Si7 0.155046 0.746446 0.023561
Si Si8 0.398889 0.283243 0.089524
O O1 0.961469 0.750469 0.397363
O O2 0.351411 0.729451 0.541457
O O3 0.946108 0.712123 0.537516
O O4 0.183386 0.073795 0.415864
O O5 0.500000 0.500000 0.500000
O O6 0.158856 0.709514 0.331005
O O7 0.307644 0.469601 0.350431
O O8 0.092744 0.084747 0.237491
O O9 0.715282 0.797533 0.225765
O O10 0.416658 0.362475 0.280524
O O11 0.120257 0.489387 0.097334
O O12 0.463748 0.318928 0.170244
O O13 0.483180 0.907089 0.852739
O O14 0.713291 0.159667 0.911692
O O15 0.326767 0.850919 0.962594
O O16 0.891997 0.797791 0.950744
O O17 0.500000 0.500000 0.000000
#
# Coordination Sequence:
#
# PCOD8025998 Si02
#       8
#     2   2   2   2   2   2   2   2
#     4  10  23  47  70  98 145 177 232 290 343 417
#     4  12  25  44  74 103 140 190 227 286 359 410
#     4  11  24  45  71 104 138 185 236 285 344 416
#     4  11  24  45  70 102 142 179 238 284 339 422
#     4  11  25  45  71 103 139 181 231 292 349 412
#     4  10  24  47  70 102 138 185 230 291 344 415
#     4  11  24  47  69 102 146 174 229 299 344 413
#     4  12  23  45  75  98 138 192 227 281 360 411
#
# _framework density 22.934504
#
# number of rings (size 3 to 8) (size 9 to 14) (size 15 to 20)
#    0.000    1.000    3.750    2.250    1.750    2.000 
#   11.250    0.000    0.000    0.000    0.000    0.000 
#    0.000    0.000    0.000    0.000    0.000    0.000 
#
# Total GULP energy -198438.014105 kJ/mol
# GULP energy per Si atom -12402.375882 kJ/mol
# Density = 2.288230 g / cm^3
# Si number density = 22.934504 Si / 1000 Ang^3
#
#
#
# Elastic Constant Matrix: (Units=GPa)
#
#
# Indices 1 2 3 4 5 6 
#
# 1 104.8346 63.3535 37.1108 -0.3289 -3.9261 -30.7765
# 2 63.3535 93.8472 47.0336 12.1768 3.4768 -17.1487
# 3 37.1108 47.0336 114.6830 7.7204 2.4506 -22.2126
# 4 -0.3289 12.1768 7.7204 25.5456 -13.4569 -8.6553
# 5 -3.9261 3.4768 2.4506 -13.4569 47.1601 -3.7692
# 6 -30.7765 -17.1487 -22.2126 -8.6553 -3.7692 49.0163
#
#
#
# Elastic Compliance Matrix: (Units=1/GPa)
#
#
# Indices 1 2 3 4 5 6 
#
# 1 0.023287 -0.015998 0.000170 0.016924 0.008960 0.012779
# 2 -0.015998 0.025373 -0.005276 -0.017708 -0.008568 -0.007345
# 3 0.000170 -0.005276 0.011487 0.000344 0.000188 0.003542
# 4 0.016924 -0.017708 0.000344 0.065872 0.022930 0.017982
# 5 0.008960 -0.008568 0.000188 0.022930 0.029839 0.009056
# 6 0.012779 -0.007345 0.003542 0.017982 0.009056 0.031332
#
#
# Mechanical properties :
#
#
# Convention : Reuss Voigt Hill
#
# Bulk Modulus (GPa) = 55.74798 67.59563 61.67180
# Shear Modulus (GPa) = 21.24240 35.40217 28.32229
#
# Velocity S-wave (km/s) = 3.04669 3.93316 3.51796
# Velocity P-wave (km/s) = 6.06108 7.08263 6.59167
#
# Compressibility (1/GPa) = 0.01793787
#
# Stress axis : x y z
#
# Youngs Moduli (GPa) = 42.94288 39.41233 87.05180
#
# Poissons Ratio (x) = 0.63052 -0.01480
# Poissons Ratio (y) = 0.68701 0.45932
# Poissons Ratio (z) = -0.00730 0.20795
#
# Static dielectric constant tensor:
#      x y z
#    x 4.141970 -0.066990 -0.152500 
#    y -0.066990 4.280370 0.081190 
#    z -0.152500 0.081190 4.312460 
# 
# 
# High freq. dielectric constant tensor:
#      x y z
#    x 1.899660 -0.004700 -0.006560 
#    y -0.004700 1.914970 -0.002050 
#    z -0.006560 -0.002050 1.909740 
# 
# From -- ./inp_files/323573.got.cif
#   From: 2010.06.25/outbox.cif.g09.slc.cpg/sg2_162_cif.got.tgz:323573.got - 2010.06.27 13:26:56.
