data_PCOD8025066
_publ_section_title
;
Structure prediction by ZEFSAII (Michael W. Deem and Ramdas Pophale) SiO2 
 PCOD8025066
Probable space group: P -1
;
_chemical_formula_sum "Si O2"
_cell_formula_units_Z 16
_cell_length_a 9.232836
_cell_length_b 12.701076
_cell_length_c 9.378219
_cell_angle_alpha 40.939398
_cell_angle_beta 92.062633
_cell_angle_gamma 86.193917
_cell_volume 712.769433
_symmetry_space_group_name_H-M "P -1"
_symmetry_group_IT_number 2
_symmetry_cell_setting 'triclinic'
loop_
_space_group_symop_operation_xyz
x,y,z
-x,-y,-z
loop_
_atom_site_type_symbol
_atom_site_label
_atom_site_fract_x
_atom_site_fract_y
_atom_site_fract_z
Si Si1 0.410438 0.166410 0.874793
Si Si2 0.623309 0.098426 0.453866
Si Si3 0.457391 0.326889 0.428124
Si Si4 0.077024 0.158201 0.815947
Si Si5 0.917148 0.870080 0.699845
Si Si6 0.906825 0.335017 0.856077
Si Si7 0.407434 0.692351 0.035684
Si Si8 0.866118 0.683236 0.624987
O O1 0.440836 0.303992 0.621049
O O2 0.239444 0.148546 0.900106
O O3 0.474319 0.210789 0.984227
O O4 0.500000 0.000000 0.000000
O O5 0.586072 0.199493 0.494771
O O6 0.500000 0.000000 0.500000
O O7 0.757139 0.961518 0.634872
O O8 0.648784 0.225446 0.199726
O O9 0.487122 0.508324 0.206161
O O10 0.307672 0.293626 0.383823
O O11 0.088687 0.184959 0.619769
O O12 0.972614 0.313806 0.720524
O O13 0.000000 0.000000 0.000000
O O14 0.926116 0.717458 0.747722
O O15 0.000000 0.000000 0.500000
O O16 0.995567 0.809345 0.909371
O O17 0.736899 0.310659 0.869494
O O18 0.928636 0.505436 0.751981
#
# Coordination Sequence:
#
# PCOD8025066 Si02
#       8
#     2   2   2   2   2   2   2   2
#     4  11  24  41  69  98 130 169 216 266 324 381
#     4  12  24  42  69  92 131 171 220 267 316 384
#     4  10  23  44  68  96 128 171 216 269 323 380
#     4  11  24  42  69  99 129 169 218 265 320 387
#     4  12  24  43  65  96 129 172 219 265 324 378
#     4  11  24  44  67  95 132 172 213 268 324 384
#     4  11  24  45  66  95 135 170 213 268 324 383
#     4  10  23  45  67  93 133 170 214 269 324 381
#
# _framework density 22.447652999999999
#
# number of rings (size 3 to 8) (size 9 to 14) (size 15 to 20)
#    0.000    1.000    2.500    3.750    5.250    0.000 
#    4.500    0.000    0.000    0.000    0.000    0.000 
#    0.000    0.000    0.000    0.000    0.000    0.000 
#
# Total GULP energy -198418.963231 kJ/mol
# GULP energy per Si atom -12401.185202 kJ/mol
# Density = 2.239656 g / cm^3
# Si number density = 22.447653 Si / 1000 Ang^3
#
#
#
# Elastic Constant Matrix: (Units=GPa)
#
#
# Indices 1 2 3 4 5 6 
#
# 1 110.6864 42.8723 11.6197 -10.8345 0.6783 -5.8000
# 2 42.8723 120.0363 7.4297 -13.1546 -1.8804 -14.8692
# 3 11.6197 7.4297 70.8692 -13.6415 -0.3787 7.8098
# 4 -10.8345 -13.1546 -13.6415 38.6142 1.7287 6.2442
# 5 0.6783 -1.8804 -0.3787 1.7287 33.4942 -3.0605
# 6 -5.8000 -14.8692 7.8098 6.2442 -3.0605 35.0537
#
#
#
# Elastic Compliance Matrix: (Units=1/GPa)
#
#
# Indices 1 2 3 4 5 6 
#
# 1 0.010688 -0.003578 -0.001142 0.001363 -0.000480 0.000221
# 2 -0.003578 0.010297 -0.000574 0.001665 0.000895 0.003685
# 3 -0.001142 -0.000574 0.016081 0.006024 -0.000608 -0.005141
# 4 0.001363 0.001665 0.006024 0.030021 -0.001957 -0.005929
# 5 -0.000480 0.000895 -0.000608 -0.001957 0.030324 0.003432
# 6 0.000221 0.003685 -0.005141 -0.005929 0.003432 0.032629
#
#
# Mechanical properties :
#
#
# Convention : Reuss Voigt Hill
#
# Bulk Modulus (GPa) = 37.76525 47.27061 42.51793
# Shear Modulus (GPa) = 33.45556 37.41041 35.43298
#
# Velocity S-wave (km/s) = 3.86473 4.08678 3.97731
# Velocity P-wave (km/s) = 6.06425 6.58581 6.33040
#
# Compressibility (1/GPa) = 0.02647937
#
# Stress axis : x y z
#
# Youngs Moduli (GPa) = 93.56299 97.11469 62.18649
#
# Poissons Ratio (x) = 0.34743 0.07102
# Poissons Ratio (y) = 0.33472 0.03568
# Poissons Ratio (z) = 0.10685 0.05571
#
# Static dielectric constant tensor:
#      x y z
#    x 3.990060 -0.066050 -0.086940 
#    y -0.066050 3.868520 -0.005960 
#    z -0.086940 -0.005960 4.140090 
# 
# 
# High freq. dielectric constant tensor:
#      x y z
#    x 1.884180 -0.006230 -0.004920 
#    y -0.006230 1.891790 -0.006090 
#    z -0.004920 -0.006090 1.888670 
# 
# From -- ./inp_files/184187.got.cif
#   From: 2010.06.25/outbox.cif.g09.slc.cpg/sg2_93_cif.got.tgz:184187.got - 2010.06.27 13:26:56.
