data_PCOD8025274
_publ_section_title
;
Structure prediction by ZEFSAII (Michael W. Deem and Ramdas Pophale) SiO2 
 PCOD8025274
Probable space group: P -1
;
_chemical_formula_sum "Si O2"
_cell_formula_units_Z 14
_cell_length_a 5.158169
_cell_length_b 5.224651
_cell_length_c 20.689294
_cell_angle_alpha 73.138760
_cell_angle_beta 88.854641
_cell_angle_gamma 80.359584
_cell_volume 525.822110
_symmetry_space_group_name_H-M "P -1"
_symmetry_group_IT_number 2
_symmetry_cell_setting 'triclinic'
loop_
_space_group_symop_operation_xyz
x,y,z
-x,-y,-z
loop_
_atom_site_type_symbol
_atom_site_label
_atom_site_fract_x
_atom_site_fract_y
_atom_site_fract_z
Si Si1 0.822205 0.112248 0.871652
Si Si2 0.188245 0.879684 0.789734
Si Si3 0.254802 0.452091 0.046018
Si Si4 0.826333 0.797539 0.489333
Si Si5 0.150793 0.270501 0.643703
Si Si6 0.591142 0.606167 0.622413
Si Si7 0.713344 0.610424 0.763809
O O1 0.812014 0.327591 0.913075
O O2 0.717184 0.283033 0.794073
O O3 0.678311 0.860685 0.907642
O O4 0.117640 0.983726 0.855582
O O5 0.483845 0.725305 0.806705
O O6 0.988831 0.682924 0.781115
O O7 0.196650 0.112664 0.720871
O O8 0.500000 0.500000 0.000000
O O9 0.000000 0.500000 0.000000
O O10 0.727626 0.895771 0.409575
O O11 0.593130 0.794558 0.544127
O O12 0.000000 0.500000 0.500000
O O13 0.000000 0.000000 0.500000
O O14 0.305741 0.522170 0.631818
O O15 0.838806 0.363617 0.628837
O O16 0.644414 0.729754 0.683500
#
# Coordination Sequence:
#
# PCOD8025274 Si02
#       7
#     2   2   2   2   2   2   2
#     4  12  28  54  84 117 162 202 256 312 380 457
#     4  12  27  46  77 115 157 205 260 318 385 455
#     4  12  30  54  84 118 158 203 252 309 376 456
#     4  10  23  44  72 100 146 201 259 319 388 448
#     4  11  23  44  70 107 151 201 259 323 384 454
#     4  11  23  44  70 107 151 201 259 323 384 454
#     4  12  27  46  77 115 157 205 260 318 385 455
#
# _framework density 26.624970000000001
#
# number of rings (size 3 to 8) (size 9 to 14) (size 15 to 20)
#    0.000    0.571    2.857    3.857    2.000    4.571 
#    0.000    6.429    0.000    0.000    0.000    0.000 
#    0.000    0.000    0.000    0.000    0.000    0.000 
#
# Total GULP energy -173491.458046 kJ/mol
# GULP energy per Si atom -12392.247003 kJ/mol
# Density = 2.656437 g / cm^3
# Si number density = 26.624970 Si / 1000 Ang^3
#
#
#
# Elastic Constant Matrix: (Units=GPa)
#
#
# Indices 1 2 3 4 5 6 
#
# 1 109.1115 22.4862 47.4881 -7.0337 -23.8759 14.0258
# 2 22.4862 123.4262 66.6387 5.3462 -21.7441 30.4189
# 3 47.4881 66.6387 150.9104 13.8095 -34.8809 15.3049
# 4 -7.0337 5.3462 13.8095 63.5409 2.3699 -10.0340
# 5 -23.8759 -21.7441 -34.8809 2.3699 53.1742 5.1798
# 6 14.0258 30.4189 15.3049 -10.0340 5.1798 35.1838
#
#
#
# Elastic Compliance Matrix: (Units=1/GPa)
#
#
# Indices 1 2 3 4 5 6 
#
# 1 0.011805 0.001395 -0.002864 0.000844 0.004450 -0.005081
# 2 0.001395 0.014047 -0.004014 -0.002294 0.005043 -0.012351
# 3 -0.002864 -0.004014 0.010701 -0.002697 0.004354 -0.001453
# 4 0.000844 -0.002294 -0.002697 0.018112 -0.003970 0.008569
# 5 0.004450 0.005043 0.004354 -0.003970 0.027181 -0.013161
# 6 -0.005081 -0.012351 -0.001453 0.008569 -0.013161 0.046140
#
#
# Mechanical properties :
#
#
# Convention : Reuss Voigt Hill
#
# Bulk Modulus (GPa) = 39.08233 72.96378 56.02305
# Shear Modulus (GPa) = 33.90315 46.83547 40.36931
#
# Velocity S-wave (km/s) = 3.57229 4.19869 3.89809
# Velocity P-wave (km/s) = 5.63255 7.13926 6.43019
#
# Compressibility (1/GPa) = 0.02558701
#
# Stress axis : x y z
#
# Youngs Moduli (GPa) = 84.70808 71.19185 93.45337
#
# Poissons Ratio (x) = -0.09934 0.26769
# Poissons Ratio (y) = -0.11820 0.37509
# Poissons Ratio (z) = 0.24264 0.28574
#
# Static dielectric constant tensor:
#      x y z
#    x 4.826720 -0.324420 -0.399800 
#    y -0.324420 5.025780 -0.163130 
#    z -0.399800 -0.163130 5.829060 
# 
# 
# High freq. dielectric constant tensor:
#      x y z
#    x 2.070050 -0.014830 -0.020350 
#    y -0.014830 2.076500 -0.000970 
#    z -0.020350 -0.000970 2.099040 
# 
# From -- ./inp_files/581019.got.cif
#   From: 2010.06.25/outbox.cif.g09.slc.cpg/sg2_291_cif.got.tgz:581019.got - 2010.06.27 13:26:56.
