data_PCOD8025759
_publ_section_title
;
Structure prediction by ZEFSAII (Michael W. Deem and Ramdas Pophale) SiO2 
 PCOD8025759
Probable space group: P -1
;
_chemical_formula_sum "Si O2"
_cell_formula_units_Z 14
_cell_length_a 9.428929
_cell_length_b 7.850191
_cell_length_c 14.662080
_cell_angle_alpha 41.199535
_cell_angle_beta 117.325129
_cell_angle_gamma 95.809501
_cell_volume 577.158782
_symmetry_space_group_name_H-M "P -1"
_symmetry_group_IT_number 2
_symmetry_cell_setting 'triclinic'
loop_
_space_group_symop_operation_xyz
x,y,z
-x,-y,-z
loop_
_atom_site_type_symbol
_atom_site_label
_atom_site_fract_x
_atom_site_fract_y
_atom_site_fract_z
Si Si1 0.395556 0.491392 0.643203
Si Si2 0.739892 0.828916 0.402767
Si Si3 0.041109 0.143488 0.068890
Si Si4 0.560101 0.487015 0.146684
Si Si5 0.756806 0.518234 0.032060
Si Si6 0.232433 0.567248 0.265526
Si Si7 0.013548 0.938772 0.332179
O O1 0.388203 0.250210 0.670145
O O2 0.412208 0.409163 0.787746
O O3 0.558430 0.563191 0.635192
O O4 0.221453 0.783356 0.467735
O O5 0.805019 0.615181 0.593307
O O6 0.913044 0.762924 0.418458
O O7 0.647838 0.146534 0.287953
O O8 0.157285 0.899623 0.132525
O O9 0.180569 0.271278 0.088842
O O10 0.974757 0.005590 0.186170
O O11 0.877571 0.412736 0.867217
O O12 0.637370 0.649241 0.034062
O O13 0.352522 0.592225 0.025031
O O14 0.929316 0.249249 0.228954
#
# Coordination Sequence:
#
# PCOD8025759 Si02
#       7
#     2   2   2   2   2   2   2
#     4  12  25  43  73 105 136 180 231 288 340 406
#     4  11  25  47  72 102 142 178 232 293 330 415
#     4  11  24  44  69  96 144 186 223 289 343 410
#     4  10  25  44  74 102 139 181 237 275 352 400
#     4  10  23  46  66 103 144 181 225 292 334 423
#     4  11  26  43  70 102 139 183 236 274 355 405
#     4  11  25  42  72 101 138 183 231 279 352 400
#
# _framework density 24.256755999999999
#
# number of rings (size 3 to 8) (size 9 to 14) (size 15 to 20)
#    0.000    1.143    1.429    3.000    6.000    2.857 
#    0.000    7.857    0.000    0.000    0.000    0.000 
#    0.000    0.000    0.000    0.000    0.000    0.000 
#
# Total GULP energy -173443.437124 kJ/mol
# GULP energy per Si atom -12388.816937 kJ/mol
# Density = 2.420155 g / cm^3
# Si number density = 24.256756 Si / 1000 Ang^3
#
#
#
# Elastic Constant Matrix: (Units=GPa)
#
#
# Indices 1 2 3 4 5 6 
#
# 1 166.4475 24.3641 75.4020 10.2584 -2.5645 7.5407
# 2 24.3641 29.4869 6.8429 20.6136 -7.0428 -5.5350
# 3 75.4020 6.8429 122.1188 24.1331 -8.5758 3.2208
# 4 10.2584 20.6136 24.1331 41.6754 -14.5984 -5.9703
# 5 -2.5645 -7.0428 -8.5758 -14.5984 45.2572 2.7115
# 6 7.5407 -5.5350 3.2208 -5.9703 2.7115 26.6942
#
#
#
# Elastic Compliance Matrix: (Units=1/GPa)
#
#
# Indices 1 2 3 4 5 6 
#
# 1 0.011063 -0.013487 -0.007540 0.007779 -0.000197 -0.003252
# 2 -0.013487 0.069499 0.011399 -0.036432 -0.000062 0.008703
# 3 -0.007540 0.011399 0.014628 -0.012190 0.000188 -0.000017
# 4 0.007779 -0.036432 -0.012190 0.050483 0.008618 0.002135
# 5 -0.000197 -0.000062 0.000188 0.008618 0.024926 -0.000584
# 6 -0.003252 0.008703 -0.000017 0.002135 -0.000584 0.040723
#
#
# Mechanical properties :
#
#
# Convention : Reuss Voigt Hill
#
# Bulk Modulus (GPa) = 13.16945 59.03013 36.09979
# Shear Modulus (GPa) = 19.53969 36.82164 28.18066
#
# Velocity S-wave (km/s) = 2.84128 3.90037 3.41217
# Velocity P-wave (km/s) = 4.02551 6.68373 5.51711
#
# Compressibility (1/GPa) = 0.07593332
#
# Stress axis : x y z
#
# Youngs Moduli (GPa) = 90.39369 14.38870 68.36063
#
# Poissons Ratio (x) = 0.19406 0.51546
# Poissons Ratio (y) = 1.21911 -0.77922
# Poissons Ratio (z) = 0.68160 -0.16401
#
# Static dielectric constant tensor:
#      x y z
#    x 4.588830 -0.084390 0.129580 
#    y -0.084390 4.151490 0.074570 
#    z 0.129580 0.074570 4.508920 
# 
# 
# High freq. dielectric constant tensor:
#      x y z
#    x 1.982610 -0.009970 0.003200 
#    y -0.009970 1.940430 -0.000550 
#    z 0.003200 -0.000550 1.967270 
# 
# From -- ./inp_files/158996.got.cif
#   From: 2010.06.25/outbox.cif.g09.slc.cpg/sg2_80_cif.got.tgz:158996.got - 2010.06.27 13:26:56.
