data_PCOD8025632
_publ_section_title
;
Structure prediction by ZEFSAII (Michael W. Deem and Ramdas Pophale) SiO2 
 PCOD8025632
Probable space group: P -1
;
_chemical_formula_sum "Si O2"
_cell_formula_units_Z 14
_cell_length_a 24.874028
_cell_length_b 8.170556
_cell_length_c 11.494590
_cell_angle_alpha 140.372176
_cell_angle_beta 149.485444
_cell_angle_gamma 32.996513
_cell_volume 636.307123
_symmetry_space_group_name_H-M "P -1"
_symmetry_group_IT_number 2
_symmetry_cell_setting 'triclinic'
loop_
_space_group_symop_operation_xyz
x,y,z
-x,-y,-z
loop_
_atom_site_type_symbol
_atom_site_label
_atom_site_fract_x
_atom_site_fract_y
_atom_site_fract_z
Si Si1 0.019845 0.740501 0.981270
Si Si2 0.591795 0.612679 0.700080
Si Si3 0.271227 0.847759 0.917908
Si Si4 0.316287 0.326893 0.327477
Si Si5 0.014110 0.232390 0.574423
Si Si6 0.435986 0.308931 0.785623
Si Si7 0.840544 0.189068 0.073926
O O1 0.966899 0.551450 0.722273
O O2 0.166454 0.534041 0.173391
O O3 0.933356 0.878681 0.008883
O O4 0.000000 0.000000 0.000000
O O5 0.500000 0.500000 0.500000
O O6 0.624353 0.554559 0.591161
O O7 0.526437 0.964399 0.809089
O O8 0.723920 0.434842 0.915098
O O9 0.336599 0.497470 0.807561
O O10 0.209377 0.897475 0.955715
O O11 0.164581 0.058453 0.737139
O O12 0.359624 0.985850 0.173157
O O13 0.370859 0.308272 0.545110
O O14 0.928513 0.315227 0.344787
O O15 0.000000 0.000000 0.500000
O O16 0.500000 0.500000 0.000000
#
# Coordination Sequence:
#
# PCOD8025632 Si02
#       7
#     2   2   2   2   2   2   2
#     4  11  23  43  71 103 136 178 213 279 362 393
#     4  12  27  45  69 101 141 183 226 283 338 393
#     4  10  23  45  71 103 133 181 226 281 339 404
#     4  11  24  48  70  98 142 176 230 283 334 411
#     4   9  22  41  68 100 134 168 225 273 335 402
#     4  12  26  44  71  95 132 190 234 266 336 403
#     4  11  24  44  70 105 142 169 227 289 335 405
#
# _framework density 22.001954000000001
#
# number of rings (size 3 to 8) (size 9 to 14) (size 15 to 20)
#    0.000    1.143    2.857    2.143    2.000   12.000 
#    0.000    0.000    0.000    0.000    0.000    0.000 
#    0.000    0.000    0.000    0.000    0.000    0.000 
#
# Total GULP energy -173524.021596 kJ/mol
# GULP energy per Si atom -12394.572971 kJ/mol
# Density = 2.195188 g / cm^3
# Si number density = 22.001954 Si / 1000 Ang^3
#
#
#
# Elastic Constant Matrix: (Units=GPa)
#
#
# Indices 1 2 3 4 5 6 
#
# 1 92.3275 46.2675 16.7795 10.1077 2.5852 -15.0967
# 2 46.2675 159.3816 75.9379 11.5085 -2.8964 -16.6994
# 3 16.7795 75.9379 126.3951 18.5041 -6.0047 -8.8557
# 4 10.1077 11.5085 18.5041 41.0885 5.2298 2.4817
# 5 2.5852 -2.8964 -6.0047 5.2298 27.9298 6.0854
# 6 -15.0967 -16.6994 -8.8557 2.4817 6.0854 35.4440
#
#
#
# Elastic Compliance Matrix: (Units=1/GPa)
#
#
# Indices 1 2 3 4 5 6 
#
# 1 0.013712 -0.003855 0.001162 -0.002863 -0.001939 0.004848
# 2 -0.003855 0.010194 -0.005580 0.000533 -0.000272 0.001777
# 3 0.001162 -0.005580 0.011936 -0.004468 0.002559 0.000722
# 4 -0.002863 0.000533 -0.004468 0.027750 -0.005152 -0.003143
# 5 -0.001939 -0.000272 0.002559 -0.005152 0.038916 -0.006636
# 6 0.004848 0.001777 0.000722 -0.003143 -0.006636 0.032655
#
#
# Mechanical properties :
#
#
# Convention : Reuss Voigt Hill
#
# Bulk Modulus (GPa) = 51.81877 72.89709 62.35793
# Shear Modulus (GPa) = 31.61749 36.83375 34.22562
#
# Velocity S-wave (km/s) = 3.79493 4.09603 3.94835
# Velocity P-wave (km/s) = 6.54256 7.45480 7.01352
#
# Compressibility (1/GPa) = 0.01929803
#
# Stress axis : x y z
#
# Youngs Moduli (GPa) = 72.92902 98.09339 83.78164
#
# Poissons Ratio (x) = 0.37814 -0.09738
# Poissons Ratio (y) = 0.28113 0.46746
# Poissons Ratio (z) = -0.08477 0.54731
#
# Static dielectric constant tensor:
#      x y z
#    x 4.186900 -0.485870 -0.002010 
#    y -0.485870 4.731740 -0.047310 
#    z -0.002010 -0.047310 4.632640 
# 
# 
# High freq. dielectric constant tensor:
#      x y z
#    x 1.861000 -0.012910 0.006650 
#    y -0.012910 1.873290 -0.004140 
#    z 0.006650 -0.004140 1.882820 
# 
# From -- ./inp_files/248019.got.cif
#   From: 2010.06.25/outbox.cif.g09.slc.cpg/sg2_125_cif.got.tgz:248019.got - 2010.06.27 13:26:56.
