data_PCOD8025872
_publ_section_title
;
Structure prediction by ZEFSAII (Michael W. Deem and Ramdas Pophale) SiO2 
 PCOD8025872
Probable space group: P -1
;
_chemical_formula_sum "Si O2"
_cell_formula_units_Z 16
_cell_length_a 6.333449
_cell_length_b 17.317301
_cell_length_c 8.388006
_cell_angle_alpha 55.582523
_cell_angle_beta 109.624861
_cell_angle_gamma 117.610039
_cell_volume 669.059359
_symmetry_space_group_name_H-M "P -1"
_symmetry_group_IT_number 2
_symmetry_cell_setting 'triclinic'
loop_
_space_group_symop_operation_xyz
x,y,z
-x,-y,-z
loop_
_atom_site_type_symbol
_atom_site_label
_atom_site_fract_x
_atom_site_fract_y
_atom_site_fract_z
Si Si1 0.529330 0.658360 0.826402
Si Si2 0.946565 0.205865 0.108999
Si Si3 0.490400 0.765762 0.162569
Si Si4 0.089836 0.070337 0.088946
Si Si5 0.241066 0.926705 0.477114
Si Si6 0.439160 0.496992 0.230067
Si Si7 0.289632 0.774403 0.426591
Si Si8 0.218798 0.379829 0.596820
O O1 0.573192 0.601883 0.750057
O O2 0.383039 0.727800 0.655000
O O3 0.779491 0.721562 0.898666
O O4 0.372533 0.575964 0.010065
O O5 0.883071 0.149900 0.326295
O O6 0.922020 0.129942 0.041281
O O7 0.770619 0.266181 0.951885
O O8 0.482982 0.805058 0.296600
O O9 0.583489 0.673781 0.304077
O O10 0.652920 0.852623 0.987927
O O11 0.097342 0.000700 0.321479
O O12 0.000000 0.000000 0.000000
O O13 0.241350 0.869005 0.377619
O O14 0.500000 0.000000 0.500000
O O15 0.244937 0.456572 0.367878
O O16 0.708754 0.552099 0.305190
O O17 0.048228 0.698080 0.374836
#
# Coordination Sequence:
#
# PCOD8025872 Si02
#       8
#     2   2   2   2   2   2   2   2
#     4  11  24  46  71 106 139 189 230 298 359 413
#     4  12  27  48  73 102 149 188 233 297 356 419
#     4  12  25  47  71 102 146 192 234 289 355 421
#     4  12  27  45  73 104 140 190 244 291 346 423
#     4  12  26  46  70 107 141 189 238 292 352 416
#     4  10  23  46  71 103 142 176 250 286 349 434
#     4  12  27  45  74 103 147 190 234 292 360 420
#     4  11  24  48  70 106 140 190 233 295 353 420
#
# _framework density 23.914172000000001
#
# number of rings (size 3 to 8) (size 9 to 14) (size 15 to 20)
#    0.000    0.500    2.500    5.625    5.250    2.000 
#    9.000    0.000    0.000    0.000    0.000    0.000 
#    0.000    0.000    0.000    0.000    0.000    0.000 
#
# Total GULP energy -198377.075523 kJ/mol
# GULP energy per Si atom -12398.567220 kJ/mol
# Density = 2.385974 g / cm^3
# Si number density = 23.914172 Si / 1000 Ang^3
#
#
#
# Elastic Constant Matrix: (Units=GPa)
#
#
# Indices 1 2 3 4 5 6 
#
# 1 65.2929 3.5496 22.7514 -6.1730 7.4584 -4.3549
# 2 3.5496 93.6229 -7.0443 10.4282 -1.7093 -4.5227
# 3 22.7514 -7.0443 120.7864 -16.4886 -5.0703 -3.3123
# 4 -6.1730 10.4282 -16.4886 41.3967 -0.3319 -5.1366
# 5 7.4584 -1.7093 -5.0703 -0.3319 48.2120 10.7442
# 6 -4.3549 -4.5227 -3.3123 -5.1366 10.7442 28.2455
#
#
#
# Elastic Compliance Matrix: (Units=1/GPa)
#
#
# Indices 1 2 3 4 5 6 
#
# 1 0.017364 -0.001000 -0.003100 0.002074 -0.003931 0.004026
# 2 -0.001000 0.011107 0.000525 -0.002601 0.000345 0.001082
# 3 -0.003100 0.000525 0.009417 0.003266 0.001334 0.000797
# 4 0.002074 -0.002601 0.003266 0.027114 -0.001143 0.005652
# 5 -0.003931 0.000345 0.001334 -0.001143 0.023632 -0.009592
# 6 0.004026 0.001082 0.000797 0.005652 -0.009592 0.040968
#
#
# Mechanical properties :
#
#
# Convention : Reuss Voigt Hill
#
# Bulk Modulus (GPa) = 32.53326 35.35729 33.94528
# Shear Modulus (GPa) = 34.01408 40.93386 37.47397
#
# Velocity S-wave (km/s) = 3.77548 4.14176 3.96285
# Velocity P-wave (km/s) = 5.71309 6.13917 5.92996
#
# Compressibility (1/GPa) = 0.03073777
#
# Stress axis : x y z
#
# Youngs Moduli (GPa) = 57.59057 90.03478 106.18657
#
# Poissons Ratio (x) = 0.09003 0.32923
# Poissons Ratio (y) = 0.05759 -0.05577
# Poissons Ratio (z) = 0.17856 -0.04729
#
# Static dielectric constant tensor:
#      x y z
#    x 4.207550 0.021240 -0.277060 
#    y 0.021240 4.478880 -0.047230 
#    z -0.277060 -0.047230 4.578110 
# 
# 
# High freq. dielectric constant tensor:
#      x y z
#    x 1.924550 -0.006760 -0.008830 
#    y -0.006760 1.955040 0.001170 
#    z -0.008830 0.001170 1.980170 
# 
# From -- ./inp_files/138755.got.cif
#   From: 2010.06.25/outbox.cif.g09.slc.cpg/sg2_70_cif.got.tgz:138755.got - 2010.06.27 13:26:56.
