data_PCOD8025997
_publ_section_title
;
Structure prediction by ZEFSAII (Michael W. Deem and Ramdas Pophale) SiO2 
 PCOD8025997
Probable space group: P -1
;
_chemical_formula_sum "Si O2"
_cell_formula_units_Z 16
_cell_length_a 23.353880
_cell_length_b 15.872157
_cell_length_c 8.722973
_cell_angle_alpha 126.692979
_cell_angle_beta 145.582917
_cell_angle_gamma 28.197838
_cell_volume 755.218485
_symmetry_space_group_name_H-M "P -1"
_symmetry_group_IT_number 2
_symmetry_cell_setting 'triclinic'
loop_
_space_group_symop_operation_xyz
x,y,z
-x,-y,-z
loop_
_atom_site_type_symbol
_atom_site_label
_atom_site_fract_x
_atom_site_fract_y
_atom_site_fract_z
Si Si1 0.569868 0.051212 0.151912
Si Si2 0.976437 0.973337 0.252651
Si Si3 0.621649 0.146290 0.661475
Si Si4 0.720681 0.377533 0.984016
Si Si5 0.644209 0.427060 0.528271
Si Si6 0.761743 0.569318 0.385745
Si Si7 0.106158 0.351142 0.714975
Si Si8 0.399399 0.191599 0.415139
O O1 0.586215 0.121038 0.395953
O O2 0.782444 0.850112 0.323286
O O3 0.424892 0.225167 0.895365
O O4 0.500000 0.000000 0.000000
O O5 0.188118 0.758230 0.418718
O O6 0.000000 0.000000 0.500000
O O7 0.847467 0.982045 0.990182
O O8 0.870758 0.150231 0.101135
O O9 0.476419 0.373983 0.604529
O O10 0.578117 0.107020 0.663460
O O11 0.734491 0.388934 0.845654
O O12 0.498518 0.544632 0.722410
O O13 0.782255 0.425631 0.266750
O O14 0.738145 0.625612 0.569841
O O15 0.956474 0.450124 0.622341
O O16 0.000000 0.500000 0.500000
O O17 0.265724 0.286525 0.074496
O O18 0.500000 0.000000 0.500000
#
# Coordination Sequence:
#
# PCOD8025997 Si02
#       8
#     2   2   2   2   2   2   2   2
#     4  12  22  46  68  99 137 180 237 283 337 410
#     4  11  27  44  69 104 137 174 232 289 347 419
#     4  11  25  44  73  97 135 191 225 278 352 410
#     4  10  24  44  70 100 131 176 222 288 348 405
#     4  10  23  47  70  97 134 171 232 283 340 414
#     4  12  25  43  72 102 136 183 230 287 354 406
#     4  12  26  44  71  98 138 187 237 283 333 419
#     4  12  26  47  67 102 149 186 226 291 350 404
#
# _framework density 21.185921
#
# number of rings (size 3 to 8) (size 9 to 14) (size 15 to 20)
#    0.000    0.750    5.000    0.750    5.250    3.000 
#    0.000    0.000    0.000    0.000    0.000    0.000 
#    0.000    0.000    0.000    0.000    0.000    0.000 
#
# Total GULP energy -198498.037468 kJ/mol
# GULP energy per Si atom -12406.127342 kJ/mol
# Density = 2.113770 g / cm^3
# Si number density = 21.185921 Si / 1000 Ang^3
#
#
#
# Elastic Constant Matrix: (Units=GPa)
#
#
# Indices 1 2 3 4 5 6 
#
# 1 109.9511 38.5966 29.7713 4.3688 5.9432 -16.8946
# 2 38.5966 97.7647 26.5068 4.9986 9.6448 -25.2712
# 3 29.7713 26.5068 90.2093 6.1728 1.2383 -5.8664
# 4 4.3688 4.9986 6.1728 32.8487 -0.8139 4.9331
# 5 5.9432 9.6448 1.2383 -0.8139 31.9270 -0.6231
# 6 -16.8946 -25.2712 -5.8664 4.9331 -0.6231 47.8152
#
#
#
# Elastic Compliance Matrix: (Units=1/GPa)
#
#
# Indices 1 2 3 4 5 6 
#
# 1 0.011294 -0.003046 -0.002618 -0.000894 -0.001062 0.002138
# 2 -0.003046 0.014229 -0.002557 -0.002318 -0.003568 0.006323
# 3 -0.002618 -0.002557 0.012763 -0.001562 0.000714 -0.000540
# 4 -0.000894 -0.002318 -0.001562 0.032001 0.001645 -0.005013
# 5 -0.001062 -0.003568 0.000714 0.001645 0.032574 -0.001919
# 6 0.002138 0.006323 -0.000540 -0.005013 -0.001919 0.025437
#
#
# Mechanical properties :
#
#
# Convention : Reuss Voigt Hill
#
# Bulk Modulus (GPa) = 45.77732 54.18608 49.98170
# Shear Modulus (GPa) = 32.89004 36.05489 34.47246
#
# Velocity S-wave (km/s) = 3.94439 4.12980 4.03816
# Velocity P-wave (km/s) = 6.51142 6.95502 6.73687
#
# Compressibility (1/GPa) = 0.02184488
#
# Stress axis : x y z
#
# Youngs Moduli (GPa) = 88.53916 70.27671 78.35430
#
# Poissons Ratio (x) = 0.21407 0.20510
# Poissons Ratio (y) = 0.26970 0.20036
# Poissons Ratio (z) = 0.23176 0.17970
#
# Static dielectric constant tensor:
#      x y z
#    x 3.940380 -0.108600 0.103740 
#    y -0.108600 4.037330 0.095750 
#    z 0.103740 0.095750 4.183320 
# 
# 
# High freq. dielectric constant tensor:
#      x y z
#    x 1.839920 -0.007210 -0.000450 
#    y -0.007210 1.839970 0.002060 
#    z -0.000450 0.002060 1.833150 
# 
# From -- ./inp_files/306321.got.cif
#   From: 2010.06.25/outbox.cif.g09.slc.cpg/sg2_154_cif.got.tgz:306321.got - 2010.06.27 13:26:56.
