data_PCOD8025388
_publ_section_title
;
Structure prediction by ZEFSAII (Michael W. Deem and Ramdas Pophale) SiO2 
 PCOD8025388
Probable space group: P -1
;
_chemical_formula_sum "Si O2"
_cell_formula_units_Z 16
_cell_length_a 19.563968
_cell_length_b 8.268244
_cell_length_c 5.516076
_cell_angle_alpha 62.089478
_cell_angle_beta 55.550761
_cell_angle_gamma 63.927647
_cell_volume 631.243630
_symmetry_space_group_name_H-M "P -1"
_symmetry_group_IT_number 2
_symmetry_cell_setting 'triclinic'
loop_
_space_group_symop_operation_xyz
x,y,z
-x,-y,-z
loop_
_atom_site_type_symbol
_atom_site_label
_atom_site_fract_x
_atom_site_fract_y
_atom_site_fract_z
Si Si1 0.231818 0.589730 0.692008
Si Si2 0.099226 0.798725 0.152222
Si Si3 0.079824 0.177308 0.705732
Si Si4 0.229467 0.986091 0.260798
Si Si5 0.092166 0.512217 0.727139
Si Si6 0.393919 0.355699 0.338734
Si Si7 0.553293 0.358781 0.301493
Si Si8 0.321730 0.022025 0.554138
O O1 0.240249 0.761992 0.379737
O O2 0.165412 0.471979 0.809110
O O3 0.323091 0.439331 0.631630
O O4 0.193035 0.678944 0.961912
O O5 0.085602 0.725188 0.497200
O O6 0.022637 0.760521 0.163758
O O7 0.099438 0.018606 0.992046
O O8 0.118167 0.353900 0.577661
O O9 0.128631 0.089401 0.423340
O O10 0.273638 0.043567 0.377283
O O11 0.263188 0.047596 0.896241
O O12 0.000000 0.500000 0.000000
O O13 0.487375 0.281658 0.318062
O O14 0.373396 0.184274 0.349591
O O15 0.390638 0.530455 0.043651
O O16 0.500000 0.500000 0.500000
O O17 0.613901 0.183012 0.436963
#
# Coordination Sequence:
#
# PCOD8025388 Si02
#       8
#     2   2   2   2   2   2   2   2
#     4  11  24  46  69 103 145 190 246 300 373 426
#     4  10  24  43  65  95 145 185 242 305 358 435
#     4  10  23  45  65 103 137 193 243 296 370 418
#     4  11  27  47  75 108 151 196 247 308 362 440
#     4  12  25  41  69 103 137 193 245 307 363 435
#     4  11  26  45  76 112 142 199 240 303 366 441
#     4  11  26  48  77 109 154 189 240 303 371 443
#     4  12  27  50  76 112 150 193 247 300 369 441
#
# _framework density 25.346789000000001
#
# number of rings (size 3 to 8) (size 9 to 14) (size 15 to 20)
#    0.000    1.000    2.500    2.250    8.750    3.000 
#    0.000    0.000    0.000    0.000    0.000    0.000 
#    0.000    0.000    0.000    0.000    0.000    0.000 
#
# Total GULP energy -198337.288545 kJ/mol
# GULP energy per Si atom -12396.080534 kJ/mol
# Density = 2.528910 g / cm^3
# Si number density = 25.346789 Si / 1000 Ang^3
#
#
#
# Elastic Constant Matrix: (Units=GPa)
#
#
# Indices 1 2 3 4 5 6 
#
# 1 78.4572 18.0961 41.0963 -7.4198 -3.8603 20.6474
# 2 18.0961 93.5716 21.3021 11.0557 -9.6423 -3.1988
# 3 41.0963 21.3021 106.4207 11.6454 -9.0112 -6.2996
# 4 -7.4198 11.0557 11.6454 34.3992 6.0847 -9.2009
# 5 -3.8603 -9.6423 -9.0112 6.0847 31.1647 0.4092
# 6 20.6474 -3.1988 -6.2996 -9.2009 0.4092 41.0427
#
#
#
# Elastic Compliance Matrix: (Units=1/GPa)
#
#
# Indices 1 2 3 4 5 6 
#
# 1 0.021871 -0.003470 -0.009294 0.006347 -0.002143 -0.011255
# 2 -0.003470 0.012493 -0.000146 -0.005082 0.004366 0.001514
# 3 -0.009294 -0.000146 0.014347 -0.006072 0.004066 0.005464
# 4 0.006347 -0.005082 -0.006072 0.036890 -0.009795 0.003846
# 5 -0.002143 0.004366 0.004066 -0.009795 0.036268 -0.000515
# 6 -0.011255 0.001514 0.005464 0.003846 -0.000515 0.031851
#
#
# Mechanical properties :
#
#
# Convention : Reuss Voigt Hill
#
# Bulk Modulus (GPa) = 43.68037 48.82651 46.25344
# Shear Modulus (GPa) = 26.71390 34.51833 30.61611
#
# Velocity S-wave (km/s) = 3.24996 3.69432 3.47924
# Velocity P-wave (km/s) = 5.59942 6.12393 5.86754
#
# Compressibility (1/GPa) = 0.02289358
#
# Stress axis : x y z
#
# Youngs Moduli (GPa) = 45.72264 80.04387 69.70105
#
# Poissons Ratio (x) = 0.27771 0.64778
# Poissons Ratio (y) = 0.15863 0.01015
# Poissons Ratio (z) = 0.42493 0.01165
#
# Static dielectric constant tensor:
#      x y z
#    x 4.675840 0.135400 -0.350430 
#    y 0.135400 5.016960 -0.100060 
#    z -0.350430 -0.100060 4.533540 
# 
# 
# High freq. dielectric constant tensor:
#      x y z
#    x 2.007490 0.004900 -0.021410 
#    y 0.004900 2.021310 0.000280 
#    z -0.021410 0.000280 2.006950 
# 
# From -- ./inp_files/52895.got.cif
#   From: 2010.06.25/outbox.cif.g09.slc.cpg/sg2_27_cif.got.tgz:52895.got - 2010.06.27 13:26:56.
