data_PCOD8025577
_publ_section_title
;
Structure prediction by ZEFSAII (Michael W. Deem and Ramdas Pophale) SiO2 
 PCOD8025577
Probable space group: P -1
;
_chemical_formula_sum "Si O2"
_cell_formula_units_Z 16
_cell_length_a 11.065161
_cell_length_b 15.171399
_cell_length_c 8.754306
_cell_angle_alpha 64.618185
_cell_angle_beta 75.720519
_cell_angle_gamma 128.373087
_cell_volume 718.146309
_symmetry_space_group_name_H-M "P -1"
_symmetry_group_IT_number 2
_symmetry_cell_setting 'triclinic'
loop_
_space_group_symop_operation_xyz
x,y,z
-x,-y,-z
loop_
_atom_site_type_symbol
_atom_site_label
_atom_site_fract_x
_atom_site_fract_y
_atom_site_fract_z
Si Si1 0.923328 0.646810 0.872889
Si Si2 0.684758 0.130269 0.216292
Si Si3 0.324347 0.061601 0.834799
Si Si4 0.662171 0.239497 0.851892
Si Si5 0.123297 0.977727 0.486432
Si Si6 0.960133 0.833758 0.334541
Si Si7 0.566754 0.726906 0.604051
Si Si8 0.068714 0.401909 0.437113
O O1 0.971849 0.628297 0.709048
O O2 0.079175 0.688490 0.912416
O O3 0.980673 0.799601 0.745450
O O4 0.665657 0.471077 0.129710
O O5 0.500000 0.000000 0.500000
O O6 0.727551 0.055003 0.182483
O O7 0.607244 0.160221 0.095125
O O8 0.452599 0.097913 0.910477
O O9 0.460522 0.234851 0.577209
O O10 0.085923 0.948054 0.055424
O O11 0.727066 0.394317 0.738867
O O12 0.851766 0.298727 0.668665
O O13 0.151685 0.962739 0.312754
O O14 0.353468 0.145702 0.382578
O O15 0.000000 0.000000 0.500000
O O16 0.748567 0.761006 0.497212
O O17 0.869481 0.664811 0.470015
#
# Coordination Sequence:
#
# PCOD8025577 Si02
#       8
#     2   2   2   2   2   2   2   2
#     4  11  25  44  71 106 139 181 233 293 346 414
#     4  12  27  45  73 101 139 181 238 294 350 414
#     4  12  25  43  72  98 143 187 232 284 356 414
#     4  11  26  45  68 101 136 184 231 289 355 415
#     4   9  21  43  70  97 138 181 232 282 343 403
#     4  10  23  45  70 100 139 188 233 285 350 416
#     4  11  25  45  70 106 144 184 236 285 349 417
#     4  10  24  44  69  98 142 173 236 286 353 412
#
# _framework density 22.279582999999999
#
# number of rings (size 3 to 8) (size 9 to 14) (size 15 to 20)
#    0.000    1.250    2.500    1.500   10.500    5.000 
#    2.250    1.250    0.000    0.000    0.000    0.000 
#    0.000    0.000    0.000    0.000    0.000    0.000 
#
# Total GULP energy -198359.154467 kJ/mol
# GULP energy per Si atom -12397.447154 kJ/mol
# Density = 2.222887 g / cm^3
# Si number density = 22.279583 Si / 1000 Ang^3
#
#
#
# Elastic Constant Matrix: (Units=GPa)
#
#
# Indices 1 2 3 4 5 6 
#
# 1 54.6511 31.4778 25.6936 7.2493 11.2885 8.1626
# 2 31.4778 108.8219 58.8355 1.2813 -5.0390 1.1079
# 3 25.6936 58.8355 141.1231 6.1035 2.6003 4.4687
# 4 7.2493 1.2813 6.1035 35.6565 2.6339 2.4553
# 5 11.2885 -5.0390 2.6003 2.6339 33.3931 -0.4690
# 6 8.1626 1.1079 4.4687 2.4553 -0.4690 41.4263
#
#
#
# Elastic Compliance Matrix: (Units=1/GPa)
#
#
# Indices 1 2 3 4 5 6 
#
# 1 0.026290 -0.007278 -0.001259 -0.003829 -0.009652 -0.004732
# 2 -0.007278 0.014043 -0.004725 0.001318 0.004865 0.001545
# 3 -0.001259 -0.004725 0.009367 -0.001068 -0.000941 -0.000583
# 4 -0.003829 0.001318 -0.001068 0.029075 -0.000729 -0.000897
# 5 -0.009652 0.004865 -0.000941 -0.000729 0.034106 0.002303
# 6 -0.004732 0.001545 -0.000583 -0.000897 0.002303 0.025173
#
#
# Mechanical properties :
#
#
# Convention : Reuss Voigt Hill
#
# Bulk Modulus (GPa) = 43.14729 59.62333 51.38531
# Shear Modulus (GPa) = 29.01852 34.66778 31.84315
#
# Velocity S-wave (km/s) = 3.61289 3.94894 3.78465
# Velocity P-wave (km/s) = 6.06732 6.90012 6.49708
#
# Compressibility (1/GPa) = 0.02317643
#
# Stress axis : x y z
#
# Youngs Moduli (GPa) = 38.03747 71.20853 106.75448
#
# Poissons Ratio (x) = 0.51822 0.13442
# Poissons Ratio (y) = 0.27682 0.50445
# Poissons Ratio (z) = 0.04789 0.33649
#
# Static dielectric constant tensor:
#      x y z
#    x 4.079760 -0.005840 0.286180 
#    y -0.005840 4.537350 0.220860 
#    z 0.286180 0.220860 4.046560 
# 
# 
# High freq. dielectric constant tensor:
#      x y z
#    x 1.874160 -0.007910 0.008270 
#    y -0.007910 1.891590 0.012580 
#    z 0.008270 0.012580 1.879500 
# 
# From -- ./inp_files/272475.got.cif
#   From: 2010.06.25/outbox.cif.g09.slc.cpg/sg2_137_cif.got.tgz:272475.got - 2010.06.27 13:26:56.
