data_PCOD8025606
_publ_section_title
;
Structure prediction by ZEFSAII (Michael W. Deem and Ramdas Pophale) SiO2 
 PCOD8025606
Probable space group: P -1
;
_chemical_formula_sum "Si O2"
_cell_formula_units_Z 14
_cell_length_a 8.296523
_cell_length_b 21.665078
_cell_length_c 9.812101
_cell_angle_alpha 151.587880
_cell_angle_beta 115.297923
_cell_angle_gamma 52.297357
_cell_volume 634.664482
_symmetry_space_group_name_H-M "P -1"
_symmetry_group_IT_number 2
_symmetry_cell_setting 'triclinic'
loop_
_space_group_symop_operation_xyz
x,y,z
-x,-y,-z
loop_
_atom_site_type_symbol
_atom_site_label
_atom_site_fract_x
_atom_site_fract_y
_atom_site_fract_z
Si Si1 0.652477 0.775860 0.211378
Si Si2 0.330785 0.279718 0.596002
Si Si3 0.817733 0.138123 0.461488
Si Si4 0.296138 0.573223 0.162902
Si Si5 0.310547 0.535649 0.406652
Si Si6 0.871077 0.835887 0.897734
Si Si7 0.801822 0.929222 0.364161
O O1 0.731019 0.770796 0.385554
O O2 0.784418 0.812305 0.228330
O O3 0.397678 0.897454 0.341208
O O4 0.715269 0.606459 0.866406
O O5 0.574897 0.228901 0.601891
O O6 0.294474 0.197021 0.297373
O O7 0.193940 0.469480 0.900215
O O8 0.855449 0.244833 0.580088
O O9 0.974807 0.088964 0.553523
O O10 0.868148 0.978481 0.099612
O O11 0.355171 0.565922 0.328266
O O12 0.500000 0.500000 0.000000
O O13 0.500000 0.500000 0.500000
O O14 0.102562 0.684554 0.680907
O O15 0.796270 0.883635 0.118486
#
# Coordination Sequence:
#
# PCOD8025606 Si02
#       7
#     2   2   2   2   2   2   2
#     4  10  24  46  68  97 140 180 228 271 347 403
#     4  10  23  45  70  96 137 179 224 282 333 407
#     4  11  23  43  72  98 136 182 227 271 340 410
#     4   9  23  43  69  93 135 184 217 265 344 404
#     4  11  26  44  67 104 140 175 227 288 333 403
#     4  12  26  41  73 103 135 174 232 285 339 383
#     4  11  25  43  73  99 133 187 223 280 336 406
#
# _framework density 22.058899
#
# number of rings (size 3 to 8) (size 9 to 14) (size 15 to 20)
#    0.000    1.429    1.429    1.714   10.000    4.571 
#    2.571    0.000    0.000    0.000    0.000    0.000 
#    0.000    0.000    0.000    0.000    0.000    0.000 
#
# Total GULP energy -173534.880375 kJ/mol
# GULP energy per Si atom -12395.348598 kJ/mol
# Density = 2.200869 g / cm^3
# Si number density = 22.058899 Si / 1000 Ang^3
#
#
#
# Elastic Constant Matrix: (Units=GPa)
#
#
# Indices 1 2 3 4 5 6 
#
# 1 70.3708 38.9133 41.1199 3.6102 3.4491 -1.8781
# 2 38.9133 113.8460 69.9944 5.6314 25.3127 13.1220
# 3 41.1199 69.9944 140.8843 10.5670 16.2243 9.8337
# 4 3.6102 5.6314 10.5670 51.1185 -2.8056 10.4978
# 5 3.4491 25.3127 16.2243 -2.8056 35.4344 2.7352
# 6 -1.8781 13.1220 9.8337 10.4978 2.7352 37.9643
#
#
#
# Elastic Compliance Matrix: (Units=1/GPa)
#
#
# Indices 1 2 3 4 5 6 
#
# 1 0.019299 -0.005634 -0.003437 -0.000609 0.003385 0.003717
# 2 -0.005634 0.016196 -0.005168 0.000034 -0.008348 -0.003946
# 3 -0.003437 -0.005168 0.010942 -0.001348 -0.001031 -0.000771
# 4 -0.000609 0.000034 -0.001348 0.021215 0.002777 -0.005759
# 5 0.003385 -0.008348 -0.001031 0.002777 0.034542 0.000064
# 6 0.003717 -0.003946 -0.000771 -0.005759 0.000064 0.029676
#
#
# Mechanical properties :
#
#
# Convention : Reuss Voigt Hill
#
# Bulk Modulus (GPa) = 55.68233 69.46183 62.57208
# Shear Modulus (GPa) = 30.05963 36.57500 33.31731
#
# Velocity S-wave (km/s) = 3.69548 4.07635 3.89058
# Velocity P-wave (km/s) = 6.59592 7.32892 6.97206
#
# Compressibility (1/GPa) = 0.01795902
#
# Stress axis : x y z
#
# Youngs Moduli (GPa) = 51.81611 61.74308 91.38721
#
# Poissons Ratio (x) = 0.34787 0.31411
# Poissons Ratio (y) = 0.29194 0.47228
# Poissons Ratio (z) = 0.17810 0.31908
#
# Static dielectric constant tensor:
#      x y z
#    x 3.858460 0.208840 0.246240 
#    y 0.208840 4.524790 0.382250 
#    z 0.246240 0.382250 4.379560 
# 
# 
# High freq. dielectric constant tensor:
#      x y z
#    x 1.864310 0.004860 0.007010 
#    y 0.004860 1.882930 0.020380 
#    z 0.007010 0.020380 1.874530 
# 
# From -- ./inp_files/224352.got.cif
#   From: 2010.06.25/outbox.cif.g09.slc.cpg/sg2_113_cif.got.tgz:224352.got - 2010.06.27 13:26:56.
