data_PCOD8025673
_publ_section_title
;
Structure prediction by ZEFSAII (Michael W. Deem and Ramdas Pophale) SiO2 
 PCOD8025673
Probable space group: P -1
;
_chemical_formula_sum "Si O2"
_cell_formula_units_Z 16
_cell_length_a 9.100770
_cell_length_b 9.619387
_cell_length_c 14.923797
_cell_angle_alpha 113.688082
_cell_angle_beta 141.122350
_cell_angle_gamma 63.270410
_cell_volume 729.289297
_symmetry_space_group_name_H-M "P -1"
_symmetry_group_IT_number 2
_symmetry_cell_setting 'triclinic'
loop_
_space_group_symop_operation_xyz
x,y,z
-x,-y,-z
loop_
_atom_site_type_symbol
_atom_site_label
_atom_site_fract_x
_atom_site_fract_y
_atom_site_fract_z
Si Si1 0.890843 0.602617 0.391767
Si Si2 0.440500 0.502777 0.076249
Si Si3 0.616283 0.793302 0.924218
Si Si4 0.102169 0.368014 0.154628
Si Si5 0.145830 0.651570 0.355348
Si Si6 0.848082 0.956167 0.218536
Si Si7 0.588873 0.795116 0.589221
Si Si8 0.745327 0.885479 0.508685
O O1 0.632786 0.571812 0.238847
O O2 0.857411 0.783489 0.450269
O O3 0.000000 0.500000 0.500000
O O4 0.079872 0.563824 0.389441
O O5 0.452114 0.326719 0.068364
O O6 0.500000 0.500000 0.000000
O O7 0.177639 0.617515 0.996802
O O8 0.740483 0.699077 0.873640
O O9 0.376229 0.919720 0.812068
O O10 0.787315 0.892349 0.076946
O O11 0.139493 0.541139 0.238069
O O12 0.183197 0.255201 0.249439
O O13 0.409101 0.684239 0.498218
O O14 0.937289 0.810324 0.289715
O O15 0.064369 0.039955 0.328602
O O16 0.659674 0.774528 0.512637
O O17 0.470517 0.978033 0.596432
#
# Coordination Sequence:
#
# PCOD8025673 Si02
#       8
#     2   2   2   2   2   2   2   2
#     4  12  26  43  75 105 134 189 238 287 345 419
#     4  12  26  47  70 102 148 179 235 292 350 420
#     4  11  25  43  72 101 136 189 231 285 359 415
#     4  12  25  43  70 105 137 187 233 290 353 417
#     4  11  24  45  70 102 143 181 236 292 344 420
#     4  10  23  45  72  97 142 181 236 286 350 418
#     4  10  25  43  68 103 144 183 232 295 347 414
#     4  10  24  45  69  99 144 183 236 286 349 412
#
# _framework density 21.939167999999999
#
# number of rings (size 3 to 8) (size 9 to 14) (size 15 to 20)
#    0.000    1.000    2.500    2.250    8.750    3.000 
#    0.000    1.250    0.000    0.000    0.000    0.000 
#    0.000    0.000    0.000    0.000    0.000    0.000 
#
# Total GULP energy -198456.230095 kJ/mol
# GULP energy per Si atom -12403.514381 kJ/mol
# Density = 2.188923 g / cm^3
# Si number density = 21.939168 Si / 1000 Ang^3
#
#
#
# Elastic Constant Matrix: (Units=GPa)
#
#
# Indices 1 2 3 4 5 6 
#
# 1 116.8974 50.4667 42.4479 7.5098 -6.8341 -9.8041
# 2 50.4667 111.8779 57.2413 0.1939 -2.5360 -3.6785
# 3 42.4479 57.2413 131.9430 -5.2649 8.3650 3.6001
# 4 7.5098 0.1939 -5.2649 36.5006 -3.2457 -4.1677
# 5 -6.8341 -2.5360 8.3650 -3.2457 30.3342 5.7421
# 6 -9.8041 -3.6785 3.6001 -4.1677 5.7421 34.4812
#
#
#
# Elastic Compliance Matrix: (Units=1/GPa)
#
#
# Indices 1 2 3 4 5 6 
#
# 1 0.011557 -0.003887 -0.002328 -0.002213 0.002215 0.002478
# 2 -0.003887 0.013043 -0.004500 0.000268 0.001379 0.000559
# 3 -0.002328 -0.004500 0.010597 0.001561 -0.003373 -0.001498
# 4 -0.002213 0.000268 0.001561 0.028500 0.001689 0.002400
# 5 0.002215 0.001379 -0.003373 0.001689 0.035560 -0.004589
# 6 0.002478 0.000559 -0.001498 0.002400 -0.004589 0.030976
#
#
# Mechanical properties :
#
#
# Convention : Reuss Voigt Hill
#
# Bulk Modulus (GPa) = 72.63395 73.44779 73.04087
# Shear Modulus (GPa) = 31.99931 34.30070 33.15000
#
# Velocity S-wave (km/s) = 3.82324 3.95833 3.89137
# Velocity P-wave (km/s) = 7.25730 7.37847 7.31813
#
# Compressibility (1/GPa) = 0.01376767
#
# Stress axis : x y z
#
# Youngs Moduli (GPa) = 86.52436 76.66878 94.36277
#
# Poissons Ratio (x) = 0.29798 0.21972
# Poissons Ratio (y) = 0.33628 0.42465
# Poissons Ratio (z) = 0.20147 0.34502
#
# Static dielectric constant tensor:
#      x y z
#    x 3.904920 -0.129070 0.129820 
#    y -0.129070 4.134010 -0.228070 
#    z 0.129820 -0.228070 3.913150 
# 
# 
# High freq. dielectric constant tensor:
#      x y z
#    x 1.855470 -0.008410 0.004810 
#    y -0.008410 1.879100 -0.010070 
#    z 0.004810 -0.010070 1.868790 
# 
# From -- ./inp_files/299082.got.cif
#   From: 2010.06.25/outbox.cif.g09.slc.cpg/sg2_150_cif.got.tgz:299082.got - 2010.06.27 13:26:56.
