data_PCOD8025972
_publ_section_title
;
Structure prediction by ZEFSAII (Michael W. Deem and Ramdas Pophale) SiO2 
 PCOD8025972
Probable space group: P -1
;
_chemical_formula_sum "Si O2"
_cell_formula_units_Z 16
_cell_length_a 20.269821
_cell_length_b 9.311688
_cell_length_c 12.259741
_cell_angle_alpha 74.541197
_cell_angle_beta 37.761821
_cell_angle_gamma 44.725292
_cell_volume 726.599701
_symmetry_space_group_name_H-M "P -1"
_symmetry_group_IT_number 2
_symmetry_cell_setting 'triclinic'
loop_
_space_group_symop_operation_xyz
x,y,z
-x,-y,-z
loop_
_atom_site_type_symbol
_atom_site_label
_atom_site_fract_x
_atom_site_fract_y
_atom_site_fract_z
Si Si1 0.112079 0.113144 0.565654
Si Si2 0.276525 0.420274 0.160166
Si Si3 0.870593 0.223676 0.026683
Si Si4 0.262788 0.897547 0.921482
Si Si5 0.409268 0.273242 0.565008
Si Si6 0.896730 0.509040 0.222432
Si Si7 0.668409 0.851826 0.664111
Si Si8 0.482802 0.489070 0.899904
O O1 0.212853 0.155412 0.431414
O O2 0.952513 0.310192 0.636573
O O3 0.286409 0.787736 0.384921
O O4 0.012772 0.178220 0.793969
O O5 0.274960 0.361604 0.298093
O O6 0.353062 0.496567 0.046304
O O7 0.424961 0.156479 0.935660
O O8 0.786021 0.198190 0.059274
O O9 0.682850 0.549110 0.240513
O O10 0.000000 0.000000 0.000000
O O11 0.418291 0.811425 0.666921
O O12 0.362982 0.757185 0.937038
O O13 0.066272 0.229542 0.129426
O O14 0.221700 0.485900 0.683570
O O15 0.500000 0.000000 0.500000
O O16 0.736964 0.770128 0.463631
O O17 0.000000 0.500000 0.000000
O O18 0.500000 0.500000 0.000000
#
# Coordination Sequence:
#
# PCOD8025972 Si02
#       8
#     2   2   2   2   2   2   2   2
#     4  11  24  44  71 100 136 189 241 285 367 424
#     4  10  23  47  68 102 135 190 240 295 363 422
#     4  12  25  47  73 100 146 191 238 296 361 445
#     4  12  27  46  71 105 145 192 240 293 370 429
#     4  12  27  44  71 106 145 189 242 296 360 432
#     4  12  26  46  70 111 144 186 237 297 371 435
#     4  10  25  42  71 100 142 183 241 298 356 435
#     4  11  27  45  69 104 140 182 243 299 356 433
#
# _framework density 22.020377
#
# number of rings (size 3 to 8) (size 9 to 14) (size 15 to 20)
#    0.000    0.750    3.750    2.250    5.250    0.500 
#    0.000    0.000    0.000    0.000    0.000    0.000 
#    0.000    0.000    0.000    0.000    0.000    0.000 
#
# Total GULP energy -198307.623482 kJ/mol
# GULP energy per Si atom -12394.226468 kJ/mol
# Density = 2.197026 g / cm^3
# Si number density = 22.020377 Si / 1000 Ang^3
#
#
#
# Elastic Constant Matrix: (Units=GPa)
#
#
# Indices 1 2 3 4 5 6 
#
# 1 72.5981 13.2222 20.3188 16.7976 5.2583 -11.5618
# 2 13.2222 110.6476 29.2840 14.7790 5.1418 -13.3643
# 3 20.3188 29.2840 109.6590 2.0219 1.3619 -0.1968
# 4 16.7976 14.7790 2.0219 33.4662 -7.2066 -0.1141
# 5 5.2583 5.1418 1.3619 -7.2066 44.7053 3.9319
# 6 -11.5618 -13.3643 -0.1968 -0.1141 3.9319 32.9635
#
#
#
# Elastic Compliance Matrix: (Units=1/GPa)
#
#
# Indices 1 2 3 4 5 6 
#
# 1 0.018497 0.001244 -0.003494 -0.010582 -0.004576 0.007481
# 2 0.001244 0.011277 -0.003087 -0.005999 -0.002783 0.005301
# 3 -0.003494 -0.003087 0.010523 0.002711 0.001106 -0.002537
# 4 -0.010582 -0.005999 0.002711 0.039559 0.008849 -0.007046
# 5 -0.004576 -0.002783 0.001106 0.008849 0.025120 -0.005692
# 6 0.007481 0.005301 -0.002537 -0.007046 -0.005692 0.035749
#
#
# Mechanical properties :
#
#
# Convention : Reuss Voigt Hill
#
# Bulk Modulus (GPa) = 33.75864 46.50608 40.13236
# Shear Modulus (GPa) = 31.00299 37.56566 34.28433
#
# Velocity S-wave (km/s) = 3.75630 4.13480 3.95008
# Velocity P-wave (km/s) = 5.84611 6.63029 6.25051
#
# Compressibility (1/GPa) = 0.02962205
#
# Stress axis : x y z
#
# Youngs Moduli (GPa) = 54.06230 88.67621 95.03171
#
# Poissons Ratio (x) = -0.11032 0.33206
# Poissons Ratio (y) = -0.06726 0.29339
# Poissons Ratio (z) = 0.18890 0.27377
#
# Static dielectric constant tensor:
#      x y z
#    x 3.779530 -0.197710 -0.186000 
#    y -0.197710 3.802530 -0.072920 
#    z -0.186000 -0.072920 4.219060 
# 
# 
# High freq. dielectric constant tensor:
#      x y z
#    x 1.859800 -0.002900 -0.010640 
#    y -0.002900 1.876540 0.002560 
#    z -0.010640 0.002560 1.887000 
# 
# From -- ./inp_files/462100.got.cif
#   From: 2010.06.25/outbox.cif.g09.slc.cpg/sg2_232_cif.got.tgz:462100.got - 2010.06.27 13:26:56.
