data_PCOD8025830
_publ_section_title
;
Structure prediction by ZEFSAII (Michael W. Deem and Ramdas Pophale) SiO2 
 PCOD8025830
Probable space group: P -1
;
_chemical_formula_sum "Si O2"
_cell_formula_units_Z 14
_cell_length_a 14.059101
_cell_length_b 10.720622
_cell_length_c 8.858603
_cell_angle_alpha 93.975267
_cell_angle_beta 128.809870
_cell_angle_gamma 125.015990
_cell_volume 630.908222
_symmetry_space_group_name_H-M "P -1"
_symmetry_group_IT_number 2
_symmetry_cell_setting 'triclinic'
loop_
_space_group_symop_operation_xyz
x,y,z
-x,-y,-z
loop_
_atom_site_type_symbol
_atom_site_label
_atom_site_fract_x
_atom_site_fract_y
_atom_site_fract_z
Si Si1 0.224572 0.473475 0.392774
Si Si2 0.141505 0.708155 0.820355
Si Si3 0.081599 0.712204 0.415926
Si Si4 0.694040 0.616338 0.799411
Si Si5 0.415588 0.403584 0.745133
Si Si6 0.563770 0.093406 0.405181
Si Si7 0.983001 0.053206 0.648129
O O1 0.173953 0.369951 0.170199
O O2 0.363709 0.496657 0.632621
O O3 0.348505 0.696821 0.495615
O O4 0.019359 0.328459 0.267403
O O5 0.144556 0.718136 0.644345
O O6 0.092486 0.529322 0.822094
O O7 0.363632 0.930486 0.096406
O O8 0.268908 0.860911 0.498651
O O9 0.994605 0.780199 0.337365
O O10 0.500000 0.500000 0.500000
O O11 0.592002 0.475449 0.835913
O O12 0.849070 0.846065 0.047636
O O13 0.232253 0.160265 0.523183
O O14 0.500000 0.500000 0.000000
O O15 0.500000 0.000000 0.500000
O O16 0.000000 0.000000 0.500000
#
# Coordination Sequence:
#
# PCOD8025830 Si02
#       7
#     2   2   2   2   2   2   2
#     4  10  25  43  68 102 138 182 230 289 352 421
#     4  10  23  46  69  97 140 177 229 295 345 408
#     4  10  25  43  69 103 135 179 234 287 345 415
#     4  10  25  44  65 102 144 180 232 284 351 417
#     4  11  24  43  68 102 141 184 233 290 345 417
#     4  11  26  43  70 101 136 186 230 282 354 417
#     4  12  25  42  73 104 136 187 235 282 348 422
#
# _framework density 22.190231000000001
#
# number of rings (size 3 to 8) (size 9 to 14) (size 15 to 20)
#    0.000    1.429    1.429    1.286    8.000    5.714 
#    0.000    0.000    0.000    0.000    0.000    0.000 
#    0.000    0.000    0.000    0.000    0.000    0.000 
#
# Total GULP energy -173433.798814 kJ/mol
# GULP energy per Si atom -12388.128487 kJ/mol
# Density = 2.213972 g / cm^3
# Si number density = 22.190231 Si / 1000 Ang^3
#
#
#
# Elastic Constant Matrix: (Units=GPa)
#
#
# Indices 1 2 3 4 5 6 
#
# 1 139.8091 41.6146 34.2313 0.2849 -18.0748 18.0070
# 2 41.6146 92.3505 24.4674 1.6202 -1.4882 10.9086
# 3 34.2313 24.4674 152.3181 14.6789 -15.5847 8.0935
# 4 0.2849 1.6202 14.6789 31.7022 6.5177 4.1650
# 5 -18.0748 -1.4882 -15.5847 6.5177 33.3349 -2.5810
# 6 18.0070 10.9086 8.0935 4.1650 -2.5810 44.7999
#
#
#
# Elastic Compliance Matrix: (Units=1/GPa)
#
#
# Indices 1 2 3 4 5 6 
#
# 1 0.009321 -0.003590 -0.000950 -0.000014 0.004262 -0.002454
# 2 -0.003590 0.012989 -0.001506 0.000766 -0.002348 -0.001654
# 3 -0.000950 -0.001506 0.007844 -0.004350 0.003932 -0.000038
# 4 -0.000014 0.000766 -0.004350 0.035853 -0.009270 -0.003262
# 5 0.004262 -0.002348 0.003932 -0.009270 0.035939 0.001081
# 6 -0.002454 -0.001654 -0.000038 -0.003262 0.001081 0.024083
#
#
# Mechanical properties :
#
#
# Convention : Reuss Voigt Hill
#
# Bulk Modulus (GPa) = 55.36334 65.01158 60.18746
# Shear Modulus (GPa) = 34.68805 40.91168 37.79986
#
# Velocity S-wave (km/s) = 3.95804 4.29847 4.13176
# Velocity P-wave (km/s) = 6.77434 7.34825 7.06712
#
# Compressibility (1/GPa) = 0.01806249
#
# Stress axis : x y z
#
# Youngs Moduli (GPa) = 107.28670 76.98853 127.48199
#
# Poissons Ratio (x) = 0.27635 0.12114
# Poissons Ratio (y) = 0.38511 0.19198
# Poissons Ratio (z) = 0.10195 0.11594
#
# Static dielectric constant tensor:
#      x y z
#    x 4.589540 0.383460 -0.360240 
#    y 0.383460 4.116130 0.121910 
#    z -0.360240 0.121910 4.444260 
# 
# 
# High freq. dielectric constant tensor:
#      x y z
#    x 1.886300 0.025060 -0.007500 
#    y 0.025060 1.869690 0.005330 
#    z -0.007500 0.005330 1.888980 
# 
# From -- ./inp_files/305409.got.cif
#   From: 2010.06.25/outbox.cif.g09.slc.cpg/sg2_153_cif.got.tgz:305409.got - 2010.06.27 13:26:56.
