data_PCOD8025733
_publ_section_title
;
Structure prediction by ZEFSAII (Michael W. Deem and Ramdas Pophale) SiO2 
 PCOD8025733
Probable space group: P -1
;
_chemical_formula_sum "Si O2"
_cell_formula_units_Z 14
_cell_length_a 22.566816
_cell_length_b 6.528212
_cell_length_c 5.190951
_cell_angle_alpha 96.628625
_cell_angle_beta 75.208060
_cell_angle_gamma 128.356260
_cell_volume 578.873925
_symmetry_space_group_name_H-M "P -1"
_symmetry_group_IT_number 2
_symmetry_cell_setting 'triclinic'
loop_
_space_group_symop_operation_xyz
x,y,z
-x,-y,-z
loop_
_atom_site_type_symbol
_atom_site_label
_atom_site_fract_x
_atom_site_fract_y
_atom_site_fract_z
Si Si1 0.418936 0.941780 0.534259
Si Si2 0.828652 0.396960 0.035848
Si Si3 0.980563 0.772889 0.660881
Si Si4 0.265085 0.134387 0.192505
Si Si5 0.581284 0.783261 0.933875
Si Si6 0.266416 0.399656 0.707371
Si Si7 0.072305 0.652969 0.750053
O O1 0.418131 0.053868 0.276876
O O2 0.500000 0.000000 0.500000
O O3 0.355314 0.629313 0.565672
O O4 0.400875 0.066562 0.796667
O O5 0.775236 0.464245 0.220241
O O6 0.846912 0.249570 0.198024
O O7 0.911610 0.680577 0.926026
O O8 0.784534 0.180705 0.826677
O O9 0.941172 0.510528 0.507717
O O10 0.064667 0.876907 0.700608
O O11 0.000000 0.000000 0.500000
O O12 0.353130 0.254300 0.179316
O O13 0.230616 0.187036 0.484284
O O14 0.260687 0.271622 0.967143
O O15 0.500000 0.500000 0.000000
O O16 0.000000 0.500000 0.000000
#
# Coordination Sequence:
#
# PCOD8025733 Si02
#       7
#     2   2   2   2   2   2   2
#     4  12  24  45  74 108 153 194 261 314 364 453
#     4  11  27  47  72 105 153 190 250 314 376 453
#     4  10  23  45  76 104 142 186 248 299 383 449
#     4  12  28  48  73 109 154 198 256 310 384 449
#     4  12  24  45  75 107 155 200 250 317 375 435
#     4  12  28  47  75 110 150 203 254 310 384 442
#     4   9  22  44  68 101 140 182 235 300 371 446
#
# _framework density 24.184882000000002
#
# number of rings (size 3 to 8) (size 9 to 14) (size 15 to 20)
#    0.000    0.857    1.429    4.286    4.000    6.857 
#    0.000    0.000    0.000    0.000    0.000    0.000 
#    0.000    0.000    0.000    0.000    0.000    0.000 
#
# Total GULP energy -173508.764375 kJ/mol
# GULP energy per Si atom -12393.483170 kJ/mol
# Density = 2.412984 g / cm^3
# Si number density = 24.184882 Si / 1000 Ang^3
#
#
#
# Elastic Constant Matrix: (Units=GPa)
#
#
# Indices 1 2 3 4 5 6 
#
# 1 191.0168 44.7276 40.8518 -6.5669 -5.5313 -18.8649
# 2 44.7276 91.3635 27.7601 -4.5349 -5.2094 -16.5292
# 3 40.8518 27.7601 110.1488 7.7532 5.9865 -15.2527
# 4 -6.5669 -4.5349 7.7532 51.6646 -9.8644 5.1176
# 5 -5.5313 -5.2094 5.9865 -9.8644 39.9810 -4.8802
# 6 -18.8649 -16.5292 -15.2527 5.1176 -4.8802 31.3552
#
#
#
# Elastic Compliance Matrix: (Units=1/GPa)
#
#
# Indices 1 2 3 4 5 6 
#
# 1 0.006356 -0.002126 -0.001692 0.000936 0.001323 0.001934
# 2 -0.002126 0.013816 -0.002224 0.001299 0.002787 0.005144
# 3 -0.001692 -0.002224 0.011056 -0.002868 -0.002488 0.003269
# 4 0.000936 0.001299 -0.002868 0.021374 0.005666 -0.002754
# 5 0.001323 0.002787 -0.002488 0.005666 0.027874 0.004469
# 6 0.001934 0.005144 0.003269 -0.002754 0.004469 0.038503
#
#
# Mechanical properties :
#
#
# Convention : Reuss Voigt Hill
#
# Bulk Modulus (GPa) = 52.23274 68.80088 60.51681
# Shear Modulus (GPa) = 36.37848 43.21277 39.79563
#
# Velocity S-wave (km/s) = 3.88259 4.23160 4.06085
# Velocity P-wave (km/s) = 6.46092 7.23774 6.86034
#
# Compressibility (1/GPa) = 0.01914508
#
# Stress axis : x y z
#
# Youngs Moduli (GPa) = 157.32713 72.38034 90.44613
#
# Poissons Ratio (x) = 0.15388 0.15300
# Poissons Ratio (y) = 0.33448 0.20116
# Poissons Ratio (z) = 0.26613 0.16098
#
# Static dielectric constant tensor:
#      x y z
#    x 5.205720 0.002220 0.034520 
#    y 0.002220 4.384820 -0.024270 
#    z 0.034520 -0.024270 4.788050 
# 
# 
# High freq. dielectric constant tensor:
#      x y z
#    x 1.982640 -0.003860 -0.001220 
#    y -0.003860 1.961210 -0.001440 
#    z -0.001220 -0.001440 1.972300 
# 
# From -- ./inp_files/102820.got.cif
#   From: 2010.06.25/outbox.cif.g09.slc.cpg/sg2_52_cif.got.tgz:102820.got - 2010.06.27 13:26:56.
