data_PCOD8025611
_publ_section_title
;
Structure prediction by ZEFSAII (Michael W. Deem and Ramdas Pophale) SiO2 
 PCOD8025611
Probable space group: P -1
;
_chemical_formula_sum "Si O2"
_cell_formula_units_Z 16
_cell_length_a 6.011959
_cell_length_b 16.992822
_cell_length_c 9.877653
_cell_angle_alpha 103.972009
_cell_angle_beta 78.126798
_cell_angle_gamma 132.311228
_cell_volume 722.838179
_symmetry_space_group_name_H-M "P -1"
_symmetry_group_IT_number 2
_symmetry_cell_setting 'triclinic'
loop_
_space_group_symop_operation_xyz
x,y,z
-x,-y,-z
loop_
_atom_site_type_symbol
_atom_site_label
_atom_site_fract_x
_atom_site_fract_y
_atom_site_fract_z
Si Si1 0.203815 0.623120 0.493306
Si Si2 0.804564 0.280795 0.211946
Si Si3 0.819718 0.287841 0.730387
Si Si4 0.827863 0.109966 0.029463
Si Si5 0.143714 0.122118 0.754330
Si Si6 0.889808 0.894322 0.763157
Si Si7 0.119334 0.209846 0.524863
Si Si8 0.859803 0.558566 0.002592
O O1 0.107451 0.675272 0.625990
O O2 0.167133 0.635044 0.344846
O O3 0.548083 0.677883 0.501092
O O4 0.000000 0.500000 0.500000
O O5 0.882584 0.206645 0.140073
O O6 0.451791 0.208843 0.208781
O O7 0.975922 0.381926 0.132644
O O8 0.487348 0.192165 0.790260
O O9 0.904672 0.228651 0.612096
O O10 0.041952 0.358119 0.855268
O O11 0.954423 0.071550 0.097363
O O12 0.001469 0.157472 0.884450
O O13 0.500000 0.000000 0.000000
O O14 0.143103 0.145517 0.607864
O O15 0.935783 0.994838 0.742292
O O16 0.024504 0.863277 0.622349
O O17 0.500000 0.500000 0.000000
O O18 0.000000 0.500000 0.000000
#
# Coordination Sequence:
#
# PCOD8025611 Si02
#       8
#     2   2   2   2   2   2   2   2
#     4  10  23  45  70  97 133 176 239 295 361 414
#     4  11  25  45  71 101 141 181 236 298 351 435
#     4  11  25  44  70  99 137 180 232 292 357 430
#     4  12  25  41  68 100 139 184 229 281 358 426
#     4  11  24  41  68  98 139 178 227 284 354 429
#     4  11  24  43  67 101 137 179 232 284 356 424
#     4  10  24  43  68  97 132 178 231 290 349 432
#     4  12  30  49  75 105 145 193 245 303 366 426
#
# _framework density 22.134969999999999
#
# number of rings (size 3 to 8) (size 9 to 14) (size 15 to 20)
#    0.000    1.000    1.250    3.750   12.250    1.000 
#    0.000    0.000    0.000    0.000    0.000    0.000 
#    0.000    0.000    0.000    0.000    0.000    0.000 
#
# Total GULP energy -198287.099828 kJ/mol
# GULP energy per Si atom -12392.943739 kJ/mol
# Density = 2.208459 g / cm^3
# Si number density = 22.134970 Si / 1000 Ang^3
#
#
#
# Elastic Constant Matrix: (Units=GPa)
#
#
# Indices 1 2 3 4 5 6 
#
# 1 85.6650 34.8634 17.9688 -0.5603 -15.6321 13.4711
# 2 34.8634 113.1627 32.3882 -14.6638 -7.5785 15.4788
# 3 17.9688 32.3882 106.4934 0.5804 -14.2469 22.9665
# 4 -0.5603 -14.6638 0.5804 37.8627 -1.6052 -3.4503
# 5 -15.6321 -7.5785 -14.2469 -1.6052 46.0418 4.8474
# 6 13.4711 15.4788 22.9665 -3.4503 4.8474 32.6809
#
#
#
# Elastic Compliance Matrix: (Units=1/GPa)
#
#
# Indices 1 2 3 4 5 6 
#
# 1 0.014943 -0.003851 0.000571 -0.001577 0.005158 -0.005669
# 2 -0.003851 0.011536 -0.002499 0.004302 0.000146 -0.001688
# 3 0.000571 -0.002499 0.012551 -0.001755 0.004524 -0.008728
# 4 -0.001577 0.004302 -0.001755 0.028349 0.000324 0.002791
# 5 0.005158 0.000146 0.004524 0.000324 0.025872 -0.009178
# 6 -0.005669 -0.001688 -0.008728 0.002791 -0.009178 0.041525
#
#
# Mechanical properties :
#
#
# Convention : Reuss Voigt Hill
#
# Bulk Modulus (GPa) = 36.39842 52.86244 44.63043
# Shear Modulus (GPa) = 32.15612 37.99046 35.07329
#
# Velocity S-wave (km/s) = 3.81560 4.14733 3.98492
# Velocity P-wave (km/s) = 5.99094 6.84599 6.43268
#
# Compressibility (1/GPa) = 0.02747372
#
# Stress axis : x y z
#
# Youngs Moduli (GPa) = 66.92068 86.68198 79.67460
#
# Poissons Ratio (x) = 0.33378 -0.04548
# Poissons Ratio (y) = 0.25769 0.19908
# Poissons Ratio (z) = -0.03820 0.21659
#
# Static dielectric constant tensor:
#      x y z
#    x 4.205240 0.066600 -0.004250 
#    y 0.066600 4.001620 -0.059820 
#    z -0.004250 -0.059820 4.535650 
# 
# 
# High freq. dielectric constant tensor:
#      x y z
#    x 1.864110 0.002250 -0.006800 
#    y 0.002250 1.876300 -0.002180 
#    z -0.006800 -0.002180 1.897960 
# 
# From -- ./inp_files/107299.got.cif
#   From: 2010.06.25/outbox.cif.g09.slc.cpg/sg2_54_cif.got.tgz:107299.got - 2010.06.27 13:26:56.
