data_PCOD8025766
_publ_section_title
;
Structure prediction by ZEFSAII (Michael W. Deem and Ramdas Pophale) SiO2 
 PCOD8025766
Probable space group: P -1
;
_chemical_formula_sum "Si O2"
_cell_formula_units_Z 12
_cell_length_a 6.682763
_cell_length_b 11.536957
_cell_length_c 12.221772
_cell_angle_alpha 39.424344
_cell_angle_beta 118.239545
_cell_angle_gamma 114.089942
_cell_volume 525.645710
_symmetry_space_group_name_H-M "P -1"
_symmetry_group_IT_number 2
_symmetry_cell_setting 'triclinic'
loop_
_space_group_symop_operation_xyz
x,y,z
-x,-y,-z
loop_
_atom_site_type_symbol
_atom_site_label
_atom_site_fract_x
_atom_site_fract_y
_atom_site_fract_z
Si Si1 0.414913 0.026659 0.139391
Si Si2 0.667331 0.772196 0.243334
Si Si3 0.589227 0.545943 0.689867
Si Si4 0.992111 0.192600 0.414607
Si Si5 0.158902 0.758161 0.430464
Si Si6 0.356096 0.625853 0.945718
O O1 0.514969 0.177146 0.141267
O O2 0.614305 0.908717 0.228826
O O3 0.230127 0.903383 0.249546
O O4 0.292815 0.117827 0.940071
O O5 0.450560 0.621226 0.285371
O O6 0.901235 0.676343 0.397016
O O7 0.753963 0.712355 0.563215
O O8 0.334035 0.603539 0.601232
O O9 0.698851 0.477754 0.879343
O O10 0.850748 0.148595 0.520627
O O11 0.875642 0.338607 0.202239
O O12 0.000000 0.000000 0.500000
O O13 0.500000 0.500000 0.000000
#
# Coordination Sequence:
#
# PCOD8025766 Si02
#       6
#     2   2   2   2   2   2
#     4  10  24  44  69  97 134 178 220 281 329 397
#     4  10  23  46  66  98 135 173 231 268 337 393
#     4  11  25  43  69  98 134 178 220 281 328 398
#     4  12  27  44  68 100 137 180 221 275 336 395
#     4  12  23  41  68 100 132 178 222 275 335 394
#     4  11  23  47  68  98 134 176 227 269 333 396
#
# _framework density 22.829065
#
# number of rings (size 3 to 8) (size 9 to 14) (size 15 to 20)
#    0.000    1.000    1.667    4.500    2.333    5.333 
#    9.000    0.000    0.000    0.000    0.000    0.000 
#    0.000    0.000    0.000    0.000    0.000    0.000 
#
# Total GULP energy -148794.614772 kJ/mol
# GULP energy per Si atom -12399.551231 kJ/mol
# Density = 2.277710 g / cm^3
# Si number density = 22.829065 Si / 1000 Ang^3
#
#
#
# Elastic Constant Matrix: (Units=GPa)
#
#
# Indices 1 2 3 4 5 6 
#
# 1 100.0014 51.2706 45.8864 1.5303 10.2253 -1.1924
# 2 51.2706 132.5790 32.5217 -13.4704 -4.0424 -10.8636
# 3 45.8864 32.5217 107.3950 8.2861 3.1759 4.0177
# 4 1.5303 -13.4704 8.2861 36.8482 2.2335 0.9262
# 5 10.2253 -4.0424 3.1759 2.2335 48.8266 -0.5140
# 6 -1.1924 -10.8636 4.0177 0.9262 -0.5140 36.9688
#
#
#
# Elastic Compliance Matrix: (Units=1/GPa)
#
#
# Indices 1 2 3 4 5 6 
#
# 1 0.015024 -0.004899 -0.004736 -0.001145 -0.003196 -0.000456
# 2 -0.004899 0.010566 -0.001602 0.004238 0.001843 0.003040
# 3 -0.004736 -0.001602 0.012121 -0.003079 0.000192 -0.001861
# 4 -0.001145 0.004238 -0.003079 0.029441 -0.000547 0.000798
# 5 -0.003196 0.001843 0.000192 -0.000547 0.021323 0.000728
# 6 -0.000456 0.003040 -0.001861 0.000798 0.000728 0.028121
#
#
# Mechanical properties :
#
#
# Convention : Reuss Voigt Hill
#
# Bulk Modulus (GPa) = 65.62519 66.59253 66.10886
# Shear Modulus (GPa) = 34.68659 38.54851 36.61755
#
# Velocity S-wave (km/s) = 3.90218 4.11368 4.00933
# Velocity P-wave (km/s) = 7.00796 7.19698 7.10310
#
# Compressibility (1/GPa) = 0.01523805
#
# Stress axis : x y z
#
# Youngs Moduli (GPa) = 66.56188 94.64175 82.49968
#
# Poissons Ratio (x) = 0.46369 0.39068
# Poissons Ratio (y) = 0.32612 0.13213
# Poissons Ratio (z) = 0.31520 0.15157
#
# Static dielectric constant tensor:
#      x y z
#    x 3.782350 -0.271740 -0.133990 
#    y -0.271740 3.893870 -0.175090 
#    z -0.133990 -0.175090 3.731500 
# 
# 
# High freq. dielectric constant tensor:
#      x y z
#    x 1.890970 -0.007420 0.004870 
#    y -0.007420 1.905120 0.014400 
#    z 0.004870 0.014400 1.923000 
# 
# From -- ./inp_files/21031.got.cif
#   From: 2010.06.25/outbox.cif.g09.slc.cpg/sg2_11_cif.got.tgz:21031.got - 2010.06.27 13:26:56.
