data_PCOD8025776
_publ_section_title
;
Structure prediction by ZEFSAII (Michael W. Deem and Ramdas Pophale) SiO2 
 PCOD8025776
Probable space group: P -1
;
_chemical_formula_sum "Si O2"
_cell_formula_units_Z 14
_cell_length_a 9.937325
_cell_length_b 7.075982
_cell_length_c 20.844583
_cell_angle_alpha 99.248219
_cell_angle_beta 145.502477
_cell_angle_gamma 60.416656
_cell_volume 625.290909
_symmetry_space_group_name_H-M "P -1"
_symmetry_group_IT_number 2
_symmetry_cell_setting 'triclinic'
loop_
_space_group_symop_operation_xyz
x,y,z
-x,-y,-z
loop_
_atom_site_type_symbol
_atom_site_label
_atom_site_fract_x
_atom_site_fract_y
_atom_site_fract_z
Si Si1 0.136228 0.186829 0.469947
Si Si2 0.373039 0.171379 0.041467
Si Si3 0.426691 0.405769 0.405877
Si Si4 0.429194 0.415307 0.645052
Si Si5 0.765973 0.614406 0.133026
Si Si6 0.699702 0.348351 0.195239
Si Si7 0.132414 0.756191 0.076983
O O1 0.361185 0.247508 0.575473
O O2 0.876866 0.321886 0.431504
O O3 0.973879 0.297587 0.342576
O O4 0.326946 0.892389 0.524880
O O5 0.701936 0.114179 0.180665
O O6 0.475079 0.904873 0.048405
O O7 0.196234 0.392701 0.929440
O O8 0.131622 0.263027 0.009678
O O9 0.500000 0.500000 0.500000
O O10 0.423617 0.528724 0.347196
O O11 0.083321 0.504507 0.287389
O O12 0.692714 0.248345 0.792590
O O13 0.687297 0.447915 0.124584
O O14 0.368581 0.532445 0.110230
O O15 0.000000 0.000000 0.000000
#
# Coordination Sequence:
#
# PCOD8025776 Si02
#       7
#     2   2   2   2   2   2   2
#     4  10  24  44  67  96 131 177 223 273 327 389
#     4  11  23  43  63  94 134 169 214 273 327 393
#     4  12  24  41  68  99 135 174 222 271 335 395
#     4  10  23  46  67  94 135 174 223 275 325 397
#     4  11  24  40  63  95 133 171 212 268 336 386
#     4  11  23  41  66  96 127 171 219 267 330 391
#     4  11  22  44  69  94 128 172 221 270 325 390
#
# _framework density 22.389576999999999
#
# number of rings (size 3 to 8) (size 9 to 14) (size 15 to 20)
#    0.000    1.143    2.857    3.000    0.000    4.571 
#    7.714    0.000    0.000    0.000    0.000    0.000 
#    0.000    0.000    0.000    0.000    0.000    0.000 
#
# Total GULP energy -173501.637994 kJ/mol
# GULP energy per Si atom -12392.974142 kJ/mol
# Density = 2.233862 g / cm^3
# Si number density = 22.389577 Si / 1000 Ang^3
#
#
#
# Elastic Constant Matrix: (Units=GPa)
#
#
# Indices 1 2 3 4 5 6 
#
# 1 136.6687 34.8257 41.0825 -4.2891 -11.1809 32.2764
# 2 34.8257 101.5911 32.7816 2.9998 -4.5889 9.5645
# 3 41.0825 32.7816 91.6563 0.6173 -3.8888 9.7167
# 4 -4.2891 2.9998 0.6173 29.4366 4.1548 1.1999
# 5 -11.1809 -4.5889 -3.8888 4.1548 32.5207 5.0638
# 6 32.2764 9.5645 9.7167 1.1999 5.0638 38.3977
#
#
#
# Elastic Compliance Matrix: (Units=1/GPa)
#
#
# Indices 1 2 3 4 5 6 
#
# 1 0.011259 -0.001820 -0.003287 0.001635 0.004384 -0.008808
# 2 -0.001820 0.011657 -0.003238 -0.001489 0.000920 -0.000629
# 3 -0.003287 -0.003238 0.013531 -0.000448 0.000065 0.000151
# 4 0.001635 -0.001489 -0.000448 0.034987 -0.003944 -0.001463
# 5 0.004384 0.000920 0.000065 -0.003944 0.034193 -0.008317
# 6 -0.008808 -0.000629 0.000151 -0.001463 -0.008317 0.034708
#
#
# Mechanical properties :
#
#
# Convention : Reuss Voigt Hill
#
# Bulk Modulus (GPa) = 50.61193 60.81061 55.71127
# Shear Modulus (GPa) = 30.56042 34.81943 32.68993
#
# Velocity S-wave (km/s) = 3.69852 3.94783 3.82521
# Velocity P-wave (km/s) = 6.39476 6.92818 6.66681
#
# Compressibility (1/GPa) = 0.01975819
#
# Stress axis : x y z
#
# Youngs Moduli (GPa) = 88.81896 85.78695 73.90274
#
# Poissons Ratio (x) = 0.15613 0.24290
# Poissons Ratio (y) = 0.16165 0.23927
# Poissons Ratio (z) = 0.29193 0.27774
#
# Static dielectric constant tensor:
#      x y z
#    x 4.235040 0.021780 -0.040170 
#    y 0.021780 3.151160 0.077400 
#    z -0.040170 0.077400 4.055100 
# 
# 
# High freq. dielectric constant tensor:
#      x y z
#    x 1.897050 0.005170 0.001980 
#    y 0.005170 1.881780 0.008970 
#    z 0.001980 0.008970 1.885600 
# 
# From -- ./inp_files/27804.got.cif
#   From: 2010.06.25/outbox.cif.g09.slc.cpg/sg2_14_cif.got.tgz:27804.got - 2010.06.27 13:26:56.
