data_PCOD8025639
_publ_section_title
;
Structure prediction by ZEFSAII (Michael W. Deem and Ramdas Pophale) SiO2 
 PCOD8025639
Probable space group: P -1
;
_chemical_formula_sum "Si O2"
_cell_formula_units_Z 14
_cell_length_a 7.535088
_cell_length_b 10.769807
_cell_length_c 8.779118
_cell_angle_alpha 121.126558
_cell_angle_beta 100.188545
_cell_angle_gamma 74.474414
_cell_volume 586.971991
_symmetry_space_group_name_H-M "P -1"
_symmetry_group_IT_number 2
_symmetry_cell_setting 'triclinic'
loop_
_space_group_symop_operation_xyz
x,y,z
-x,-y,-z
loop_
_atom_site_type_symbol
_atom_site_label
_atom_site_fract_x
_atom_site_fract_y
_atom_site_fract_z
Si Si1 0.045045 0.048443 0.207484
Si Si2 0.415534 0.132028 0.264145
Si Si3 0.371681 0.616836 0.952133
Si Si4 0.072642 0.661168 0.462153
Si Si5 0.632266 0.826419 0.064798
Si Si6 0.971504 0.244109 0.824485
Si Si7 0.291753 0.433276 0.555385
O O1 0.253236 0.065908 0.272258
O O2 0.914429 0.205974 0.332964
O O3 0.016222 0.928737 0.251744
O O4 0.000000 0.000000 0.000000
O O5 0.443391 0.281241 0.449454
O O6 0.598864 0.001912 0.217168
O O7 0.346936 0.182299 0.117535
O O8 0.377058 0.544107 0.741395
O O9 0.500000 0.500000 0.000000
O O10 0.455606 0.763919 0.050761
O O11 0.164348 0.658409 0.012322
O O12 0.102523 0.710331 0.326037
O O13 0.231076 0.519572 0.442271
O O14 0.878310 0.612286 0.413202
O O15 0.819461 0.731288 0.106953
#
# Coordination Sequence:
#
# PCOD8025639 Si02
#       7
#     2   2   2   2   2   2   2
#     4  11  20  43  73 105 144 189 239 296 355 430
#     4  10  23  45  71 106 142 190 243 292 354 431
#     4  12  28  48  72 110 145 187 240 298 362 430
#     4  10  24  41  73 111 139 193 243 288 368 424
#     4  11  25  45  75 107 140 192 243 289 362 426
#     4  12  25  46  75 105 148 188 237 304 355 426
#     4  10  24  47  72 104 149 187 239 299 356 433
#
# _framework density 23.851224999999999
#
# number of rings (size 3 to 8) (size 9 to 14) (size 15 to 20)
#    0.000    1.143    2.857    2.143    6.000    1.714 
#    5.143    2.143    0.000    0.000    0.000    0.000 
#    0.000    0.000    0.000    0.000    0.000    0.000 
#
# Total GULP energy -173606.839696 kJ/mol
# GULP energy per Si atom -12400.488550 kJ/mol
# Density = 2.379694 g / cm^3
# Si number density = 23.851225 Si / 1000 Ang^3
#
#
#
# Elastic Constant Matrix: (Units=GPa)
#
#
# Indices 1 2 3 4 5 6 
#
# 1 78.9843 37.6001 52.0126 5.6083 -6.8324 -16.5406
# 2 37.6001 133.6178 54.7201 1.3584 -0.4244 2.0696
# 3 52.0126 54.7201 125.2934 13.2096 -10.9739 -8.1881
# 4 5.6083 1.3584 13.2096 43.4449 -5.8519 -9.6473
# 5 -6.8324 -0.4244 -10.9739 -5.8519 21.7340 1.0145
# 6 -16.5406 2.0696 -8.1881 -9.6473 1.0145 40.7964
#
#
#
# Elastic Compliance Matrix: (Units=1/GPa)
#
#
# Indices 1 2 3 4 5 6 
#
# 1 0.020028 -0.003155 -0.006346 0.001475 0.003088 0.007279
# 2 -0.003155 0.009765 -0.003339 0.000293 -0.002300 -0.002318
# 3 -0.006346 -0.003339 0.012626 -0.002548 0.003655 -0.000563
# 4 0.001475 0.000293 -0.002548 0.025711 0.005825 0.006007
# 5 0.003088 -0.002300 0.003655 0.005825 0.050246 0.002230
# 6 0.007279 -0.002318 -0.000563 0.006007 0.002230 0.028833
#
#
# Mechanical properties :
#
#
# Convention : Reuss Voigt Hill
#
# Bulk Modulus (GPa) = 59.73820 69.61790 64.67805
# Shear Modulus (GPa) = 28.01628 34.09925 31.05776
#
# Velocity S-wave (km/s) = 3.43100 3.78519 3.61244
# Velocity P-wave (km/s) = 6.38719 6.95380 6.67651
#
# Compressibility (1/GPa) = 0.01673971
#
# Stress axis : x y z
#
# Youngs Moduli (GPa) = 49.92993 102.40878 79.20427
#
# Poissons Ratio (x) = 0.32311 0.50260
# Poissons Ratio (y) = 0.15754 0.26444
# Poissons Ratio (z) = 0.31683 0.34191
#
# Static dielectric constant tensor:
#      x y z
#    x 2.524470 -0.523460 -0.980370 
#    y -0.523460 4.303410 -0.018240 
#    z -0.980370 -0.018240 3.738630 
# 
# 
# High freq. dielectric constant tensor:
#      x y z
#    x 1.941490 0.005420 -0.008770 
#    y 0.005420 1.960850 0.015820 
#    z -0.008770 0.015820 1.934640 
# 
# From -- ./inp_files/183315.got.cif
#   From: 2010.06.25/outbox.cif.g09.slc.cpg/sg2_92_cif.got.tgz:183315.got - 2010.06.27 13:26:56.
