data_PCOD8025854
_publ_section_title
;
Structure prediction by ZEFSAII (Michael W. Deem and Ramdas Pophale) SiO2 
 PCOD8025854
Probable space group: P -1
;
_chemical_formula_sum "Si O2"
_cell_formula_units_Z 16
_cell_length_a 14.681719
_cell_length_b 8.410549
_cell_length_c 9.488004
_cell_angle_alpha 64.457502
_cell_angle_beta 117.689744
_cell_angle_gamma 138.576064
_cell_volume 679.500649
_symmetry_space_group_name_H-M "P -1"
_symmetry_group_IT_number 2
_symmetry_cell_setting 'triclinic'
loop_
_space_group_symop_operation_xyz
x,y,z
-x,-y,-z
loop_
_atom_site_type_symbol
_atom_site_label
_atom_site_fract_x
_atom_site_fract_y
_atom_site_fract_z
Si Si1 0.944617 0.093776 0.783134
Si Si2 0.778227 0.427129 0.681267
Si Si3 0.792085 0.624881 0.324463
Si Si4 0.135428 0.384661 0.043593
Si Si5 0.603266 0.270073 0.083207
Si Si6 0.496198 0.186372 0.682951
Si Si7 0.328791 0.037329 0.353178
Si Si8 0.454530 0.412523 0.788608
O O1 0.055032 0.161758 0.716995
O O2 0.873123 0.836347 0.894645
O O3 0.813505 0.050551 0.646045
O O4 0.016802 0.305311 0.874710
O O5 0.831274 0.571397 0.518096
O O6 0.895320 0.574125 0.836499
O O7 0.655544 0.408936 0.660971
O O8 0.713984 0.156778 0.720620
O O9 0.697682 0.391411 0.245520
O O10 0.704050 0.702557 0.251106
O O11 0.294092 0.624992 0.018736
O O12 0.514101 0.984178 0.144122
O O13 0.504216 0.328294 0.974735
O O14 0.406444 0.032869 0.538985
O O15 0.444085 0.305458 0.670575
O O16 0.431525 0.295367 0.249269
#
# Coordination Sequence:
#
# PCOD8025854 Si02
#       8
#     2   2   2   2   2   2   2   2
#     4  10  24  48  71  97 138 186 233 282 340 410
#     4  12  24  43  70 103 145 178 230 291 341 406
#     4  11  25  43  69 103 140 180 232 285 340 412
#     4  10  23  46  70  95 140 183 227 289 339 404
#     4  11  22  46  68 103 141 177 225 291 348 401
#     4  12  24  43  70 109 142 173 228 295 348 401
#     4  12  24  44  74  98 140 190 227 279 351 406
#     4  12  24  42  74 102 135 185 234 278 347 413
#
# _framework density 23.546702
#
# number of rings (size 3 to 8) (size 9 to 14) (size 15 to 20)
#    0.000    0.750    5.000    2.250    1.750    1.500 
#    0.000    0.000    0.000    0.000    0.000    0.000 
#    0.000    0.000    0.000    0.000    0.000    0.000 
#
# Total GULP energy -198361.661254 kJ/mol
# GULP energy per Si atom -12397.603828 kJ/mol
# Density = 2.349311 g / cm^3
# Si number density = 23.546702 Si / 1000 Ang^3
#
#
#
# Elastic Constant Matrix: (Units=GPa)
#
#
# Indices 1 2 3 4 5 6 
#
# 1 79.6064 18.5288 15.4456 -4.4649 -10.7246 12.8293
# 2 18.5288 87.9060 35.2991 -1.9009 -4.0785 -4.2347
# 3 15.4456 35.2991 124.3659 -5.0217 -16.9360 1.7617
# 4 -4.4649 -1.9009 -5.0217 28.2722 -10.7021 -6.0674
# 5 -10.7246 -4.0785 -16.9360 -10.7021 33.7671 2.2411
# 6 12.8293 -4.2347 1.7617 -6.0674 2.2411 43.2105
#
#
#
# Elastic Compliance Matrix: (Units=1/GPa)
#
#
# Indices 1 2 3 4 5 6 
#
# 1 0.014968 -0.003029 -0.000017 0.003352 0.005745 -0.004568
# 2 -0.003029 0.013548 -0.003707 -0.000246 -0.001423 0.002418
# 3 -0.000017 -0.003707 0.010031 0.003587 0.005752 -0.000562
# 4 0.003352 -0.000246 0.003587 0.043602 0.016380 0.004107
# 5 0.005745 -0.001423 0.005752 0.016380 0.039465 -0.001827
# 6 -0.004568 0.002418 -0.000562 0.004107 -0.001827 0.025430
#
#
# Mechanical properties :
#
#
# Convention : Reuss Voigt Hill
#
# Bulk Modulus (GPa) = 39.93449 47.82503 43.87976
# Shear Modulus (GPa) = 29.60360 35.89028 32.74694
#
# Velocity S-wave (km/s) = 3.54959 3.90836 3.73329
# Velocity P-wave (km/s) = 5.81343 6.38136 6.10401
#
# Compressibility (1/GPa) = 0.02504101
#
# Stress axis : x y z
#
# Youngs Moduli (GPa) = 66.80823 73.81147 99.68906
#
# Poissons Ratio (x) = 0.22359 0.00167
# Poissons Ratio (y) = 0.20238 0.36956
# Poissons Ratio (z) = 0.00112 0.27363
#
# Static dielectric constant tensor:
#      x y z
#    x 4.106640 0.057920 -0.056320 
#    y 0.057920 4.146400 0.263790 
#    z -0.056320 0.263790 4.360170 
# 
# 
# High freq. dielectric constant tensor:
#      x y z
#    x 1.915500 -0.003690 -0.011110 
#    y -0.003690 1.931720 0.013490 
#    z -0.011110 0.013490 1.945860 
# 
# From -- ./inp_files/297966.got.cif
#   From: 2010.06.25/outbox.cif.g09.slc.cpg/sg2_149_cif.got.tgz:297966.got - 2010.06.27 13:26:56.
