data_PCOD8025598
_publ_section_title
;
Structure prediction by ZEFSAII (Michael W. Deem and Ramdas Pophale) SiO2 
 PCOD8025598
Probable space group: P -1
;
_chemical_formula_sum "Si O2"
_cell_formula_units_Z 12
_cell_length_a 12.827912
_cell_length_b 11.327884
_cell_length_c 5.386228
_cell_angle_alpha 107.746085
_cell_angle_beta 79.416482
_cell_angle_gamma 48.936049
_cell_volume 474.993252
_symmetry_space_group_name_H-M "P -1"
_symmetry_group_IT_number 2
_symmetry_cell_setting 'triclinic'
loop_
_space_group_symop_operation_xyz
x,y,z
-x,-y,-z
loop_
_atom_site_type_symbol
_atom_site_label
_atom_site_fract_x
_atom_site_fract_y
_atom_site_fract_z
Si Si1 0.394164 0.083231 0.352796
Si Si2 0.143138 0.130585 0.679165
Si Si3 0.717890 0.205897 0.311041
Si Si4 0.388412 0.533980 0.872999
Si Si5 0.134394 0.696279 0.417725
Si Si6 0.914650 0.484517 0.330066
O O1 0.301401 0.033600 0.389732
O O2 0.254632 0.311462 0.564377
O O3 0.500000 0.000000 0.500000
O O4 0.500000 0.000000 0.000000
O O5 0.041008 0.141682 0.533612
O O6 0.192154 0.005327 0.820253
O O7 0.040867 0.341633 0.957760
O O8 0.521142 0.355287 0.515886
O O9 0.732338 0.255531 0.066476
O O10 0.806285 0.220694 0.473229
O O11 0.500000 0.500000 0.000000
O O12 0.270660 0.534525 0.046951
O O13 0.135130 0.601562 0.582790
O O14 0.000000 0.500000 0.500000
#
# Coordination Sequence:
#
# PCOD8025598 Si02
#       6
#     2   2   2   2   2   2
#     4  12  30  52  81 116 154 210 268 328 395 472
#     4  12  27  46  80 108 155 197 259 329 388 474
#     4  10  23  45  70 115 148 197 251 312 402 454
#     4   9  21  42  69 106 155 195 246 311 384 470
#     4  11  24  43  77 105 153 196 251 322 385 473
#     4  12  27  51  76 110 154 204 265 324 395 463
#
# _framework density 25.263517
#
# number of rings (size 3 to 8) (size 9 to 14) (size 15 to 20)
#    0.000    1.000    1.667    3.000    4.667    9.333 
#    0.000    0.000    0.000    0.000    0.000    0.000 
#    0.000    0.000    0.000    0.000    0.000    0.000 
#
# Total GULP energy -148705.751146 kJ/mol
# GULP energy per Si atom -12392.145929 kJ/mol
# Density = 2.520602 g / cm^3
# Si number density = 25.263517 Si / 1000 Ang^3
#
#
#
# Elastic Constant Matrix: (Units=GPa)
#
#
# Indices 1 2 3 4 5 6 
#
# 1 114.1136 35.3874 46.3838 2.3239 -33.1335 -18.5438
# 2 35.3874 182.1491 44.8437 6.2355 0.7332 -23.1333
# 3 46.3838 44.8437 114.6729 -9.2917 -22.4544 -9.0552
# 4 2.3239 6.2355 -9.2917 40.6053 2.5213 7.0033
# 5 -33.1335 0.7332 -22.4544 2.5213 37.8619 1.2925
# 6 -18.5438 -23.1333 -9.0552 7.0033 1.2925 42.0541
#
#
#
# Elastic Compliance Matrix: (Units=1/GPa)
#
#
# Indices 1 2 3 4 5 6 
#
# 1 0.014473 -0.001366 -0.003009 -0.002869 0.010923 0.005125
# 2 -0.001366 0.006856 -0.002603 -0.001914 -0.002847 0.003015
# 3 -0.003009 -0.002603 0.012000 0.003193 0.004350 -0.000840
# 4 -0.002869 -0.001914 0.003193 0.026996 -0.002171 -0.006059
# 5 0.010923 -0.002847 0.004350 -0.002171 0.038636 0.003361
# 6 0.005125 0.003015 -0.000840 -0.006059 0.003361 0.028422
#
#
# Mechanical properties :
#
#
# Convention : Reuss Voigt Hill
#
# Bulk Modulus (GPa) = 51.61921 73.79616 62.70769
# Shear Modulus (GPa) = 33.83072 43.05898 38.44485
#
# Velocity S-wave (km/s) = 3.66336 4.13291 3.90520
# Velocity P-wave (km/s) = 6.19437 7.21447 6.72380
#
# Compressibility (1/GPa) = 0.01937263
#
# Stress axis : x y z
#
# Youngs Moduli (GPa) = 69.09630 145.85540 83.33628
#
# Poissons Ratio (x) = 0.19922 0.25074
# Poissons Ratio (y) = 0.09438 0.21694
# Poissons Ratio (z) = 0.20789 0.37969
#
# Static dielectric constant tensor:
#      x y z
#    x 4.809880 -0.135830 -0.945540 
#    y -0.135830 4.750080 0.059210 
#    z -0.945540 0.059210 5.517780 
# 
# 
# High freq. dielectric constant tensor:
#      x y z
#    x 2.010310 -0.011700 -0.029150 
#    y -0.011700 2.023190 -0.015630 
#    z -0.029150 -0.015630 2.002940 
# 
# From -- ./inp_files/71752.got.cif
#   From: 2010.06.25/outbox.cif.g09.slc.cpg/sg2_36_cif.got.tgz:71752.got - 2010.06.27 13:26:56.
