data_PCOD8025102
_publ_section_title
;
Structure prediction by ZEFSAII (Michael W. Deem and Ramdas Pophale) SiO2 
 PCOD8025102
Probable space group: P -1
;
_chemical_formula_sum "Si O2"
_cell_formula_units_Z 14
_cell_length_a 11.453755
_cell_length_b 18.484515
_cell_length_c 17.711882
_cell_angle_alpha 158.165649
_cell_angle_beta 149.346391
_cell_angle_gamma 27.103823
_cell_volume 622.545465
_symmetry_space_group_name_H-M "P -1"
_symmetry_group_IT_number 2
_symmetry_cell_setting 'triclinic'
loop_
_space_group_symop_operation_xyz
x,y,z
-x,-y,-z
loop_
_atom_site_type_symbol
_atom_site_label
_atom_site_fract_x
_atom_site_fract_y
_atom_site_fract_z
Si Si1 0.883905 0.166814 0.027833
Si Si2 0.201934 0.103246 0.412467
Si Si3 0.185021 0.313098 0.096114
Si Si4 0.017265 0.980774 0.644236
Si Si5 0.341403 0.569204 0.327017
Si Si6 0.679346 0.450656 0.872496
Si Si7 0.849367 0.586266 0.653614
O O1 0.614479 0.380315 0.106325
O O2 0.095238 0.243152 0.197883
O O3 0.833451 0.053692 0.818635
O O4 0.000000 0.000000 0.000000
O O5 0.107377 0.346621 0.561866
O O6 0.500000 0.000000 0.500000
O O7 0.023437 0.132319 0.414064
O O8 0.380256 0.369159 0.210773
O O9 0.234176 0.328412 0.225588
O O10 0.230211 0.065404 0.862394
O O11 0.883443 0.491683 0.077205
O O12 0.741582 0.194834 0.673747
O O13 0.121847 0.805132 0.464907
O O14 0.257333 0.525275 0.155956
O O15 0.615096 0.566106 0.464770
#
# Coordination Sequence:
#
# PCOD8025102 Si02
#       7
#     2   2   2   2   2   2   2
#     4  12  27  49  69 101 141 181 225 289 350 395
#     4  12  25  44  75  99 135 185 235 279 338 402
#     4  10  23  44  69 100 138 179 228 278 336 404
#     4  10  24  41  72 101 132 182 228 277 340 399
#     4  12  24  44  70 103 144 180 223 281 346 405
#     4  10  24  46  68  99 141 175 234 279 333 409
#     4  12  26  45  70 104 140 178 231 284 336 417
#
# _framework density 22.488318
#
# number of rings (size 3 to 8) (size 9 to 14) (size 15 to 20)
#    0.857    0.000    2.857    3.857    0.000    8.000 
#    0.000    0.000    0.000    0.000    0.000    0.000 
#    0.000    0.000    0.000    0.000    0.000    0.000 
#
# Total GULP energy -173621.231662 kJ/mol
# GULP energy per Si atom -12401.516547 kJ/mol
# Density = 2.243713 g / cm^3
# Si number density = 22.488318 Si / 1000 Ang^3
#
#
#
# Elastic Constant Matrix: (Units=GPa)
#
#
# Indices 1 2 3 4 5 6 
#
# 1 104.9573 20.9877 31.0748 5.6099 11.6090 13.7963
# 2 20.9877 81.7761 11.0241 4.3562 12.0567 3.5672
# 3 31.0748 11.0241 75.7084 5.0675 28.5266 4.8638
# 4 5.6099 4.3562 5.0675 38.2691 -1.0567 3.1738
# 5 11.6090 12.0567 28.5266 -1.0567 46.1116 7.9002
# 6 13.7963 3.5672 4.8638 3.1738 7.9002 27.1761
#
#
#
# Elastic Compliance Matrix: (Units=1/GPa)
#
#
# Indices 1 2 3 4 5 6 
#
# 1 0.011966 -0.002394 -0.004742 -0.000375 0.001445 -0.005288
# 2 -0.002394 0.013321 0.000299 -0.001334 -0.003180 0.000494
# 3 -0.004742 0.000299 0.019397 -0.002427 -0.011365 0.002484
# 4 -0.000375 -0.001334 -0.002427 0.027016 0.003123 -0.003263
# 5 0.001445 -0.003180 -0.011365 0.003123 0.030546 -0.007527
# 6 -0.005288 0.000494 0.002484 -0.003263 -0.007527 0.041541
#
#
# Mechanical properties :
#
#
# Convention : Reuss Voigt Hill
#
# Bulk Modulus (GPa) = 32.24922 43.17946 37.71434
# Shear Modulus (GPa) = 29.79773 35.60172 32.69973
#
# Velocity S-wave (km/s) = 3.64405 3.98316 3.81737
# Velocity P-wave (km/s) = 5.66366 6.35583 6.01970
#
# Compressibility (1/GPa) = 0.03100850
#
# Stress axis : x y z
#
# Youngs Moduli (GPa) = 83.57159 75.06912 51.55508
#
# Poissons Ratio (x) = 0.17972 0.24449
# Poissons Ratio (y) = 0.20007 -0.01541
# Poissons Ratio (z) = 0.39632 -0.02243
#
# Static dielectric constant tensor:
#      x y z
#    x 3.955540 0.135700 0.030060 
#    y 0.135700 3.940450 0.061910 
#    z 0.030060 0.061910 4.106090 
# 
# 
# High freq. dielectric constant tensor:
#      x y z
#    x 1.888300 0.006510 -0.001530 
#    y 0.006510 1.885530 0.003600 
#    z -0.001530 0.003600 1.894220 
# 
# From -- ./inp_files/570412.got.cif
#   From: 2010.06.25/outbox.cif.g09.slc.cpg/sg2_286_cif.got.tgz:570412.got - 2010.06.27 13:26:56.
