data_PCOD8025467
_publ_section_title
;
Structure prediction by ZEFSAII (Michael W. Deem and Ramdas Pophale) SiO2 
 PCOD8025467
Probable space group: P -1
;
_chemical_formula_sum "Si O2"
_cell_formula_units_Z 12
_cell_length_a 9.772547
_cell_length_b 9.143807
_cell_length_c 10.195048
_cell_angle_alpha 62.088328
_cell_angle_beta 75.630843
_cell_angle_gamma 42.159422
_cell_volume 532.781219
_symmetry_space_group_name_H-M "P -1"
_symmetry_group_IT_number 2
_symmetry_cell_setting 'triclinic'
loop_
_space_group_symop_operation_xyz
x,y,z
-x,-y,-z
loop_
_atom_site_type_symbol
_atom_site_label
_atom_site_fract_x
_atom_site_fract_y
_atom_site_fract_z
Si Si1 0.375730 0.954594 0.608352
Si Si2 0.999446 0.906576 0.903803
Si Si3 0.528622 0.662910 0.458455
Si Si4 0.265963 0.420610 0.141633
Si Si5 0.058465 0.695006 0.341673
Si Si6 0.352723 0.036432 0.123470
O O1 0.362905 0.835067 0.542602
O O2 0.497881 0.772020 0.781177
O O3 0.500000 0.000000 0.500000
O O4 0.151674 0.210816 0.597871
O O5 0.985003 0.068272 0.735216
O O6 0.806892 0.946457 0.919456
O O7 0.211936 0.615269 0.969476
O O8 0.000000 0.000000 0.000000
O O9 0.500000 0.500000 0.500000
O O10 0.758136 0.506778 0.519574
O O11 0.495737 0.806691 0.281200
O O12 0.107349 0.581681 0.233136
O O13 0.228285 0.278159 0.138074
O O14 0.500000 0.000000 0.000000
#
# Coordination Sequence:
#
# PCOD8025467 Si02
#       6
#     2   2   2   2   2   2
#     4  11  24  44  70 106 133 182 237 286 350 414
#     4  10  23  45  68 101 140 186 233 275 361 417
#     4  11  24  47  69 104 142 179 239 283 354 417
#     4  10  24  44  70 103 140 178 235 285 355 413
#     4  10  24  45  75  98 142 186 229 297 344 417
#     4  12  26  45  71 107 142 182 235 294 345 415
#
# _framework density 22.523313999999999
#
# number of rings (size 3 to 8) (size 9 to 14) (size 15 to 20)
#    0.000    1.333    3.333    0.500    4.667    6.667 
#    3.000    0.000    0.000    0.000    0.000    0.000 
#    0.000    0.000    0.000    0.000    0.000    0.000 
#
# Total GULP energy -148737.975379 kJ/mol
# GULP energy per Si atom -12394.831282 kJ/mol
# Density = 2.247205 g / cm^3
# Si number density = 22.523314 Si / 1000 Ang^3
#
#
#
# Elastic Constant Matrix: (Units=GPa)
#
#
# Indices 1 2 3 4 5 6 
#
# 1 125.5485 63.0780 46.6051 11.7837 7.4061 18.3717
# 2 63.0780 148.8710 50.0648 -1.4579 3.9732 3.3121
# 3 46.6051 50.0648 127.9239 -26.1324 7.7646 3.1094
# 4 11.7837 -1.4579 -26.1324 42.1765 1.5664 -1.3712
# 5 7.4061 3.9732 7.7646 1.5664 36.5794 -3.6625
# 6 18.3717 3.3121 3.1094 -1.3712 -3.6625 50.4306
#
#
#
# Elastic Compliance Matrix: (Units=1/GPa)
#
#
# Indices 1 2 3 4 5 6 
#
# 1 0.012877 -0.003945 -0.004275 -0.006474 -0.001440 -0.004449
# 2 -0.003945 0.009077 -0.002139 0.000109 0.000362 0.001002
# 3 -0.004275 -0.002139 0.012067 0.008696 -0.001729 0.001065
# 4 -0.006474 0.000109 0.008696 0.031053 -0.001622 0.002542
# 5 -0.001440 0.000362 -0.001729 -0.001622 0.028289 0.002618
# 6 -0.004449 0.001002 0.001065 0.002542 0.002618 0.021578
#
#
# Mechanical properties :
#
#
# Convention : Reuss Voigt Hill
#
# Bulk Modulus (GPa) = 75.16280 80.20437 77.68358
# Shear Modulus (GPa) = 35.69043 42.01031 38.85037
#
# Velocity S-wave (km/s) = 3.98502 4.32347 4.15769
# Velocity P-wave (km/s) = 7.39036 7.78524 7.59037
#
# Compressibility (1/GPa) = 0.01330445
#
# Stress axis : x y z
#
# Youngs Moduli (GPa) = 77.65590 110.16623 82.86886
#
# Poissons Ratio (x) = 0.43457 0.35423
# Poissons Ratio (y) = 0.30633 0.17729
# Poissons Ratio (z) = 0.33195 0.23568
#
# Static dielectric constant tensor:
#      x y z
#    x 4.089690 0.561160 0.332220 
#    y 0.561160 4.732960 -0.822150 
#    z 0.332220 -0.822150 3.918550 
# 
# 
# High freq. dielectric constant tensor:
#      x y z
#    x 1.883240 0.024460 0.010910 
#    y 0.024460 1.892830 -0.027860 
#    z 0.010910 -0.027860 1.895350 
# 
# From -- ./inp_files/107008.got.cif
#   From: 2010.06.25/outbox.cif.g09.slc.cpg/sg2_54_cif.got.tgz:107008.got - 2010.06.27 13:26:56.
