data_PCOD8025881
_publ_section_title
;
Structure prediction by ZEFSAII (Michael W. Deem and Ramdas Pophale) SiO2 
 PCOD8025881
Probable space group: P -1
;
_chemical_formula_sum "Si O2"
_cell_formula_units_Z 16
_cell_length_a 9.492596
_cell_length_b 6.447462
_cell_length_c 18.506120
_cell_angle_alpha 140.888788
_cell_angle_beta 76.839690
_cell_angle_gamma 104.320959
_cell_volume 691.108281
_symmetry_space_group_name_H-M "P -1"
_symmetry_group_IT_number 2
_symmetry_cell_setting 'triclinic'
loop_
_space_group_symop_operation_xyz
x,y,z
-x,-y,-z
loop_
_atom_site_type_symbol
_atom_site_label
_atom_site_fract_x
_atom_site_fract_y
_atom_site_fract_z
Si Si1 0.398509 0.746153 0.041902
Si Si2 0.666253 0.497579 0.501232
Si Si3 0.169167 0.442987 0.090267
Si Si4 0.419376 0.583260 0.831372
Si Si5 0.129121 0.697724 0.844749
Si Si6 0.823104 0.239067 0.542590
Si Si7 0.109533 0.485487 0.634966
Si Si8 0.677389 0.234341 0.706904
O O1 0.241840 0.697041 0.089115
O O2 0.474959 0.121523 0.140002
O O3 0.500000 0.500000 0.000000
O O4 0.371857 0.664016 0.939391
O O5 0.500000 0.500000 0.500000
O O6 0.709303 0.272169 0.500493
O O7 0.745915 0.379817 0.388905
O O8 0.719752 0.871478 0.622073
O O9 0.258807 0.501439 0.169668
O O10 0.000207 0.481032 0.137769
O O11 0.181178 0.069290 0.964241
O O12 0.269926 0.499907 0.781974
O O13 0.502964 0.254949 0.730871
O O14 0.083482 0.705805 0.767944
O O15 0.740369 0.332271 0.648509
O O16 0.974673 0.484781 0.593867
O O17 0.871967 0.876297 0.434640
#
# Coordination Sequence:
#
# PCOD8025881 Si02
#       8
#     2   2   2   2   2   2   2   2
#     4  11  21  42  64  93 139 189 233 274 347 417
#     4  11  27  43  69 108 133 176 238 292 345 416
#     4  11  23  44  69 101 146 180 230 289 348 423
#     4  11  24  39  68  99 135 188 231 285 340 417
#     4  11  24  43  70 106 143 177 236 294 340 412
#     4  10  23  46  71  96 135 180 227 285 349 410
#     4  10  23  46  71  95 137 181 226 284 351 414
#     4  11  24  43  69 100 139 184 227 280 356 417
#
# _framework density 23.151219000000001
#
# number of rings (size 3 to 8) (size 9 to 14) (size 15 to 20)
#    0.000    1.250    3.750    1.125    5.250    2.500 
#    0.000    0.000    0.000    0.000    0.000    0.000 
#    0.000    0.000    0.000    0.000    0.000    0.000 
#
# Total GULP energy -198348.027365 kJ/mol
# GULP energy per Si atom -12396.751710 kJ/mol
# Density = 2.309853 g / cm^3
# Si number density = 23.151219 Si / 1000 Ang^3
#
#
#
# Elastic Constant Matrix: (Units=GPa)
#
#
# Indices 1 2 3 4 5 6 
#
# 1 139.0829 38.8877 19.0119 -15.5087 -1.1925 7.2335
# 2 38.8877 103.4408 24.4799 -21.9963 1.0683 12.7943
# 3 19.0119 24.4799 96.3133 -23.0190 -0.1773 5.5017
# 4 -15.5087 -21.9963 -23.0190 19.8642 -2.6667 -11.4451
# 5 -1.1925 1.0683 -0.1773 -2.6667 35.5231 -10.7778
# 6 7.2335 12.7943 5.5017 -11.4451 -10.7778 45.7500
#
#
#
# Elastic Compliance Matrix: (Units=1/GPa)
#
#
# Indices 1 2 3 4 5 6 
#
# 1 0.008293 -0.002258 -0.000045 0.004402 0.000868 0.000631
# 2 -0.002258 0.013281 0.000262 0.013373 0.000557 0.000088
# 3 -0.000045 0.000262 0.014917 0.020105 0.002731 0.003813
# 4 0.004402 0.013373 0.020105 0.107500 0.015073 0.023590
# 5 0.000868 0.000557 0.002731 0.015073 0.032593 0.010828
# 6 0.000631 0.000088 0.003813 0.023590 0.010828 0.029727
#
#
# Mechanical properties :
#
#
# Convention : Reuss Voigt Hill
#
# Bulk Modulus (GPa) = 30.85532 55.95510 43.40521
# Shear Modulus (GPa) = 22.60414 37.32464 29.96439
#
# Velocity S-wave (km/s) = 3.12808 4.01959 3.60153
# Velocity P-wave (km/s) = 5.13840 6.76496 6.00699
#
# Compressibility (1/GPa) = 0.03240932
#
# Stress axis : x y z
#
# Youngs Moduli (GPa) = 120.58447 75.29401 67.03555
#
# Poissons Ratio (x) = 0.17001 0.00305
# Poissons Ratio (y) = 0.27227 -0.01758
# Poissons Ratio (z) = 0.00549 -0.01974
#
# Static dielectric constant tensor:
#      x y z
#    x 4.352310 0.190180 -0.109590 
#    y 0.190180 4.155950 -0.081920 
#    z -0.109590 -0.081920 4.195930 
# 
# 
# High freq. dielectric constant tensor:
#      x y z
#    x 1.925510 0.007430 -0.005380 
#    y 0.007430 1.897590 -0.013360 
#    z -0.005380 -0.013360 1.918740 
# 
# From -- ./inp_files/553933.got.cif
#   From: 2010.06.25/outbox.cif.g09.slc.cpg/sg2_277_cif.got.tgz:553933.got - 2010.06.27 13:26:56.
