data_PCOD8025134
_publ_section_title
;
Structure prediction by ZEFSAII (Michael W. Deem and Ramdas Pophale) SiO2 
 PCOD8025134
Probable space group: P -1
;
_chemical_formula_sum "Si O2"
_cell_formula_units_Z 16
_cell_length_a 11.113153
_cell_length_b 12.125718
_cell_length_c 14.137101
_cell_angle_alpha 67.477182
_cell_angle_beta 107.238034
_cell_angle_gamma 46.681186
_cell_volume 710.313060
_symmetry_space_group_name_H-M "P -1"
_symmetry_group_IT_number 2
_symmetry_cell_setting 'triclinic'
loop_
_space_group_symop_operation_xyz
x,y,z
-x,-y,-z
loop_
_atom_site_type_symbol
_atom_site_label
_atom_site_fract_x
_atom_site_fract_y
_atom_site_fract_z
Si Si1 0.948233 0.553398 0.242155
Si Si2 0.761434 0.964434 0.786615
Si Si3 0.187319 0.725345 0.103438
Si Si4 0.746478 0.030070 0.205592
Si Si5 0.222487 0.779550 0.705336
Si Si6 0.115374 0.620452 0.805650
Si Si7 0.466670 0.034882 0.821364
Si Si8 0.709103 0.510428 0.613561
O O1 0.057769 0.322611 0.324084
O O2 0.212327 0.421644 0.359261
O O3 0.755222 0.712492 0.239748
O O4 0.767625 0.746071 0.042722
O O5 0.586886 0.222661 0.607668
O O6 0.522950 0.073451 0.733532
O O7 0.992080 0.703453 0.854937
O O8 0.944857 0.849936 0.957120
O O9 0.447664 0.535687 0.152382
O O10 0.344250 0.523853 0.294621
O O11 0.000000 0.000000 0.000000
O O12 0.765398 0.118428 0.256370
O O13 0.689110 0.949253 0.265463
O O14 0.467276 0.292645 0.985477
O O15 0.039232 0.773870 0.293861
O O16 0.069510 0.798277 0.713635
O O17 0.000000 0.000000 0.500000
#
# Coordination Sequence:
#
# PCOD8025134 Si02
#       8
#     2   2   2   2   2   2   2   2
#     4   9  20  41  70  96 135 174 225 269 330 407
#     4  12  26  42  70 103 136 173 223 280 343 386
#     4  12  28  46  69  99 137 181 222 279 334 400
#     4  10  23  44  69  95 134 177 224 271 327 408
#     4  12  27  45  67  96 136 179 225 276 334 400
#     4  11  24  43  67  96 133 181 217 278 337 397
#     4   9  20  40  69 100 130 179 218 273 339 390
#     4  11  25  45  70 104 133 173 228 281 325 401
#
# _framework density 22.525279000000001
#
# number of rings (size 3 to 8) (size 9 to 14) (size 15 to 20)
#    0.000    1.250    2.500    2.625    5.250    7.000 
#    0.000    0.000    0.000    0.000    0.000    0.000 
#    0.000    0.000    0.000    0.000    0.000    0.000 
#
# Total GULP energy -198369.534967 kJ/mol
# GULP energy per Si atom -12398.095935 kJ/mol
# Density = 2.247401 g / cm^3
# Si number density = 22.525279 Si / 1000 Ang^3
#
#
#
# Elastic Constant Matrix: (Units=GPa)
#
#
# Indices 1 2 3 4 5 6 
#
# 1 115.5701 56.7208 6.1825 20.9482 -18.9606 10.4021
# 2 56.7208 135.4950 8.0766 4.8242 -2.2606 23.0922
# 3 6.1825 8.0766 61.1344 1.2204 -17.2165 3.9305
# 4 20.9482 4.8242 1.2204 26.2440 -4.1182 4.6245
# 5 -18.9606 -2.2606 -17.2165 -4.1182 25.2151 7.1133
# 6 10.4021 23.0922 3.9305 4.6245 7.1133 40.6982
#
#
#
# Elastic Compliance Matrix: (Units=1/GPa)
#
#
# Indices 1 2 3 4 5 6 
#
# 1 0.014960 -0.005581 0.002857 -0.008842 0.011818 -0.001994
# 2 -0.005581 0.010369 -0.001286 0.002969 -0.002465 -0.004239
# 3 0.002857 -0.001286 0.021809 0.000820 0.018596 -0.005450
# 4 -0.008842 0.002969 0.000820 0.046009 0.003183 -0.005288
# 5 0.011818 -0.002465 0.018596 0.003183 0.065855 -0.015290
# 6 -0.001994 -0.004239 -0.005450 -0.005288 -0.015290 0.031286
#
#
# Mechanical properties :
#
#
# Convention : Reuss Voigt Hill
#
# Bulk Modulus (GPa) = 25.56333 50.46214 38.01273
# Shear Modulus (GPa) = 23.65765 34.51278 29.08522
#
# Velocity S-wave (km/s) = 3.24430 3.91855 3.59726
# Velocity P-wave (km/s) = 5.04057 6.55168 5.84516
#
# Compressibility (1/GPa) = 0.03911853
#
# Stress axis : x y z
#
# Youngs Moduli (GPa) = 66.84372 96.44061 45.85197
#
# Poissons Ratio (x) = 0.53825 -0.13102
# Poissons Ratio (y) = 0.37307 0.05898
# Poissons Ratio (z) = -0.19100 0.12405
#
# Static dielectric constant tensor:
#      x y z
#    x 4.377200 -0.098290 0.034380 
#    y -0.098290 4.137990 -0.028340 
#    z 0.034380 -0.028340 3.866340 
# 
# 
# High freq. dielectric constant tensor:
#      x y z
#    x 1.894840 0.004490 0.004140 
#    y 0.004490 1.895740 0.000190 
#    z 0.004140 0.000190 1.875360 
# 
# From -- ./inp_files/308375.got.cif
#   From: 2010.06.25/outbox.cif.g09.slc.cpg/sg2_155_cif.got.tgz:308375.got - 2010.06.27 13:26:56.
