data_PCOD8025093
_publ_section_title
;
Structure prediction by ZEFSAII (Michael W. Deem and Ramdas Pophale) SiO2 
 PCOD8025093
Probable space group: P -1
;
_chemical_formula_sum "Si O2"
_cell_formula_units_Z 14
_cell_length_a 10.988297
_cell_length_b 8.944923
_cell_length_c 8.558956
_cell_angle_alpha 46.532874
_cell_angle_beta 81.971121
_cell_angle_gamma 86.416381
_cell_volume 603.911968
_symmetry_space_group_name_H-M "P -1"
_symmetry_group_IT_number 2
_symmetry_cell_setting 'triclinic'
loop_
_space_group_symop_operation_xyz
x,y,z
-x,-y,-z
loop_
_atom_site_type_symbol
_atom_site_label
_atom_site_fract_x
_atom_site_fract_y
_atom_site_fract_z
Si Si1 0.558041 0.031833 0.635708
Si Si2 0.896772 0.042394 0.182517
Si Si3 0.369124 0.384634 0.146519
Si Si4 0.340281 0.237898 0.611510
Si Si5 0.138089 0.586487 0.888613
Si Si6 0.273082 0.602722 0.553907
Si Si7 0.930203 0.280594 0.695527
O O1 0.446090 0.075320 0.743268
O O2 0.644647 0.236796 0.475683
O O3 0.500000 0.000000 0.500000
O O4 0.631012 0.826769 0.805273
O O5 0.862197 0.166022 0.256053
O O6 0.788376 0.885558 0.258918
O O7 0.930953 0.216482 0.922075
O O8 0.011111 0.897331 0.292774
O O9 0.359578 0.342291 0.363313
O O10 0.500000 0.500000 0.000000
O O11 0.246041 0.497975 0.040867
O O12 0.350083 0.411893 0.619147
O O13 0.165129 0.531634 0.743988
O O14 0.000000 0.500000 0.000000
O O15 0.211308 0.705542 0.341198
O O16 0.000000 0.500000 0.500000
#
# Coordination Sequence:
#
# PCOD8025093 Si02
#       7
#     2   2   2   2   2   2   2
#     4  10  23  44  68  99 138 186 239 296 362 425
#     4  11  25  45  73  99 149 190 239 290 373 424
#     4  11  24  47  73 100 145 198 241 296 371 438
#     4  11  23  45  75 102 139 190 247 300 360 436
#     4  12  27  41  67 109 148 190 243 299 362 435
#     4  12  25  43  71 104 147 184 246 299 365 430
#     4  11  24  46  71 104 143 192 235 300 359 434
#
# _framework density 23.182183999999999
#
# number of rings (size 3 to 8) (size 9 to 14) (size 15 to 20)
#    0.000    0.857    1.429    6.429    6.000    0.571 
#    0.000    2.143    0.000    0.000    0.000    0.000 
#    0.000    0.000    0.000    0.000    0.000    0.000 
#
# Total GULP energy -173531.239003 kJ/mol
# GULP energy per Si atom -12395.088500 kJ/mol
# Density = 2.312942 g / cm^3
# Si number density = 23.182184 Si / 1000 Ang^3
#
#
#
# Elastic Constant Matrix: (Units=GPa)
#
#
# Indices 1 2 3 4 5 6 
#
# 1 122.5643 48.2177 17.6659 -12.0172 -9.4746 -8.8990
# 2 48.2177 189.5862 37.8616 -19.2426 -3.7691 -27.1673
# 3 17.6659 37.8616 85.6247 -7.5593 -15.6420 -1.3579
# 4 -12.0172 -19.2426 -7.5593 32.4340 -0.7596 -4.3023
# 5 -9.4746 -3.7691 -15.6420 -0.7596 38.1200 -7.1957
# 6 -8.8990 -27.1673 -1.3579 -4.3023 -7.1957 52.5658
#
#
#
# Elastic Compliance Matrix: (Units=1/GPa)
#
#
# Indices 1 2 3 4 5 6 
#
# 1 0.009456 -0.001845 -0.000488 0.002499 0.002233 0.001145
# 2 -0.001845 0.007081 -0.002390 0.003433 0.000002 0.003567
# 3 -0.000488 -0.002390 0.013979 0.001776 0.005400 -0.000072
# 4 0.002499 0.003433 0.001776 0.035030 0.003441 0.005581
# 5 0.002233 0.000002 0.005400 0.003441 0.029999 0.004907
# 6 0.001145 0.003567 -0.000072 0.005581 0.004907 0.022188
#
#
# Mechanical properties :
#
#
# Convention : Reuss Voigt Hill
#
# Bulk Modulus (GPa) = 47.46500 67.25172 57.35836
# Shear Modulus (GPa) = 37.25718 44.22595 40.74156
#
# Velocity S-wave (km/s) = 4.01327 4.37252 4.19674
# Velocity P-wave (km/s) = 6.48031 7.38681 6.94836
#
# Compressibility (1/GPa) = 0.02106815
#
# Stress axis : x y z
#
# Youngs Moduli (GPa) = 105.75129 141.22339 71.53780
#
# Poissons Ratio (x) = 0.26061 0.03492
# Poissons Ratio (y) = 0.19515 0.17099
# Poissons Ratio (z) = 0.05162 0.33756
#
# Static dielectric constant tensor:
#      x y z
#    x 4.527320 -0.492950 0.096850 
#    y -0.492950 4.655400 -0.234700 
#    z 0.096850 -0.234700 4.087620 
# 
# 
# High freq. dielectric constant tensor:
#      x y z
#    x 1.930950 -0.020220 -0.009270 
#    y -0.020220 1.935480 -0.012010 
#    z -0.009270 -0.012010 1.895560 
# 
# From -- ./inp_files/236645.got.cif
#   From: 2010.06.25/outbox.cif.g09.slc.cpg/sg2_119_cif.got.tgz:236645.got - 2010.06.27 13:26:56.
