data_PCOD8025746
_publ_section_title
;
Structure prediction by ZEFSAII (Michael W. Deem and Ramdas Pophale) SiO2 
 PCOD8025746
Probable space group: P -1
;
_chemical_formula_sum "Si O2"
_cell_formula_units_Z 16
_cell_length_a 11.712018
_cell_length_b 11.532357
_cell_length_c 11.677179
_cell_angle_alpha 74.628138
_cell_angle_beta 30.744639
_cell_angle_gamma 66.698419
_cell_volume 731.040664
_symmetry_space_group_name_H-M "P -1"
_symmetry_group_IT_number 2
_symmetry_cell_setting 'triclinic'
loop_
_space_group_symop_operation_xyz
x,y,z
-x,-y,-z
loop_
_atom_site_type_symbol
_atom_site_label
_atom_site_fract_x
_atom_site_fract_y
_atom_site_fract_z
Si Si1 0.399285 0.828949 0.936453
Si Si2 0.029463 0.444607 0.798710
Si Si3 0.354359 0.665349 0.830539
Si Si4 0.914628 0.293585 0.327475
Si Si5 0.622824 0.888873 0.132941
Si Si6 0.211806 0.867871 0.338741
Si Si7 0.491841 0.289703 0.549970
Si Si8 0.811079 0.607194 0.561457
O O1 0.250529 0.777190 0.985657
O O2 0.270557 0.828553 0.167271
O O3 0.678308 0.733688 0.719064
O O4 0.400876 0.966246 0.861563
O O5 0.979481 0.592991 0.775600
O O6 0.234409 0.399077 0.729666
O O7 0.065546 0.365467 0.667932
O O8 0.801681 0.418936 0.053042
O O9 0.399041 0.742058 0.662084
O O10 0.600064 0.562635 0.697788
O O11 0.872134 0.239902 0.501174
O O12 0.661381 0.341093 0.468574
O O13 0.105296 0.184866 0.117077
O O14 0.450341 0.880525 0.181759
O O15 0.546158 0.834538 0.329193
O O16 0.000000 0.000000 0.500000
O O17 0.000000 0.500000 0.500000
#
# Coordination Sequence:
#
# PCOD8025746 Si02
#       8
#     2   2   2   2   2   2   2   2
#     4  10  23  46  69 101 142 176 225 281 341 409
#     4  11  23  44  68  97 142 178 229 282 343 400
#     4   9  23  43  67 100 137 184 222 282 337 404
#     4  11  25  41  71 103 133 183 227 287 340 405
#     4  11  24  42  72 101 131 185 228 283 346 397
#     4  11  24  44  70 103 141 174 226 280 343 410
#     4  10  23  46  64 103 134 178 237 280 346 397
#     4   9  23  43  66  99 138 182 222 270 341 407
#
# _framework density 21.886606
#
# number of rings (size 3 to 8) (size 9 to 14) (size 15 to 20)
#    0.750    1.000    1.250    1.500    1.750    9.000 
#    0.000    1.250    0.000    0.000    0.000    0.000 
#    0.000    0.000    0.000    0.000    0.000    0.000 
#
# Total GULP energy -198259.596223 kJ/mol
# GULP energy per Si atom -12391.224764 kJ/mol
# Density = 2.183679 g / cm^3
# Si number density = 21.886606 Si / 1000 Ang^3
#
#
#
# Elastic Constant Matrix: (Units=GPa)
#
#
# Indices 1 2 3 4 5 6 
#
# 1 96.6182 51.8610 52.5042 -17.1642 9.0185 -15.0133
# 2 51.8610 145.1134 66.1643 -20.4909 4.7199 -0.4470
# 3 52.5042 66.1643 113.1839 -9.1687 1.3553 -9.6427
# 4 -17.1642 -20.4909 -9.1687 42.0929 1.3767 -2.7747
# 5 9.0185 4.7199 1.3553 1.3767 37.2180 -2.5818
# 6 -15.0133 -0.4470 -9.6427 -2.7747 -2.5818 31.7826
#
#
#
# Elastic Compliance Matrix: (Units=1/GPa)
#
#
# Indices 1 2 3 4 5 6 
#
# 1 0.016884 -0.002858 -0.005169 0.004905 -0.003269 0.006530
# 2 -0.002858 0.010505 -0.004793 0.002765 -0.000739 -0.002475
# 3 -0.005169 -0.004793 0.014061 -0.001311 0.001519 0.001766
# 4 0.004905 0.002765 -0.001311 0.027163 -0.002208 0.004150
# 5 -0.003269 -0.000739 0.001519 -0.002208 0.027849 0.000976
# 6 0.006530 -0.002475 0.001766 0.004150 0.000976 0.035491
#
#
# Mechanical properties :
#
#
# Convention : Reuss Voigt Hill
#
# Bulk Modulus (GPa) = 63.25158 77.33052 70.29105
# Shear Modulus (GPa) = 30.70075 34.51109 32.60592
#
# Velocity S-wave (km/s) = 3.74935 3.97522 3.86394
# Velocity P-wave (km/s) = 6.90695 7.51524 7.21751
#
# Compressibility (1/GPa) = 0.01580988
#
# Stress axis : x y z
#
# Youngs Moduli (GPa) = 59.22705 95.19317 71.12057
#
# Poissons Ratio (x) = 0.27211 0.36759
# Poissons Ratio (y) = 0.16930 0.34088
# Poissons Ratio (z) = 0.30612 0.45626
#
# Static dielectric constant tensor:
#      x y z
#    x 3.929550 -0.190500 0.021110 
#    y -0.190500 3.712600 -0.040040 
#    z 0.021110 -0.040040 4.142100 
# 
# 
# High freq. dielectric constant tensor:
#      x y z
#    x 1.861980 -0.011580 0.002710 
#    y -0.011580 1.843920 -0.006860 
#    z 0.002710 -0.006860 1.874490 
# 
# From -- ./inp_files/427944.got.cif
#   From: 2010.06.25/outbox.cif.g09.slc.cpg/sg2_214_cif.got.tgz:427944.got - 2010.06.27 13:26:56.
