data_PCOD8025422
_publ_section_title
;
Structure prediction by ZEFSAII (Michael W. Deem and Ramdas Pophale) SiO2 
 PCOD8025422
Probable space group: P -1
;
_chemical_formula_sum "Si O2"
_cell_formula_units_Z 14
_cell_length_a 18.154074
_cell_length_b 8.933555
_cell_length_c 20.701161
_cell_angle_alpha 140.727604
_cell_angle_beta 160.814700
_cell_angle_gamma 50.670589
_cell_volume 617.161611
_symmetry_space_group_name_H-M "P -1"
_symmetry_group_IT_number 2
_symmetry_cell_setting 'triclinic'
loop_
_space_group_symop_operation_xyz
x,y,z
-x,-y,-z
loop_
_atom_site_type_symbol
_atom_site_label
_atom_site_fract_x
_atom_site_fract_y
_atom_site_fract_z
Si Si1 0.159515 0.007881 0.767315
Si Si2 0.188021 0.410268 0.157391
Si Si3 0.283420 0.907482 0.618670
Si Si4 0.160248 0.928616 0.888194
Si Si5 0.075640 0.352531 0.194236
Si Si6 0.282407 0.653464 0.666174
Si Si7 0.618337 0.916201 0.628978
O O1 0.904963 0.965912 0.505456
O O2 0.104819 0.002004 0.795798
O O3 0.199717 0.753646 0.695471
O O4 0.421424 0.284097 0.060182
O O5 0.133389 0.339749 0.162512
O O6 0.448720 0.679457 0.457208
O O7 0.000000 0.500000 0.000000
O O8 0.192454 0.165004 0.041242
O O9 0.166628 0.646715 0.390893
O O10 0.276858 0.836991 0.664377
O O11 0.576575 0.095037 0.902113
O O12 0.915445 0.654298 0.615039
O O13 0.193921 0.194898 0.281496
O O14 0.769281 0.179300 0.886799
O O15 0.500000 0.000000 0.500000
#
# Coordination Sequence:
#
# PCOD8025422 Si02
#       7
#     2   2   2   2   2   2   2
#     4  10  23  45  66  96 127 165 211 270 325 380
#     4  12  24  41  62  92 131 172 210 259 314 374
#     4  11  24  41  67  95 130 165 214 265 319 384
#     4  11  25  41  65  94 131 167 215 265 316 384
#     4  11  25  40  63  91 130 172 207 262 314 372
#     4  10  24  43  69  94 127 165 214 268 323 384
#     4  11  24  41  63  87 126 170 217 258 309 368
#
# _framework density 22.684495999999999
#
# number of rings (size 3 to 8) (size 9 to 14) (size 15 to 20)
#    0.000    1.143    2.857    2.143    4.000    2.857 
#    0.000    0.000    0.000    0.000    0.000    0.000 
#    0.000    0.000    0.000    0.000    0.000    0.000 
#
# Total GULP energy -173467.572788 kJ/mol
# GULP energy per Si atom -12390.540913 kJ/mol
# Density = 2.263286 g / cm^3
# Si number density = 22.684496 Si / 1000 Ang^3
#
#
#
# Elastic Constant Matrix: (Units=GPa)
#
#
# Indices 1 2 3 4 5 6 
#
# 1 82.7384 12.1307 4.0086 7.9946 -9.8415 -8.4413
# 2 12.1307 72.6988 30.9770 -18.2218 6.6729 3.2575
# 3 4.0086 30.9770 151.8536 -2.3391 17.1543 1.5324
# 4 7.9946 -18.2218 -2.3391 49.6910 4.2451 0.1262
# 5 -9.8415 6.6729 17.1543 4.2451 27.3037 0.1045
# 6 -8.4413 3.2575 1.5324 0.1262 0.1045 20.2832
#
#
#
# Elastic Compliance Matrix: (Units=1/GPa)
#
#
# Indices 1 2 3 4 5 6 
#
# 1 0.014796 -0.004432 -0.000465 -0.004678 0.007409 0.006895
# 2 -0.004432 0.018371 -0.002843 0.007797 -0.005496 -0.004600
# 3 -0.000465 -0.002843 0.007656 -0.000244 -0.004244 -0.000292
# 4 -0.004678 0.007797 -0.000244 0.024349 -0.007212 -0.003295
# 5 0.007409 -0.005496 -0.004244 -0.007212 0.044411 0.004103
# 6 0.006895 -0.004600 -0.000292 -0.003295 0.004103 0.052932
#
#
# Mechanical properties :
#
#
# Convention : Reuss Voigt Hill
#
# Bulk Modulus (GPa) = 39.46031 44.61373 42.03702
# Shear Modulus (GPa) = 26.81778 36.80054 31.80916
#
# Velocity S-wave (km/s) = 3.44205 4.03212 3.74871
# Velocity P-wave (km/s) = 5.76455 6.43328 6.10807
#
# Compressibility (1/GPa) = 0.02534192
#
# Stress axis : x y z
#
# Youngs Moduli (GPa) = 67.58810 54.43232 130.61358
#
# Poissons Ratio (x) = 0.24126 0.06075
# Poissons Ratio (y) = 0.29957 0.37137
# Poissons Ratio (z) = 0.03143 0.15477
#
# Static dielectric constant tensor:
#      x y z
#    x 3.431780 -0.393730 0.247920 
#    y -0.393730 3.588940 -0.005100 
#    z 0.247920 -0.005100 4.648540 
# 
# 
# High freq. dielectric constant tensor:
#      x y z
#    x 1.890970 0.003130 -0.001030 
#    y 0.003130 1.875150 -0.007440 
#    z -0.001030 -0.007440 1.927530 
# 
# From -- ./inp_files/529428.got.cif
#   From: 2010.06.25/outbox.cif.g09.slc.cpg/sg2_265_cif.got.tgz:529428.got - 2010.06.27 13:26:56.
