data_PCOD8025538
_publ_section_title
;
Structure prediction by ZEFSAII (Michael W. Deem and Ramdas Pophale) SiO2 
 PCOD8025538
Probable space group: P -1
;
_chemical_formula_sum "Si O2"
_cell_formula_units_Z 14
_cell_length_a 7.937908
_cell_length_b 9.946748
_cell_length_c 11.689046
_cell_angle_alpha 53.770455
_cell_angle_beta 100.023988
_cell_angle_gamma 68.608530
_cell_volume 592.628716
_symmetry_space_group_name_H-M "P -1"
_symmetry_group_IT_number 2
_symmetry_cell_setting 'triclinic'
loop_
_space_group_symop_operation_xyz
x,y,z
-x,-y,-z
loop_
_atom_site_type_symbol
_atom_site_label
_atom_site_fract_x
_atom_site_fract_y
_atom_site_fract_z
Si Si1 0.084330 0.250431 0.015363
Si Si2 0.407361 0.704701 0.729505
Si Si3 0.485881 0.097850 0.829048
Si Si4 0.724299 0.520958 0.672018
Si Si5 0.790121 0.462443 0.072564
Si Si6 0.825331 0.459277 0.470005
Si Si7 0.787059 0.855671 0.435080
O O1 0.168634 0.388717 0.933444
O O2 0.901137 0.323300 0.865182
O O3 0.997382 0.281639 0.118407
O O4 0.277302 0.011564 0.138016
O O5 0.494578 0.621089 0.653142
O O6 0.252222 0.646313 0.778498
O O7 0.286212 0.949932 0.592977
O O8 0.602158 0.598480 0.893059
O O9 0.375611 0.340183 0.717128
O O10 0.349779 0.069505 0.735897
O O11 0.500000 0.000000 0.000000
O O12 0.735351 0.433775 0.590808
O O13 0.759802 0.700814 0.581439
O O14 0.000000 0.500000 0.500000
O O15 0.961888 0.254104 0.511100
#
# Coordination Sequence:
#
# PCOD8025538 Si02
#       7
#     2   2   2   2   2   2   2
#     4  10  17  33  54  77 102 131 177 214 258 297
#     4  10  18  34  53  77 108 138 173 209 262 307
#     4  10  17  29  55  79 100 133 175 219 251 301
#     4   9  18  31  55  78 107 135 173 211 254 313
#     4   9  20  32  52  77 106 136 169 220 254 307
#     4   8  17  31  49  81 103 135 175 207 252 314
#     4  10  18  32  53  81 103 142 171 211 254 318
#
# _framework density 23.623562
#
# number of rings (size 3 to 8) (size 9 to 14) (size 15 to 20)
#    0.000    2.857    1.429    3.000    0.000    0.000 
#    0.000    0.714    3.143    4.286    0.000    1.000 
#    0.000    0.000    0.000    0.000    0.000    0.571 
#
# Total GULP energy -173532.003053 kJ/mol
# GULP energy per Si atom -12395.143075 kJ/mol
# Density = 2.356979 g / cm^3
# Si number density = 23.623562 Si / 1000 Ang^3
#
#
#
# Elastic Constant Matrix: (Units=GPa)
#
#
# Indices 1 2 3 4 5 6 
#
# 1 77.0256 39.3807 20.7126 -9.3445 -18.2361 -42.4687
# 2 39.3807 111.4491 38.9991 -18.8019 0.3846 -57.0973
# 3 20.7126 38.9991 95.3646 -5.0693 4.8217 -31.0692
# 4 -9.3445 -18.8019 -5.0693 38.4251 -13.0851 6.9125
# 5 -18.2361 0.3846 4.8217 -13.0851 30.7700 2.2206
# 6 -42.4687 -57.0973 -31.0692 6.9125 2.2206 45.2340
#
#
#
# Elastic Compliance Matrix: (Units=1/GPa)
#
#
# Indices 1 2 3 4 5 6 
#
# 1 0.052983 0.022110 0.003232 0.022543 0.034813 0.074719
# 2 0.022110 0.036510 0.001424 0.016923 0.014966 0.064502
# 3 0.003232 0.001424 0.013987 0.000320 -0.001201 0.014449
# 4 0.022543 0.016923 0.000320 0.043501 0.029096 0.034670
# 5 0.034813 0.014966 -0.001201 0.029096 0.062385 0.043242
# 6 0.074719 0.064502 0.014449 0.034670 0.043242 0.176180
#
#
# Mechanical properties :
#
#
# Convention : Reuss Voigt Hill
#
# Bulk Modulus (GPa) = 6.36892 53.55824 29.96358
# Shear Modulus (GPa) = 13.00892 35.20228 24.10560
#
# Velocity S-wave (km/s) = 2.34919 3.86441 3.19784
# Velocity P-wave (km/s) = 3.17177 6.52934 5.13286
#
# Compressibility (1/GPa) = 0.15701253
#
# Stress axis : x y z
#
# Youngs Moduli (GPa) = 18.87381 27.38959 71.49594
#
# Poissons Ratio (x) = -0.60559 -0.23104
# Poissons Ratio (y) = -0.41731 -0.10182
# Poissons Ratio (z) = -0.06099 -0.03901
#
# Static dielectric constant tensor:
#      x y z
#    x 4.163080 -0.728110 0.145710 
#    y -0.728110 4.666810 -0.180120 
#    z 0.145710 -0.180120 4.139620 
# 
# 
# High freq. dielectric constant tensor:
#      x y z
#    x 1.910730 -0.038930 0.011100 
#    y -0.038930 1.936710 0.001450 
#    z 0.011100 0.001450 1.930170 
# 
# From -- ./inp_files/392079.got.cif
#   From: 2010.06.25/outbox.cif.g09.slc.cpg/sg2_197_cif.got.tgz:392079.got - 2010.06.27 13:26:56.
