data_PCOD8025473
_publ_section_title
;
Structure prediction by ZEFSAII (Michael W. Deem and Ramdas Pophale) SiO2 
 PCOD8025473
Probable space group: P -1
;
_chemical_formula_sum "Si O2"
_cell_formula_units_Z 16
_cell_length_a 23.529133
_cell_length_b 8.636621
_cell_length_c 20.763806
_cell_angle_alpha 151.387716
_cell_angle_beta 21.176490
_cell_angle_gamma 141.096081
_cell_volume 709.748007
_symmetry_space_group_name_H-M "P -1"
_symmetry_group_IT_number 2
_symmetry_cell_setting 'triclinic'
loop_
_space_group_symop_operation_xyz
x,y,z
-x,-y,-z
loop_
_atom_site_type_symbol
_atom_site_label
_atom_site_fract_x
_atom_site_fract_y
_atom_site_fract_z
Si Si1 0.041954 0.217002 0.478676
Si Si2 0.629545 0.280847 0.737922
Si Si3 0.050590 0.031379 0.651678
Si Si4 0.827059 0.939498 0.962405
Si Si5 0.120899 0.732375 0.848766
Si Si6 0.471283 0.133886 0.399921
Si Si7 0.645386 0.716759 0.768804
Si Si8 0.763325 0.110899 0.346092
O O1 0.235358 0.158288 0.261514
O O2 0.949416 0.596472 0.727554
O O3 0.000000 0.000000 0.500000
O O4 0.992892 0.091203 0.416338
O O5 0.582280 0.452986 0.781587
O O6 0.807938 0.256483 0.570072
O O7 0.609915 0.916635 0.602861
O O8 0.500000 0.500000 0.000000
O O9 0.120500 0.357728 0.691785
O O10 0.890745 0.087445 0.884682
O O11 0.807723 0.228957 0.142415
O O12 0.648586 0.878825 0.119797
O O13 0.225241 0.895356 0.746455
O O14 0.937333 0.934726 0.124273
O O15 0.500000 0.500000 0.500000
O O16 0.367869 0.073125 0.550852
O O17 0.733041 0.504759 0.538568
O O18 0.500000 0.000000 0.000000
#
# Coordination Sequence:
#
# PCOD8025473 Si02
#       8
#     2   2   2   2   2   2   2   2
#     4  12  27  44  70 107 140 186 245 292 356 421
#     4  11  25  44  69 101 139 186 236 291 354 424
#     4  12  25  45  75 105 141 188 245 297 356 432
#     4  12  24  45  70 103 144 186 237 301 354 427
#     4  11  23  44  75  99 141 190 237 295 361 430
#     4  11  24  44  68 102 143 181 237 295 359 425
#     4  11  25  47  71 101 144 187 232 292 356 428
#     4  10  23  45  68 103 139 188 240 290 360 431
#
# _framework density 22.543213000000002
#
# number of rings (size 3 to 8) (size 9 to 14) (size 15 to 20)
#    0.000    0.750    2.500    4.500   10.500    0.500 
#    0.000    0.000    0.000    0.000    0.000    0.000 
#    0.000    0.000    0.000    0.000    0.000    0.000 
#
# Total GULP energy -198252.902121 kJ/mol
# GULP energy per Si atom -12390.806383 kJ/mol
# Density = 2.249190 g / cm^3
# Si number density = 22.543213 Si / 1000 Ang^3
#
#
#
# Elastic Constant Matrix: (Units=GPa)
#
#
# Indices 1 2 3 4 5 6 
#
# 1 153.3613 51.4625 57.2291 -6.3166 8.1163 12.8382
# 2 51.4625 112.9525 42.9621 -11.1205 12.6141 0.8566
# 3 57.2291 42.9621 125.9285 -13.6348 -4.9501 1.1139
# 4 -6.3166 -11.1205 -13.6348 49.5944 -4.4709 6.5045
# 5 8.1163 12.6141 -4.9501 -4.4709 47.0384 -1.9999
# 6 12.8382 0.8566 1.1139 6.5045 -1.9999 38.5464
#
#
#
# Elastic Compliance Matrix: (Units=1/GPa)
#
#
# Indices 1 2 3 4 5 6 
#
# 1 0.008911 -0.002701 -0.003161 -0.000078 -0.001275 -0.002869
# 2 -0.002701 0.011533 -0.002689 0.001203 -0.002779 0.000374
# 3 -0.003161 -0.002689 0.010617 0.002070 0.002606 0.000592
# 4 -0.000078 0.001203 0.002070 0.021630 0.001811 -0.003616
# 5 -0.001275 -0.002779 0.002606 0.001811 0.022726 0.001285
# 6 -0.002869 0.000374 0.000592 -0.003616 0.001285 0.027550
#
#
# Mechanical properties :
#
#
# Convention : Reuss Voigt Hill
#
# Bulk Modulus (GPa) = 71.64961 77.28330 74.46645
# Shear Modulus (GPa) = 40.08901 43.07507 41.58204
#
# Velocity S-wave (km/s) = 4.22159 4.37599 4.29948
# Velocity P-wave (km/s) = 7.45752 7.73880 7.59946
#
# Compressibility (1/GPa) = 0.01395681
#
# Stress axis : x y z
#
# Youngs Moduli (GPa) = 112.21876 86.70900 94.19159
#
# Poissons Ratio (x) = 0.23421 0.29779
# Poissons Ratio (y) = 0.30311 0.25331
# Poissons Ratio (z) = 0.35478 0.23319
#
# Static dielectric constant tensor:
#      x y z
#    x 3.879310 -0.054940 -0.196560 
#    y -0.054940 4.109110 -0.167890 
#    z -0.196560 -0.167890 4.126520 
# 
# 
# High freq. dielectric constant tensor:
#      x y z
#    x 1.894120 0.001360 0.002740 
#    y 0.001360 1.893090 -0.001080 
#    z 0.002740 -0.001080 1.897230 
# 
# From -- ./inp_files/601956.got.cif
#   From: 2010.06.25/outbox.cif.g09.slc.cpg/sg2_301_cif.got.tgz:601956.got - 2010.06.27 13:26:56.
