data_PCOD8025078
_publ_section_title
;
Structure prediction by ZEFSAII (Michael W. Deem and Ramdas Pophale) SiO2 
 PCOD8025078
Probable space group: P -1
;
_chemical_formula_sum "Si O2"
_cell_formula_units_Z 12
_cell_length_a 12.576420
_cell_length_b 9.896066
_cell_length_c 18.251739
_cell_angle_alpha 24.497930
_cell_angle_beta 145.025006
_cell_angle_gamma 141.831473
_cell_volume 532.010282
_symmetry_space_group_name_H-M "P -1"
_symmetry_group_IT_number 2
_symmetry_cell_setting 'triclinic'
loop_
_space_group_symop_operation_xyz
x,y,z
-x,-y,-z
loop_
_atom_site_type_symbol
_atom_site_label
_atom_site_fract_x
_atom_site_fract_y
_atom_site_fract_z
Si Si1 0.426476 0.696914 0.696403
Si Si2 0.834219 0.661578 0.931247
Si Si3 0.865511 0.254187 0.279490
Si Si4 0.475485 0.804647 0.285324
Si Si5 0.164982 0.197279 0.897594
Si Si6 0.403625 0.396551 0.305982
O O1 0.641921 0.723654 0.833105
O O2 0.288857 0.417186 0.798737
O O3 0.422647 0.612355 0.648331
O O4 0.361559 0.050761 0.497557
O O5 0.783913 0.559181 0.868516
O O6 0.903739 0.363952 0.162121
O O7 0.987735 0.992091 0.856769
O O8 0.913536 0.582339 0.194077
O O9 0.651100 0.093398 0.252559
O O10 0.000000 0.000000 0.500000
O O11 0.500000 0.500000 0.500000
O O12 0.458743 0.699514 0.242446
O O13 0.288362 0.950894 0.127942
#
# Coordination Sequence:
#
# PCOD8025078 Si02
#       6
#     2   2   2   2   2   2
#     4   9  21  43  67 100 135 178 219 282 336 397
#     4  10  23  44  68  97 140 174 227 283 331 401
#     4  12  27  43  67 102 140 181 228 283 336 398
#     4  12  25  42  72 100 137 180 228 279 340 413
#     4  12  25  43  71  99 133 185 227 279 340 400
#     4   9  22  43  67 100 137 177 222 282 344 389
#
# _framework density 22.555955999999998
#
# number of rings (size 3 to 8) (size 9 to 14) (size 15 to 20)
#    1.000    0.333    1.667    3.000    4.667    4.000 
#    0.000    1.667    0.000    0.000    0.000    0.000 
#    0.000    0.000    0.000    0.000    0.000    0.000 
#
# Total GULP energy -148784.739929 kJ/mol
# GULP energy per Si atom -12398.728327 kJ/mol
# Density = 2.250462 g / cm^3
# Si number density = 22.555956 Si / 1000 Ang^3
#
#
#
# Elastic Constant Matrix: (Units=GPa)
#
#
# Indices 1 2 3 4 5 6 
#
# 1 49.0330 22.1546 31.0959 1.9483 2.8788 -3.1776
# 2 22.1546 102.0387 21.9950 9.2376 -12.4796 7.1990
# 3 31.0959 21.9950 152.6131 4.1152 -7.4686 -2.1961
# 4 1.9483 9.2376 4.1152 30.4793 3.6641 -4.5816
# 5 2.8788 -12.4796 -7.4686 3.6641 37.6417 -8.9740
# 6 -3.1776 7.1990 -2.1961 -4.5816 -8.9740 44.1672
#
#
#
# Elastic Compliance Matrix: (Units=1/GPa)
#
#
# Indices 1 2 3 4 5 6 
#
# 1 0.026221 -0.005464 -0.004788 0.001432 -0.004483 0.001777
# 2 -0.005464 0.012090 -0.000337 -0.004076 0.004296 -0.001930
# 3 -0.004788 -0.000337 0.007700 -0.000806 0.001958 0.000408
# 4 0.001432 -0.004076 -0.000806 0.035095 -0.004199 0.003515
# 5 -0.004483 0.004296 0.001958 -0.004199 0.030272 0.004790
# 6 0.001777 -0.001930 0.000408 0.003515 0.004790 0.024442
#
#
# Mechanical properties :
#
#
# Convention : Reuss Voigt Hill
#
# Bulk Modulus (GPa) = 40.26818 50.46396 45.36607
# Shear Modulus (GPa) = 30.25259 37.68693 33.96976
#
# Velocity S-wave (km/s) = 3.66625 4.09200 3.88496
# Velocity P-wave (km/s) = 5.98441 6.68934 6.34667
#
# Compressibility (1/GPa) = 0.02483351
#
# Stress axis : x y z
#
# Youngs Moduli (GPa) = 38.13728 82.71441 129.87113
#
# Poissons Ratio (x) = 0.45199 0.62177
# Poissons Ratio (y) = 0.20840 0.04372
# Poissons Ratio (z) = 0.18259 0.02785
#
# Static dielectric constant tensor:
#      x y z
#    x 3.825720 -0.045680 -0.058600 
#    y -0.045680 4.025220 0.048340 
#    z -0.058600 0.048340 4.227020 
# 
# 
# High freq. dielectric constant tensor:
#      x y z
#    x 1.872070 -0.001620 -0.011480 
#    y -0.001620 1.888030 -0.001210 
#    z -0.011480 -0.001210 1.902760 
# 
# From -- ./inp_files/377017.got.cif
#   From: 2010.06.25/outbox.cif.g09.slc.cpg/sg2_189_cif.got.tgz:377017.got - 2010.06.27 13:26:56.
