data_PCOD8025420
_publ_section_title
;
Structure prediction by ZEFSAII (Michael W. Deem and Ramdas Pophale) SiO2 
 PCOD8025420
Probable space group: P -1
;
_chemical_formula_sum "Si O2"
_cell_formula_units_Z 16
_cell_length_a 11.632969
_cell_length_b 14.416728
_cell_length_c 28.015406
_cell_angle_alpha 20.147423
_cell_angle_beta 30.448689
_cell_angle_gamma 30.763018
_cell_volume 785.800872
_symmetry_space_group_name_H-M "P -1"
_symmetry_group_IT_number 2
_symmetry_cell_setting 'triclinic'
loop_
_space_group_symop_operation_xyz
x,y,z
-x,-y,-z
loop_
_atom_site_type_symbol
_atom_site_label
_atom_site_fract_x
_atom_site_fract_y
_atom_site_fract_z
Si Si1 0.769210 0.154320 0.539008
Si Si2 0.673371 0.987629 0.811303
Si Si3 0.201995 0.820511 0.048710
Si Si4 0.287496 0.521939 0.504659
Si Si5 0.453537 0.763501 0.163064
Si Si6 0.932314 0.184255 0.791330
Si Si7 0.718573 0.591659 0.858118
Si Si8 0.022335 0.438894 0.913306
O O1 0.563127 0.345558 0.487448
O O2 0.813336 0.366523 0.460725
O O3 0.669358 0.926574 0.712786
O O4 0.000000 0.000000 0.500000
O O5 0.753931 0.210829 0.643107
O O6 0.680566 0.090529 0.812596
O O7 0.864786 0.686927 0.882082
O O8 0.419847 0.954252 0.902999
O O9 0.136034 0.785982 0.143165
O O10 0.251360 0.511144 0.157650
O O11 0.000000 0.000000 0.000000
O O12 0.146556 0.306832 0.642468
O O13 0.280991 0.637939 0.252852
O O14 0.706513 0.542944 0.191906
O O15 0.500000 0.000000 0.000000
O O16 0.001691 0.851820 0.915096
O O17 0.942901 0.458082 0.876811
O O18 0.500000 0.500000 0.000000
#
# Coordination Sequence:
#
# PCOD8025420 Si02
#       8
#     2   2   2   2   2   2   2   2
#     4  11  25  41  62  93 141 173 202 256 339 397
#     4  12  24  43  69  96 129 173 219 268 324 387
#     4  12  23  36  68  97 128 170 213 264 324 386
#     4  11  26  42  63  97 136 170 210 268 333 388
#     4  10  23  45  66  95 128 172 222 274 320 371
#     4  11  24  45  64  95 134 167 222 272 316 388
#     4  12  21  37  63  99 127 163 219 261 316 391
#     4  11  22  41  70  93 128 171 223 265 319 381
#
# _framework density 20.361391999999999
#
# number of rings (size 3 to 8) (size 9 to 14) (size 15 to 20)
#    0.000    0.750    6.250    1.500    7.000    2.500 
#    0.000    0.625    0.000    0.000    0.000    0.000 
#    0.000    0.000    0.000    0.000    0.000    0.000 
#
# Total GULP energy -198327.627796 kJ/mol
# GULP energy per Si atom -12395.476737 kJ/mol
# Density = 2.031505 g / cm^3
# Si number density = 20.361392 Si / 1000 Ang^3
#
#
#
# Elastic Constant Matrix: (Units=GPa)
#
#
# Indices 1 2 3 4 5 6 
#
# 1 145.7125 61.1469 25.3347 10.2271 -7.9174 -5.8760
# 2 61.1469 138.8442 35.3209 6.7112 -2.6849 -0.3244
# 3 25.3347 35.3209 93.9812 0.0022 -6.9157 -10.2125
# 4 10.2271 6.7112 0.0022 22.7730 2.1631 7.2406
# 5 -7.9174 -2.6849 -6.9157 2.1631 18.9580 -1.4590
# 6 -5.8760 -0.3244 -10.2125 7.2406 -1.4590 23.8492
#
#
#
# Elastic Compliance Matrix: (Units=1/GPa)
#
#
# Indices 1 2 3 4 5 6 
#
# 1 0.009134 -0.003610 -0.000417 -0.004575 0.003954 0.003653
# 2 -0.003610 0.009525 -0.002917 -0.000438 -0.001323 -0.001957
# 3 -0.000417 -0.002917 0.012854 -0.001327 0.004719 0.006053
# 4 -0.004575 -0.000438 -0.001327 0.052873 -0.009903 -0.018360
# 5 0.003954 -0.001323 0.004719 -0.009903 0.057796 0.009519
# 6 0.003653 -0.001957 0.006053 -0.018360 0.009519 0.051552
#
#
# Mechanical properties :
#
#
# Convention : Reuss Voigt Hill
#
# Bulk Modulus (GPa) = 56.73827 69.12699 62.93263
# Shear Modulus (GPa) = 23.41941 30.23171 26.82556
#
# Velocity S-wave (km/s) = 3.39512 3.85743 3.63364
# Velocity P-wave (km/s) = 6.57991 7.33917 6.96989
#
# Compressibility (1/GPa) = 0.01762479
#
# Stress axis : x y z
#
# Youngs Moduli (GPa) = 109.48525 104.98466 77.79560
#
# Poissons Ratio (x) = 0.37901 0.03246
# Poissons Ratio (y) = 0.39526 0.22691
# Poissons Ratio (z) = 0.04569 0.30621
#
# Static dielectric constant tensor:
#      x y z
#    x 4.324250 -0.148300 -0.332670 
#    y -0.148300 4.112210 -0.101050 
#    z -0.332670 -0.101050 3.755500 
# 
# 
# High freq. dielectric constant tensor:
#      x y z
#    x 1.802660 -0.000410 -0.007080 
#    y -0.000410 1.798000 -0.001630 
#    z -0.007080 -0.001630 1.786250 
# 
# From -- ./inp_files/623107.got.cif
#   From: 2010.06.25/outbox.cif.g09.slc.cpg/sg2_312_cif.got.tgz:623107.got - 2010.06.27 13:26:56.
