data_PCOD8025955
_publ_section_title
;
Structure prediction by ZEFSAII (Michael W. Deem and Ramdas Pophale) SiO2 
 PCOD8025955
Probable space group: P -1
;
_chemical_formula_sum "Si O2"
_cell_formula_units_Z 16
_cell_length_a 18.073030
_cell_length_b 14.935018
_cell_length_c 23.378115
_cell_angle_alpha 159.888220
_cell_angle_beta 159.851243
_cell_angle_gamma 26.128190
_cell_volume 740.333483
_symmetry_space_group_name_H-M "P -1"
_symmetry_group_IT_number 2
_symmetry_cell_setting 'triclinic'
loop_
_space_group_symop_operation_xyz
x,y,z
-x,-y,-z
loop_
_atom_site_type_symbol
_atom_site_label
_atom_site_fract_x
_atom_site_fract_y
_atom_site_fract_z
Si Si1 0.314334 0.384157 0.893043
Si Si2 0.674405 0.098547 0.143462
Si Si3 0.916655 0.731868 0.788328
Si Si4 0.171701 0.069450 0.500130
Si Si5 0.523430 0.876610 0.792895
Si Si6 0.624183 0.815479 0.397437
Si Si7 0.683609 0.671265 0.477819
Si Si8 0.553917 0.681352 0.577073
O O1 0.287851 0.278215 0.746070
O O2 0.081196 0.545984 0.836689
O O3 0.356639 0.144315 0.824567
O O4 0.493959 0.580068 0.142359
O O5 0.578703 0.401036 0.240925
O O6 0.916924 0.066288 0.326841
O O7 0.500000 0.000000 0.000000
O O8 0.692777 0.929666 0.996744
O O9 0.894206 0.612485 0.636576
O O10 0.686666 0.786860 0.685497
O O11 0.000000 0.000000 0.000000
O O12 0.200929 0.136022 0.494398
O O13 0.300957 0.784330 0.441420
O O14 0.635869 0.796068 0.765150
O O15 0.400617 0.635085 0.578748
O O16 0.751506 0.731685 0.498647
O O17 0.469472 0.085588 0.459608
#
# Coordination Sequence:
#
# PCOD8025955 Si02
#       8
#     2   2   2   2   2   2   2   2
#     4  11  22  42  68 102 128 175 221 266 330 390
#     4  12  26  46  67  97 132 176 222 273 330 396
#     4  12  22  40  69  99 134 178 217 267 330 389
#     4  11  24  42  71  97 129 177 217 275 333 386
#     4  10  24  46  66  93 133 170 223 275 324 385
#     4  11  23  43  66  98 139 169 221 268 331 398
#     4  11  23  43  64  98 138 174 214 273 326 393
#     4  10  23  47  66  96 132 170 225 275 321 396
#
# _framework density 21.611882000000001
#
# number of rings (size 3 to 8) (size 9 to 14) (size 15 to 20)
#    0.000    1.000    5.000    1.125    0.000    3.500 
#    4.500    0.000    0.000    0.000    0.000    0.000 
#    0.000    0.000    0.000    0.000    0.000    0.000 
#
# Total GULP energy -198297.312961 kJ/mol
# GULP energy per Si atom -12393.582060 kJ/mol
# Density = 2.156269 g / cm^3
# Si number density = 21.611882 Si / 1000 Ang^3
#
#
#
# Elastic Constant Matrix: (Units=GPa)
#
#
# Indices 1 2 3 4 5 6 
#
# 1 117.9357 28.3807 62.0985 -1.8344 -1.7460 17.6714
# 2 28.3807 112.5953 50.6683 15.3423 9.7657 4.8749
# 3 62.0985 50.6683 121.5429 11.8321 -8.2902 3.4070
# 4 -1.8344 15.3423 11.8321 41.0379 1.2911 -0.9048
# 5 -1.7460 9.7657 -8.2902 1.2911 40.6571 -1.1954
# 6 17.6714 4.8749 3.4070 -0.9048 -1.1954 26.3703
#
#
#
# Elastic Compliance Matrix: (Units=1/GPa)
#
#
# Indices 1 2 3 4 5 6 
#
# 1 0.013340 -0.000189 -0.006831 0.002494 -0.001089 -0.007986
# 2 -0.000189 0.011892 -0.004780 -0.002995 -0.003795 -0.001729
# 3 -0.006831 -0.004780 0.014130 -0.002634 0.003929 0.003723
# 4 0.002494 -0.002995 -0.002634 0.026378 -0.000545 0.000103
# 5 -0.001089 -0.003795 0.003929 -0.000545 0.026341 0.002099
# 6 -0.007986 -0.001729 0.003723 0.000103 0.002099 0.043211
#
#
# Mechanical properties :
#
#
# Convention : Reuss Voigt Hill
#
# Bulk Modulus (GPa) = 63.43372 70.48546 66.95959
# Shear Modulus (GPa) = 30.46095 35.67483 33.06789
#
# Velocity S-wave (km/s) = 3.75834 4.06729 3.91587
# Velocity P-wave (km/s) = 6.94612 7.39880 7.17603
#
# Compressibility (1/GPa) = 0.01576449
#
# Stress axis : x y z
#
# Youngs Moduli (GPa) = 74.95982 84.09017 70.77102
#
# Poissons Ratio (x) = 0.01585 0.48340
# Poissons Ratio (y) = 0.01413 0.33828
# Poissons Ratio (z) = 0.51201 0.40195
#
# Static dielectric constant tensor:
#      x y z
#    x 3.819200 0.082700 -0.217930 
#    y 0.082700 4.411370 0.256180 
#    z -0.217930 0.256180 3.636520 
# 
# 
# High freq. dielectric constant tensor:
#      x y z
#    x 1.845230 0.016850 -0.026060 
#    y 0.016850 1.859150 0.021830 
#    z -0.026060 0.021830 1.841830 
# 
# From -- ./inp_files/239942.got.cif
#   From: 2010.06.25/outbox.cif.g09.slc.cpg/sg2_120_cif.got.tgz:239942.got - 2010.06.27 13:26:56.
