data_PCOD8025716
_publ_section_title
;
Structure prediction by ZEFSAII (Michael W. Deem and Ramdas Pophale) SiO2 
 PCOD8025716
Probable space group: P -1
;
_chemical_formula_sum "Si O2"
_cell_formula_units_Z 16
_cell_length_a 9.298790
_cell_length_b 5.515472
_cell_length_c 16.482458
_cell_angle_alpha 75.052002
_cell_angle_beta 117.293328
_cell_angle_gamma 73.951718
_cell_volume 644.558219
_symmetry_space_group_name_H-M "P -1"
_symmetry_group_IT_number 2
_symmetry_cell_setting 'triclinic'
loop_
_space_group_symop_operation_xyz
x,y,z
-x,-y,-z
loop_
_atom_site_type_symbol
_atom_site_label
_atom_site_fract_x
_atom_site_fract_y
_atom_site_fract_z
Si Si1 0.729300 0.211605 0.122954
Si Si2 0.373102 0.244728 0.004720
Si Si3 0.203962 0.910577 0.037660
Si Si4 0.180089 0.234260 0.381623
Si Si5 0.820864 0.970726 0.433029
Si Si6 0.650944 0.341346 0.619160
Si Si7 0.486166 0.424569 0.741422
Si Si8 0.176912 0.291011 0.703508
O O1 0.515134 0.322742 0.082741
O O2 0.849981 0.953288 0.234539
O O3 0.759803 0.491624 0.111536
O O4 0.777133 0.120659 0.050404
O O5 0.253695 0.169255 0.044240
O O6 0.500000 0.000000 0.000000
O O7 0.342659 0.639903 0.149364
O O8 0.000000 0.000000 0.000000
O O9 0.247023 0.466226 0.354440
O O10 0.962040 0.404263 0.322804
O O11 0.265296 0.095911 0.503063
O O12 0.222042 0.983102 0.349347
O O13 0.659451 0.247379 0.326590
O O14 0.877158 0.720707 0.403252
O O15 0.000000 0.000000 0.500000
O O16 0.500000 0.500000 0.500000
O O17 0.559833 0.312112 0.680767
O O18 0.381288 0.254889 0.764720
#
# Coordination Sequence:
#
# PCOD8025716 Si02
#       8
#     2   2   2   2   2   2   2   2
#     4  10  23  45  74 107 144 200 255 319 383 470
#     4   9  20  43  71  97 145 187 250 313 380 443
#     4  11  26  48  70 112 156 196 256 322 395 467
#     4  12  27  51  76 112 161 212 259 331 395 481
#     4  12  26  47  77 119 158 194 268 332 392 470
#     4  12  27  51  75 113 161 211 265 325 405 480
#     4  12  28  46  79 113 153 212 258 328 400 475
#     4  12  27  45  81 113 153 208 266 320 399 478
#
# _framework density 24.823204
#
# number of rings (size 3 to 8) (size 9 to 14) (size 15 to 20)
#    0.000    0.750    3.750    2.250    8.750    0.500 
#    0.000    0.000    0.000    0.000    0.000    0.000 
#    0.000    0.000    0.000    0.000    0.000    0.000 
#
# Total GULP energy -198243.069391 kJ/mol
# GULP energy per Si atom -12390.191837 kJ/mol
# Density = 2.476671 g / cm^3
# Si number density = 24.823204 Si / 1000 Ang^3
#
#
#
# Elastic Constant Matrix: (Units=GPa)
#
#
# Indices 1 2 3 4 5 6 
#
# 1 158.8058 48.9828 44.1630 -11.7481 3.7156 -6.4833
# 2 48.9828 122.0709 19.0030 -21.8479 -2.3737 -11.4404
# 3 44.1630 19.0030 108.8087 -21.3005 -5.6442 -10.9279
# 4 -11.7481 -21.8479 -21.3005 42.7517 2.1794 -10.4028
# 5 3.7156 -2.3737 -5.6442 2.1794 43.8658 2.5814
# 6 -6.4833 -11.4404 -10.9279 -10.4028 2.5814 39.1140
#
#
#
# Elastic Compliance Matrix: (Units=1/GPa)
#
#
# Indices 1 2 3 4 5 6 
#
# 1 0.007990 -0.002972 -0.003015 -0.000901 -0.001148 -0.000551
# 2 -0.002972 0.010793 0.001042 0.006320 0.000384 0.004611
# 3 -0.003015 0.001042 0.012144 0.006895 0.001240 0.004950
# 4 -0.000901 0.006320 0.006895 0.032891 -0.001061 0.012443
# 5 -0.001148 0.000384 0.001240 -0.001061 0.023218 -0.001546
# 6 -0.000551 0.004611 0.004950 0.012443 -0.001546 0.031618
#
#
# Mechanical properties :
#
#
# Convention : Reuss Voigt Hill
#
# Bulk Modulus (GPa) = 47.53859 68.22033 57.87946
# Shear Modulus (GPa) = 36.88501 43.64873 40.26687
#
# Velocity S-wave (km/s) = 3.85893 4.19786 4.03196
# Velocity P-wave (km/s) = 6.24881 7.14410 6.71140
#
# Compressibility (1/GPa) = 0.02103554
#
# Stress axis : x y z
#
# Youngs Moduli (GPa) = 125.15810 92.65132 82.34784
#
# Poissons Ratio (x) = 0.27535 0.24829
# Poissons Ratio (y) = 0.37196 -0.08577
# Poissons Ratio (z) = 0.37738 -0.09650
#
# Static dielectric constant tensor:
#      x y z
#    x 4.404680 -0.527600 -0.517640 
#    y -0.527600 3.747040 -0.447730 
#    z -0.517640 -0.447730 4.604050 
# 
# 
# High freq. dielectric constant tensor:
#      x y z
#    x 1.986410 0.003040 -0.015110 
#    y 0.003040 1.991250 -0.014700 
#    z -0.015110 -0.014700 1.991520 
# 
# From -- ./inp_files/553366.got.cif
#   From: 2010.06.25/outbox.cif.g09.slc.cpg/sg2_277_cif.got.tgz:553366.got - 2010.06.27 13:26:56.
