data_PCOD8025657
_publ_section_title
;
Structure prediction by ZEFSAII (Michael W. Deem and Ramdas Pophale) SiO2 
 PCOD8025657
Probable space group: P -1
;
_chemical_formula_sum "Si O2"
_cell_formula_units_Z 14
_cell_length_a 6.245922
_cell_length_b 16.458874
_cell_length_c 6.641841
_cell_angle_alpha 74.923278
_cell_angle_beta 71.696889
_cell_angle_gamma 94.397142
_cell_volume 616.520645
_symmetry_space_group_name_H-M "P -1"
_symmetry_group_IT_number 2
_symmetry_cell_setting 'triclinic'
loop_
_space_group_symop_operation_xyz
x,y,z
-x,-y,-z
loop_
_atom_site_type_symbol
_atom_site_label
_atom_site_fract_x
_atom_site_fract_y
_atom_site_fract_z
Si Si1 0.282803 0.194652 0.153824
Si Si2 0.010726 0.899743 0.042216
Si Si3 0.308519 0.674954 0.216748
Si Si4 0.874389 0.560264 0.365766
Si Si5 0.423980 0.903257 0.630970
Si Si6 0.124087 0.801353 0.462700
Si Si7 0.492555 0.492187 0.771636
O O1 0.348217 0.128002 0.339236
O O2 0.077580 0.233705 0.295060
O O3 0.510385 0.265325 0.014712
O O4 0.204552 0.148245 0.994701
O O5 0.020050 0.853577 0.283558
O O6 0.240672 0.887392 0.872338
O O7 0.000000 0.000000 0.000000
O O8 0.420768 0.592474 0.283838
O O9 0.057410 0.645339 0.202124
O O10 0.241861 0.722792 0.404267
O O11 0.655333 0.572997 0.563896
O O12 0.771252 0.516118 0.216511
O O13 0.000000 0.500000 0.500000
O O14 0.327941 0.861854 0.477036
O O15 0.500000 0.000000 0.500000
O O16 0.500000 0.500000 0.000000
#
# Coordination Sequence:
#
# PCOD8025657 Si02
#       7
#     2   2   2   2   2   2   2
#     4  11  26  43  64 101 133 178 230 276 345 388
#     4  11  24  43  67  96 135 179 232 282 332 405
#     4  11  25  43  69 101 139 174 221 282 336 403
#     4   9  22  45  67 100 133 170 218 265 333 405
#     4  11  24  43  67  97 131 182 234 275 339 404
#     4  11  26  43  64  99 136 175 228 283 338 390
#     4  10  23  45  72 101 132 177 220 268 335 411
#
# _framework density 22.708079000000001
#
# number of rings (size 3 to 8) (size 9 to 14) (size 15 to 20)
#    0.000    1.429    1.429    1.714    8.000    5.714 
#    5.143    0.000    0.000    0.000    0.000    0.000 
#    0.000    0.000    0.000    0.000    0.000    0.000 
#
# Total GULP energy -173453.191135 kJ/mol
# GULP energy per Si atom -12389.513652 kJ/mol
# Density = 2.265639 g / cm^3
# Si number density = 22.708079 Si / 1000 Ang^3
#
#
#
# Elastic Constant Matrix: (Units=GPa)
#
#
# Indices 1 2 3 4 5 6 
#
# 1 131.4395 56.6877 56.6182 14.1351 13.9426 30.4594
# 2 56.6877 103.3822 46.0609 13.2258 -6.1656 12.8171
# 3 56.6182 46.0609 118.1607 20.0198 9.0254 21.8398
# 4 14.1351 13.2258 20.0198 34.1796 8.9111 -5.5265
# 5 13.9426 -6.1656 9.0254 8.9111 52.8128 1.6379
# 6 30.4594 12.8171 21.8398 -5.5265 1.6379 51.2336
#
#
#
# Elastic Compliance Matrix: (Units=1/GPa)
#
#
# Indices 1 2 3 4 5 6 
#
# 1 0.012638 -0.005084 -0.002565 -0.001817 -0.003022 -0.005247
# 2 -0.005084 0.014368 -0.003084 -0.002635 0.003981 0.000331
# 3 -0.002565 -0.003084 0.012551 -0.005477 -0.000791 -0.003620
# 4 -0.001817 -0.002635 -0.005477 0.036972 -0.005386 0.008235
# 5 -0.003022 0.003981 -0.000791 -0.005386 0.021245 -0.000122
# 6 -0.005247 0.000331 -0.003620 0.008235 -0.000122 0.024990
#
#
# Mechanical properties :
#
#
# Convention : Reuss Voigt Hill
#
# Bulk Modulus (GPa) = 55.27320 74.63513 64.95416
# Shear Modulus (GPa) = 33.27561 40.55290 36.91426
#
# Velocity S-wave (km/s) = 3.83216 4.23050 4.03625
# Velocity P-wave (km/s) = 6.63131 7.53667 7.09844
#
# Compressibility (1/GPa) = 0.01809195
#
# Stress axis : x y z
#
# Youngs Moduli (GPa) = 79.12872 69.59951 79.67191
#
# Poissons Ratio (x) = 0.35384 0.20436
# Poissons Ratio (y) = 0.40229 0.24567
# Poissons Ratio (z) = 0.20297 0.21461
#
# Static dielectric constant tensor:
#      x y z
#    x 4.399300 0.308860 -0.180720 
#    y 0.308860 4.246070 -0.024720 
#    z -0.180720 -0.024720 3.936390 
# 
# 
# High freq. dielectric constant tensor:
#      x y z
#    x 1.919650 0.014200 -0.005210 
#    y 0.014200 1.882420 -0.001940 
#    z -0.005210 -0.001940 1.898240 
# 
# From -- ./inp_files/7518.got.cif
#   From: 2010.06.25/outbox.cif.g09.slc.cpg/sg2_4_cif.got.tgz:7518.got - 2010.06.27 13:26:56.
