data_PCOD8025665
_publ_section_title
;
Structure prediction by ZEFSAII (Michael W. Deem and Ramdas Pophale) SiO2 
 PCOD8025665
Probable space group: P -1
;
_chemical_formula_sum "Si O2"
_cell_formula_units_Z 14
_cell_length_a 14.258365
_cell_length_b 15.402731
_cell_length_c 14.138360
_cell_angle_alpha 28.632762
_cell_angle_beta 46.891760
_cell_angle_gamma 27.269039
_cell_volume 611.900603
_symmetry_space_group_name_H-M "P -1"
_symmetry_group_IT_number 2
_symmetry_cell_setting 'triclinic'
loop_
_space_group_symop_operation_xyz
x,y,z
-x,-y,-z
loop_
_atom_site_type_symbol
_atom_site_label
_atom_site_fract_x
_atom_site_fract_y
_atom_site_fract_z
Si Si1 0.880268 0.790159 0.650728
Si Si2 0.263492 0.726649 0.057392
Si Si3 0.048565 0.023813 0.738542
Si Si4 0.617915 0.701121 0.487156
Si Si5 0.947067 0.252932 0.250024
Si Si6 0.446692 0.828359 0.966914
Si Si7 0.102756 0.176912 0.027996
O O1 0.879760 0.971463 0.414147
O O2 0.052082 0.608086 0.795673
O O3 0.631684 0.052925 0.617605
O O4 0.951642 0.535614 0.781453
O O5 0.383300 0.735011 0.033231
O O6 0.262529 0.795850 0.882587
O O7 0.376491 0.398411 0.316563
O O8 0.000000 0.000000 0.000000
O O9 0.810140 0.388330 0.587623
O O10 0.026770 0.833983 0.925234
O O11 0.650251 0.879773 0.298078
O O12 0.141879 0.078338 0.205595
O O13 0.715416 0.529235 0.085125
O O14 0.000000 0.000000 0.500000
O O15 0.341142 0.932814 0.044568
#
# Coordination Sequence:
#
# PCOD8025665 Si02
#       7
#     2   2   2   2   2   2   2
#     4  12  26  47  69 103 145 180 233 289 343 411
#     4  10  23  45  72 102 142 181 229 289 345 409
#     4  11  25  46  72 103 137 187 234 284 345 412
#     4  11  24  44  72 102 141 185 225 283 349 406
#     4  12  27  46  71 103 145 181 230 293 343 411
#     4  12  25  45  73 105 140 183 232 282 351 416
#     4  12  25  44  71 103 139 180 234 281 345 414
#
# _framework density 22.879532999999999
#
# number of rings (size 3 to 8) (size 9 to 14) (size 15 to 20)
#    0.000    0.571    7.143    1.286    0.000    6.286 
#    0.000    1.429    0.000    0.000    0.000    0.000 
#    0.000    0.000    0.000    0.000    0.000    0.000 
#
# Total GULP energy -173527.437266 kJ/mol
# GULP energy per Si atom -12394.816948 kJ/mol
# Density = 2.282746 g / cm^3
# Si number density = 22.879533 Si / 1000 Ang^3
#
#
#
# Elastic Constant Matrix: (Units=GPa)
#
#
# Indices 1 2 3 4 5 6 
#
# 1 105.6952 21.4744 51.4629 2.1191 8.4257 6.5726
# 2 21.4744 70.2682 24.7227 16.4044 3.4122 10.9897
# 3 51.4629 24.7227 151.6437 18.9972 -10.9168 7.9146
# 4 2.1191 16.4044 18.9972 43.4534 4.1034 4.8686
# 5 8.4257 3.4122 -10.9168 4.1034 35.0646 5.0500
# 6 6.5726 10.9897 7.9146 4.8686 5.0500 32.7223
#
#
#
# Elastic Compliance Matrix: (Units=1/GPa)
#
#
# Indices 1 2 3 4 5 6 
#
# 1 0.012481 -0.002638 -0.004458 0.002784 -0.004416 -0.000275
# 2 -0.002638 0.017346 -0.001035 -0.005484 -0.000128 -0.004210
# 3 -0.004458 -0.001035 0.009129 -0.003692 0.004608 -0.001127
# 4 0.002784 -0.005484 -0.003692 0.027100 -0.004284 -0.001196
# 5 -0.004416 -0.000128 0.004608 -0.004284 0.032179 -0.004513
# 6 -0.000275 -0.004210 -0.001127 -0.001196 -0.004513 0.033176
#
#
# Mechanical properties :
#
#
# Convention : Reuss Voigt Hill
#
# Bulk Modulus (GPa) = 44.06493 58.10302 51.08397
# Shear Modulus (GPa) = 32.20836 37.57786 34.89311
#
# Velocity S-wave (km/s) = 3.75605 4.05708 3.90946
# Velocity P-wave (km/s) = 6.17349 6.88454 6.53868
#
# Compressibility (1/GPa) = 0.02269379
#
# Stress axis : x y z
#
# Youngs Moduli (GPa) = 80.12105 57.64855 109.53951
#
# Poissons Ratio (x) = 0.15210 0.48832
# Poissons Ratio (y) = 0.21139 0.11340
# Poissons Ratio (z) = 0.35717 0.05968
#
# Static dielectric constant tensor:
#      x y z
#    x 4.326060 0.099020 0.098690 
#    y 0.099020 4.375120 0.342940 
#    z 0.098690 0.342940 4.574870 
# 
# 
# High freq. dielectric constant tensor:
#      x y z
#    x 1.891070 -0.004120 -0.009360 
#    y -0.004120 1.910160 0.016070 
#    z -0.009360 0.016070 1.920760 
# 
# From -- ./inp_files/534112.got.cif
#   From: 2010.06.25/outbox.cif.g09.slc.cpg/sg2_268_cif.got.tgz:534112.got - 2010.06.27 13:26:56.
