data_PCOD8025320
_publ_section_title
;
Structure prediction by ZEFSAII (Michael W. Deem and Ramdas Pophale) SiO2 
 PCOD8025320
Probable space group: P -1
;
_chemical_formula_sum "Si O2"
_cell_formula_units_Z 16
_cell_length_a 9.937709
_cell_length_b 11.180146
_cell_length_c 17.108792
_cell_angle_alpha 149.388334
_cell_angle_beta 45.479162
_cell_angle_gamma 123.530130
_cell_volume 683.284784
_symmetry_space_group_name_H-M "P -1"
_symmetry_group_IT_number 2
_symmetry_cell_setting 'triclinic'
loop_
_space_group_symop_operation_xyz
x,y,z
-x,-y,-z
loop_
_atom_site_type_symbol
_atom_site_label
_atom_site_fract_x
_atom_site_fract_y
_atom_site_fract_z
Si Si1 0.111441 0.890559 0.598782
Si Si2 0.296455 0.489291 0.039531
Si Si3 0.784884 0.625368 0.157086
Si Si4 0.435073 0.549822 0.348248
Si Si5 0.825708 0.854638 0.982223
Si Si6 0.492543 0.749900 0.602162
Si Si7 0.144483 0.021567 0.386792
Si Si8 0.856560 0.726145 0.718216
O O1 0.286012 0.678691 0.417439
O O2 0.964793 0.938945 0.760657
O O3 0.212204 0.115580 0.663242
O O4 0.969937 0.835523 0.556400
O O5 0.222773 0.749531 0.181965
O O6 0.500000 0.500000 0.000000
O O7 0.305794 0.334294 0.869740
O O8 0.164935 0.370128 0.088449
O O9 0.648259 0.496831 0.197136
O O10 0.000000 0.500000 0.000000
O O11 0.422396 0.713790 0.522361
O O12 0.351013 0.298025 0.251229
O O13 0.639478 0.042057 0.181756
O O14 0.826013 0.750029 0.836473
O O15 0.000000 0.000000 0.000000
O O16 0.500000 0.500000 0.500000
O O17 0.700729 0.823728 0.557906
O O18 0.000000 0.000000 0.500000
O O19 0.000000 0.500000 0.500000
#
# Coordination Sequence:
#
# PCOD8025320 Si02
#       8
#     2   2   2   2   2   2   2   2
#     4  11  24  46  70 104 143 188 240 291 370 445
#     4  12  26  47  73 106 148 189 250 306 374 443
#     4  12  25  44  68 106 143 182 241 303 365 430
#     4  11  25  46  75 102 146 197 240 298 369 445
#     4  12  26  46  78 108 146 198 248 304 372 446
#     4  12  28  50  72 111 151 196 253 310 370 441
#     4  12  28  45  73 109 149 192 244 313 373 433
#     4  10  23  44  73 106 141 189 246 299 361 441
#
# _framework density 23.416298999999999
#
# number of rings (size 3 to 8) (size 9 to 14) (size 15 to 20)
#    0.000    0.500    2.500    5.625    7.000    1.000 
#    0.000    1.875    0.000    0.000    0.000    0.000 
#    0.000    0.000    0.000    0.000    0.000    0.000 
#
# Total GULP energy -198266.245667 kJ/mol
# GULP energy per Si atom -12391.640354 kJ/mol
# Density = 2.336300 g / cm^3
# Si number density = 23.416299 Si / 1000 Ang^3
#
#
#
# Elastic Constant Matrix: (Units=GPa)
#
#
# Indices 1 2 3 4 5 6 
#
# 1 149.6873 40.2974 41.2657 -10.6859 9.8271 13.9671
# 2 40.2974 143.6023 25.4164 -16.2175 0.8709 26.7039
# 3 41.2657 25.4164 88.8576 -17.2394 3.9813 -0.8597
# 4 -10.6859 -16.2175 -17.2394 46.5953 -3.6531 1.7986
# 5 9.8271 0.8709 3.9813 -3.6531 45.5663 -1.8647
# 6 13.9671 26.7039 -0.8597 1.7986 -1.8647 54.1980
#
#
#
# Elastic Compliance Matrix: (Units=1/GPa)
#
#
# Indices 1 2 3 4 5 6 
#
# 1 0.008233 -0.001412 -0.003347 0.000099 -0.001511 -0.001534
# 2 -0.001412 0.008608 -0.001406 0.002327 0.000287 -0.003967
# 3 -0.003347 -0.001406 0.013976 0.003843 -0.000097 0.001646
# 4 0.000099 0.002327 0.003843 0.023900 0.001439 -0.001855
# 5 -0.001511 0.000287 -0.000097 0.001439 0.022430 0.000970
# 6 -0.001534 -0.003967 0.001646 -0.001855 0.000970 0.020922
#
#
# Mechanical properties :
#
#
# Convention : Reuss Voigt Hill
#
# Bulk Modulus (GPa) = 54.09528 66.23399 60.16464
# Shear Modulus (GPa) = 42.89555 47.61644 45.25600
#
# Velocity S-wave (km/s) = 4.28468 4.51430 4.40098
# Velocity P-wave (km/s) = 6.90142 7.45109 7.18151
#
# Compressibility (1/GPa) = 0.01848590
#
# Stress axis : x y z
#
# Youngs Moduli (GPa) = 121.46217 116.17695 71.54870
#
# Poissons Ratio (x) = 0.16407 0.23951
# Poissons Ratio (y) = 0.17153 0.10059
# Poissons Ratio (z) = 0.40659 0.16333
#
# Static dielectric constant tensor:
#      x y z
#    x 4.379440 0.354970 0.189250 
#    y 0.354970 6.182290 0.421630 
#    z 0.189250 0.421630 4.216990 
# 
# 
# High freq. dielectric constant tensor:
#      x y z
#    x 1.937460 0.018350 0.012570 
#    y 0.018350 1.951890 -0.002750 
#    z 0.012570 -0.002750 1.912510 
# 
# From -- ./inp_files/560121.got.cif
#   From: 2010.06.25/outbox.cif.g09.slc.cpg/sg2_281_cif.got.tgz:560121.got - 2010.06.27 13:26:56.
