data_PCOD8025112
_publ_section_title
;
Structure prediction by ZEFSAII (Michael W. Deem and Ramdas Pophale) SiO2 
 PCOD8025112
Probable space group: P -1
;
_chemical_formula_sum "Si O2"
_cell_formula_units_Z 16
_cell_length_a 12.249826
_cell_length_b 11.704112
_cell_length_c 9.441234
_cell_angle_alpha 92.159265
_cell_angle_beta 118.474116
_cell_angle_gamma 45.187706
_cell_volume 741.254516
_symmetry_space_group_name_H-M "P -1"
_symmetry_group_IT_number 2
_symmetry_cell_setting 'triclinic'
loop_
_space_group_symop_operation_xyz
x,y,z
-x,-y,-z
loop_
_atom_site_type_symbol
_atom_site_label
_atom_site_fract_x
_atom_site_fract_y
_atom_site_fract_z
Si Si1 0.253089 0.055140 0.355991
Si Si2 0.619556 0.184603 0.336990
Si Si3 0.887148 0.383015 0.534386
Si Si4 0.662926 0.463093 0.665342
Si Si5 0.710076 0.329992 0.203265
Si Si6 0.636698 0.950328 0.201458
Si Si7 0.080735 0.833475 0.962197
Si Si8 0.666081 0.773937 0.466684
O O1 0.219219 0.000022 0.473576
O O2 0.475903 0.863743 0.436234
O O3 0.213730 0.218738 0.364666
O O4 0.095280 0.133094 0.143523
O O5 0.433627 0.350639 0.329451
O O6 0.708203 0.231542 0.315268
O O7 0.553757 0.139067 0.178018
O O8 0.829990 0.365729 0.647098
O O9 0.792952 0.383104 0.340480
O O10 0.804572 0.571821 0.488830
O O11 0.124789 0.219227 0.678276
O O12 0.500000 0.500000 0.500000
O O13 0.736917 0.345912 0.845183
O O14 0.858332 0.184899 0.162971
O O15 0.500000 0.500000 0.000000
O O16 0.578041 0.911371 0.291694
O O17 0.500000 0.000000 0.000000
O O18 0.000000 0.000000 0.000000
#
# Coordination Sequence:
#
# PCOD8025112 Si02
#       8
#     2   2   2   2   2   2   2   2
#     4  10  23  44  69 102 135 187 231 285 344 409
#     4  11  23  46  69  99 145 178 229 291 349 417
#     4  12  26  45  76 102 143 188 229 289 359 412
#     4  12  24  46  68 107 141 183 227 286 358 417
#     4  12  26  44  72 107 138 183 231 291 357 420
#     4  11  28  44  67 103 137 187 238 290 340 410
#     4  12  28  42  70 105 140 183 235 284 350 425
#     4  10  23  45  71  93 141 184 231 285 341 412
#
# _framework density 21.585028999999999
#
# number of rings (size 3 to 8) (size 9 to 14) (size 15 to 20)
#    0.000    0.750    3.750    2.625    7.000    2.000 
#    0.000    1.250    0.000    0.000    0.000    0.000 
#    0.000    0.000    0.000    0.000    0.000    0.000 
#
# Total GULP energy -198280.766490 kJ/mol
# GULP energy per Si atom -12392.547906 kJ/mol
# Density = 2.153590 g / cm^3
# Si number density = 21.585029 Si / 1000 Ang^3
#
#
#
# Elastic Constant Matrix: (Units=GPa)
#
#
# Indices 1 2 3 4 5 6 
#
# 1 106.6521 48.0626 57.1054 6.8339 2.7872 7.5835
# 2 48.0626 165.9941 58.4107 28.4525 17.9532 8.0564
# 3 57.1054 58.4107 131.0409 16.4886 36.8953 0.9406
# 4 6.8339 28.4525 16.4886 33.4984 4.9708 -6.5305
# 5 2.7872 17.9532 36.8953 4.9708 40.7538 7.0473
# 6 7.5835 8.0564 0.9406 -6.5305 7.0473 30.3076
#
#
#
# Elastic Compliance Matrix: (Units=1/GPa)
#
#
# Indices 1 2 3 4 5 6 
#
# 1 0.014448 -0.002281 -0.007420 0.000696 0.007401 -0.004350
# 2 -0.002281 0.008650 -0.001830 -0.006439 -0.000712 -0.002894
# 3 -0.007420 -0.001830 0.015650 -0.001743 -0.013439 0.004607
# 4 0.000696 -0.006439 -0.001743 0.038367 -0.002102 0.010347
# 5 0.007401 -0.000712 -0.013439 -0.002102 0.038614 -0.010677
# 6 -0.004350 -0.002894 0.004607 0.010347 -0.010677 0.039422
#
#
# Mechanical properties :
#
#
# Convention : Reuss Voigt Hill
#
# Bulk Modulus (GPa) = 63.74841 81.20495 72.47668
# Shear Modulus (GPa) = 27.25641 36.91918 32.08779
#
# Velocity S-wave (km/s) = 3.55737 4.14019 3.85980
# Velocity P-wave (km/s) = 6.81696 7.78187 7.31534
#
# Compressibility (1/GPa) = 0.01568667
#
# Stress axis : x y z
#
# Youngs Moduli (GPa) = 69.21186 115.60704 63.89583
#
# Poissons Ratio (x) = 0.26373 0.47409
# Poissons Ratio (y) = 0.15789 0.11694
# Poissons Ratio (z) = 0.51354 0.21157
#
# Static dielectric constant tensor:
#      x y z
#    x 4.282160 -0.193380 -0.149140 
#    y -0.193380 4.358210 0.369520 
#    z -0.149140 0.369520 3.911460 
# 
# 
# High freq. dielectric constant tensor:
#      x y z
#    x 1.857310 -0.001010 -0.003230 
#    y -0.001010 1.862000 0.015520 
#    z -0.003230 0.015520 1.845830 
# 
# From -- ./inp_files/262558.got.cif
#   From: 2010.06.25/outbox.cif.g09.slc.cpg/sg2_132_cif.got.tgz:262558.got - 2010.06.27 13:26:56.
