data_PCOD8025641
_publ_section_title
;
Structure prediction by ZEFSAII (Michael W. Deem and Ramdas Pophale) SiO2 
 PCOD8025641
Probable space group: P -1
;
_chemical_formula_sum "Si O2"
_cell_formula_units_Z 14
_cell_length_a 9.116188
_cell_length_b 5.331147
_cell_length_c 15.297472
_cell_angle_alpha 89.917136
_cell_angle_beta 71.800476
_cell_angle_gamma 124.660188
_cell_volume 565.467854
_symmetry_space_group_name_H-M "P -1"
_symmetry_group_IT_number 2
_symmetry_cell_setting 'triclinic'
loop_
_space_group_symop_operation_xyz
x,y,z
-x,-y,-z
loop_
_atom_site_type_symbol
_atom_site_label
_atom_site_fract_x
_atom_site_fract_y
_atom_site_fract_z
Si Si1 0.465306 0.550768 0.605185
Si Si2 0.747872 0.130756 0.339634
Si Si3 0.112859 0.707833 0.203882
Si Si4 0.740391 0.771211 0.700775
Si Si5 0.019812 0.765458 0.550763
Si Si6 0.572975 0.358297 0.888939
Si Si7 0.175755 0.087063 0.029986
O O1 0.500000 0.500000 0.500000
O O2 0.338953 0.676617 0.636527
O O3 0.655791 0.801766 0.625764
O O4 0.381399 0.223065 0.674066
O O5 0.941146 0.336988 0.244766
O O6 0.781710 0.064705 0.432950
O O7 0.328736 0.804023 0.159540
O O8 0.103567 0.876933 0.291489
O O9 0.072280 0.821101 0.122899
O O10 0.850881 0.619156 0.656106
O O11 0.588269 0.575276 0.807091
O O12 0.000000 0.500000 0.500000
O O13 0.000000 0.000000 0.500000
O O14 0.701152 0.566437 0.949438
O O15 0.345281 0.093252 0.949164
O O16 0.000000 0.000000 0.000000
#
# Coordination Sequence:
#
# PCOD8025641 Si02
#       7
#     2   2   2   2   2   2   2
#     4  12  28  47  69 107 155 196 255 322 381 441
#     4  12  26  44  71 107 144 194 253 311 376 456
#     4  11  24  46  73 106 147 196 254 312 384 468
#     4  11  25  44  70 102 148 198 247 316 384 448
#     4  12  24  43  72 101 139 196 253 304 370 447
#     4  10  23  45  71 107 149 188 256 307 387 467
#     4  10  24  45  75 109 148 195 246 317 388 468
#
# _framework density 24.758258000000001
#
# number of rings (size 3 to 8) (size 9 to 14) (size 15 to 20)
#    0.000    0.857    1.429    5.143    6.000    0.571 
#    0.000    0.000    0.000    0.000    0.000    0.000 
#    0.000    0.000    0.000    0.000    0.000    0.000 
#
# Total GULP energy -173492.975802 kJ/mol
# GULP energy per Si atom -12392.355414 kJ/mol
# Density = 2.470191 g / cm^3
# Si number density = 24.758258 Si / 1000 Ang^3
#
#
#
# Elastic Constant Matrix: (Units=GPa)
#
#
# Indices 1 2 3 4 5 6 
#
# 1 162.3716 48.9172 47.5728 11.0016 -3.0026 -3.2225
# 2 48.9172 110.3451 38.1180 -8.0148 -5.5376 -13.6788
# 3 47.5728 38.1180 91.5988 12.3669 -1.0943 -0.5958
# 4 11.0016 -8.0148 12.3669 29.9713 -2.3085 -0.9249
# 5 -3.0026 -5.5376 -1.0943 -2.3085 50.6030 8.3918
# 6 -3.2225 -13.6788 -0.5958 -0.9249 8.3918 45.7635
#
#
#
# Elastic Compliance Matrix: (Units=1/GPa)
#
#
# Indices 1 2 3 4 5 6 
#
# 1 0.007951 -0.002870 -0.002582 -0.002629 0.000047 -0.000393
# 2 -0.002870 0.012952 -0.004765 0.006659 0.000853 0.003585
# 3 -0.002582 -0.004765 0.015124 -0.006643 -0.000407 -0.001469
# 4 -0.002629 0.006659 -0.006643 0.039062 0.001851 0.002169
# 5 0.000047 0.000853 -0.000407 0.001851 0.020509 -0.003470
# 6 -0.000393 0.003585 -0.001469 0.002169 -0.003470 0.023557
#
#
# Mechanical properties :
#
#
# Convention : Reuss Voigt Hill
#
# Bulk Modulus (GPa) = 64.13379 70.39241 67.26310
# Shear Modulus (GPa) = 34.53385 40.58138 37.55761
#
# Velocity S-wave (km/s) = 3.73881 4.05298 3.89906
# Velocity P-wave (km/s) = 6.67821 7.09900 6.89182
#
# Compressibility (1/GPa) = 0.01559240
#
# Stress axis : x y z
#
# Youngs Moduli (GPa) = 125.76784 77.20944 66.12217
#
# Poissons Ratio (x) = 0.22161 0.17073
# Poissons Ratio (y) = 0.36098 0.31505
# Poissons Ratio (z) = 0.32475 0.36788
#
# Static dielectric constant tensor:
#      x y z
#    x 4.449400 -0.053640 -0.124780 
#    y -0.053640 4.570140 -0.064670 
#    z -0.124780 -0.064670 4.825720 
# 
# 
# High freq. dielectric constant tensor:
#      x y z
#    x 1.990130 -0.007480 -0.000620 
#    y -0.007480 1.977670 -0.006980 
#    z -0.000620 -0.006980 1.999590 
# 
# From -- ./inp_files/488399.got.cif
#   From: 2010.06.25/outbox.cif.g09.slc.cpg/sg2_245_cif.got.tgz:488399.got - 2010.06.27 13:26:56.
