data_PCOD8025125
_publ_section_title
;
Structure prediction by ZEFSAII (Michael W. Deem and Ramdas Pophale) SiO2 
 PCOD8025125
Probable space group: P -1
;
_chemical_formula_sum "Si O2"
_cell_formula_units_Z 16
_cell_length_a 15.510525
_cell_length_b 11.756949
_cell_length_c 12.331624
_cell_angle_alpha 91.993326
_cell_angle_beta 143.554178
_cell_angle_gamma 58.720780
_cell_volume 749.806721
_symmetry_space_group_name_H-M "P -1"
_symmetry_group_IT_number 2
_symmetry_cell_setting 'triclinic'
loop_
_space_group_symop_operation_xyz
x,y,z
-x,-y,-z
loop_
_atom_site_type_symbol
_atom_site_label
_atom_site_fract_x
_atom_site_fract_y
_atom_site_fract_z
Si Si1 0.191486 0.977073 0.223163
Si Si2 0.981537 0.353202 0.576463
Si Si3 0.014094 0.394776 0.372094
Si Si4 0.512484 0.636732 0.263927
Si Si5 0.744811 0.850146 0.819893
Si Si6 0.596799 0.038794 0.892629
Si Si7 0.852892 0.313134 0.042544
Si Si8 0.716722 0.525523 0.702658
O O1 0.501896 0.755572 0.532782
O O2 0.132439 0.104602 0.072486
O O3 0.120967 0.075944 0.273079
O O4 0.000000 0.000000 0.000000
O O5 0.922813 0.394908 0.390692
O O6 0.079503 0.413472 0.720018
O O7 0.721885 0.483360 0.377709
O O8 0.195234 0.117774 0.807570
O O9 0.322214 0.192639 0.672418
O O10 0.897025 0.402568 0.152805
O O11 0.386295 0.844134 0.133849
O O12 0.629113 0.537655 0.497223
O O13 0.302212 0.673662 0.037670
O O14 0.500000 0.000000 0.500000
O O15 0.657785 0.903250 0.858256
O O16 0.991215 0.610052 0.026684
O O17 0.713728 0.431474 0.790643
#
# Coordination Sequence:
#
# PCOD8025125 Si02
#       8
#     2   2   2   2   2   2   2   2
#     4  11  22  38  58  88 130 173 205 244 307 388
#     4  10  23  44  69  86 121 171 216 262 329 369
#     4  10  24  44  63  94 121 163 219 271 315 377
#     4  11  22  39  64  96 124 169 213 253 316 395
#     4  11  23  35  56  91 126 160 212 258 301 372
#     4  11  20  40  64  89 122 167 210 260 319 380
#     4  11  24  39  63  96 134 162 215 262 312 376
#     4  11  22  39  62  91 134 177 201 250 325 381
#
# _framework density 21.338833000000001
#
# number of rings (size 3 to 8) (size 9 to 14) (size 15 to 20)
#    0.000    1.250    3.750    2.250    1.750    4.000 
#    0.000    0.625    0.000    0.000    0.000    0.000 
#    0.000    0.000    0.000    0.000    0.000    0.000 
#
# Total GULP energy -198248.645488 kJ/mol
# GULP energy per Si atom -12390.540343 kJ/mol
# Density = 2.129026 g / cm^3
# Si number density = 21.338833 Si / 1000 Ang^3
#
#
#
# Elastic Constant Matrix: (Units=GPa)
#
#
# Indices 1 2 3 4 5 6 
#
# 1 109.7619 33.2357 17.9174 -11.0683 -0.8102 -18.0222
# 2 33.2357 82.1941 32.9908 -7.3334 3.1955 -9.6260
# 3 17.9174 32.9908 77.9639 -24.9329 2.4688 -5.7128
# 4 -11.0683 -7.3334 -24.9329 31.0629 -1.6244 -0.1780
# 5 -0.8102 3.1955 2.4688 -1.6244 22.0722 -4.7288
# 6 -18.0222 -9.6260 -5.7128 -0.1780 -4.7288 20.2018
#
#
#
# Elastic Compliance Matrix: (Units=1/GPa)
#
#
# Indices 1 2 3 4 5 6 
#
# 1 0.012281 -0.003854 0.000850 0.004386 0.003422 0.010200
# 2 -0.003854 0.016519 -0.006883 -0.003066 -0.001539 0.002099
# 3 0.000850 -0.006883 0.020695 0.015342 0.000616 0.003611
# 4 0.004386 -0.003066 0.015342 0.045601 0.003986 0.008125
# 5 0.003422 -0.001539 0.000616 0.003986 0.048871 0.013968
# 6 0.010200 0.002099 0.003611 0.008125 0.013968 0.063962
#
#
# Mechanical properties :
#
#
# Convention : Reuss Voigt Hill
#
# Bulk Modulus (GPa) = 33.64499 48.68976 41.16738
# Shear Modulus (GPa) = 21.04282 27.05244 24.04763
#
# Velocity S-wave (km/s) = 3.14367 3.56442 3.36064
# Velocity P-wave (km/s) = 5.38314 6.30929 5.86452
#
# Compressibility (1/GPa) = 0.02972210
#
# Stress axis : x y z
#
# Youngs Moduli (GPa) = 81.42528 60.53456 48.32116
#
# Poissons Ratio (x) = 0.23333 -0.04108
# Poissons Ratio (y) = 0.31385 0.33257
# Poissons Ratio (z) = -0.06923 0.41663
#
# Static dielectric constant tensor:
#      x y z
#    x 4.108410 -0.065690 0.177100 
#    y -0.065690 3.957630 -0.432490 
#    z 0.177100 -0.432490 3.751220 
# 
# 
# High freq. dielectric constant tensor:
#      x y z
#    x 1.849970 -0.006390 0.011840 
#    y -0.006390 1.830800 -0.026740 
#    z 0.011840 -0.026740 1.817010 
# 
# From -- ./inp_files/452407.got.cif
#   From: 2010.06.25/outbox.cif.g09.slc.cpg/sg2_227_cif.got.tgz:452407.got - 2010.06.27 13:26:56.
