data_PCOD8025418
_publ_section_title
;
Structure prediction by ZEFSAII (Michael W. Deem and Ramdas Pophale) SiO2 
 PCOD8025418
Probable space group: P -1
;
_chemical_formula_sum "Si O2"
_cell_formula_units_Z 16
_cell_length_a 19.242768
_cell_length_b 9.347716
_cell_length_c 11.617756
_cell_angle_alpha 72.827824
_cell_angle_beta 134.410548
_cell_angle_gamma 142.632609
_cell_volume 723.567204
_symmetry_space_group_name_H-M "P -1"
_symmetry_group_IT_number 2
_symmetry_cell_setting 'triclinic'
loop_
_space_group_symop_operation_xyz
x,y,z
-x,-y,-z
loop_
_atom_site_type_symbol
_atom_site_label
_atom_site_fract_x
_atom_site_fract_y
_atom_site_fract_z
Si Si1 0.020417 0.324796 0.242319
Si Si2 0.063836 0.865093 0.375776
Si Si3 0.885812 0.242780 0.340538
Si Si4 0.677101 0.788694 0.821751
Si Si5 0.284682 0.438133 0.418929
Si Si6 0.671326 0.236417 0.053828
Si Si7 0.586425 0.345566 0.731058
Si Si8 0.831720 0.173767 0.710305
O O1 0.014931 0.333046 0.372285
O O2 0.210496 0.482087 0.393628
O O3 0.048488 0.527277 0.171200
O O4 0.817191 0.984250 0.047436
O O5 0.194247 0.992808 0.608334
O O6 0.063764 0.742407 0.303169
O O7 0.840866 0.563700 0.228833
O O8 0.124124 0.101160 0.336774
O O9 0.724456 0.131236 0.119679
O O10 0.000000 0.500000 0.500000
O O11 0.493893 0.657221 0.650442
O O12 0.601873 0.520429 0.779986
O O13 0.811230 0.013521 0.816431
O O14 0.276675 0.465562 0.267206
O O15 0.626134 0.252575 0.875307
O O16 0.500000 0.000000 0.000000
O O17 0.375092 0.041284 0.513166
#
# Coordination Sequence:
#
# PCOD8025418 Si02
#       8
#     2   2   2   2   2   2   2   2
#     4  12  26  41  69 110 146 180 237 303 350 416
#     4  11  21  45  75  92 138 193 239 279 354 428
#     4  10  23  45  66  94 137 190 233 283 353 418
#     4  11  24  44  69 110 149 181 232 294 362 413
#     4  11  25  45  74 107 145 189 231 290 367 421
#     4  11  24  37  69 111 127 177 252 294 326 419
#     4  11  23  43  75 104 144 189 238 282 353 440
#     4  11  21  43  73  98 143 192 225 288 356 422
#
# _framework density 22.112666000000001
#
# number of rings (size 3 to 8) (size 9 to 14) (size 15 to 20)
#    0.000    1.000    5.000    2.625    3.500    5.500 
#    0.000    0.625    0.000    0.000    0.000    0.000 
#    0.000    0.000    0.000    0.000    0.000    0.000 
#
# Total GULP energy -198281.771234 kJ/mol
# GULP energy per Si atom -12392.610702 kJ/mol
# Density = 2.206234 g / cm^3
# Si number density = 22.112666 Si / 1000 Ang^3
#
#
#
# Elastic Constant Matrix: (Units=GPa)
#
#
# Indices 1 2 3 4 5 6 
#
# 1 142.5773 45.6445 33.8797 -8.6216 2.8870 9.2127
# 2 45.6445 126.8251 26.6665 -12.0321 3.3744 21.6555
# 3 33.8797 26.6665 66.7336 -7.2234 -2.5329 9.2077
# 4 -8.6216 -12.0321 -7.2234 42.2698 1.8720 -1.4700
# 5 2.8870 3.3744 -2.5329 1.8720 27.7047 1.4489
# 6 9.2127 21.6555 9.2077 -1.4700 1.4489 33.2086
#
#
#
# Elastic Compliance Matrix: (Units=1/GPa)
#
#
# Indices 1 2 3 4 5 6 
#
# 1 0.008620 -0.002325 -0.003445 0.000556 -0.000975 0.000147
# 2 -0.002325 0.010275 -0.002012 0.001967 -0.001046 -0.005365
# 3 -0.003445 -0.002012 0.018189 0.001633 0.002303 -0.002804
# 4 0.000556 0.001967 0.001633 0.024664 -0.001777 -0.000720
# 5 -0.000975 -0.001046 0.002303 -0.001777 0.036726 -0.001367
# 6 0.000147 -0.005365 -0.002804 -0.000720 -0.001367 0.034376
#
#
# Mechanical properties :
#
#
# Convention : Reuss Voigt Hill
#
# Bulk Modulus (GPa) = 46.46543 60.94636 53.70590
# Shear Modulus (GPa) = 32.13653 35.96631 34.05142
#
# Velocity S-wave (km/s) = 3.81636 4.03737 3.92842
# Velocity P-wave (km/s) = 6.36225 7.02534 6.70200
#
# Compressibility (1/GPa) = 0.02152137
#
# Stress axis : x y z
#
# Youngs Moduli (GPa) = 116.00481 97.32323 54.97863
#
# Poissons Ratio (x) = 0.22623 0.18938
# Poissons Ratio (y) = 0.26965 0.11064
# Poissons Ratio (z) = 0.39959 0.19585
#
# Static dielectric constant tensor:
#      x y z
#    x 4.123030 0.216160 0.089760 
#    y 0.216160 4.417640 -0.303740 
#    z 0.089760 -0.303740 4.075750 
# 
# 
# High freq. dielectric constant tensor:
#      x y z
#    x 1.858050 0.010250 0.011390 
#    y 0.010250 1.886950 -0.009120 
#    z 0.011390 -0.009120 1.857280 
# 
# From -- ./inp_files/462146.got.cif
#   From: 2010.06.25/outbox.cif.g09.slc.cpg/sg2_232_cif.got.tgz:462146.got - 2010.06.27 13:26:56.
