data_PCOD8025271
_publ_section_title
;
Structure prediction by ZEFSAII (Michael W. Deem and Ramdas Pophale) SiO2 
 PCOD8025271
Probable space group: P -1
;
_chemical_formula_sum "Si O2"
_cell_formula_units_Z 16
_cell_length_a 17.678193
_cell_length_b 8.057154
_cell_length_c 14.873974
_cell_angle_alpha 106.623480
_cell_angle_beta 153.906895
_cell_angle_gamma 58.677014
_cell_volume 697.792543
_symmetry_space_group_name_H-M "P -1"
_symmetry_group_IT_number 2
_symmetry_cell_setting 'triclinic'
loop_
_space_group_symop_operation_xyz
x,y,z
-x,-y,-z
loop_
_atom_site_type_symbol
_atom_site_label
_atom_site_fract_x
_atom_site_fract_y
_atom_site_fract_z
Si Si1 0.199188 0.835024 0.120855
Si Si2 0.838443 0.521256 0.053940
Si Si3 0.303208 0.316393 0.563406
Si Si4 0.661231 0.657120 0.603654
Si Si5 0.120070 0.228156 0.020858
Si Si6 0.540336 0.945438 0.890901
Si Si7 0.182737 0.078168 0.665371
Si Si8 0.718329 0.368637 0.271990
O O1 0.431504 0.719861 0.402568
O O2 0.174065 0.988550 0.034137
O O3 0.198688 0.639225 0.055999
O O4 0.000000 0.000000 0.000000
O O5 0.064907 0.375527 0.328350
O O6 0.851651 0.675371 0.023148
O O7 0.634969 0.693878 0.930360
O O8 0.362052 0.310199 0.522631
O O9 0.314604 0.486518 0.656654
O O10 0.487948 0.071764 0.760895
O O11 0.712791 0.809465 0.728800
O O12 0.865531 0.403991 0.809489
O O13 0.317719 0.091582 0.734429
O O14 0.728331 0.931805 0.142160
O O15 0.926006 0.294913 0.419479
O O16 0.218115 0.853657 0.651029
O O17 0.500000 0.500000 0.000000
#
# Coordination Sequence:
#
# PCOD8025271 Si02
#       8
#     2   2   2   2   2   2   2   2
#     4  12  25  42  70 101 132 181 236 281 347 410
#     4  11  26  45  67 104 142 181 234 285 341 411
#     4  11  23  43  69  99 138 180 231 282 342 410
#     4  10  23  44  72 100 137 179 228 284 341 410
#     4  10  23  47  72  96 139 186 224 284 347 400
#     4  11  23  44  66  99 138 177 221 292 338 404
#     4  10  24  42  68  98 136 175 226 279 348 404
#     4  11  22  43  71  99 131 183 226 278 342 416
#
# _framework density 22.929451
#
# number of rings (size 3 to 8) (size 9 to 14) (size 15 to 20)
#    0.000    1.250    2.500    3.375    1.750    5.500 
#    2.250    0.000    0.000    0.000    0.000    0.000 
#    0.000    0.000    0.000    0.000    0.000    0.000 
#
# Total GULP energy -198364.147588 kJ/mol
# GULP energy per Si atom -12397.759224 kJ/mol
# Density = 2.287726 g / cm^3
# Si number density = 22.929451 Si / 1000 Ang^3
#
#
#
# Elastic Constant Matrix: (Units=GPa)
#
#
# Indices 1 2 3 4 5 6 
#
# 1 53.7106 23.5563 50.2890 4.2557 7.4712 -10.1827
# 2 23.5563 123.5732 41.1442 4.7714 0.8002 -5.1302
# 3 50.2890 41.1442 175.9341 9.4919 21.6364 -9.7605
# 4 4.2557 4.7714 9.4919 33.2279 -3.6358 -2.3104
# 5 7.4712 0.8002 21.6364 -3.6358 36.9282 -2.0629
# 6 -10.1827 -5.1302 -9.7605 -2.3104 -2.0629 35.8578
#
#
#
# Elastic Compliance Matrix: (Units=1/GPa)
#
#
# Indices 1 2 3 4 5 6 
#
# 1 0.027341 -0.002724 -0.006656 -0.000982 -0.001366 0.005421
# 2 -0.002724 0.009115 -0.001468 -0.000399 0.001184 0.000174
# 3 -0.006656 -0.001468 0.008483 -0.001782 -0.003774 -0.000123
# 4 -0.000982 -0.000399 -0.001782 0.031372 0.004421 0.001455
# 5 -0.001366 0.001184 -0.003774 0.004421 0.030020 0.000766
# 6 0.005421 0.000174 -0.000123 0.001455 0.000766 0.029556
#
#
# Mechanical properties :
#
#
# Convention : Reuss Voigt Hill
#
# Bulk Modulus (GPa) = 43.02232 64.79966 53.91099
# Shear Modulus (GPa) = 30.24241 37.08467 33.66354
#
# Velocity S-wave (km/s) = 3.63565 4.02598 3.83578
# Velocity P-wave (km/s) = 6.03553 7.06634 6.57118
#
# Compressibility (1/GPa) = 0.02324375
#
# Stress axis : x y z
#
# Youngs Moduli (GPa) = 36.57545 109.70716 117.87942
#
# Poissons Ratio (x) = 0.29882 0.78465
# Poissons Ratio (y) = 0.09962 0.17299
# Poissons Ratio (z) = 0.24346 0.16100
#
# Static dielectric constant tensor:
#      x y z
#    x 3.938920 -0.111120 0.259640 
#    y -0.111120 4.177100 -0.119210 
#    z 0.259640 -0.119210 4.573400 
# 
# 
# High freq. dielectric constant tensor:
#      x y z
#    x 1.888790 -0.009710 0.013260 
#    y -0.009710 1.909200 -0.011280 
#    z 0.013260 -0.011280 1.926380 
# 
# From -- ./inp_files/537453.got.cif
#   From: 2010.06.25/outbox.cif.g09.slc.cpg/sg2_269_cif.got.tgz:537453.got - 2010.06.27 13:26:56.
