data_PCOD8025637
_publ_section_title
;
Structure prediction by ZEFSAII (Michael W. Deem and Ramdas Pophale) SiO2 
 PCOD8025637
Probable space group: P -1
;
_chemical_formula_sum "Si O2"
_cell_formula_units_Z 14
_cell_length_a 18.175455
_cell_length_b 8.540374
_cell_length_c 13.275682
_cell_angle_alpha 75.168965
_cell_angle_beta 21.490420
_cell_angle_gamma 64.326066
_cell_volume 609.086485
_symmetry_space_group_name_H-M "P -1"
_symmetry_group_IT_number 2
_symmetry_cell_setting 'triclinic'
loop_
_space_group_symop_operation_xyz
x,y,z
-x,-y,-z
loop_
_atom_site_type_symbol
_atom_site_label
_atom_site_fract_x
_atom_site_fract_y
_atom_site_fract_z
Si Si1 0.791695 0.958152 0.253676
Si Si2 0.524777 0.341128 0.235385
Si Si3 0.907796 0.633426 0.298810
Si Si4 0.980646 0.982387 0.410754
Si Si5 0.862527 0.678430 0.572054
Si Si6 0.459198 0.631226 0.125850
Si Si7 0.320108 0.286356 0.703780
O O1 0.802211 0.852682 0.360458
O O2 0.808065 0.818052 0.163185
O O3 0.530923 0.155119 0.537320
O O4 0.000000 0.000000 0.000000
O O5 0.314072 0.390746 0.417384
O O6 0.570460 0.504834 0.109635
O O7 0.433586 0.354767 0.462796
O O8 0.761802 0.126205 0.955325
O O9 0.993097 0.609820 0.308139
O O10 0.123724 0.480245 0.978090
O O11 0.856393 0.865147 0.580436
O O12 0.000000 0.000000 0.500000
O O13 0.821153 0.196556 0.529385
O O14 0.000000 0.500000 0.500000
O O15 0.587908 0.741876 0.914692
O O16 0.500000 0.500000 0.000000
#
# Coordination Sequence:
#
# PCOD8025637 Si02
#       7
#     2   2   2   2   2   2   2
#     4  10  23  45  71 105 141 184 252 291 357 425
#     4  11  23  44  75 104 141 187 239 288 364 434
#     4  11  25  49  71 100 149 191 236 296 358 432
#     4  12  25  44  72 101 143 188 234 301 360 425
#     4  12  25  48  69 109 144 184 245 294 360 443
#     4  12  23  46  70 103 142 186 232 293 364 429
#     4  10  25  50  72 105 150 193 238 303 359 429
#
# _framework density 22.985242
#
# number of rings (size 3 to 8) (size 9 to 14) (size 15 to 20)
#    0.000    0.857    4.286    2.143    2.000    5.143 
#    7.714    0.000    0.000    0.000    0.000    0.000 
#    0.000    0.000    0.000    0.000    0.000    0.000 
#
# Total GULP energy -173484.187397 kJ/mol
# GULP energy per Si atom -12391.727671 kJ/mol
# Density = 2.293293 g / cm^3
# Si number density = 22.985242 Si / 1000 Ang^3
#
#
#
# Elastic Constant Matrix: (Units=GPa)
#
#
# Indices 1 2 3 4 5 6 
#
# 1 129.4870 61.0516 61.5557 1.6441 3.5288 -11.5857
# 2 61.0516 119.8187 60.8036 12.3544 9.0571 -14.7973
# 3 61.5557 60.8036 146.5015 16.7418 7.7061 -2.9275
# 4 1.6441 12.3544 16.7418 45.4743 -5.5062 -13.9484
# 5 3.5288 9.0571 7.7061 -5.5062 33.8861 -3.9236
# 6 -11.5857 -14.7973 -2.9275 -13.9484 -3.9236 44.7609
#
#
#
# Elastic Compliance Matrix: (Units=1/GPa)
#
#
# Indices 1 2 3 4 5 6 
#
# 1 0.011483 -0.004225 -0.003433 0.002905 0.001462 0.002384
# 2 -0.004225 0.012710 -0.003136 -0.001761 -0.002281 0.002154
# 3 -0.003433 -0.003136 0.010054 -0.003772 -0.002007 -0.002619
# 4 0.002905 -0.001761 -0.003772 0.027301 0.006504 0.009001
# 5 0.001462 -0.002281 -0.002007 0.006504 0.031982 0.004323
# 6 0.002384 0.002154 -0.002619 0.009001 0.004323 0.026683
#
#
# Mechanical properties :
#
#
# Convention : Reuss Voigt Hill
#
# Bulk Modulus (GPa) = 78.98416 84.73656 81.86036
# Shear Modulus (GPa) = 34.24222 38.98402 36.61312
#
# Velocity S-wave (km/s) = 3.86391 4.12278 3.99544
# Velocity P-wave (km/s) = 7.37184 7.72067 7.54827
#
# Compressibility (1/GPa) = 0.01266077
#
# Stress axis : x y z
#
# Youngs Moduli (GPa) = 87.08452 78.67927 99.46396
#
# Poissons Ratio (x) = 0.33239 0.34143
# Poissons Ratio (y) = 0.36790 0.31189
# Poissons Ratio (z) = 0.29894 0.24672
#
# Static dielectric constant tensor:
#      x y z
#    x 4.204520 -0.085660 -0.347470 
#    y -0.085660 4.501980 -0.272630 
#    z -0.347470 -0.272630 4.635040 
# 
# 
# High freq. dielectric constant tensor:
#      x y z
#    x 1.906440 -0.014980 -0.015260 
#    y -0.014980 1.918530 -0.003510 
#    z -0.015260 -0.003510 1.912790 
# 
# From -- ./inp_files/540453.got.cif
#   From: 2010.06.25/outbox.cif.g09.slc.cpg/sg2_271_cif.got.tgz:540453.got - 2010.06.27 13:26:56.
