data_PCOD8025035
_publ_section_title
;
Structure prediction by ZEFSAII (Michael W. Deem and Ramdas Pophale) SiO2 
 PCOD8025035
Probable space group: P -1
;
_chemical_formula_sum "Si O2"
_cell_formula_units_Z 16
_cell_length_a 6.207358
_cell_length_b 20.568041
_cell_length_c 15.813844
_cell_angle_alpha 20.542860
_cell_angle_beta 97.501885
_cell_angle_gamma 105.031822
_cell_volume 645.580586
_symmetry_space_group_name_H-M "P -1"
_symmetry_group_IT_number 2
_symmetry_cell_setting 'triclinic'
loop_
_space_group_symop_operation_xyz
x,y,z
-x,-y,-z
loop_
_atom_site_type_symbol
_atom_site_label
_atom_site_fract_x
_atom_site_fract_y
_atom_site_fract_z
Si Si1 0.544876 0.399584 0.430297
Si Si2 0.411330 0.192578 0.984251
Si Si3 0.107489 0.045739 0.786234
Si Si4 0.199339 0.493704 0.078388
Si Si5 0.238810 0.695199 0.281907
Si Si6 0.684165 0.755182 0.742836
Si Si7 0.761876 0.068432 0.239070
Si Si8 0.911727 0.553708 0.128425
O O1 0.615058 0.634139 0.170040
O O2 0.263600 0.270138 0.557484
O O3 0.639219 0.293165 0.635914
O O4 0.677181 0.392798 0.356401
O O5 0.588695 0.315349 0.770359
O O6 0.503365 0.055086 0.214930
O O7 0.174627 0.034352 0.119634
O O8 0.144360 0.041977 0.692026
O O9 0.193868 0.896647 0.023893
O O10 0.319172 0.347302 0.225519
O O11 0.070512 0.445143 0.223024
O O12 0.427457 0.705578 0.832589
O O13 0.000000 0.500000 0.000000
O O14 0.000000 0.500000 0.500000
O O15 0.770722 0.986099 0.435008
O O16 0.852116 0.699308 0.882246
O O17 0.930152 0.305274 0.960899
#
# Coordination Sequence:
#
# PCOD8025035 Si02
#       8
#     2   2   2   2   2   2   2   2
#     4  12  25  47  74 104 148 186 237 292 352 431
#     4  11  25  49  70 106 143 192 232 290 362 414
#     4  11  26  46  72 107 141 188 239 290 353 427
#     4   9  22  41  66  98 135 177 241 292 359 414
#     4  11  23  50  76 105 148 182 232 298 353 422
#     4  10  23  44  68 100 137 187 244 293 354 427
#     4  11  25  45  68 101 147 181 243 304 345 423
#     4  11  24  45  68 103 139 188 237 297 363 413
#
# _framework density 24.783894
#
# number of rings (size 3 to 8) (size 9 to 14) (size 15 to 20)
#    0.000    1.250    2.500    1.875    7.000    3.000 
#   11.250    0.000    0.000    0.000    0.000    0.000 
#    0.000    0.000    0.000    0.000    0.000    0.000 
#
# Total GULP energy -198277.307220 kJ/mol
# GULP energy per Si atom -12392.331701 kJ/mol
# Density = 2.472748 g / cm^3
# Si number density = 24.783894 Si / 1000 Ang^3
#
#
#
# Elastic Constant Matrix: (Units=GPa)
#
#
# Indices 1 2 3 4 5 6 
#
# 1 123.7693 35.1559 26.3451 3.5955 -33.6976 -4.4985
# 2 35.1559 102.5184 27.0820 3.0025 -16.7423 6.7604
# 3 26.3451 27.0820 68.6042 6.9237 -27.9120 -1.8664
# 4 3.5955 3.0025 6.9237 53.3573 14.6270 -9.3505
# 5 -33.6976 -16.7423 -27.9120 14.6270 41.5150 1.2628
# 6 -4.4985 6.7604 -1.8664 -9.3505 1.2628 37.6186
#
#
#
# Elastic Compliance Matrix: (Units=1/GPa)
#
#
# Indices 1 2 3 4 5 6 
#
# 1 0.011468 -0.002496 0.001126 -0.003475 0.010263 0.000668
# 2 -0.002496 0.011848 -0.003370 -0.000788 0.000850 -0.002819
# 3 0.001126 -0.003370 0.023778 -0.008153 0.018436 -0.000725
# 4 -0.003475 -0.000788 -0.008153 0.026146 -0.018027 0.006426
# 5 0.010263 0.000850 0.018436 -0.018027 0.051636 -0.004225
# 6 0.000668 -0.002819 -0.000725 0.006426 -0.004225 0.028872
#
#
# Mechanical properties :
#
#
# Convention : Reuss Voigt Hill
#
# Bulk Modulus (GPa) = 26.58590 52.45090 39.51840
# Shear Modulus (GPa) = 28.44646 40.25210 34.34928
#
# Velocity S-wave (km/s) = 3.39157 4.03441 3.72688
# Velocity P-wave (km/s) = 5.10758 6.55067 5.87361
#
# Compressibility (1/GPa) = 0.03761393
#
# Stress axis : x y z
#
# Youngs Moduli (GPa) = 87.19583 84.39919 42.05506
#
# Poissons Ratio (x) = 0.21069 -0.04735
# Poissons Ratio (y) = 0.21768 0.14173
# Poissons Ratio (z) = -0.09817 0.28443
#
# Static dielectric constant tensor:
#      x y z
#    x 4.653220 -0.107930 -0.269420 
#    y -0.107930 4.529920 0.106440 
#    z -0.269420 0.106440 4.418140 
# 
# 
# High freq. dielectric constant tensor:
#      x y z
#    x 1.987630 0.013150 -0.011040 
#    y 0.013150 1.985270 0.006860 
#    z -0.011040 0.006860 1.983190 
# 
# From -- ./inp_files/488291.got.cif
#   From: 2010.06.25/outbox.cif.g09.slc.cpg/sg2_245_cif.got.tgz:488291.got - 2010.06.27 13:26:56.
