data_PCOD8025622
_publ_section_title
;
Structure prediction by ZEFSAII (Michael W. Deem and Ramdas Pophale) SiO2 
 PCOD8025622
Probable space group: P -1
;
_chemical_formula_sum "Si O2"
_cell_formula_units_Z 14
_cell_length_a 7.820004
_cell_length_b 9.385625
_cell_length_c 9.207087
_cell_angle_alpha 103.623313
_cell_angle_beta 111.443143
_cell_angle_gamma 82.235330
_cell_volume 610.390654
_symmetry_space_group_name_H-M "P -1"
_symmetry_group_IT_number 2
_symmetry_cell_setting 'triclinic'
loop_
_space_group_symop_operation_xyz
x,y,z
-x,-y,-z
loop_
_atom_site_type_symbol
_atom_site_label
_atom_site_fract_x
_atom_site_fract_y
_atom_site_fract_z
Si Si1 0.042509 0.751073 0.222573
Si Si2 0.303296 0.018479 0.092180
Si Si3 0.587521 0.265726 0.824869
Si Si4 0.096646 0.648903 0.538432
Si Si5 0.006770 0.916662 0.774826
Si Si6 0.470813 0.506916 0.660553
Si Si7 0.356073 0.302034 0.027666
O O1 0.197673 0.709890 0.138409
O O2 0.106163 0.680393 0.377600
O O3 0.849134 0.690232 0.099226
O O4 0.024199 0.926950 0.277745
O O5 0.156786 0.110143 0.169289
O O6 0.437764 0.910332 0.206984
O O7 0.413706 0.138680 0.068585
O O8 0.197144 0.913890 0.923204
O O9 0.458650 0.338628 0.674272
O O10 0.510219 0.341565 0.967000
O O11 0.001630 0.787720 0.624563
O O12 0.296699 0.617211 0.662609
O O13 0.000000 0.500000 0.500000
O O14 0.500000 0.500000 0.500000
O O15 0.639981 0.575498 0.815747
#
# Coordination Sequence:
#
# PCOD8025622 Si02
#       7
#     2   2   2   2   2   2   2
#     4  10  23  45  71 100 133 178 228 285 338 407
#     4   9  20  40  71 104 131 175 228 291 332 405
#     4  11  22  44  69 100 139 175 228 274 345 400
#     4  12  25  43  69  99 140 184 223 281 343 408
#     4   9  20  40  69 102 134 173 229 282 345 395
#     4  12  27  46  62  98 145 180 225 283 339 405
#     4  11  24  43  73 101 134 181 232 280 339 413
#
# _framework density 22.936131
#
# number of rings (size 3 to 8) (size 9 to 14) (size 15 to 20)
#    0.000    1.429    1.429    3.857    2.000    2.857 
#    0.000    2.143    0.000    0.000    0.000    0.000 
#    0.000    0.000    0.000    0.000    0.000    0.000 
#
# Total GULP energy -173525.769300 kJ/mol
# GULP energy per Si atom -12394.697807 kJ/mol
# Density = 2.288393 g / cm^3
# Si number density = 22.936131 Si / 1000 Ang^3
#
#
#
# Elastic Constant Matrix: (Units=GPa)
#
#
# Indices 1 2 3 4 5 6 
#
# 1 110.5850 46.9036 65.0220 1.0493 -15.4998 1.1194
# 2 46.9036 148.2703 65.1628 -29.9227 -2.3913 -2.1774
# 3 65.0220 65.1628 119.8687 -5.4563 -16.1146 4.2314
# 4 1.0493 -29.9227 -5.4563 47.5499 0.4044 -1.5372
# 5 -15.4998 -2.3913 -16.1146 0.4044 30.2699 -11.5917
# 6 1.1194 -2.1774 4.2314 -1.5372 -11.5917 30.2220
#
#
#
# Elastic Compliance Matrix: (Units=1/GPa)
#
#
# Indices 1 2 3 4 5 6 
#
# 1 0.014183 -0.002208 -0.006048 -0.002377 0.004590 0.001802
# 2 -0.002208 0.010780 -0.004749 0.006337 -0.002561 0.000863
# 3 -0.006048 -0.004749 0.014728 -0.001221 0.004133 -0.000657
# 4 -0.002377 0.006337 -0.001221 0.024991 -0.001102 0.001564
# 5 0.004590 -0.002561 0.004133 -0.001102 0.043394 0.015655
# 6 0.001802 0.000863 -0.000657 0.001564 0.015655 0.039260
#
#
# Mechanical properties :
#
#
# Convention : Reuss Voigt Hill
#
# Bulk Modulus (GPa) = 73.09073 81.43342 77.26208
# Shear Modulus (GPa) = 28.10459 35.05073 31.57766
#
# Velocity S-wave (km/s) = 3.50428 3.91345 3.71450
# Velocity P-wave (km/s) = 6.95051 7.48342 7.22188
#
# Compressibility (1/GPa) = 0.01368163
#
# Stress axis : x y z
#
# Youngs Moduli (GPa) = 70.50658 92.76101 67.89734
#
# Poissons Ratio (x) = 0.20481 0.41064
# Poissons Ratio (y) = 0.15567 0.32245
# Poissons Ratio (z) = 0.42642 0.44053
#
# Static dielectric constant tensor:
#      x y z
#    x 5.634680 -1.350430 0.820040 
#    y -1.350430 5.536240 -1.205980 
#    z 0.820040 -1.205980 4.438860 
# 
# 
# High freq. dielectric constant tensor:
#      x y z
#    x 1.906280 -0.008110 -0.021330 
#    y -0.008110 1.928460 -0.023460 
#    z -0.021330 -0.023460 1.880830 
# 
# From -- ./inp_files/159942.got.cif
#   From: 2010.06.25/outbox.cif.g09.slc.cpg/sg2_80_cif.got.tgz:159942.got - 2010.06.27 13:26:56.
