data_PCOD8025617
_publ_section_title
;
Structure prediction by ZEFSAII (Michael W. Deem and Ramdas Pophale) SiO2 
 PCOD8025617
Probable space group: P -1
;
_chemical_formula_sum "Si O2"
_cell_formula_units_Z 16
_cell_length_a 8.218301
_cell_length_b 18.721932
_cell_length_c 11.999569
_cell_angle_alpha 45.152833
_cell_angle_beta 138.518658
_cell_angle_gamma 103.100268
_cell_volume 664.494096
_symmetry_space_group_name_H-M "P -1"
_symmetry_group_IT_number 2
_symmetry_cell_setting 'triclinic'
loop_
_space_group_symop_operation_xyz
x,y,z
-x,-y,-z
loop_
_atom_site_type_symbol
_atom_site_label
_atom_site_fract_x
_atom_site_fract_y
_atom_site_fract_z
Si Si1 0.311222 0.221180 0.290319
Si Si2 0.557180 0.263771 0.158202
Si Si3 0.475933 0.686056 0.518341
Si Si4 0.638745 0.751184 0.146690
Si Si5 0.366494 0.534439 0.772393
Si Si6 0.401190 0.640664 0.288398
Si Si7 0.768796 0.000385 0.184030
Si Si8 0.073526 0.044287 0.095420
O O1 0.443994 0.269690 0.218747
O O2 0.329303 0.273263 0.364037
O O3 0.542275 0.061252 0.577707
O O4 0.980420 0.261073 0.036108
O O5 0.394126 0.231093 0.022982
O O6 0.427341 0.407374 0.896047
O O7 0.940310 0.149706 0.465239
O O8 0.555094 0.561319 0.758452
O O9 0.553221 0.654612 0.461263
O O10 0.086310 0.806436 0.182005
O O11 0.549269 0.661313 0.238498
O O12 0.007521 0.669951 0.454214
O O13 0.394176 0.897118 0.910819
O O14 0.500000 0.500000 0.000000
O O15 0.500000 0.500000 0.500000
O O16 0.889916 0.050167 0.102773
O O17 0.500000 0.000000 0.000000
O O18 0.000000 0.000000 0.000000
#
# Coordination Sequence:
#
# PCOD8025617 Si02
#       8
#     2   2   2   2   2   2   2   2
#     4  10  23  45  70  99 136 185 236 281 341 429
#     4  11  23  46  68 101 139 186 240 280 349 428
#     4  11  23  46  71 100 136 185 240 283 347 425
#     4  12  26  45  68 106 144 177 234 297 358 413
#     4  12  24  44  74  98 134 189 241 285 347 428
#     4  12  26  45  67 104 148 181 228 295 354 412
#     4  11  24  44  70 105 144 177 231 298 351 414
#     4   9  21  42  69  98 133 180 235 278 344 425
#
# _framework density 24.078468000000001
#
# number of rings (size 3 to 8) (size 9 to 14) (size 15 to 20)
#    0.000    1.000    2.500    3.750    3.500    3.000 
#    4.500    0.000    0.000    0.000    0.000    0.000 
#    0.000    0.000    0.000    0.000    0.000    0.000 
#
# Total GULP energy -198235.656321 kJ/mol
# GULP energy per Si atom -12389.728520 kJ/mol
# Density = 2.402366 g / cm^3
# Si number density = 24.078468 Si / 1000 Ang^3
#
#
#
# Elastic Constant Matrix: (Units=GPa)
#
#
# Indices 1 2 3 4 5 6 
#
# 1 28.7947 15.8922 25.5725 9.8225 -2.6559 -8.1384
# 2 15.8922 95.5654 10.3407 12.5906 -6.4177 -27.1082
# 3 25.5725 10.3407 112.8921 10.7844 0.9823 -8.8711
# 4 9.8225 12.5906 10.7844 51.5230 4.0115 -5.7967
# 5 -2.6559 -6.4177 0.9823 4.0115 33.1639 -0.2297
# 6 -8.1384 -27.1082 -8.8711 -5.7967 -0.2297 40.7145
#
#
#
# Elastic Compliance Matrix: (Units=1/GPa)
#
#
# Indices 1 2 3 4 5 6 
#
# 1 0.049902 -0.005141 -0.010010 -0.006081 0.004058 0.003528
# 2 -0.005141 0.013982 0.000682 -0.001858 0.002555 0.008180
# 3 -0.010010 0.000682 0.011177 -0.000432 -0.000943 0.000822
# 4 -0.006081 -0.001858 -0.000432 0.021434 -0.003423 0.000486
# 5 0.004058 0.002555 -0.000943 -0.003423 0.031429 0.001997
# 6 0.003528 0.008180 0.000822 0.000486 0.001997 0.030972
#
#
# Mechanical properties :
#
#
# Convention : Reuss Voigt Hill
#
# Bulk Modulus (GPa) = 21.68139 37.87367 29.77753
# Shear Modulus (GPa) = 24.60538 37.44341 31.02439
#
# Velocity S-wave (km/s) = 3.20016 3.94770 3.59342
# Velocity P-wave (km/s) = 4.76222 6.04504 5.44156
#
# Compressibility (1/GPa) = 0.04612250
#
# Stress axis : x y z
#
# Youngs Moduli (GPa) = 20.03942 71.52078 89.46879
#
# Poissons Ratio (x) = 0.36768 0.89559
# Poissons Ratio (y) = 0.10302 -0.06101
# Poissons Ratio (z) = 0.20060 -0.04877
#
# Static dielectric constant tensor:
#      x y z
#    x 4.180710 -0.033630 -0.390650 
#    y -0.033630 6.729860 -3.298470 
#    z -0.390650 -3.298470 9.145850 
# 
# 
# High freq. dielectric constant tensor:
#      x y z
#    x 1.937010 -0.016310 -0.013850 
#    y -0.016310 1.961430 -0.004380 
#    z -0.013850 -0.004380 1.978820 
# 
# From -- ./inp_files/214458.got.cif
#   From: 2010.06.25/outbox.cif.g09.slc.cpg/sg2_108_cif.got.tgz:214458.got - 2010.06.27 13:26:56.
