data_PCOD8025178
_publ_section_title
;
Structure prediction by ZEFSAII (Michael W. Deem and Ramdas Pophale) SiO2 
 PCOD8025178
Probable space group: P -1
;
_chemical_formula_sum "Si O2"
_cell_formula_units_Z 12
_cell_length_a 11.262869
_cell_length_b 18.329498
_cell_length_c 4.981692
_cell_angle_alpha 98.129925
_cell_angle_beta 77.631571
_cell_angle_gamma 34.120928
_cell_volume 458.342452
_symmetry_space_group_name_H-M "P -1"
_symmetry_group_IT_number 2
_symmetry_cell_setting 'triclinic'
loop_
_space_group_symop_operation_xyz
x,y,z
-x,-y,-z
loop_
_atom_site_type_symbol
_atom_site_label
_atom_site_fract_x
_atom_site_fract_y
_atom_site_fract_z
Si Si1 0.237392 0.324859 0.418154
Si Si2 0.030866 0.280715 0.518688
Si Si3 0.000428 0.923008 0.224811
Si Si4 0.411891 0.748207 0.549847
Si Si5 0.237161 0.020618 0.152930
Si Si6 0.306543 0.543965 0.736899
O O1 0.363614 0.309947 0.572827
O O2 0.000000 0.500000 0.500000
O O3 0.146911 0.295968 0.579534
O O4 0.477523 0.170468 0.020608
O O5 0.867949 0.390875 0.391005
O O6 0.249462 0.102739 0.230198
O O7 0.862621 0.333858 0.869022
O O8 0.991276 0.885644 0.489622
O O9 0.832027 0.089969 0.423718
O O10 0.861143 0.945689 0.080315
O O11 0.296327 0.786643 0.921429
O O12 0.535331 0.609247 0.287058
O O13 0.500000 0.500000 0.500000
#
# Coordination Sequence:
#
# PCOD8025178 Si02
#       6
#     2   2   2   2   2   2
#     4  11  25  46  71 103 144 188 227 282 347 418
#     4  12  26  45  70 103 141 183 230 281 349 414
#     4  10  24  43  75 101 134 184 230 297 340 396
#     4  10  23  44  70 103 140 179 238 282 346 409
#     4  11  24  47  72 102 140 177 240 280 348 404
#     4  12  26  44  73 100 141 180 234 289 345 406
#
# _framework density 26.181297000000001
#
# number of rings (size 3 to 8) (size 9 to 14) (size 15 to 20)
#    0.000    1.000    1.667    4.000    2.333   10.667 
#    0.000    5.833    0.000    0.000    0.000    0.000 
#    0.000    0.000    0.000    0.000    0.000    0.000 
#
# Total GULP energy -148736.915899 kJ/mol
# GULP energy per Si atom -12394.742992 kJ/mol
# Density = 2.612171 g / cm^3
# Si number density = 26.181297 Si / 1000 Ang^3
#
#
#
# Elastic Constant Matrix: (Units=GPa)
#
#
# Indices 1 2 3 4 5 6 
#
# 1 131.1353 46.9495 25.2042 23.4243 -2.7002 37.3884
# 2 46.9495 92.5086 22.8908 20.6620 10.9131 17.0963
# 3 25.2042 22.8908 88.7894 1.9228 4.3120 5.2307
# 4 23.4243 20.6620 1.9228 45.9486 4.0504 6.1310
# 5 -2.7002 10.9131 4.3120 4.0504 35.7721 5.8608
# 6 37.3884 17.0963 5.2307 6.1310 5.8608 47.1312
#
#
#
# Elastic Compliance Matrix: (Units=1/GPa)
#
#
# Indices 1 2 3 4 5 6 
#
# 1 0.012617 -0.003963 -0.002190 -0.003816 0.004227 -0.008357
# 2 -0.003963 0.014990 -0.002399 -0.004138 -0.003951 -0.000997
# 3 -0.002190 -0.002399 0.012462 0.001633 -0.001313 0.001175
# 4 -0.003816 -0.004138 0.001633 0.025531 -0.002329 0.001315
# 5 0.004227 -0.003951 -0.001313 -0.002329 0.030769 -0.005297
# 6 -0.008357 -0.000997 0.001175 0.001315 -0.005297 0.028566
#
#
# Mechanical properties :
#
#
# Convention : Reuss Voigt Hill
#
# Bulk Modulus (GPa) = 43.54720 55.83580 49.69150
# Shear Modulus (GPa) = 33.40143 40.26298 36.83220
#
# Velocity S-wave (km/s) = 3.57567 3.92580 3.75482
# Velocity P-wave (km/s) = 5.80657 6.47473 6.14973
#
# Compressibility (1/GPa) = 0.02296359
#
# Stress axis : x y z
#
# Youngs Moduli (GPa) = 79.25806 66.71296 80.24403
#
# Poissons Ratio (x) = 0.26440 0.17574
# Poissons Ratio (y) = 0.31412 0.19252
# Poissons Ratio (z) = 0.17358 0.16006
#
# Static dielectric constant tensor:
#      x y z
#    x 4.833270 0.226650 -0.041380 
#    y 0.226650 4.642360 0.385960 
#    z -0.041380 0.385960 4.762580 
# 
# 
# High freq. dielectric constant tensor:
#      x y z
#    x 2.063230 0.022470 0.001140 
#    y 0.022470 2.041210 0.017480 
#    z 0.001140 0.017480 2.042930 
# 
# From -- ./inp_files/41782.got.cif
#   From: 2010.06.25/outbox.cif.g09.slc.cpg/sg2_21_cif.got.tgz:41782.got - 2010.06.27 13:26:56.
