data_PCOD8025155
_publ_section_title
;
Structure prediction by ZEFSAII (Michael W. Deem and Ramdas Pophale) SiO2 
 PCOD8025155
Probable space group: P -1
;
_chemical_formula_sum "Si O2"
_cell_formula_units_Z 16
_cell_length_a 6.640528
_cell_length_b 7.840682
_cell_length_c 15.274988
_cell_angle_alpha 81.545772
_cell_angle_beta 112.597544
_cell_angle_gamma 95.409722
_cell_volume 725.652309
_symmetry_space_group_name_H-M "P -1"
_symmetry_group_IT_number 2
_symmetry_cell_setting 'triclinic'
loop_
_space_group_symop_operation_xyz
x,y,z
-x,-y,-z
loop_
_atom_site_type_symbol
_atom_site_label
_atom_site_fract_x
_atom_site_fract_y
_atom_site_fract_z
Si Si1 0.030648 0.567764 0.597019
Si Si2 0.192130 0.092744 0.474664
Si Si3 0.478807 0.344271 0.074477
Si Si4 0.970591 0.781709 0.068411
Si Si5 0.381528 0.962330 0.345998
Si Si6 0.734283 0.093315 0.040634
Si Si7 0.512136 0.658514 0.723809
Si Si8 0.828707 0.379862 0.732634
O O1 0.275300 0.644026 0.642079
O O2 0.000000 0.500000 0.500000
O O3 0.859767 0.714069 0.575052
O O4 0.976635 0.415840 0.669053
O O5 0.393996 0.099720 0.573136
O O6 0.223023 0.985862 0.399597
O O7 0.000000 0.000000 0.500000
O O8 0.690866 0.228163 0.101196
O O9 0.494238 0.404257 0.172345
O O10 0.500000 0.500000 0.000000
O O11 0.240387 0.253664 0.025466
O O12 0.013578 0.628505 0.155337
O O13 0.919339 0.955593 0.102824
O O14 0.186284 0.807480 0.042266
O O15 0.292821 0.808379 0.280196
O O16 0.405405 0.141201 0.282407
O O17 0.500000 0.000000 0.000000
O O18 0.663972 0.532800 0.705218
#
# Coordination Sequence:
#
# PCOD8025155 Si02
#       8
#     2   2   2   2   2   2   2   2
#     4  12  26  46  72 103 141 183 228 287 351 415
#     4  11  22  46  70  97 137 178 229 284 348 411
#     4  11  24  44  69 101 139 181 226 287 344 405
#     4  10  23  44  69  99 138 184 226 278 348 402
#     4  11  26  43  72 102 136 182 231 287 344 407
#     4   9  21  41  67  95 133 178 229 277 331 404
#     4  12  27  46  70 105 140 180 237 285 342 415
#     4  12  27  45  69 105 142 181 234 285 342 413
#
# _framework density 22.049123999999999
#
# number of rings (size 3 to 8) (size 9 to 14) (size 15 to 20)
#    0.000    1.000    2.500    3.000    7.000    6.000 
#    2.250    0.000    0.000    0.000    0.000    0.000 
#    0.000    0.000    0.000    0.000    0.000    0.000 
#
# Total GULP energy -198385.994615 kJ/mol
# GULP energy per Si atom -12399.124663 kJ/mol
# Density = 2.199894 g / cm^3
# Si number density = 22.049124 Si / 1000 Ang^3
#
#
#
# Elastic Constant Matrix: (Units=GPa)
#
#
# Indices 1 2 3 4 5 6 
#
# 1 127.1472 34.1247 39.8232 -1.3672 -14.9577 -1.9078
# 2 34.1247 92.4202 17.6825 -4.0706 11.0117 8.3791
# 3 39.8232 17.6825 103.3949 -7.1990 -5.8475 4.2400
# 4 -1.3672 -4.0706 -7.1990 36.6551 0.9513 -5.7958
# 5 -14.9577 11.0117 -5.8475 0.9513 26.6251 -17.5538
# 6 -1.9078 8.3791 4.2400 -5.7958 -17.5538 32.1056
#
#
#
# Elastic Compliance Matrix: (Units=1/GPa)
#
#
# Indices 1 2 3 4 5 6 
#
# 1 0.013506 -0.007901 -0.003283 0.000693 0.019337 0.013996
# 2 -0.007901 0.018493 -0.000792 -0.000728 -0.024619 -0.018783
# 3 -0.003283 -0.000792 0.011253 0.001832 0.000212 -0.001028
# 4 0.000693 -0.000728 0.001832 0.028734 0.005439 0.008150
# 5 0.019337 -0.024619 0.000212 0.005439 0.100196 0.063310
# 6 0.013996 -0.018783 -0.001028 0.008150 0.063310 0.073103
#
#
# Mechanical properties :
#
#
# Convention : Reuss Voigt Hill
#
# Bulk Modulus (GPa) = 51.81315 56.24699 54.03007
# Shear Modulus (GPa) = 18.13760 34.49927 26.31844
#
# Velocity S-wave (km/s) = 2.87121 3.95986 3.45864
# Velocity P-wave (km/s) = 5.87723 6.81708 6.36453
#
# Compressibility (1/GPa) = 0.01930012
#
# Stress axis : x y z
#
# Youngs Moduli (GPa) = 74.04208 54.07389 88.86381
#
# Poissons Ratio (x) = 0.42724 0.29172
# Poissons Ratio (y) = 0.58501 0.07041
# Poissons Ratio (z) = 0.24306 0.04284
#
# Static dielectric constant tensor:
#      x y z
#    x 4.124100 -0.086640 -0.080720 
#    y -0.086640 4.241630 0.064350 
#    z -0.080720 0.064350 3.747870 
# 
# 
# High freq. dielectric constant tensor:
#      x y z
#    x 1.883410 -0.004750 -0.005960 
#    y -0.004750 1.875820 -0.010720 
#    z -0.005960 -0.010720 1.860260 
# 
# From -- ./inp_files/480453.got.cif
#   From: 2010.06.25/outbox.cif.g09.slc.cpg/sg2_241_cif.got.tgz:480453.got - 2010.06.27 13:26:56.
