data_PCOD8025822
_publ_section_title
;
Structure prediction by ZEFSAII (Michael W. Deem and Ramdas Pophale) SiO2 
 PCOD8025822
Probable space group: P -1
;
_chemical_formula_sum "Si O2"
_cell_formula_units_Z 14
_cell_length_a 15.766468
_cell_length_b 5.411910
_cell_length_c 12.689045
_cell_angle_alpha 68.747413
_cell_angle_beta 141.539891
_cell_angle_gamma 112.973340
_cell_volume 616.940884
_symmetry_space_group_name_H-M "P -1"
_symmetry_group_IT_number 2
_symmetry_cell_setting 'triclinic'
loop_
_space_group_symop_operation_xyz
x,y,z
-x,-y,-z
loop_
_atom_site_type_symbol
_atom_site_label
_atom_site_fract_x
_atom_site_fract_y
_atom_site_fract_z
Si Si1 0.794218 0.370419 0.543203
Si Si2 0.943054 0.865608 0.721506
Si Si3 0.122334 0.246780 0.102665
Si Si4 0.775021 0.229460 0.973165
Si Si5 0.658584 0.514412 0.187788
Si Si6 0.655250 0.091181 0.093036
Si Si7 0.660294 0.091424 0.655810
O O1 0.890693 0.669600 0.601429
O O2 0.675356 0.388758 0.338074
O O3 0.716931 0.309195 0.588305
O O4 0.877193 0.136465 0.623139
O O5 0.902522 0.670034 0.814463
O O6 0.111619 0.964078 0.867598
O O7 0.123560 0.476861 0.980360
O O8 0.273036 0.170567 0.253857
O O9 0.000000 0.000000 0.000000
O O10 0.692448 0.202518 0.787649
O O11 0.662729 0.197176 0.963122
O O12 0.730718 0.339275 0.200912
O O13 0.730736 0.830829 0.210511
O O14 0.500000 0.500000 0.000000
O O15 0.500000 0.000000 0.000000
O O16 0.500000 0.000000 0.500000
#
# Coordination Sequence:
#
# PCOD8025822 Si02
#       7
#     2   2   2   2   2   2   2
#     4  11  24  45  70 103 144 179 241 298 358 419
#     4  11  23  42  71 106 139 188 227 299 359 430
#     4  11  22  43  70 103 152 187 234 282 370 443
#     4  12  24  43  72 106 146 186 243 286 367 433
#     4  10  23  46  69  94 132 191 239 288 351 415
#     4  10  25  43  70  98 136 195 237 288 345 420
#     4  11  26  39  67 111 147 185 230 301 365 442
#
# _framework density 22.692609999999998
#
# number of rings (size 3 to 8) (size 9 to 14) (size 15 to 20)
#    0.000    1.143    2.857    3.000    6.000    1.714 
#    2.571    4.286    0.000    0.000    0.000    0.000 
#    0.000    0.000    0.000    0.000    0.000    0.000 
#
# Total GULP energy -173448.566520 kJ/mol
# GULP energy per Si atom -12389.183323 kJ/mol
# Density = 2.264096 g / cm^3
# Si number density = 22.692610 Si / 1000 Ang^3
#
#
#
# Elastic Constant Matrix: (Units=GPa)
#
#
# Indices 1 2 3 4 5 6 
#
# 1 145.1056 57.5159 63.7684 0.3881 -17.1834 -3.8735
# 2 57.5159 140.8130 45.3238 2.0828 -6.8610 -21.5525
# 3 63.7684 45.3238 152.9209 5.9033 -10.2596 -2.8148
# 4 0.3881 2.0828 5.9033 26.1146 4.8300 -7.9717
# 5 -17.1834 -6.8610 -10.2596 4.8300 49.2864 3.4885
# 6 -3.8735 -21.5525 -2.8148 -7.9717 3.4885 29.4395
#
#
#
# Elastic Compliance Matrix: (Units=1/GPa)
#
#
# Indices 1 2 3 4 5 6 
#
# 1 0.009684 -0.003128 -0.002970 -0.000178 0.002456 -0.001639
# 2 -0.003128 0.009969 -0.001643 0.002012 -0.000764 0.007365
# 3 -0.002970 -0.001643 0.008382 -0.002335 0.000817 -0.001522
# 4 -0.000178 0.002012 -0.002335 0.043891 -0.005544 0.013768
# 5 0.002456 -0.000764 0.000817 -0.005544 0.022055 -0.004272
# 6 -0.001639 0.007365 -0.001522 0.013768 -0.004272 0.043233
#
#
# Mechanical properties :
#
#
# Convention : Reuss Voigt Hill
#
# Bulk Modulus (GPa) = 79.66998 85.78394 82.72696
# Shear Modulus (GPa) = 31.87146 39.11685 35.49416
#
# Velocity S-wave (km/s) = 3.75171 4.15634 3.95920
# Velocity P-wave (km/s) = 7.34518 7.80501 7.57858
#
# Compressibility (1/GPa) = 0.01255178
#
# Stress axis : x y z
#
# Youngs Moduli (GPa) = 103.26194 100.31512 119.30714
#
# Poissons Ratio (x) = 0.31381 0.35430
# Poissons Ratio (y) = 0.32303 0.19607
# Poissons Ratio (z) = 0.30665 0.16486
#
# Static dielectric constant tensor:
#      x y z
#    x 4.166640 -0.501660 -0.151260 
#    y -0.501660 4.854180 -0.164480 
#    z -0.151260 -0.164480 4.169690 
# 
# 
# High freq. dielectric constant tensor:
#      x y z
#    x 1.884740 -0.020810 -0.008810 
#    y -0.020810 1.903510 -0.003000 
#    z -0.008810 -0.003000 1.886910 
# 
# From -- ./inp_files/70231.got.cif
#   From: 2010.06.25/outbox.cif.g09.slc.cpg/sg2_36_cif.got.tgz:70231.got - 2010.06.27 13:26:56.
