data_PCOD8025339
_publ_section_title
;
Structure prediction by ZEFSAII (Michael W. Deem and Ramdas Pophale) SiO2 
 PCOD8025339
Probable space group: P -1
;
_chemical_formula_sum "Si O2"
_cell_formula_units_Z 14
_cell_length_a 23.418389
_cell_length_b 8.706700
_cell_length_c 9.319875
_cell_angle_alpha 52.834700
_cell_angle_beta 40.418870
_cell_angle_gamma 29.652577
_cell_volume 599.690598
_symmetry_space_group_name_H-M "P -1"
_symmetry_group_IT_number 2
_symmetry_cell_setting 'triclinic'
loop_
_space_group_symop_operation_xyz
x,y,z
-x,-y,-z
loop_
_atom_site_type_symbol
_atom_site_label
_atom_site_fract_x
_atom_site_fract_y
_atom_site_fract_z
Si Si1 0.421422 0.204127 0.176302
Si Si2 0.109671 0.543613 0.615419
Si Si3 0.392674 0.081963 0.756595
Si Si4 0.155190 0.786171 0.779602
Si Si5 0.136644 0.067103 0.918057
Si Si6 0.686131 0.188418 0.002575
Si Si7 0.065619 0.204984 0.458370
O O1 0.272607 0.348101 0.423348
O O2 0.390744 0.482784 0.077005
O O3 0.556367 0.947266 0.167577
O O4 0.500000 0.000000 0.000000
O O5 0.098184 0.333315 0.763948
O O6 0.048140 0.707399 0.481129
O O7 0.002698 0.793629 0.812041
O O8 0.238026 0.439332 0.808962
O O9 0.500000 0.000000 0.500000
O O10 0.415876 0.817663 0.822301
O O11 0.210622 0.814095 0.793499
O O12 0.147692 0.914614 0.571249
O O13 0.000000 0.000000 0.000000
O O14 0.263706 0.886347 0.888069
O O15 0.816815 0.909211 0.806024
O O16 0.000000 0.500000 0.500000
#
# Coordination Sequence:
#
# PCOD8025339 Si02
#       7
#     2   2   2   2   2   2   2
#     4  12  28  47  73 103 147 193 243 296 364 445
#     4  10  24  44  72 107 143 188 238 301 366 422
#     4  12  28  49  71 105 150 193 239 296 368 437
#     4  12  27  42  75 107 145 189 245 296 359 430
#     4  10  23  44  74 105 144 184 244 303 358 426
#     4  11  26  47  72 105 144 191 241 297 363 428
#     4  11  23  43  74 110 143 183 237 308 355 424
#
# _framework density 23.345372000000001
#
# number of rings (size 3 to 8) (size 9 to 14) (size 15 to 20)
#    0.000    0.857    1.429    3.857   14.000    2.286 
#    0.000    2.857    0.000    0.000    0.000    0.000 
#    0.000    0.000    0.000    0.000    0.000    0.000 
#
# Total GULP energy -173441.811049 kJ/mol
# GULP energy per Si atom -12388.700789 kJ/mol
# Density = 2.329224 g / cm^3
# Si number density = 23.345372 Si / 1000 Ang^3
#
#
#
# Elastic Constant Matrix: (Units=GPa)
#
#
# Indices 1 2 3 4 5 6 
#
# 1 102.4785 32.0658 45.9470 -24.9297 2.3483 -16.5792
# 2 32.0658 121.5544 34.6984 -15.3318 -2.2545 1.0998
# 3 45.9470 34.6984 97.4471 -16.0487 -9.7764 -2.1300
# 4 -24.9297 -15.3318 -16.0487 29.3472 -8.0407 -1.2059
# 5 2.3483 -2.2545 -9.7764 -8.0407 46.1773 -5.8753
# 6 -16.5792 1.0998 -2.1300 -1.2059 -5.8753 45.3128
#
#
#
# Elastic Compliance Matrix: (Units=1/GPa)
#
#
# Indices 1 2 3 4 5 6 
#
# 1 0.016015 -0.001492 -0.005106 0.010448 0.000616 0.006014
# 2 -0.001492 0.009609 -0.002264 0.002598 0.000421 -0.000762
# 3 -0.005106 -0.002264 0.014384 0.003337 0.003703 -0.000568
# 4 0.010448 0.002598 0.003337 0.049047 0.009666 0.006475
# 5 0.000616 0.000421 0.003703 0.009666 0.024600 0.003836
# 6 0.006014 -0.000762 -0.000568 0.006475 0.003836 0.024931
#
#
# Mechanical properties :
#
#
# Convention : Reuss Voigt Hill
#
# Bulk Modulus (GPa) = 44.87614 60.76693 52.82154
# Shear Modulus (GPa) = 30.53627 38.08538 34.31083
#
# Velocity S-wave (km/s) = 3.62058 4.04343 3.83783
# Velocity P-wave (km/s) = 6.06157 6.91991 6.50491
#
# Compressibility (1/GPa) = 0.02228355
#
# Stress axis : x y z
#
# Youngs Moduli (GPa) = 62.44213 104.06615 69.51964
#
# Poissons Ratio (x) = 0.15530 0.35494
# Poissons Ratio (y) = 0.09319 0.15743
# Poissons Ratio (z) = 0.31881 0.23566
#
# Static dielectric constant tensor:
#      x y z
#    x 3.807080 -0.286660 -0.007710 
#    y -0.286660 3.824890 -0.210990 
#    z -0.007710 -0.210990 4.791030 
# 
# 
# High freq. dielectric constant tensor:
#      x y z
#    x 1.942530 0.000090 0.014300 
#    y 0.000090 1.926610 -0.012180 
#    z 0.014300 -0.012180 1.926910 
# 
# From -- ./inp_files/298075.got.cif
#   From: 2010.06.25/outbox.cif.g09.slc.cpg/sg2_150_cif.got.tgz:298075.got - 2010.06.27 13:26:56.
