data_PCOD8025202
_publ_section_title
;
Structure prediction by ZEFSAII (Michael W. Deem and Ramdas Pophale) SiO2 
 PCOD8025202
Probable space group: P -1
;
_chemical_formula_sum "Si O2"
_cell_formula_units_Z 16
_cell_length_a 5.294507
_cell_length_b 9.225247
_cell_length_c 19.376236
_cell_angle_alpha 66.521524
_cell_angle_beta 123.434066
_cell_angle_gamma 102.238509
_cell_volume 724.365213
_symmetry_space_group_name_H-M "P -1"
_symmetry_group_IT_number 2
_symmetry_cell_setting 'triclinic'
loop_
_space_group_symop_operation_xyz
x,y,z
-x,-y,-z
loop_
_atom_site_type_symbol
_atom_site_label
_atom_site_fract_x
_atom_site_fract_y
_atom_site_fract_z
Si Si1 0.696712 0.371604 0.732691
Si Si2 0.778905 0.284360 0.982251
Si Si3 0.611374 0.608467 0.935604
Si Si4 0.836702 0.149541 0.170212
Si Si5 0.681098 0.800695 0.177192
Si Si6 0.290069 0.403657 0.536173
Si Si7 0.984074 0.171889 0.435294
Si Si8 0.713408 0.738695 0.678982
O O1 0.489956 0.314592 0.775054
O O2 0.493612 0.343143 0.640883
O O3 0.788059 0.552516 0.723679
O O4 0.006289 0.271477 0.790855
O O5 0.707434 0.472687 0.921265
O O6 0.552630 0.174220 0.926338
O O7 0.789276 0.223002 0.073727
O O8 0.128951 0.278367 0.013726
O O9 0.383763 0.733658 0.840578
O O10 0.500000 0.500000 0.000000
O O11 0.162908 0.174990 0.249479
O O12 0.746386 0.966748 0.192780
O O13 0.500000 0.500000 0.500000
O O14 0.000000 0.500000 0.500000
O O15 0.191675 0.257413 0.504888
O O16 0.645825 0.240644 0.375717
O O17 0.130887 0.181492 0.379439
O O18 0.000000 0.000000 0.500000
#
# Coordination Sequence:
#
# PCOD8025202 Si02
#       8
#     2   2   2   2   2   2   2   2
#     4  12  27  47  70 104 141 183 233 286 338 424
#     4  10  23  44  70  97 137 191 234 280 348 414
#     4   9  21  41  68  98 127 185 229 283 335 416
#     4  11  27  43  69 101 144 179 232 295 345 403
#     4  12  29  43  71 104 142 184 233 292 345 399
#     4  12  23  48  75 103 136 186 231 278 351 411
#     4  12  27  47  75 105 141 181 226 289 349 422
#     4  12  27  47  71 106 140 186 230 282 346 414
#
# _framework density 22.088303
#
# number of rings (size 3 to 8) (size 9 to 14) (size 15 to 20)
#    0.000    0.750    2.500    3.000   15.750    0.500 
#    0.000    0.000    0.000    0.000    0.000    0.000 
#    0.000    0.000    0.000    0.000    0.000    0.000 
#
# Total GULP energy -198243.815901 kJ/mol
# GULP energy per Si atom -12390.238494 kJ/mol
# Density = 2.203803 g / cm^3
# Si number density = 22.088303 Si / 1000 Ang^3
#
#
#
# Elastic Constant Matrix: (Units=GPa)
#
#
# Indices 1 2 3 4 5 6 
#
# 1 103.1816 19.2289 20.2503 1.9314 -1.2020 17.3513
# 2 19.2289 151.7869 50.2285 11.1328 0.5155 19.2244
# 3 20.2503 50.2285 104.0133 27.3095 -11.6154 13.4769
# 4 1.9314 11.1328 27.3095 50.3262 2.4558 4.7763
# 5 -1.2020 0.5155 -11.6154 2.4558 33.1089 3.7842
# 6 17.3513 19.2244 13.4769 4.7763 3.7842 28.1297
#
#
#
# Elastic Compliance Matrix: (Units=1/GPa)
#
#
# Indices 1 2 3 4 5 6 
#
# 1 0.011047 -0.000209 -0.001438 0.000966 0.000539 -0.006219
# 2 -0.000209 0.008287 -0.003767 0.000622 -0.001083 -0.003690
# 3 -0.001438 -0.003767 0.014650 -0.007055 0.006032 -0.003171
# 4 0.000966 0.000622 -0.007055 0.023831 -0.004087 -0.001138
# 5 0.000539 -0.001083 0.006032 -0.004087 0.033377 -0.006278
# 6 -0.006219 -0.003690 -0.003171 -0.001138 -0.006278 0.044464
#
#
# Mechanical properties :
#
#
# Convention : Reuss Voigt Hill
#
# Bulk Modulus (GPa) = 43.18492 59.82191 51.50342
# Shear Modulus (GPa) = 32.42514 40.26458 36.34486
#
# Velocity S-wave (km/s) = 3.83558 4.27416 4.06080
# Velocity P-wave (km/s) = 6.26171 7.17634 6.73457
#
# Compressibility (1/GPa) = 0.02315623
#
# Stress axis : x y z
#
# Youngs Moduli (GPa) = 90.52464 120.67685 68.25976
#
# Poissons Ratio (x) = 0.02519 0.09813
# Poissons Ratio (y) = 0.01890 0.25715
# Poissons Ratio (z) = 0.13013 0.45461
#
# Static dielectric constant tensor:
#      x y z
#    x 4.504800 -0.405380 0.330410 
#    y -0.405380 4.958580 -0.085020 
#    z 0.330410 -0.085020 4.209770 
# 
# 
# High freq. dielectric constant tensor:
#      x y z
#    x 1.882360 0.010780 0.009060 
#    y 0.010780 1.877550 0.005710 
#    z 0.009060 0.005710 1.875340 
# 
# From -- ./inp_files/582373.got.cif
#   From: 2010.06.25/outbox.cif.g09.slc.cpg/sg2_292_cif.got.tgz:582373.got - 2010.06.27 13:26:56.
