data_PCOD8025728
_publ_section_title
;
Structure prediction by ZEFSAII (Michael W. Deem and Ramdas Pophale) SiO2 
 PCOD8025728
Probable space group: P -1
;
_chemical_formula_sum "Si O2"
_cell_formula_units_Z 14
_cell_length_a 16.688860
_cell_length_b 9.571730
_cell_length_c 11.686260
_cell_angle_alpha 80.644119
_cell_angle_beta 21.060486
_cell_angle_gamma 77.551864
_cell_volume 651.089207
_symmetry_space_group_name_H-M "P -1"
_symmetry_group_IT_number 2
_symmetry_cell_setting 'triclinic'
loop_
_space_group_symop_operation_xyz
x,y,z
-x,-y,-z
loop_
_atom_site_type_symbol
_atom_site_label
_atom_site_fract_x
_atom_site_fract_y
_atom_site_fract_z
Si Si1 0.919330 0.733433 0.344201
Si Si2 0.358989 0.679133 0.917724
Si Si3 0.630175 0.040166 0.714584
Si Si4 0.854351 0.651545 0.190769
Si Si5 0.223696 0.999117 0.125471
Si Si6 0.837421 0.477275 0.615356
Si Si7 0.972398 0.229943 0.279437
O O1 0.938810 0.714619 0.185529
O O2 0.760347 0.628480 0.628920
O O3 0.831293 0.902632 0.451281
O O4 0.160528 0.677721 0.090460
O O5 0.593159 0.634581 0.545343
O O6 0.363507 0.576113 0.038254
O O7 0.343287 0.837558 0.966503
O O8 0.729496 0.186562 0.579357
O O9 0.431004 0.073460 0.882350
O O10 0.500000 0.000000 0.000000
O O11 0.000000 0.500000 0.000000
O O12 0.901533 0.742490 0.007386
O O13 0.138737 0.086655 0.115501
O O14 0.000000 0.000000 0.500000
O O15 0.947617 0.355893 0.391536
O O16 0.000000 0.500000 0.500000
#
# Coordination Sequence:
#
# PCOD8025728 Si02
#       7
#     2   2   2   2   2   2   2
#     4  11  24  47  72 104 144 184 242 287 354 416
#     4  11  23  46  74 100 144 185 234 298 349 412
#     4  12  24  42  76 106 139 182 234 301 349 414
#     4  12  28  48  67 103 148 193 234 284 351 434
#     4  12  22  44  73 105 141 176 237 298 352 409
#     4  10  23  45  75 105 135 188 237 293 352 412
#     4  12  26  46  72 105 146 184 237 288 358 422
#
# _framework density 21.502431000000001
#
# number of rings (size 3 to 8) (size 9 to 14) (size 15 to 20)
#    0.000    0.571    7.143    0.000    2.000    4.571 
#    2.571    0.000    0.000    0.000    0.000    0.000 
#    0.000    0.000    0.000    0.000    0.000    0.000 
#
# Total GULP energy -173439.788947 kJ/mol
# GULP energy per Si atom -12388.556353 kJ/mol
# Density = 2.145349 g / cm^3
# Si number density = 21.502431 Si / 1000 Ang^3
#
#
#
# Elastic Constant Matrix: (Units=GPa)
#
#
# Indices 1 2 3 4 5 6 
#
# 1 130.0299 31.3835 62.8896 -16.5854 10.4880 7.0437
# 2 31.3835 80.3201 38.9635 -5.9009 9.8406 10.6170
# 3 62.8896 38.9635 147.1200 -8.0752 9.6738 -3.9157
# 4 -16.5854 -5.9009 -8.0752 39.2772 -5.6700 5.4502
# 5 10.4880 9.8406 9.6738 -5.6700 49.4721 -6.4604
# 6 7.0437 10.6170 -3.9157 5.4502 -6.4604 36.5045
#
#
#
# Elastic Compliance Matrix: (Units=1/GPa)
#
#
# Indices 1 2 3 4 5 6 
#
# 1 0.010683 -0.001461 -0.003977 0.003700 -0.001140 -0.002817
# 2 -0.001461 0.015847 -0.003460 0.001409 -0.002708 -0.005388
# 3 -0.003977 -0.003460 0.009455 -0.000658 -0.000016 0.002883
# 4 0.003700 0.001409 -0.000658 0.028039 0.001612 -0.005095
# 5 -0.001140 -0.002708 -0.000016 0.001612 0.021785 0.004621
# 6 -0.002817 -0.005388 0.002883 -0.005095 0.004621 0.031392
#
#
# Mechanical properties :
#
#
# Convention : Reuss Voigt Hill
#
# Bulk Modulus (GPa) = 54.97782 69.32701 62.15242
# Shear Modulus (GPa) = 35.44563 39.99966 37.72264
#
# Velocity S-wave (km/s) = 4.06451 4.31773 4.19303
# Velocity P-wave (km/s) = 6.90295 7.56099 7.23945
#
# Compressibility (1/GPa) = 0.01818915
#
# Stress axis : x y z
#
# Youngs Moduli (GPa) = 93.60597 63.10258 105.76142
#
# Poissons Ratio (x) = 0.09220 0.42057
# Poissons Ratio (y) = 0.13677 0.36598
# Poissons Ratio (z) = 0.37224 0.21836
#
# Static dielectric constant tensor:
#      x y z
#    x 3.960070 -0.086420 0.037090 
#    y -0.086420 3.783210 -0.029360 
#    z 0.037090 -0.029360 3.604410 
# 
# 
# High freq. dielectric constant tensor:
#      x y z
#    x 1.862900 0.000910 -0.006620 
#    y 0.000910 1.853160 -0.007440 
#    z -0.006620 -0.007440 1.835620 
# 
# From -- ./inp_files/390588.got.cif
#   From: 2010.06.25/outbox.cif.g09.slc.cpg/sg2_196_cif.got.tgz:390588.got - 2010.06.27 13:26:56.
