data_PCOD8025263
_publ_section_title
;
Structure prediction by ZEFSAII (Michael W. Deem and Ramdas Pophale) SiO2 
 PCOD8025263
Probable space group: P -1
;
_chemical_formula_sum "Si O2"
_cell_formula_units_Z 16
_cell_length_a 9.038876
_cell_length_b 6.588180
_cell_length_c 14.349386
_cell_angle_alpha 70.991688
_cell_angle_beta 71.278785
_cell_angle_gamma 103.324473
_cell_volume 709.596346
_symmetry_space_group_name_H-M "P -1"
_symmetry_group_IT_number 2
_symmetry_cell_setting 'triclinic'
loop_
_space_group_symop_operation_xyz
x,y,z
-x,-y,-z
loop_
_atom_site_type_symbol
_atom_site_label
_atom_site_fract_x
_atom_site_fract_y
_atom_site_fract_z
Si Si1 0.021187 0.353597 0.284880
Si Si2 0.334249 0.458496 0.924766
Si Si3 0.765631 0.204404 0.202158
Si Si4 0.845256 0.078170 0.526125
Si Si5 0.387141 0.299950 0.742096
Si Si6 0.491961 0.795273 0.602066
Si Si7 0.265672 0.765923 0.288981
Si Si8 0.295898 0.239703 0.152921
O O1 0.133827 0.599702 0.267430
O O2 0.146436 0.217309 0.259975
O O3 0.928849 0.360447 0.205081
O O4 0.867281 0.233624 0.405430
O O5 0.248190 0.653285 0.908949
O O6 0.305597 0.327924 0.851919
O O7 0.534149 0.550203 0.886782
O O8 0.241360 0.283665 0.053073
O O9 0.590159 0.163376 0.294008
O O10 0.753873 0.941369 0.228805
O O11 0.832859 0.226695 0.596318
O O12 0.683308 0.842526 0.585173
O O13 0.000000 0.000000 0.500000
O O14 0.404714 0.518755 0.635692
O O15 0.574053 0.299594 0.713236
O O16 0.500000 0.000000 0.500000
O O17 0.332860 0.007798 0.184932
#
# Coordination Sequence:
#
# PCOD8025263 Si02
#       8
#     2   2   2   2   2   2   2   2
#     4  12  26  42  64 102 137 176 220 281 341 394
#     4  10  23  44  71  98 133 175 225 286 333 395
#     4  11  24  45  65  99 142 173 221 279 339 397
#     4  12  23  44  68  96 138 175 221 279 332 393
#     4  11  22  42  73  96 130 182 227 272 328 404
#     4  11  23  43  64  98 135 174 225 269 331 403
#     4  12  23  43  70 101 132 176 231 274 329 406
#     4  11  23  43  71 101 132 173 230 283 333 393
#
# _framework density 22.548029
#
# number of rings (size 3 to 8) (size 9 to 14) (size 15 to 20)
#    0.000    0.750    6.250    1.875    0.000    4.500 
#    0.000    1.250    0.000    0.000    0.000    0.000 
#    0.000    0.000    0.000    0.000    0.000    0.000 
#
# Total GULP energy -198240.616990 kJ/mol
# GULP energy per Si atom -12390.038562 kJ/mol
# Density = 2.249671 g / cm^3
# Si number density = 22.548029 Si / 1000 Ang^3
#
#
#
# Elastic Constant Matrix: (Units=GPa)
#
#
# Indices 1 2 3 4 5 6 
#
# 1 64.8786 24.4496 14.3440 5.3228 10.8112 1.7244
# 2 24.4496 116.8973 49.0257 -0.1333 10.3310 -9.3042
# 3 14.3440 49.0257 90.9532 -8.9547 16.4227 -5.9198
# 4 5.3228 -0.1333 -8.9547 26.7441 -9.9824 9.9104
# 5 10.8112 10.3310 16.4227 -9.9824 36.2605 -6.4768
# 6 1.7244 -9.3042 -5.9198 9.9104 -6.4768 38.1197
#
#
#
# Elastic Compliance Matrix: (Units=1/GPa)
#
#
# Indices 1 2 3 4 5 6 
#
# 1 0.018239 -0.003061 -0.000784 -0.005689 -0.005998 -0.001234
# 2 -0.003061 0.011923 -0.006010 -0.002325 0.000086 0.002734
# 3 -0.000784 -0.006010 0.015442 0.004068 -0.004067 -0.000782
# 4 -0.005689 -0.002325 0.004068 0.048094 0.011943 -0.010153
# 5 -0.005998 0.000086 -0.004067 0.011943 0.034916 0.002488
# 6 -0.001234 0.002734 -0.000782 -0.010153 0.002488 0.029897
#
#
# Mechanical properties :
#
#
# Convention : Reuss Voigt Hill
#
# Bulk Modulus (GPa) = 38.61969 49.81864 44.21917
# Shear Modulus (GPa) = 26.75896 32.55219 29.65557
#
# Velocity S-wave (km/s) = 3.44867 3.80370 3.63053
# Velocity P-wave (km/s) = 5.74653 6.43687 6.10147
#
# Compressibility (1/GPa) = 0.02589353
#
# Stress axis : x y z
#
# Youngs Moduli (GPa) = 54.82721 83.87341 64.75787
#
# Poissons Ratio (x) = 0.25670 0.05079
# Poissons Ratio (y) = 0.16780 0.38922
# Poissons Ratio (z) = 0.04300 0.50412
#
# Static dielectric constant tensor:
#      x y z
#    x 4.048340 -0.217960 0.142200 
#    y -0.217960 4.381200 -0.308380 
#    z 0.142200 -0.308380 4.610990 
# 
# 
# High freq. dielectric constant tensor:
#      x y z
#    x 1.891880 -0.007930 0.001140 
#    y -0.007930 1.882050 -0.006380 
#    z 0.001140 -0.006380 1.887980 
# 
# From -- ./inp_files/484350.got.cif
#   From: 2010.06.25/outbox.cif.g09.slc.cpg/sg2_243_cif.got.tgz:484350.got - 2010.06.27 13:26:56.
