data_PCOD8025652
_publ_section_title
;
Structure prediction by ZEFSAII (Michael W. Deem and Ramdas Pophale) SiO2 
 PCOD8025652
Probable space group: P -1
;
_chemical_formula_sum "Si O2"
_cell_formula_units_Z 12
_cell_length_a 11.179323
_cell_length_b 12.430410
_cell_length_c 8.493899
_cell_angle_alpha 89.796664
_cell_angle_beta 67.062764
_cell_angle_gamma 144.672372
_cell_volume 501.084650
_symmetry_space_group_name_H-M "P -1"
_symmetry_group_IT_number 2
_symmetry_cell_setting 'triclinic'
loop_
_space_group_symop_operation_xyz
x,y,z
-x,-y,-z
loop_
_atom_site_type_symbol
_atom_site_label
_atom_site_fract_x
_atom_site_fract_y
_atom_site_fract_z
Si Si1 0.279103 0.310850 0.749005
Si Si2 0.853116 0.376916 0.241537
Si Si3 0.703581 0.560597 0.953300
Si Si4 0.321861 0.807834 0.220864
Si Si5 0.746840 0.087649 0.457281
Si Si6 0.360234 0.168752 0.928539
O O1 0.500000 0.500000 0.500000
O O2 0.374840 0.269786 0.783602
O O3 0.262935 0.400584 0.877064
O O4 0.962167 0.071881 0.843221
O O5 0.784192 0.198905 0.291542
O O6 0.030281 0.550791 0.296517
O O7 0.535844 0.193488 0.404108
O O8 0.000000 0.500000 0.000000
O O9 0.563392 0.344026 0.974542
O O10 0.989129 0.796336 0.707050
O O11 0.500000 0.500000 0.000000
O O12 0.229274 0.826324 0.396268
O O13 0.514794 0.853573 0.195944
O O14 0.500000 0.000000 0.000000
#
# Coordination Sequence:
#
# PCOD8025652 Si02
#       6
#     2   2   2   2   2   2
#     4  10  24  48  73 103 134 187 244 296 357 422
#     4  11  24  45  67 103 139 186 236 288 353 423
#     4  10  23  45  71  98 137 183 234 290 357 413
#     4  12  25  44  71 105 147 191 234 287 363 432
#     4  11  25  44  70 101 143 188 231 298 359 417
#     4  10  24  46  69 101 146 179 235 299 354 422
#
# _framework density 23.948049999999999
#
# number of rings (size 3 to 8) (size 9 to 14) (size 15 to 20)
#    0.000    1.333    3.333    0.500    4.667    3.333 
#    3.000    3.333    0.000    0.000    0.000    0.000 
#    0.000    0.000    0.000    0.000    0.000    0.000 
#
# Total GULP energy -148719.019910 kJ/mol
# GULP energy per Si atom -12393.251659 kJ/mol
# Density = 2.389354 g / cm^3
# Si number density = 23.948050 Si / 1000 Ang^3
#
#
#
# Elastic Constant Matrix: (Units=GPa)
#
#
# Indices 1 2 3 4 5 6 
#
# 1 83.4092 35.3126 65.4340 -3.0968 -21.2823 7.6074
# 2 35.3126 116.5890 74.4336 -14.3549 -16.3455 23.0581
# 3 65.4340 74.4336 229.0565 -13.6559 -18.3431 14.3223
# 4 -3.0968 -14.3549 -13.6559 51.7842 3.0809 -10.8592
# 5 -21.2823 -16.3455 -18.3431 3.0809 45.4550 -7.3456
# 6 7.6074 23.0581 14.3223 -10.8592 -7.3456 33.3140
#
#
#
# Elastic Compliance Matrix: (Units=1/GPa)
#
#
# Indices 1 2 3 4 5 6 
#
# 1 0.017374 -0.002106 -0.003869 -0.000881 0.005903 0.000168
# 2 -0.002106 0.012681 -0.002948 0.001203 0.001276 -0.006355
# 3 -0.003869 -0.002948 0.006430 0.000734 -0.000272 0.000339
# 4 -0.000881 0.001203 0.000734 0.021026 -0.000160 0.005871
# 5 0.005903 0.001276 -0.000272 -0.000160 0.025689 0.003498
# 6 0.000168 -0.006355 0.000339 0.005871 0.003498 0.036917
#
#
# Mechanical properties :
#
#
# Convention : Reuss Voigt Hill
#
# Bulk Modulus (GPa) = 53.65266 86.60166 70.12716
# Shear Modulus (GPa) = 34.67980 43.03560 38.85770
#
# Velocity S-wave (km/s) = 3.80955 4.24375 4.03250
# Velocity P-wave (km/s) = 6.46550 7.76230 7.14339
#
# Compressibility (1/GPa) = 0.01863840
#
# Stress axis : x y z
#
# Youngs Moduli (GPa) = 57.55646 78.85849 155.52761
#
# Poissons Ratio (x) = 0.16610 0.60175
# Poissons Ratio (y) = 0.12124 0.45846
# Poissons Ratio (z) = 0.22269 0.23246
#
# Static dielectric constant tensor:
#      x y z
#    x 5.054880 -4.382160 -0.841960 
#    y -4.382160 35.809990 3.175780 
#    z -0.841960 3.175780 4.999780 
# 
# 
# High freq. dielectric constant tensor:
#      x y z
#    x 1.935930 0.015210 -0.023550 
#    y 0.015210 1.964420 -0.008230 
#    z -0.023550 -0.008230 1.957410 
# 
# From -- ./inp_files/253471.got.cif
#   From: 2010.06.25/outbox.cif.g09.slc.cpg/sg2_127_cif.got.tgz:253471.got - 2010.06.27 13:26:56.
