data_PCOD8025678
_publ_section_title
;
Structure prediction by ZEFSAII (Michael W. Deem and Ramdas Pophale) SiO2 
 PCOD8025678
Probable space group: P -1
;
_chemical_formula_sum "Si O2"
_cell_formula_units_Z 16
_cell_length_a 15.302911
_cell_length_b 8.635520
_cell_length_c 10.312945
_cell_angle_alpha 100.988290
_cell_angle_beta 87.289039
_cell_angle_gamma 148.182916
_cell_volume 687.799053
_symmetry_space_group_name_H-M "P -1"
_symmetry_group_IT_number 2
_symmetry_cell_setting 'triclinic'
loop_
_space_group_symop_operation_xyz
x,y,z
-x,-y,-z
loop_
_atom_site_type_symbol
_atom_site_label
_atom_site_fract_x
_atom_site_fract_y
_atom_site_fract_z
Si Si1 0.968514 0.920980 0.837051
Si Si2 0.149570 0.193736 0.617101
Si Si3 0.639497 0.958879 0.249139
Si Si4 0.689774 0.720833 0.859010
Si Si5 0.165848 0.859023 0.518766
Si Si6 0.535837 0.120560 0.371746
Si Si7 0.936453 0.256602 0.132653
Si Si8 0.740730 0.084945 0.752084
O O1 0.110091 0.202238 0.767218
O O2 0.966914 0.728553 0.785367
O O3 0.790643 0.733469 0.781270
O O4 0.000000 0.000000 0.000000
O O5 0.317299 0.521917 0.589893
O O6 0.159771 0.022533 0.605367
O O7 0.000000 0.000000 0.500000
O O8 0.490182 0.627259 0.136661
O O9 0.665166 0.959090 0.400108
O O10 0.593180 0.070418 0.261781
O O11 0.821130 0.199998 0.211841
O O12 0.637572 0.793017 0.790465
O O13 0.815805 0.976532 0.000339
O O14 0.186134 0.897937 0.370927
O O15 0.000000 0.500000 0.500000
O O16 0.500000 0.000000 0.500000
O O17 0.369885 0.938405 0.288894
O O18 0.097469 0.605716 0.121796
#
# Coordination Sequence:
#
# PCOD8025678 Si02
#       8
#     2   2   2   2   2   2   2   2
#     4  10  23  45  73 100 141 184 238 291 369 433
#     4  12  26  42  74 108 146 188 246 298 368 437
#     4  12  24  44  71  98 142 180 240 291 361 419
#     4  11  26  44  72 104 137 184 241 300 357 432
#     4  12  23  41  72 104 139 181 233 297 365 429
#     4  12  29  45  68 107 152 189 239 303 364 432
#     4  11  24  47  73  98 141 190 236 291 366 434
#     4  12  25  44  70 103 144 181 238 295 367 428
#
# _framework density 23.262608
#
# number of rings (size 3 to 8) (size 9 to 14) (size 15 to 20)
#    0.000    0.500    3.750    3.750    7.000    1.000 
#    0.000    0.625    0.000    0.000    0.000    0.000 
#    0.000    0.000    0.000    0.000    0.000    0.000 
#
# Total GULP energy -198210.100600 kJ/mol
# GULP energy per Si atom -12388.131287 kJ/mol
# Density = 2.320966 g / cm^3
# Si number density = 23.262608 Si / 1000 Ang^3
#
#
#
# Elastic Constant Matrix: (Units=GPa)
#
#
# Indices 1 2 3 4 5 6 
#
# 1 165.5537 42.4513 26.0682 2.5736 -4.8870 4.1808
# 2 42.4513 135.0405 32.1300 17.7827 -4.2487 -1.7793
# 3 26.0682 32.1300 84.0039 10.2107 -1.1347 4.5109
# 4 2.5736 17.7827 10.2107 44.2041 3.3604 1.7844
# 5 -4.8870 -4.2487 -1.1347 3.3604 34.1877 2.6092
# 6 4.1808 -1.7793 4.5109 1.7844 2.6092 33.7787
#
#
#
# Elastic Compliance Matrix: (Units=1/GPa)
#
#
# Indices 1 2 3 4 5 6 
#
# 1 0.006773 -0.001870 -0.001413 0.000666 0.000687 -0.000836
# 2 -0.001870 0.009051 -0.002557 -0.003062 0.000987 0.001135
# 3 -0.001413 -0.002557 0.013658 -0.001995 0.000259 -0.001698
# 4 0.000666 -0.003062 -0.001995 0.024523 -0.002681 -0.001066
# 5 0.000687 0.000987 0.000259 -0.002681 0.029914 -0.002237
# 6 -0.000836 0.001135 -0.001698 -0.001066 -0.002237 0.030224
#
#
# Mechanical properties :
#
#
# Convention : Reuss Voigt Hill
#
# Bulk Modulus (GPa) = 56.17509 65.09968 60.63739
# Shear Modulus (GPa) = 37.94852 41.36400 39.65626
#
# Velocity S-wave (km/s) = 4.04333 4.22137 4.13331
# Velocity P-wave (km/s) = 6.78223 7.19759 6.99300
#
# Compressibility (1/GPa) = 0.01780148
#
# Stress axis : x y z
#
# Youngs Moduli (GPa) = 147.63440 110.48889 73.21733
#
# Poissons Ratio (x) = 0.20663 0.10349
# Poissons Ratio (y) = 0.27609 0.18720
# Poissons Ratio (z) = 0.20867 0.28250
#
# Static dielectric constant tensor:
#      x y z
#    x 4.761820 0.008330 -0.023480 
#    y 0.008330 4.208990 -0.160460 
#    z -0.023480 -0.160460 4.329930 
# 
# 
# High freq. dielectric constant tensor:
#      x y z
#    x 1.946720 0.003530 -0.001630 
#    y 0.003530 1.912840 0.005430 
#    z -0.001630 0.005430 1.908110 
# 
# From -- ./inp_files/297641.got.cif
#   From: 2010.06.25/outbox.cif.g09.slc.cpg/sg2_149_cif.got.tgz:297641.got - 2010.06.27 13:26:56.
