data_PCOD8025156
_publ_section_title
;
Structure prediction by ZEFSAII (Michael W. Deem and Ramdas Pophale) SiO2 
 PCOD8025156
Probable space group: P -1
;
_chemical_formula_sum "Si O2"
_cell_formula_units_Z 14
_cell_length_a 25.268104
_cell_length_b 15.005140
_cell_length_c 5.261723
_cell_angle_alpha 53.118011
_cell_angle_beta 52.580215
_cell_angle_gamma 21.050330
_cell_volume 565.271270
_symmetry_space_group_name_H-M "P -1"
_symmetry_group_IT_number 2
_symmetry_cell_setting 'triclinic'
loop_
_space_group_symop_operation_xyz
x,y,z
-x,-y,-z
loop_
_atom_site_type_symbol
_atom_site_label
_atom_site_fract_x
_atom_site_fract_y
_atom_site_fract_z
Si Si1 0.203755 0.009159 0.640240
Si Si2 0.315631 0.611746 0.180282
Si Si3 0.045356 0.997389 0.620881
Si Si4 0.301963 0.197159 0.603046
Si Si5 0.396157 0.298606 0.136093
Si Si6 0.573777 0.164599 0.482292
Si Si7 0.984475 0.710851 0.791664
O O1 0.123905 0.155412 0.357545
O O2 0.346502 0.876589 0.473565
O O3 0.094996 0.200869 0.864402
O O4 0.258565 0.799024 0.849972
O O5 0.222806 0.750402 0.479898
O O6 0.294991 0.526334 0.229421
O O7 0.492675 0.360353 0.163017
O O8 0.966070 0.234850 0.458384
O O9 0.000000 0.000000 0.500000
O O10 0.000000 0.000000 0.000000
O O11 0.310321 0.313607 0.288075
O O12 0.141431 0.410126 0.833905
O O13 0.437505 0.973959 0.779381
O O14 0.310620 0.099578 0.508985
O O15 0.428929 0.316964 0.753413
#
# Coordination Sequence:
#
# PCOD8025156 Si02
#       7
#     2   2   2   2   2   2   2
#     4  11  27  46  69 104 138 183 231 279 344 412
#     4  10  24  42  67 104 132 178 228 284 349 400
#     4  11  23  41  67 101 137 175 222 278 344 409
#     4  10  24  44  67 101 135 179 237 281 347 400
#     4  10  23  44  70 100 134 179 232 290 340 405
#     4  11  25  43  71  95 137 184 233 283 335 408
#     4  11  26  44  69 100 142 182 225 286 342 407
#
# _framework density 24.766870000000001
#
# number of rings (size 3 to 8) (size 9 to 14) (size 15 to 20)
#    0.000    1.429    0.000    3.429   14.000    1.714 
#    0.000    0.000    0.000    0.000    0.000    0.000 
#    0.000    0.000    0.000    0.000    0.000    0.000 
#
# Total GULP energy -173557.830318 kJ/mol
# GULP energy per Si atom -12396.987880 kJ/mol
# Density = 2.471050 g / cm^3
# Si number density = 24.766870 Si / 1000 Ang^3
#
#
#
# Elastic Constant Matrix: (Units=GPa)
#
#
# Indices 1 2 3 4 5 6 
#
# 1 106.6897 18.5953 -4.6712 -10.0810 2.9632 8.2479
# 2 18.5953 121.9033 7.2305 -2.1264 1.6653 21.1066
# 3 -4.6712 7.2305 41.7288 7.0087 5.2100 13.7889
# 4 -10.0810 -2.1264 7.0087 22.8007 4.5171 5.6094
# 5 2.9632 1.6653 5.2100 4.5171 36.8699 2.8624
# 6 8.2479 21.1066 13.7889 5.6094 2.8624 35.0970
#
#
#
# Elastic Compliance Matrix: (Units=1/GPa)
#
#
# Indices 1 2 3 4 5 6 
#
# 1 0.010388 -0.001028 0.001726 0.005029 -0.001401 -0.003191
# 2 -0.001028 0.009378 -0.000186 0.001881 -0.000109 -0.005617
# 3 0.001726 -0.000186 0.028880 -0.004969 -0.002778 -0.010619
# 4 0.005029 0.001881 -0.004969 0.050832 -0.005390 -0.008045
# 5 -0.001401 -0.000109 -0.002778 -0.005390 0.028290 0.000040
# 6 -0.003191 -0.005617 -0.010619 -0.008045 0.000040 0.038075
#
#
# Mechanical properties :
#
#
# Convention : Reuss Voigt Hill
#
# Bulk Modulus (GPa) = 20.13309 34.73676 27.43492
# Shear Modulus (GPa) = 27.56703 35.56467 31.56585
#
# Velocity S-wave (km/s) = 3.33988 3.79354 3.57391
# Velocity P-wave (km/s) = 4.79789 5.76575 5.30394
#
# Compressibility (1/GPa) = 0.04966949
#
# Stress axis : x y z
#
# Youngs Moduli (GPa) = 96.26085 106.63461 34.62583
#
# Poissons Ratio (x) = 0.10959 -0.05975
# Poissons Ratio (y) = 0.09893 0.00645
# Poissons Ratio (z) = -0.16610 0.01987
#
# Static dielectric constant tensor:
#      x y z
#    x 4.340550 0.166230 -0.138020 
#    y 0.166230 4.763640 0.055300 
#    z -0.138020 0.055300 4.291530 
# 
# 
# High freq. dielectric constant tensor:
#      x y z
#    x 1.983740 0.005310 -0.002580 
#    y 0.005310 2.008250 0.000550 
#    z -0.002580 0.000550 1.970510 
# 
# From -- ./inp_files/68761.got.cif
#   From: 2010.06.25/outbox.cif.g09.slc.cpg/sg2_35_cif.got.tgz:68761.got - 2010.06.27 13:26:56.
