data_PCOD8025472
_publ_section_title
;
Structure prediction by ZEFSAII (Michael W. Deem and Ramdas Pophale) SiO2 
 PCOD8025472
Probable space group: P -1
;
_chemical_formula_sum "Si O2"
_cell_formula_units_Z 14
_cell_length_a 18.725325
_cell_length_b 8.705579
_cell_length_c 8.105754
_cell_angle_alpha 93.322197
_cell_angle_beta 56.737581
_cell_angle_gamma 48.836297
_cell_volume 620.801368
_symmetry_space_group_name_H-M "P -1"
_symmetry_group_IT_number 2
_symmetry_cell_setting 'triclinic'
loop_
_space_group_symop_operation_xyz
x,y,z
-x,-y,-z
loop_
_atom_site_type_symbol
_atom_site_label
_atom_site_fract_x
_atom_site_fract_y
_atom_site_fract_z
Si Si1 0.457543 0.235923 0.109293
Si Si2 0.350327 0.395015 0.619477
Si Si3 0.034021 0.382937 0.131078
Si Si4 0.261200 0.036579 0.390837
Si Si5 0.081057 0.978893 0.155881
Si Si6 0.665430 0.939126 0.344019
Si Si7 0.193526 0.807127 0.363831
O O1 0.370309 0.379910 0.399301
O O2 0.337346 0.478024 0.141478
O O3 0.500000 0.000000 0.000000
O O4 0.612128 0.104624 0.911890
O O5 0.315974 0.271282 0.702935
O O6 0.501202 0.233795 0.506479
O O7 0.210187 0.707768 0.867865
O O8 0.902983 0.647567 0.432019
O O9 0.024514 0.212873 0.142875
O O10 0.203951 0.185553 0.949710
O O11 0.000000 0.500000 0.000000
O O12 0.317765 0.019635 0.491781
O O13 0.247351 0.873852 0.405039
O O14 0.141712 0.936934 0.256382
O O15 0.941832 0.069861 0.356083
#
# Coordination Sequence:
#
# PCOD8025472 Si02
#       7
#     2   2   2   2   2   2   2
#     4  12  25  44  71 104 141 185 230 285 351 411
#     4  11  25  43  74 101 139 184 230 288 343 416
#     4  10  24  44  73  99 137 179 231 292 339 414
#     4  11  23  47  67 101 142 179 234 280 352 411
#     4  11  26  48  70 105 138 183 238 282 352 410
#     4  10  23  45  68 103 135 182 229 286 344 413
#     4  11  27  46  73 101 143 185 228 293 341 417
#
# _framework density 22.551496
#
# number of rings (size 3 to 8) (size 9 to 14) (size 15 to 20)
#    0.000    1.143    1.429    3.000   10.000    1.714 
#    0.000    0.000    0.000    0.000    0.000    0.000 
#    0.000    0.000    0.000    0.000    0.000    0.000 
#
# Total GULP energy -173636.754397 kJ/mol
# GULP energy per Si atom -12402.625314 kJ/mol
# Density = 2.250017 g / cm^3
# Si number density = 22.551496 Si / 1000 Ang^3
#
#
#
# Elastic Constant Matrix: (Units=GPa)
#
#
# Indices 1 2 3 4 5 6 
#
# 1 107.3341 40.7344 41.5007 8.6760 -14.5741 15.2423
# 2 40.7344 136.4605 57.4048 17.2231 -3.4722 21.6681
# 3 41.5007 57.4048 172.7059 16.4162 -21.2299 12.9816
# 4 8.6760 17.2231 16.4162 41.2594 6.6382 2.1140
# 5 -14.5741 -3.4722 -21.2299 6.6382 36.5505 -4.6618
# 6 15.2423 21.6681 12.9816 2.1140 -4.6618 25.1666
#
#
#
# Elastic Compliance Matrix: (Units=1/GPa)
#
#
# Indices 1 2 3 4 5 6 
#
# 1 0.011745 -0.002081 -0.001266 -0.001464 0.003519 -0.003894
# 2 -0.002081 0.010225 -0.002404 -0.002279 -0.001659 -0.006420
# 3 -0.001266 -0.002404 0.007642 -0.002428 0.004129 -0.000137
# 4 -0.001464 -0.002279 -0.002428 0.027591 -0.007164 0.000456
# 5 0.003519 -0.001659 0.004129 -0.007164 0.032795 0.003844
# 6 -0.003894 -0.006420 -0.000137 0.000456 0.003844 0.048365
#
#
# Mechanical properties :
#
#
# Convention : Reuss Voigt Hill
#
# Bulk Modulus (GPa) = 55.21415 77.30893 66.26154
# Shear Modulus (GPa) = 32.07159 39.05266 35.56213
#
# Velocity S-wave (km/s) = 3.77523 4.16590 3.97537
# Velocity P-wave (km/s) = 6.59848 7.58255 7.10757
#
# Compressibility (1/GPa) = 0.01811130
#
# Stress axis : x y z
#
# Youngs Moduli (GPa) = 85.14174 97.79933 130.85524
#
# Poissons Ratio (x) = 0.20349 0.16570
# Poissons Ratio (y) = 0.17715 0.31451
# Poissons Ratio (z) = 0.10781 0.23506
#
# Static dielectric constant tensor:
#      x y z
#    x 4.089410 -0.006680 -0.350270 
#    y -0.006680 4.061480 0.141120 
#    z -0.350270 0.141120 4.728190 
# 
# 
# High freq. dielectric constant tensor:
#      x y z
#    x 1.884670 0.006150 -0.019060 
#    y 0.006150 1.890400 0.009040 
#    z -0.019060 0.009040 1.911120 
# 
# From -- ./inp_files/263241.got.cif
#   From: 2010.06.25/outbox.cif.g09.slc.cpg/sg2_132_cif.got.tgz:263241.got - 2010.06.27 13:26:56.
