data_PCOD8025510
_publ_section_title
;
Structure prediction by ZEFSAII (Michael W. Deem and Ramdas Pophale) SiO2 
 PCOD8025510
Probable space group: P -1
;
_chemical_formula_sum "Si O2"
_cell_formula_units_Z 16
_cell_length_a 11.695513
_cell_length_b 14.492536
_cell_length_c 14.763617
_cell_angle_alpha 147.735352
_cell_angle_beta 37.881906
_cell_angle_gamma 118.904050
_cell_volume 678.736652
_symmetry_space_group_name_H-M "P -1"
_symmetry_group_IT_number 2
_symmetry_cell_setting 'triclinic'
loop_
_space_group_symop_operation_xyz
x,y,z
-x,-y,-z
loop_
_atom_site_type_symbol
_atom_site_label
_atom_site_fract_x
_atom_site_fract_y
_atom_site_fract_z
Si Si1 0.052878 0.810610 0.713671
Si Si2 0.643387 0.949193 0.993409
Si Si3 0.272409 0.215777 0.584850
Si Si4 0.210128 0.632165 0.022322
Si Si5 0.459277 0.727275 0.815288
Si Si6 0.732462 0.807863 0.227239
Si Si7 0.534198 0.557216 0.126004
Si Si8 0.865454 0.276447 0.215111
O O1 0.288352 0.747535 0.470399
O O2 0.096171 0.677832 0.667841
O O3 0.903605 0.769880 0.706560
O O4 0.877260 0.063091 0.045389
O O5 0.488795 0.024830 0.242341
O O6 0.626686 0.150551 0.124995
O O7 0.580059 0.827014 0.866944
O O8 0.305037 0.405548 0.730291
O O9 0.240187 0.154534 0.654048
O O10 0.052567 0.267730 0.708637
O O11 0.247115 0.767041 0.038662
O O12 0.351026 0.621491 0.015446
O O13 0.634990 0.476447 0.485467
O O14 0.719556 0.611050 0.053520
O O15 0.500000 0.000000 0.500000
O O16 0.939945 0.773368 0.015441
O O17 0.500000 0.500000 0.000000
#
# Coordination Sequence:
#
# PCOD8025510 Si02
#       8
#     2   2   2   2   2   2   2   2
#     4  11  24  45  67 100 133 177 228 279 333 404
#     4  11  27  43  66 101 139 176 230 278 337 410
#     4  10  24  43  69 101 133 176 228 287 330 409
#     4  10  23  45  68  99 132 179 231 272 348 400
#     4  11  26  44  66  99 136 184 222 276 347 402
#     4  11  23  42  65 102 132 174 230 273 340 400
#     4  11  25  42  67 101 138 176 220 282 340 406
#     4  11  24  43  69  93 134 177 225 280 330 402
#
# _framework density 23.573207
#
# number of rings (size 3 to 8) (size 9 to 14) (size 15 to 20)
#    0.000    1.250    2.500    1.500   12.250    5.000 
#    0.000    0.000    0.000    0.000    0.000    0.000 
#    0.000    0.000    0.000    0.000    0.000    0.000 
#
# Total GULP energy -198287.646476 kJ/mol
# GULP energy per Si atom -12392.977905 kJ/mol
# Density = 2.351955 g / cm^3
# Si number density = 23.573207 Si / 1000 Ang^3
#
#
#
# Elastic Constant Matrix: (Units=GPa)
#
#
# Indices 1 2 3 4 5 6 
#
# 1 117.5718 12.3552 16.9609 -16.0576 -14.2430 -19.8534
# 2 12.3552 92.7414 12.5659 -19.1259 -0.5393 -18.8381
# 3 16.9609 12.5659 51.8615 -9.0156 -7.4016 -12.6729
# 4 -16.0576 -19.1259 -9.0156 29.1822 -3.9971 0.8601
# 5 -14.2430 -0.5393 -7.4016 -3.9971 31.0859 -4.8209
# 6 -19.8534 -18.8381 -12.6729 0.8601 -4.8209 32.6895
#
#
#
# Elastic Compliance Matrix: (Units=1/GPa)
#
#
# Indices 1 2 3 4 5 6 
#
# 1 0.012145 0.002272 0.000747 0.009276 0.008524 0.009988
# 2 0.002272 0.014975 0.000963 0.011689 0.004703 0.010769
# 3 0.000747 0.000963 0.024647 0.009583 0.009271 0.011679
# 4 0.009276 0.011689 0.009583 0.051685 0.016031 0.017089
# 5 0.008524 0.004703 0.009271 0.016031 0.043126 0.017420
# 6 0.009988 0.010769 0.011679 0.017089 0.017420 0.049510
#
#
# Mechanical properties :
#
#
# Convention : Reuss Voigt Hill
#
# Bulk Modulus (GPa) = 16.74123 38.43762 27.58943
# Shear Modulus (GPa) = 24.03453 33.27770 28.65612
#
# Velocity S-wave (km/s) = 3.19653 3.76130 3.49036
# Velocity P-wave (km/s) = 4.55423 5.93332 5.28891
#
# Compressibility (1/GPa) = 0.05973276
#
# Stress axis : x y z
#
# Youngs Moduli (GPa) = 82.33888 66.77824 40.57238
#
# Poissons Ratio (x) = -0.15173 -0.03032
# Poissons Ratio (y) = -0.18708 -0.03909
# Poissons Ratio (z) = -0.06153 -0.06434
#
# Static dielectric constant tensor:
#      x y z
#    x 4.495910 -0.281970 -0.181430 
#    y -0.281970 3.946080 0.152600 
#    z -0.181430 0.152600 3.903360 
# 
# 
# High freq. dielectric constant tensor:
#      x y z
#    x 1.949930 -0.005460 -0.013760 
#    y -0.005460 1.938570 -0.010510 
#    z -0.013760 -0.010510 1.909950 
# 
# From -- ./inp_files/187472.got.cif
#   From: 2010.06.25/outbox.cif.g09.slc.cpg/sg2_94_cif.got.tgz:187472.got - 2010.06.27 13:26:56.
