data_PCOD8025953
_publ_section_title
;
Structure prediction by ZEFSAII (Michael W. Deem and Ramdas Pophale) SiO2 
 PCOD8025953
Probable space group: P -1
;
_chemical_formula_sum "Si O2"
_cell_formula_units_Z 14
_cell_length_a 9.436098
_cell_length_b 13.797623
_cell_length_c 9.117521
_cell_angle_alpha 67.116940
_cell_angle_beta 105.921636
_cell_angle_gamma 50.553090
_cell_volume 574.599907
_symmetry_space_group_name_H-M "P -1"
_symmetry_group_IT_number 2
_symmetry_cell_setting 'triclinic'
loop_
_space_group_symop_operation_xyz
x,y,z
-x,-y,-z
loop_
_atom_site_type_symbol
_atom_site_label
_atom_site_fract_x
_atom_site_fract_y
_atom_site_fract_z
Si Si1 0.904731 0.749024 0.564291
Si Si2 0.319122 0.206747 0.788750
Si Si3 0.589059 0.124277 0.168020
Si Si4 0.238479 0.772615 0.182884
Si Si5 0.513754 0.392325 0.959863
Si Si6 0.900955 0.670931 0.921273
Si Si7 0.807773 0.433112 0.665958
O O1 0.722854 0.768956 0.414358
O O2 0.843935 0.778969 0.701750
O O3 0.213980 0.542118 0.735212
O O4 0.859137 0.895440 0.404241
O O5 0.016634 0.378399 0.665478
O O6 0.489651 0.197933 0.923415
O O7 0.500000 0.000000 0.000000
O O8 0.371850 0.179310 0.153703
O O9 0.620594 0.224293 0.178121
O O10 0.294102 0.707794 0.066971
O O11 0.508179 0.653061 0.410834
O O12 0.153182 0.714373 0.272056
O O13 0.000000 0.000000 0.000000
O O14 0.500000 0.500000 0.000000
O O15 0.000000 0.500000 0.000000
O O16 0.136159 0.582881 0.136209
#
# Coordination Sequence:
#
# PCOD8025953 Si02
#       7
#     2   2   2   2   2   2   2
#     4  11  22  43  69 100 140 180 229 293 359 411
#     4   9  20  40  72 102 133 178 232 293 353 420
#     4  10  24  42  70 101 140 179 234 286 359 426
#     4  11  26  45  74 101 138 192 244 285 349 419
#     4  12  26  45  68 103 140 185 239 293 349 415
#     4  11  22  43  67 104 142 181 225 292 360 421
#     4  10  23  47  66 100 143 180 236 294 342 420
#
# _framework density 24.364778000000001
#
# number of rings (size 3 to 8) (size 9 to 14) (size 15 to 20)
#    0.000    1.429    2.857    1.286    4.000    2.286 
#   10.286    0.000    0.000    0.000    0.000    0.000 
#    0.000    0.000    0.000    0.000    0.000    0.000 
#
# Total GULP energy -173480.828484 kJ/mol
# GULP energy per Si atom -12391.487749 kJ/mol
# Density = 2.430932 g / cm^3
# Si number density = 24.364778 Si / 1000 Ang^3
#
#
#
# Elastic Constant Matrix: (Units=GPa)
#
#
# Indices 1 2 3 4 5 6 
#
# 1 42.9042 14.2700 17.3655 5.5774 -7.9215 6.1381
# 2 14.2700 116.1758 44.7299 11.9702 -6.5701 7.6352
# 3 17.3655 44.7299 130.1452 18.6832 -8.9117 4.1497
# 4 5.5774 11.9702 18.6832 51.4346 5.0365 -1.5863
# 5 -7.9215 -6.5701 -8.9117 5.0365 26.6127 -3.1976
# 6 6.1381 7.6352 4.1497 -1.5863 -3.1976 40.7885
#
#
#
# Elastic Compliance Matrix: (Units=1/GPa)
#
#
# Indices 1 2 3 4 5 6 
#
# 1 0.026745 -0.001631 -0.002067 -0.002548 0.006980 -0.003061
# 2 -0.001631 0.010245 -0.003003 -0.001267 0.001119 -0.001328
# 3 -0.002067 -0.003003 0.009553 -0.002780 0.002366 -0.000021
# 4 -0.002548 -0.001267 -0.002780 0.021645 -0.005945 0.001279
# 5 0.006980 0.001119 0.002366 -0.005945 0.042035 0.001564
# 6 -0.003061 -0.001328 -0.000021 0.001279 0.001564 0.025401
#
#
# Mechanical properties :
#
#
# Convention : Reuss Voigt Hill
#
# Bulk Modulus (GPa) = 30.17285 49.10622 39.63953
# Shear Modulus (GPa) = 31.23605 37.95781 34.59693
#
# Velocity S-wave (km/s) = 3.58441 3.95130 3.77232
# Velocity P-wave (km/s) = 5.43520 6.40433 5.93956
#
# Compressibility (1/GPa) = 0.03314238
#
# Stress axis : x y z
#
# Youngs Moduli (GPa) = 37.39077 97.60659 104.67667
#
# Poissons Ratio (x) = 0.15919 0.21634
# Poissons Ratio (y) = 0.06098 0.31431
# Poissons Ratio (z) = 0.07728 0.29308
#
# Static dielectric constant tensor:
#      x y z
#    x 4.697920 -0.383610 0.080270 
#    y -0.383610 5.127400 0.247640 
#    z 0.080270 0.247640 4.726480 
# 
# 
# High freq. dielectric constant tensor:
#      x y z
#    x 1.948010 0.008030 -0.001190 
#    y 0.008030 1.975380 -0.004390 
#    z -0.001190 -0.004390 1.977820 
# 
# From -- ./inp_files/272577.got.cif
#   From: 2010.06.25/outbox.cif.g09.slc.cpg/sg2_137_cif.got.tgz:272577.got - 2010.06.27 13:26:56.
