data_PCOD8025000
_publ_section_title
;
Structure prediction by ZEFSAII (Michael W. Deem and Ramdas Pophale) SiO2 
 PCOD8025000
Probable space group: P -1
;
_chemical_formula_sum "Si O2"
_cell_formula_units_Z 16
_cell_length_a 21.840109
_cell_length_b 17.996909
_cell_length_c 12.314816
_cell_angle_alpha 27.937449
_cell_angle_beta 151.981235
_cell_angle_gamma 159.177647
_cell_volume 757.376616
_symmetry_space_group_name_H-M "P -1"
_symmetry_group_IT_number 2
_symmetry_cell_setting 'triclinic'
loop_
_space_group_symop_operation_xyz
x,y,z
-x,-y,-z
loop_
_atom_site_type_symbol
_atom_site_label
_atom_site_fract_x
_atom_site_fract_y
_atom_site_fract_z
Si Si1 0.188373 0.754750 0.484257
Si Si2 0.619842 0.309422 0.794295
Si Si3 0.083849 0.206627 0.791472
Si Si4 0.512305 0.356000 0.777591
Si Si5 0.650817 0.395876 0.161775
Si Si6 0.745985 0.111081 0.336611
Si Si7 0.809961 0.805057 0.403911
Si Si8 0.278592 0.158001 0.004366
O O1 0.348939 0.789841 0.630712
O O2 0.242689 0.823381 0.605804
O O3 0.000000 0.500000 0.500000
O O4 0.179095 0.915864 0.203632
O O5 0.554154 0.252993 0.891080
O O6 0.737462 0.563322 0.618226
O O7 0.445121 0.148358 0.647884
O O8 0.745870 0.258196 0.060028
O O9 0.162123 0.406616 0.736982
O O10 0.923130 0.150632 0.539019
O O11 0.255110 0.277579 0.902163
O O12 0.000000 0.000000 0.000000
O O13 0.500000 0.500000 0.500000
O O14 0.318115 0.170727 0.772606
O O15 0.653420 0.491039 0.926110
O O16 0.485837 0.302949 0.103773
O O17 0.837876 0.869983 0.239382
O O18 0.000000 0.000000 0.500000
#
# Coordination Sequence:
#
# PCOD8025000 Si02
#       8
#     2   2   2   2   2   2   2   2
#     4  12  23  43  68  98 131 177 231 277 326 409
#     4  10  23  44  67  95 133 177 229 272 331 405
#     4  12  25  40  67  99 132 178 226 278 333 411
#     4   9  20  36  65  89 126 171 219 269 319 397
#     4  11  23  42  64  98 135 178 219 282 343 391
#     4  11  24  41  70  96 130 177 233 275 328 392
#     4  10  24  40  65  97 130 174 217 279 338 397
#     4  11  26  42  63 100 138 170 218 285 351 397
#
# _framework density 21.125553
#
# number of rings (size 3 to 8) (size 9 to 14) (size 15 to 20)
#    0.000    1.250    3.750    0.750    8.750    2.000 
#    0.000    0.625    0.000    0.000    0.000    0.000 
#    0.000    0.000    0.000    0.000    0.000    0.000 
#
# Total GULP energy -198219.429826 kJ/mol
# GULP energy per Si atom -12388.714364 kJ/mol
# Density = 2.107747 g / cm^3
# Si number density = 21.125553 Si / 1000 Ang^3
#
#
#
# Elastic Constant Matrix: (Units=GPa)
#
#
# Indices 1 2 3 4 5 6 
#
# 1 116.7900 35.6430 35.4809 5.3637 4.6875 -5.9370
# 2 35.6430 124.4605 55.9374 9.8718 -9.5959 -26.2625
# 3 35.4809 55.9374 136.2651 3.2915 0.5429 -4.9787
# 4 5.3637 9.8718 3.2915 32.1116 1.3820 3.0126
# 5 4.6875 -9.5959 0.5429 1.3820 40.6992 5.3178
# 6 -5.9370 -26.2625 -4.9787 3.0126 5.3178 22.3411
#
#
#
# Elastic Compliance Matrix: (Units=1/GPa)
#
#
# Indices 1 2 3 4 5 6 
#
# 1 0.009815 -0.002052 -0.001676 -0.000797 -0.001606 0.000312
# 2 -0.002052 0.014703 -0.004799 -0.005260 0.001864 0.015934
# 3 -0.001676 -0.004799 0.009574 0.001172 -0.000587 -0.003972
# 4 -0.000797 -0.005260 0.001172 0.033794 -0.000944 -0.010466
# 5 -0.001606 0.001864 -0.000587 -0.000944 0.025807 -0.004383
# 6 0.000312 0.015934 -0.003972 -0.010466 -0.004383 0.065144
#
#
# Mechanical properties :
#
#
# Convention : Reuss Voigt Hill
#
# Bulk Modulus (GPa) = 58.69850 70.18201 64.44025
# Shear Modulus (GPa) = 27.53754 35.72733 31.63243
#
# Velocity S-wave (km/s) = 3.61434 4.11687 3.87376
# Velocity P-wave (km/s) = 6.72784 7.47607 7.11180
#
# Compressibility (1/GPa) = 0.01703621
#
# Stress axis : x y z
#
# Youngs Moduli (GPa) = 101.88707 68.01557 104.44851
#
# Poissons Ratio (x) = 0.13958 0.17507
# Poissons Ratio (y) = 0.20910 0.50128
# Poissons Ratio (z) = 0.17077 0.32642
#
# Static dielectric constant tensor:
#      x y z
#    x 27.628290 6.158340 -3.625000 
#    y 6.158340 5.231470 -0.964350 
#    z -3.625000 -0.964350 4.077270 
# 
# 
# High freq. dielectric constant tensor:
#      x y z
#    x 1.839860 -0.009360 0.008560 
#    y -0.009360 1.807690 0.015570 
#    z 0.008560 0.015570 1.843440 
# 
# From -- ./inp_files/382575.got.cif
#   From: 2010.06.25/outbox.cif.g09.slc.cpg/sg2_192_cif.got.tgz:382575.got - 2010.06.27 13:26:56.
