data_PCOD8025180
_publ_section_title
;
Structure prediction by ZEFSAII (Michael W. Deem and Ramdas Pophale) SiO2 
 PCOD8025180
Probable space group: P -1
;
_chemical_formula_sum "Si O2"
_cell_formula_units_Z 14
_cell_length_a 5.537488
_cell_length_b 19.808786
_cell_length_c 9.636203
_cell_angle_alpha 38.760519
_cell_angle_beta 108.348868
_cell_angle_gamma 112.962026
_cell_volume 609.216855
_symmetry_space_group_name_H-M "P -1"
_symmetry_group_IT_number 2
_symmetry_cell_setting 'triclinic'
loop_
_space_group_symop_operation_xyz
x,y,z
-x,-y,-z
loop_
_atom_site_type_symbol
_atom_site_label
_atom_site_fract_x
_atom_site_fract_y
_atom_site_fract_z
Si Si1 0.903248 0.085661 0.438471
Si Si2 0.768450 0.528377 0.080250
Si Si3 0.568783 0.851472 0.445052
Si Si4 0.694039 0.476736 0.449483
Si Si5 0.931712 0.320719 0.331886
Si Si6 0.616128 0.759317 0.315085
Si Si7 0.518363 0.932564 0.814443
O O1 0.703186 0.134809 0.226421
O O2 0.159130 0.174199 0.405260
O O3 0.752815 0.017658 0.646795
O O4 0.000000 0.000000 0.500000
O O5 0.697289 0.550665 0.191838
O O6 0.890649 0.421914 0.257352
O O7 0.500000 0.500000 0.000000
O O8 0.949721 0.635922 0.866457
O O9 0.326220 0.773300 0.610865
O O10 0.503213 0.812611 0.338947
O O11 0.598262 0.984271 0.242459
O O12 0.500000 0.500000 0.500000
O O13 0.596418 0.348971 0.596408
O O14 0.000000 0.500000 0.500000
O O15 0.110763 0.265544 0.551730
O O16 0.648254 0.846812 0.055703
#
# Coordination Sequence:
#
# PCOD8025180 Si02
#       7
#     2   2   2   2   2   2   2
#     4   9  21  45  64  99 145 187 238 293 365 447
#     4  11  23  48  76 103 141 196 251 317 366 459
#     4  11  22  42  73 106 143 186 251 300 365 453
#     4  12  28  53  73 110 156 197 254 324 394 453
#     4  11  23  41  76 107 145 185 259 308 374 436
#     4  12  25  46  69 108 142 197 246 308 377 452
#     4  10  23  44  70 103 152 184 237 304 370 452
#
# _framework density 22.980321
#
# number of rings (size 3 to 8) (size 9 to 14) (size 15 to 20)
#    0.000    1.143    2.857    2.143    2.000    4.571 
#   12.857    0.000    0.000    0.000    0.000    0.000 
#    0.000    0.000    0.000    0.000    0.000    0.000 
#
# Total GULP energy -173465.179141 kJ/mol
# GULP energy per Si atom -12390.369939 kJ/mol
# Density = 2.292802 g / cm^3
# Si number density = 22.980321 Si / 1000 Ang^3
#
#
#
# Elastic Constant Matrix: (Units=GPa)
#
#
# Indices 1 2 3 4 5 6 
#
# 1 133.9970 56.6401 73.3446 15.8981 -3.7327 24.9818
# 2 56.6401 138.8558 63.7136 15.2143 -3.9467 26.3253
# 3 73.3446 63.7136 171.4920 22.4700 9.7971 13.3447
# 4 15.8981 15.2143 22.4700 32.6806 -6.7527 -7.6156
# 5 -3.7327 -3.9467 9.7971 -6.7527 33.5825 2.3781
# 6 24.9818 26.3253 13.3447 -7.6156 2.3781 54.3379
#
#
#
# Elastic Compliance Matrix: (Units=1/GPa)
#
#
# Indices 1 2 3 4 5 6 
#
# 1 0.011315 -0.001892 -0.003589 -0.002680 0.001817 -0.003859
# 2 -0.001892 0.010150 -0.002369 -0.002803 0.001388 -0.003919
# 3 -0.003589 -0.002369 0.009016 -0.004167 -0.004158 0.000181
# 4 -0.002680 -0.002803 -0.004167 0.039778 0.007961 0.008840
# 5 0.001817 0.001388 -0.004158 0.007961 0.033014 -0.000815
# 6 -0.003859 -0.003919 0.000181 0.008840 -0.000815 0.023307
#
#
# Mechanical properties :
#
#
# Convention : Reuss Voigt Hill
#
# Bulk Modulus (GPa) = 67.65139 92.41569 80.03354
# Shear Modulus (GPa) = 33.96626 40.82996 37.39811
#
# Velocity S-wave (km/s) = 3.84872 4.21971 4.03848
# Velocity P-wave (km/s) = 7.01805 8.00273 7.52651
#
# Compressibility (1/GPa) = 0.01478166
#
# Stress axis : x y z
#
# Youngs Moduli (GPa) = 88.37897 98.52240 110.91971
#
# Poissons Ratio (x) = 0.18638 0.39805
# Poissons Ratio (y) = 0.16720 0.26276
# Poissons Ratio (z) = 0.31716 0.23339
#
# Static dielectric constant tensor:
#      x y z
#    x 4.270500 0.109690 -0.173600 
#    y 0.109690 4.563900 0.216480 
#    z -0.173600 0.216480 4.053600 
# 
# 
# High freq. dielectric constant tensor:
#      x y z
#    x 1.923980 0.003690 -0.004590 
#    y 0.003690 1.917780 0.007130 
#    z -0.004590 0.007130 1.893840 
# 
# From -- ./inp_files/138186.got.cif
#   From: 2010.06.25/outbox.cif.g09.slc.cpg/sg2_70_cif.got.tgz:138186.got - 2010.06.27 13:26:56.
