data_PCOD8025319
_publ_section_title
;
Structure prediction by ZEFSAII (Michael W. Deem and Ramdas Pophale) SiO2 
 PCOD8025319
Probable space group: P -1
;
_chemical_formula_sum "Si O2"
_cell_formula_units_Z 16
_cell_length_a 9.547341
_cell_length_b 5.507061
_cell_length_c 14.805448
_cell_angle_alpha 68.905680
_cell_angle_beta 108.424197
_cell_angle_gamma 87.428350
_cell_volume 677.894049
_symmetry_space_group_name_H-M "P -1"
_symmetry_group_IT_number 2
_symmetry_cell_setting 'triclinic'
loop_
_space_group_symop_operation_xyz
x,y,z
-x,-y,-z
loop_
_atom_site_type_symbol
_atom_site_label
_atom_site_fract_x
_atom_site_fract_y
_atom_site_fract_z
Si Si1 0.608780 0.194414 0.762356
Si Si2 0.576660 0.945425 0.616548
Si Si3 0.894700 0.304185 0.539717
Si Si4 0.115186 0.813776 0.927940
Si Si5 0.346165 0.619984 0.676869
Si Si6 0.831243 0.503516 0.696899
Si Si7 0.080274 0.796660 0.723851
Si Si8 0.806167 0.794121 0.965668
O O1 0.443374 0.323939 0.747120
O O2 0.752336 0.348332 0.778894
O O3 0.592113 0.191672 0.649904
O O4 0.660666 0.913595 0.859348
O O5 0.478749 0.785624 0.679613
O O6 0.742340 0.802374 0.643281
O O7 0.500000 0.000000 0.500000
O O8 0.754813 0.325814 0.440760
O O9 0.825847 0.385926 0.612093
O O10 0.000000 0.500000 0.500000
O O11 0.993934 0.009014 0.605931
O O12 0.089329 0.931535 0.805417
O O13 0.955612 0.805619 0.939538
O O14 0.207775 0.511581 0.977902
O O15 0.200417 0.016321 0.972457
O O16 0.246655 0.689878 0.735751
O O17 0.000136 0.537756 0.753080
#
# Coordination Sequence:
#
# PCOD8025319 Si02
#       8
#     2   2   2   2   2   2   2   2
#     4  11  25  44  69 101 139 187 230 292 353 424
#     4  11  23  40  66  95 138 178 234 279 345 420
#     4  12  25  41  67  99 139 183 233 284 350 428
#     4  10  24  42  74 106 141 179 243 304 360 421
#     4  11  26  42  65  99 140 186 226 286 358 428
#     4  11  23  39  67  96 136 173 233 282 350 411
#     4  12  26  43  67 103 139 181 233 298 359 416
#     4  10  23  44  73 106 139 184 242 301 359 421
#
# _framework density 23.602509000000001
#
# number of rings (size 3 to 8) (size 9 to 14) (size 15 to 20)
#    0.000    1.000    1.250    4.875   14.000    2.000 
#    0.000    1.250    0.000    0.000    0.000    0.000 
#    0.000    0.000    0.000    0.000    0.000    0.000 
#
# Total GULP energy -198291.343089 kJ/mol
# GULP energy per Si atom -12393.208943 kJ/mol
# Density = 2.354879 g / cm^3
# Si number density = 23.602509 Si / 1000 Ang^3
#
#
#
# Elastic Constant Matrix: (Units=GPa)
#
#
# Indices 1 2 3 4 5 6 
#
# 1 99.4016 22.1225 13.5930 -2.6473 -0.3685 -10.1673
# 2 22.1225 109.8598 32.9178 -0.4500 8.3783 -11.0790
# 3 13.5930 32.9178 102.4986 1.1668 12.9615 -0.4397
# 4 -2.6473 -0.4500 1.1668 45.6519 -8.8787 2.7700
# 5 -0.3685 8.3783 12.9615 -8.8787 24.2086 1.6284
# 6 -10.1673 -11.0790 -0.4397 2.7700 1.6284 20.1376
#
#
#
# Elastic Compliance Matrix: (Units=1/GPa)
#
#
# Indices 1 2 3 4 5 6 
#
# 1 0.011035 -0.001521 -0.001116 0.000615 0.001213 0.004528
# 2 -0.001521 0.011081 -0.002950 -0.000819 -0.002957 0.005616
# 3 -0.001116 -0.002950 0.011573 -0.001405 -0.005621 -0.001286
# 4 0.000615 -0.000819 -0.001405 0.024218 0.010219 -0.004329
# 5 0.001213 -0.002957 -0.005621 0.010219 0.049547 -0.006550
# 6 0.004528 0.005616 -0.001286 -0.004329 -0.006550 0.056131
#
#
# Mechanical properties :
#
#
# Convention : Reuss Voigt Hill
#
# Bulk Modulus (GPa) = 44.41307 49.89183 47.15245
# Shear Modulus (GPa) = 27.43263 34.20808 30.82035
#
# Velocity S-wave (km/s) = 3.41292 3.81115 3.61752
# Velocity P-wave (km/s) = 5.86418 6.36795 6.12125
#
# Compressibility (1/GPa) = 0.02251590
#
# Stress axis : x y z
#
# Youngs Moduli (GPa) = 90.61805 90.24321 86.40958
#
# Poissons Ratio (x) = 0.13728 0.09642
# Poissons Ratio (y) = 0.13785 0.25488
# Poissons Ratio (z) = 0.10112 0.26619
#
# Static dielectric constant tensor:
#      x y z
#    x 4.093540 -0.064080 -0.098150 
#    y -0.064080 4.584840 -0.160320 
#    z -0.098150 -0.160320 4.222200 
# 
# 
# High freq. dielectric constant tensor:
#      x y z
#    x 1.926210 -0.006650 0.005740 
#    y -0.006650 1.944350 0.003000 
#    z 0.005740 0.003000 1.924040 
# 
# From -- ./inp_files/141017.got.cif
#   From: 2010.06.25/outbox.cif.g09.slc.cpg/sg2_71_cif.got.tgz:141017.got - 2010.06.27 13:26:56.
