data_PCOD8025931
_publ_section_title
;
Structure prediction by ZEFSAII (Michael W. Deem and Ramdas Pophale) SiO2 
 PCOD8025931
Probable space group: P -1
;
_chemical_formula_sum "Si O2"
_cell_formula_units_Z 16
_cell_length_a 16.172748
_cell_length_b 15.049165
_cell_length_c 13.346853
_cell_angle_alpha 50.234966
_cell_angle_beta 27.397414
_cell_angle_gamma 31.591405
_cell_volume 685.322896
_symmetry_space_group_name_H-M "P -1"
_symmetry_group_IT_number 2
_symmetry_cell_setting 'triclinic'
loop_
_space_group_symop_operation_xyz
x,y,z
-x,-y,-z
loop_
_atom_site_type_symbol
_atom_site_label
_atom_site_fract_x
_atom_site_fract_y
_atom_site_fract_z
Si Si1 0.724842 0.584762 0.986386
Si Si2 0.272296 0.673714 0.536434
Si Si3 0.123846 0.051261 0.067294
Si Si4 0.674042 0.844819 0.337561
Si Si5 0.168874 0.218588 0.219792
Si Si6 0.575033 0.626544 0.901807
Si Si7 0.170163 0.949528 0.753772
Si Si8 0.085608 0.708705 0.347649
O O1 0.829962 0.643792 0.888875
O O2 0.636125 0.661818 0.913514
O O3 0.985833 0.356764 0.853108
O O4 0.451059 0.672389 0.279166
O O5 0.500000 0.500000 0.500000
O O6 0.094298 0.680068 0.648419
O O7 0.002630 0.882688 0.731697
O O8 0.834293 0.163470 0.229499
O O9 0.352514 0.833102 0.940565
O O10 0.289160 0.087400 0.844795
O O11 0.500000 0.000000 0.500000
O O12 0.515123 0.805449 0.510645
O O13 0.115273 0.205718 0.400574
O O14 0.500000 0.000000 0.000000
O O15 0.861465 0.443689 0.655710
O O16 0.405193 0.592333 0.128385
O O17 0.053330 0.128733 0.698508
O O18 0.000000 0.000000 0.000000
#
# Coordination Sequence:
#
# PCOD8025931 Si02
#       8
#     2   2   2   2   2   2   2   2
#     4  12  28  46  79 109 150 199 252 319 379 456
#     4  12  28  52  75 104 158 204 258 315 382 451
#     4  11  26  46  75 104 143 203 242 309 375 452
#     4  12  26  44  72 112 149 185 246 307 383 453
#     4  12  30  49  76 113 154 202 264 316 375 460
#     4  10  23  46  75 107 143 191 247 308 389 441
#     4  11  25  45  74 107 151 188 244 310 385 450
#     4  10  24  45  76 107 149 194 249 312 378 455
#
# _framework density 23.346658999999999
#
# number of rings (size 3 to 8) (size 9 to 14) (size 15 to 20)
#    0.000    0.750    3.750    1.500   10.500    3.000 
#    0.000    0.000    0.000    0.000    0.000    0.000 
#    0.000    0.000    0.000    0.000    0.000    0.000 
#
# Total GULP energy -198258.389403 kJ/mol
# GULP energy per Si atom -12391.149338 kJ/mol
# Density = 2.329352 g / cm^3
# Si number density = 23.346659 Si / 1000 Ang^3
#
#
#
# Elastic Constant Matrix: (Units=GPa)
#
#
# Indices 1 2 3 4 5 6 
#
# 1 137.2805 26.3874 66.2308 -16.4340 4.8215 11.9537
# 2 26.3874 79.8513 40.5480 4.6186 8.2119 6.0721
# 3 66.2308 40.5480 162.5963 -3.8055 10.9501 9.1764
# 4 -16.4340 4.6186 -3.8055 33.6663 13.4371 -2.7968
# 5 4.8215 8.2119 10.9501 13.4371 41.8006 -2.4791
# 6 11.9537 6.0721 9.1764 -2.7968 -2.4791 35.9163
#
#
#
# Elastic Compliance Matrix: (Units=1/GPa)
#
#
# Indices 1 2 3 4 5 6 
#
# 1 0.010077 -0.001605 -0.003350 0.005315 -0.001793 -0.001936
# 2 -0.001605 0.014967 -0.002981 -0.002841 -0.001152 -0.001535
# 3 -0.003350 -0.002981 0.008386 0.000201 -0.001325 -0.000599
# 4 0.005315 -0.002841 0.000201 0.037625 -0.012158 0.000751
# 5 -0.001793 -0.001152 -0.001325 -0.012158 0.028740 0.002167
# 6 -0.001936 -0.001535 -0.000599 0.000751 0.002167 0.029108
#
#
# Mechanical properties :
#
#
# Convention : Reuss Voigt Hill
#
# Bulk Modulus (GPa) = 56.95340 71.78448 64.36894
# Shear Modulus (GPa) = 33.19461 38.71410 35.95436
#
# Velocity S-wave (km/s) = 3.77479 4.07655 3.92857
# Velocity P-wave (km/s) = 6.59138 7.27816 6.94327
#
# Compressibility (1/GPa) = 0.01755821
#
# Stress axis : x y z
#
# Youngs Moduli (GPa) = 99.23695 66.81422 119.24731
#
# Poissons Ratio (x) = 0.10721 0.39948
# Poissons Ratio (y) = 0.15924 0.35548
# Poissons Ratio (z) = 0.33245 0.19918
#
# Static dielectric constant tensor:
#      x y z
#    x 4.566010 0.184920 -0.212880 
#    y 0.184920 4.104750 0.018960 
#    z -0.212880 0.018960 4.442080 
# 
# 
# High freq. dielectric constant tensor:
#      x y z
#    x 1.936330 0.007810 -0.005410 
#    y 0.007810 1.913470 0.001510 
#    z -0.005410 0.001510 1.938260 
# 
# From -- ./inp_files/455588.got.cif
#   From: 2010.06.25/outbox.cif.g09.slc.cpg/sg2_228_cif.got.tgz:455588.got - 2010.06.27 13:26:56.
