data_PCOD8025003
_publ_section_title
;
Structure prediction by ZEFSAII (Michael W. Deem and Ramdas Pophale) SiO2 
 PCOD8025003
Probable space group: P -1
;
_chemical_formula_sum "Si O2"
_cell_formula_units_Z 16
_cell_length_a 14.272078
_cell_length_b 5.072117
_cell_length_c 17.181767
_cell_angle_alpha 79.138975
_cell_angle_beta 141.275070
_cell_angle_gamma 116.723606
_cell_volume 664.976452
_symmetry_space_group_name_H-M "P -1"
_symmetry_group_IT_number 2
_symmetry_cell_setting 'triclinic'
loop_
_space_group_symop_operation_xyz
x,y,z
-x,-y,-z
loop_
_atom_site_type_symbol
_atom_site_label
_atom_site_fract_x
_atom_site_fract_y
_atom_site_fract_z
Si Si1 0.026357 0.849854 0.261919
Si Si2 0.475601 0.287945 0.160935
Si Si3 0.968170 0.734763 0.052475
Si Si4 0.917680 0.190109 0.292675
Si Si5 0.353691 0.994953 0.544829
Si Si6 0.538859 0.875966 0.108893
Si Si7 0.248546 0.346496 0.567936
Si Si8 0.714609 0.215128 0.818925
O O1 0.968850 0.829241 0.136680
O O2 0.935853 0.516120 0.262166
O O3 0.237655 0.015246 0.397693
O O4 0.955471 0.051989 0.247086
O O5 0.421384 0.498855 0.061578
O O6 0.665003 0.548989 0.297939
O O7 0.492977 0.025831 0.142227
O O8 0.351922 0.123181 0.164682
O O9 0.129902 0.677258 0.147473
O O10 0.784909 0.444749 0.926197
O O11 0.000000 0.000000 0.000000
O O12 0.044551 0.217654 0.443759
O O13 0.736894 0.969769 0.226800
O O14 0.286314 0.082627 0.574295
O O15 0.561567 0.224024 0.669000
O O16 0.325088 0.650219 0.545165
O O17 0.500000 0.000000 0.000000
#
# Coordination Sequence:
#
# PCOD8025003 Si02
#       8
#     2   2   2   2   2   2   2   2
#     4  10  23  44  70  95 132 182 211 271 340 377
#     4  11  24  43  69  93 131 177 216 275 332 377
#     4  11  27  42  67 101 131 177 226 265 337 403
#     4  10  23  44  67  95 137 167 218 279 314 395
#     4   9  19  40  67  96 129 168 222 268 327 392
#     4  12  27  42  62 102 133 179 226 257 324 400
#     4   9  19  39  67  97 122 169 222 266 331 380
#     4  10  25  44  66  99 134 169 222 283 321 400
#
# _framework density 24.061001000000001
#
# number of rings (size 3 to 8) (size 9 to 14) (size 15 to 20)
#    0.000    1.750    0.000    2.625   10.500    1.500 
#    0.000    0.625    0.000    0.000    0.000    0.000 
#    0.000    0.000    0.000    0.000    0.000    0.000 
#
# Total GULP energy -198247.555105 kJ/mol
# GULP energy per Si atom -12390.472194 kJ/mol
# Density = 2.400624 g / cm^3
# Si number density = 24.061001 Si / 1000 Ang^3
#
#
#
# Elastic Constant Matrix: (Units=GPa)
#
#
# Indices 1 2 3 4 5 6 
#
# 1 57.8191 20.1854 1.6065 13.1870 -3.1246 -8.0046
# 2 20.1854 100.3873 27.3454 3.5917 1.1712 -4.4216
# 3 1.6065 27.3454 50.7609 24.8476 -3.4168 -1.3332
# 4 13.1870 3.5917 24.8476 30.1171 3.6409 -2.1143
# 5 -3.1246 1.1712 -3.4168 3.6409 36.2161 1.1853
# 6 -8.0046 -4.4216 -1.3332 -2.1143 1.1853 31.6111
#
#
#
# Elastic Compliance Matrix: (Units=1/GPa)
#
#
# Indices 1 2 3 4 5 6 
#
# 1 0.026496 -0.008842 0.016560 -0.024692 0.006477 0.004276
# 2 -0.008842 0.015678 -0.016289 0.016012 -0.004433 0.000504
# 3 0.016560 -0.016289 0.053823 -0.051163 0.012167 0.000307
# 4 -0.024692 0.016012 -0.051163 0.086285 -0.016156 0.000206
# 5 0.006477 -0.004433 0.012167 -0.016156 0.031110 -0.000714
# 6 0.004276 0.000504 0.000307 0.000206 -0.000714 0.032841
#
#
# Mechanical properties :
#
#
# Convention : Reuss Voigt Hill
#
# Bulk Modulus (GPa) = 12.68173 34.13800 23.40986
# Shear Modulus (GPa) = 17.26169 30.24420 23.75294
#
# Velocity S-wave (km/s) = 2.68136 3.54924 3.14538
# Velocity P-wave (km/s) = 3.85595 5.56911 4.78975
#
# Compressibility (1/GPa) = 0.07885362
#
# Stress axis : x y z
#
# Youngs Moduli (GPa) = 37.74161 63.78546 18.57957
#
# Poissons Ratio (x) = 0.56402 -0.30768
# Poissons Ratio (y) = 0.33373 0.30264
# Poissons Ratio (z) = -0.62501 1.03900
#
# Static dielectric constant tensor:
#      x y z
#    x 4.306190 -0.156570 0.158590 
#    y -0.156570 4.280470 0.314920 
#    z 0.158590 0.314920 4.965010 
# 
# 
# High freq. dielectric constant tensor:
#      x y z
#    x 1.928840 -0.019040 0.010310 
#    y -0.019040 1.956810 0.005330 
#    z 0.010310 0.005330 1.975640 
# 
# From -- ./inp_files/434042.got.cif
#   From: 2010.06.25/outbox.cif.g09.slc.cpg/sg2_218_cif.got.tgz:434042.got - 2010.06.27 13:26:56.
