data_PCOD8025827
_publ_section_title
;
Structure prediction by ZEFSAII (Michael W. Deem and Ramdas Pophale) SiO2 
 PCOD8025827
Probable space group: P -1
;
_chemical_formula_sum "Si O2"
_cell_formula_units_Z 16
_cell_length_a 25.767989
_cell_length_b 9.530857
_cell_length_c 11.544242
_cell_angle_alpha 149.912219
_cell_angle_beta 151.028018
_cell_angle_gamma 37.635994
_cell_volume 681.312426
_symmetry_space_group_name_H-M "P -1"
_symmetry_group_IT_number 2
_symmetry_cell_setting 'triclinic'
loop_
_space_group_symop_operation_xyz
x,y,z
-x,-y,-z
loop_
_atom_site_type_symbol
_atom_site_label
_atom_site_fract_x
_atom_site_fract_y
_atom_site_fract_z
Si Si1 0.789019 0.313027 0.958406
Si Si2 0.064582 0.095129 0.919142
Si Si3 0.131313 0.426793 0.083653
Si Si4 0.439221 0.750333 0.144050
Si Si5 0.893083 0.714655 0.317822
Si Si6 0.706684 0.176994 0.293633
Si Si7 0.614818 0.589427 0.985993
Si Si8 0.392487 0.773935 0.621491
O O1 0.726586 0.473620 0.058693
O O2 0.707126 0.351880 0.718487
O O3 0.836257 0.990719 0.857720
O O4 0.894158 0.448282 0.215512
O O5 0.010093 0.809633 0.597089
O O6 0.979745 0.353076 0.982093
O O7 0.112973 0.162071 0.937852
O O8 0.236995 0.544303 0.423790
O O9 0.157446 0.329209 0.936462
O O10 0.385043 0.586770 0.021737
O O11 0.500000 0.000000 0.500000
O O12 0.500000 0.500000 0.000000
O O13 0.347832 0.911704 0.995404
O O14 0.804787 0.952445 0.372403
O O15 0.619987 0.211934 0.253085
O O16 0.506777 0.563863 0.679023
O O17 0.606006 0.927819 0.228522
#
# Coordination Sequence:
#
# PCOD8025827 Si02
#       8
#     2   2   2   2   2   2   2   2
#     4  12  25  41  73 103 141 188 243 301 362 444
#     4  10  25  43  67 104 135 181 247 300 375 436
#     4  10  23  46  69  96 142 185 234 305 371 446
#     4  12  30  48  77 110 151 198 253 311 367 443
#     4  11  23  43  69 100 139 187 236 302 375 440
#     4  11  24  44  71 103 140 194 241 293 374 438
#     4  11  27  45  70 105 145 190 247 300 367 437
#     4  11  24  47  69 101 150 191 240 298 369 441
#
# _framework density 23.484086000000001
#
# number of rings (size 3 to 8) (size 9 to 14) (size 15 to 20)
#    0.000    1.000    3.750    1.125    8.750    1.500 
#    0.000    0.000    0.000    0.000    0.000    0.000 
#    0.000    0.000    0.000    0.000    0.000    0.000 
#
# Total GULP energy -198247.199600 kJ/mol
# GULP energy per Si atom -12390.449975 kJ/mol
# Density = 2.343064 g / cm^3
# Si number density = 23.484086 Si / 1000 Ang^3
#
#
#
# Elastic Constant Matrix: (Units=GPa)
#
#
# Indices 1 2 3 4 5 6 
#
# 1 109.7057 19.0972 34.8650 12.0762 21.9266 31.2347
# 2 19.0972 90.0940 13.0686 0.2211 14.5297 24.4966
# 3 34.8650 13.0686 80.6601 2.3545 7.6366 11.3444
# 4 12.0762 0.2211 2.3545 30.5759 8.0136 4.4508
# 5 21.9266 14.5297 7.6366 8.0136 38.2219 5.5475
# 6 31.2347 24.4966 11.3444 4.4508 5.5475 36.6481
#
#
#
# Elastic Compliance Matrix: (Units=1/GPa)
#
#
# Indices 1 2 3 4 5 6 
#
# 1 0.014931 0.001508 -0.004483 -0.002333 -0.006138 -0.011133
# 2 0.001508 0.014526 -0.001158 0.002212 -0.005150 -0.010126
# 3 -0.004483 -0.001158 0.014502 0.000666 -0.000029 0.000030
# 4 -0.002333 0.002212 0.000666 0.035754 -0.006692 -0.003025
# 5 -0.006138 -0.005150 -0.000029 -0.006692 0.032384 0.004593
# 6 -0.011133 -0.010126 0.000030 -0.003025 0.004593 0.043206
#
#
# Mechanical properties :
#
#
# Convention : Reuss Voigt Hill
#
# Bulk Modulus (GPa) = 28.01688 46.05794 37.03741
# Shear Modulus (GPa) = 28.49517 35.31780 31.90649
#
# Velocity S-wave (km/s) = 3.48714 3.88223 3.68998
# Velocity P-wave (km/s) = 5.30750 6.30480 5.82753
#
# Compressibility (1/GPa) = 0.03569277
#
# Stress axis : x y z
#
# Youngs Moduli (GPa) = 66.97510 68.84156 68.95427
#
# Poissons Ratio (x) = -0.10382 0.30913
# Poissons Ratio (y) = -0.10101 0.07987
# Poissons Ratio (z) = 0.30026 0.07974
#
# Static dielectric constant tensor:
#      x y z
#    x 4.144500 0.068010 0.224270 
#    y 0.068010 4.250960 -0.059640 
#    z 0.224270 -0.059640 4.329870 
# 
# 
# High freq. dielectric constant tensor:
#      x y z
#    x 1.935220 0.009360 0.021760 
#    y 0.009360 1.938640 -0.004590 
#    z 0.021760 -0.004590 1.920050 
# 
# From -- ./inp_files/39773.got.cif
#   From: 2010.06.25/outbox.cif.g09.slc.cpg/sg2_20_cif.got.tgz:39773.got - 2010.06.27 13:26:56.
