data_PCOD8025010
_publ_section_title
;
Structure prediction by ZEFSAII (Michael W. Deem and Ramdas Pophale) SiO2 
 PCOD8025010
Probable space group: P -1
;
_chemical_formula_sum "Si O2"
_cell_formula_units_Z 14
_cell_length_a 18.295600
_cell_length_b 9.263097
_cell_length_c 12.236047
_cell_angle_alpha 35.061972
_cell_angle_beta 148.053949
_cell_angle_gamma 130.848971
_cell_volume 624.699777
_symmetry_space_group_name_H-M "P -1"
_symmetry_group_IT_number 2
_symmetry_cell_setting 'triclinic'
loop_
_space_group_symop_operation_xyz
x,y,z
-x,-y,-z
loop_
_atom_site_type_symbol
_atom_site_label
_atom_site_fract_x
_atom_site_fract_y
_atom_site_fract_z
Si Si1 0.069453 0.216425 0.612351
Si Si2 0.282358 0.185490 0.720577
Si Si3 0.437725 0.613184 0.646703
Si Si4 0.417740 0.654348 0.206234
Si Si5 0.833969 0.617381 0.984521
Si Si6 0.699249 0.840156 0.887158
Si Si7 0.906059 0.758611 0.751914
O O1 0.149755 0.125910 0.659252
O O2 0.971698 0.479501 0.303444
O O3 0.178962 0.276133 0.806453
O O4 0.984856 0.997827 0.681381
O O5 0.336274 0.436831 0.686724
O O6 0.234301 0.223981 0.509241
O O7 0.407409 0.953798 0.030275
O O8 0.499733 0.419145 0.753030
O O9 0.564417 0.694519 0.828846
O O10 0.344387 0.863053 0.326265
O O11 0.500000 0.500000 0.500000
O O12 0.259427 0.595958 0.036217
O O13 0.748400 0.811865 0.840683
O O14 0.869483 0.768956 0.827770
O O15 0.000000 0.500000 0.000000
#
# Coordination Sequence:
#
# PCOD8025010 Si02
#       7
#     2   2   2   2   2   2   2
#     4  12  24  43  67 102 138 175 223 280 332 409
#     4  12  23  42  71 105 134 171 226 280 346 396
#     4  10  23  44  67  96 133 181 226 277 329 397
#     4  11  22  42  69  99 138 172 225 284 337 398
#     4  11  24  44  68 101 135 181 221 277 339 401
#     4  10  24  46  67  94 139 179 233 271 329 402
#     4  12  23  41  69 101 140 171 215 278 346 400
#
# _framework density 22.410765000000001
#
# number of rings (size 3 to 8) (size 9 to 14) (size 15 to 20)
#    0.000    0.857    2.857    4.714    0.000    1.143 
#    2.571    0.000    0.000    0.000    0.000    0.000 
#    0.000    0.000    0.000    0.000    0.000    0.000 
#
# Total GULP energy -173634.554811 kJ/mol
# GULP energy per Si atom -12402.468201 kJ/mol
# Density = 2.235976 g / cm^3
# Si number density = 22.410765 Si / 1000 Ang^3
#
#
#
# Elastic Constant Matrix: (Units=GPa)
#
#
# Indices 1 2 3 4 5 6 
#
# 1 95.8614 31.4195 33.3158 -0.9115 -4.5727 17.0976
# 2 31.4195 121.2244 56.3745 -2.2572 -4.4635 19.5056
# 3 33.3158 56.3745 152.8836 5.7786 -6.8878 2.6623
# 4 -0.9115 -2.2572 5.7786 38.4275 -7.5876 0.0280
# 5 -4.5727 -4.4635 -6.8878 -7.5876 35.5523 -4.1130
# 6 17.0976 19.5056 2.6623 0.0280 -4.1130 23.0864
#
#
#
# Elastic Compliance Matrix: (Units=1/GPa)
#
#
# Indices 1 2 3 4 5 6 
#
# 1 0.013113 -0.000867 -0.002401 0.000678 0.000256 -0.008657
# 2 -0.000867 0.011816 -0.004068 0.001257 -0.000178 -0.008905
# 3 -0.002401 -0.004068 0.008587 -0.001381 0.001060 0.004416
# 4 0.000678 0.001257 -0.001381 0.027465 0.005792 -0.000406
# 5 0.000256 -0.000178 0.001060 0.005792 0.030182 0.005209
# 6 -0.008657 -0.008905 0.004416 -0.000406 0.005209 0.057670
#
#
# Mechanical properties :
#
#
# Convention : Reuss Voigt Hill
#
# Bulk Modulus (GPa) = 53.07050 68.02099 60.54574
# Shear Modulus (GPa) = 29.44865 36.00388 32.72627
#
# Velocity S-wave (km/s) = 3.62890 4.01252 3.82552
# Velocity P-wave (km/s) = 6.42579 7.20312 6.82553
#
# Compressibility (1/GPa) = 0.01884286
#
# Stress axis : x y z
#
# Youngs Moduli (GPa) = 76.25935 84.63437 116.44924
#
# Poissons Ratio (x) = 0.07338 0.27962
# Poissons Ratio (y) = 0.06612 0.47376
# Poissons Ratio (z) = 0.18311 0.34433
#
# Static dielectric constant tensor:
#      x y z
#    x 4.122360 0.144130 0.095390 
#    y 0.144130 4.156140 0.121400 
#    z 0.095390 0.121400 4.138270 
# 
# 
# High freq. dielectric constant tensor:
#      x y z
#    x 1.882820 0.007180 0.010510 
#    y 0.007180 1.883150 0.003370 
#    z 0.010510 0.003370 1.893470 
# 
# From -- ./inp_files/94564.got.cif
#   From: 2010.06.25/outbox.cif.g09.slc.cpg/sg2_48_cif.got.tgz:94564.got - 2010.06.27 13:26:56.
