data_PCOD8025494
_publ_section_title
;
Structure prediction by ZEFSAII (Michael W. Deem and Ramdas Pophale) SiO2 
 PCOD8025494
Probable space group: P -1
;
_chemical_formula_sum "Si O2"
_cell_formula_units_Z 16
_cell_length_a 12.060094
_cell_length_b 19.070807
_cell_length_c 9.641975
_cell_angle_alpha 24.388844
_cell_angle_beta 54.481547
_cell_angle_gamma 47.971370
_cell_volume 677.197168
_symmetry_space_group_name_H-M "P -1"
_symmetry_group_IT_number 2
_symmetry_cell_setting 'triclinic'
loop_
_space_group_symop_operation_xyz
x,y,z
-x,-y,-z
loop_
_atom_site_type_symbol
_atom_site_label
_atom_site_fract_x
_atom_site_fract_y
_atom_site_fract_z
Si Si1 0.761347 0.904742 0.248787
Si Si2 0.210201 0.719707 0.482030
Si Si3 0.986388 0.683719 0.259043
Si Si4 0.451624 0.153728 0.918401
Si Si5 0.888157 0.766867 0.696171
Si Si6 0.609107 0.314325 0.326902
Si Si7 0.757587 0.504394 0.394055
Si Si8 0.811118 0.967862 0.662786
O O1 0.853913 0.742183 0.365320
O O2 0.782538 0.833617 0.518753
O O3 0.823059 0.063839 0.898817
O O4 0.583325 0.984726 0.207019
O O5 0.320143 0.628696 0.694553
O O6 0.286494 0.608418 0.487916
O O7 0.058978 0.693140 0.659789
O O8 0.000000 0.500000 0.500000
O O9 0.144951 0.639589 0.297738
O O10 0.953700 0.852620 0.866968
O O11 0.517007 0.193553 0.655480
O O12 0.398527 0.341355 0.712374
O O13 0.310114 0.112210 0.063617
O O14 0.850678 0.936547 0.528030
O O15 0.863251 0.599685 0.087372
O O16 0.741674 0.187690 0.353950
O O17 0.500000 0.500000 0.000000
#
# Coordination Sequence:
#
# PCOD8025494 Si02
#       8
#     2   2   2   2   2   2   2   2
#     4  11  25  42  70  95 138 184 217 274 354 392
#     4  11  24  44  64  96 141 176 219 278 338 410
#     4  12  22  42  70  99 129 177 232 271 332 399
#     4  10  23  45  68  95 136 178 224 278 334 407
#     4  11  24  42  68 100 132 173 228 284 325 400
#     4  11  26  43  65 101 135 180 222 277 345 399
#     4  11  25  40  71 102 130 176 234 270 340 397
#     4  11  24  44  68 101 132 174 234 278 334 398
#
# _framework density 23.626795999999999
#
# number of rings (size 3 to 8) (size 9 to 14) (size 15 to 20)
#    0.000    1.000    6.250    1.125    0.000    9.500 
#    0.000    0.000    0.000    0.000    0.000    0.000 
#    0.000    0.000    0.000    0.000    0.000    0.000 
#
# Total GULP energy -198458.327137 kJ/mol
# GULP energy per Si atom -12403.645446 kJ/mol
# Density = 2.357302 g / cm^3
# Si number density = 23.626796 Si / 1000 Ang^3
#
#
#
# Elastic Constant Matrix: (Units=GPa)
#
#
# Indices 1 2 3 4 5 6 
#
# 1 82.2926 29.4303 15.0742 -12.6254 37.3554 17.8982
# 2 29.4303 159.9733 19.4934 -31.8455 28.9935 33.8519
# 3 15.0742 19.4934 75.2789 -13.8129 39.3754 7.6713
# 4 -12.6254 -31.8455 -13.8129 42.6071 -3.8165 -3.3879
# 5 37.3554 28.9935 39.3754 -3.8165 47.6824 4.5243
# 6 17.8982 33.8519 7.6713 -3.3879 4.5243 47.7392
#
#
#
# Elastic Compliance Matrix: (Units=1/GPa)
#
#
# Indices 1 2 3 4 5 6 
#
# 1 0.028244 0.004293 0.015040 0.012373 -0.035042 -0.011851
# 2 0.004293 0.010745 0.005791 0.009347 -0.013148 -0.008250
# 3 0.015040 0.005791 0.034312 0.015383 -0.041435 -0.010240
# 4 0.012373 0.009347 0.015383 0.036225 -0.024339 -0.008861
# 5 -0.035042 -0.013148 -0.041435 -0.024339 0.086870 0.019159
# 6 -0.011851 -0.008250 -0.010240 -0.008861 0.019159 0.030441
#
#
# Mechanical properties :
#
#
# Convention : Reuss Voigt Hill
#
# Bulk Modulus (GPa) = 8.09401 49.50451 28.79926
# Shear Modulus (GPa) = 22.95979 44.50888 33.73433
#
# Velocity S-wave (km/s) = 3.12070 4.34502 3.78272
# Velocity P-wave (km/s) = 4.05195 6.79488 5.59414
#
# Compressibility (1/GPa) = 0.12354812
#
# Stress axis : x y z
#
# Youngs Moduli (GPa) = 35.40560 93.06721 29.14451
#
# Poissons Ratio (x) = -0.39955 -0.43833
# Poissons Ratio (y) = -0.15200 -0.16877
# Poissons Ratio (z) = -0.53249 -0.53893
#
# Static dielectric constant tensor:
#      x y z
#    x 4.284660 0.223910 0.266200 
#    y 0.223910 4.736380 -0.124370 
#    z 0.266200 -0.124370 4.036460 
# 
# 
# High freq. dielectric constant tensor:
#      x y z
#    x 1.936710 0.011610 0.012840 
#    y 0.011610 1.957850 -0.011070 
#    z 0.012840 -0.011070 1.916930 
# 
# From -- ./inp_files/278671.got.cif
#   From: 2010.06.25/outbox.cif.g09.slc.cpg/sg2_140_cif.got.tgz:278671.got - 2010.06.27 13:26:56.
