data_PCOD8025615
_publ_section_title
;
Structure prediction by ZEFSAII (Michael W. Deem and Ramdas Pophale) SiO2 
 PCOD8025615
Probable space group: P -1
;
_chemical_formula_sum "Si O2"
_cell_formula_units_Z 12
_cell_length_a 9.152806
_cell_length_b 12.621293
_cell_length_c 11.564842
_cell_angle_alpha 54.277754
_cell_angle_beta 104.431843
_cell_angle_gamma 146.470421
_cell_volume 508.209235
_symmetry_space_group_name_H-M "P -1"
_symmetry_group_IT_number 2
_symmetry_cell_setting 'triclinic'
loop_
_space_group_symop_operation_xyz
x,y,z
-x,-y,-z
loop_
_atom_site_type_symbol
_atom_site_label
_atom_site_fract_x
_atom_site_fract_y
_atom_site_fract_z
Si Si1 0.301613 0.174217 0.883884
Si Si2 0.170293 0.504424 0.581711
Si Si3 0.910301 0.782652 0.613076
Si Si4 0.724256 0.998690 0.237775
Si Si5 0.457906 0.083850 0.144033
Si Si6 0.477448 0.129194 0.374132
O O1 0.543717 0.475785 0.711226
O O2 0.172779 0.997068 0.860774
O O3 0.514984 0.234878 0.961563
O O4 0.000000 0.000000 0.000000
O O5 0.289265 0.608691 0.670292
O O6 0.000000 0.500000 0.500000
O O7 0.464308 0.705058 0.428773
O O8 0.917352 0.198879 0.729560
O O9 0.998172 0.780741 0.754583
O O10 0.000000 0.000000 0.500000
O O11 0.113503 0.886051 0.478646
O O12 0.596472 0.048560 0.155609
O O13 0.594724 0.234805 0.198067
O O14 0.500000 0.000000 0.500000
#
# Coordination Sequence:
#
# PCOD8025615 Si02
#       6
#     2   2   2   2   2   2
#     4  12  30  45  65 100 142 186 225 276 347 400
#     4   9  18  35  69  98 132 162 218 273 335 391
#     4  11  27  47  70  99 139 181 227 279 338 414
#     4  10  23  45  70  99 133 179 229 278 340 403
#     4  11  23  42  69 104 135 171 223 293 335 398
#     4  11  20  41  72 105 126 175 231 279 333 404
#
# _framework density 23.612324000000001
#
# number of rings (size 3 to 8) (size 9 to 14) (size 15 to 20)
#    0.000    1.333    5.000    1.500    9.333    3.333 
#    0.000    0.000    0.000    0.000    0.000    0.000 
#    0.000    0.000    0.000    0.000    0.000    0.000 
#
# Total GULP energy -148715.501200 kJ/mol
# GULP energy per Si atom -12392.958433 kJ/mol
# Density = 2.355858 g / cm^3
# Si number density = 23.612324 Si / 1000 Ang^3
#
#
#
# Elastic Constant Matrix: (Units=GPa)
#
#
# Indices 1 2 3 4 5 6 
#
# 1 103.0102 15.5931 26.8475 -2.0048 -16.4308 -18.3847
# 2 15.5931 90.0799 18.8680 11.2286 -15.2040 -8.4797
# 3 26.8475 18.8680 44.8467 1.5340 -3.6981 -14.4793
# 4 -2.0048 11.2286 1.5340 49.6672 -0.7708 -12.2925
# 5 -16.4308 -15.2040 -3.6981 -0.7708 43.5134 6.8957
# 6 -18.3847 -8.4797 -14.4793 -12.2925 6.8957 31.8815
#
#
#
# Elastic Compliance Matrix: (Units=1/GPa)
#
#
# Indices 1 2 3 4 5 6 
#
# 1 0.012668 -0.000191 -0.005792 0.001928 0.003529 0.004604
# 2 -0.000191 0.013246 -0.005365 -0.003046 0.004222 -0.001111
# 3 -0.005792 -0.005365 0.031277 0.002728 -0.003125 0.011165
# 4 0.001928 -0.003046 0.002728 0.023493 -0.001417 0.010905
# 5 0.003529 0.004222 -0.003125 -0.001417 0.026208 -0.004476
# 6 0.004604 -0.001111 0.011165 0.010905 -0.004476 0.043969
#
#
# Mechanical properties :
#
#
# Convention : Reuss Voigt Hill
#
# Bulk Modulus (GPa) = 28.98982 40.06157 34.52570
# Shear Modulus (GPa) = 27.01895 36.78763 31.90329
#
# Velocity S-wave (km/s) = 3.38638 3.95141 3.67976
# Velocity P-wave (km/s) = 5.25301 6.14991 5.71907
#
# Compressibility (1/GPa) = 0.03449486
#
# Stress axis : x y z
#
# Youngs Moduli (GPa) = 78.93660 75.49573 31.97269
#
# Poissons Ratio (x) = 0.01442 0.18519
# Poissons Ratio (y) = 0.01507 0.17153
# Poissons Ratio (z) = 0.45721 0.40503
#
# Static dielectric constant tensor:
#      x y z
#    x 6.555110 -4.337280 2.415710 
#    y -4.337280 12.512940 -4.677670 
#    z 2.415710 -4.677670 6.633870 
# 
# 
# High freq. dielectric constant tensor:
#      x y z
#    x 1.927600 0.002520 -0.002410 
#    y 0.002520 1.942000 0.003460 
#    z -0.002410 0.003460 1.923530 
# 
# From -- ./inp_files/392367.got.cif
#   From: 2010.06.25/outbox.cif.g09.slc.cpg/sg2_197_cif.got.tgz:392367.got - 2010.06.27 13:26:56.
