data_PCOD8025954
_publ_section_title
;
Structure prediction by ZEFSAII (Michael W. Deem and Ramdas Pophale) SiO2 
 PCOD8025954
Probable space group: P -1
;
_chemical_formula_sum "Si O2"
_cell_formula_units_Z 14
_cell_length_a 11.034219
_cell_length_b 14.765922
_cell_length_c 9.258267
_cell_angle_alpha 120.668447
_cell_angle_beta 99.763370
_cell_angle_gamma 128.523102
_cell_volume 700.105135
_symmetry_space_group_name_H-M "P -1"
_symmetry_group_IT_number 2
_symmetry_cell_setting 'triclinic'
loop_
_space_group_symop_operation_xyz
x,y,z
-x,-y,-z
loop_
_atom_site_type_symbol
_atom_site_label
_atom_site_fract_x
_atom_site_fract_y
_atom_site_fract_z
Si Si1 0.806463 0.295402 0.217861
Si Si2 0.166962 0.996862 0.666566
Si Si3 0.327632 0.293467 0.735093
Si Si4 0.689082 0.048523 0.562583
Si Si5 0.515261 0.750527 0.489504
Si Si6 0.331668 0.035477 0.017891
Si Si7 0.991990 0.577323 0.932934
O O1 0.572353 0.174230 0.121177
O O2 0.000000 0.500000 0.500000
O O3 0.835622 0.336022 0.085864
O O4 0.815494 0.175382 0.152009
O O5 0.259589 0.949843 0.589566
O O6 0.903989 0.814761 0.434377
O O7 0.295339 0.184233 0.766466
O O8 0.209619 0.023913 0.868592
O O9 0.423499 0.319791 0.621003
O O10 0.500000 0.500000 0.000000
O O11 0.500000 0.000000 0.500000
O O12 0.606562 0.888031 0.494927
O O13 0.923212 0.252520 0.845624
O O14 0.640402 0.869776 0.759707
O O15 0.249774 0.577971 0.313877
O O16 0.000000 0.500000 0.000000
#
# Coordination Sequence:
#
# PCOD8025954 Si02
#       7
#     2   2   2   2   2   2   2
#     4  11  24  39  58  94 144 171 204 251 321 390
#     4  10  24  41  67  90 121 171 213 262 323 374
#     4  10  23  47  66  90 121 162 225 274 310 370
#     4  11  21  38  60  92 128 163 210 257 314 376
#     4  11  23  40  62  92 127 166 212 263 315 382
#     4  11  24  41  62  93 134 172 206 258 324 389
#     4  12  23  35  61  94 127 171 211 252 310 375
#
# _framework density 19.996995999999999
#
# number of rings (size 3 to 8) (size 9 to 14) (size 15 to 20)
#    0.000    1.143    4.286    1.714    6.000    1.714 
#    0.000    0.714    0.000    0.000    0.000    0.000 
#    0.000    0.000    0.000    0.000    0.000    0.000 
#
# Total GULP energy -173547.140746 kJ/mol
# GULP energy per Si atom -12396.224339 kJ/mol
# Density = 1.995148 g / cm^3
# Si number density = 19.996996 Si / 1000 Ang^3
#
#
#
# Elastic Constant Matrix: (Units=GPa)
#
#
# Indices 1 2 3 4 5 6 
#
# 1 106.4630 42.1664 56.3839 -8.3743 -13.1843 6.5947
# 2 42.1664 94.8131 52.8933 -10.3168 -3.0979 11.5076
# 3 56.3839 52.8933 160.1156 2.4864 -15.7764 -1.3350
# 4 -8.3743 -10.3168 2.4864 43.0020 2.4895 -0.1438
# 5 -13.1843 -3.0979 -15.7764 2.4895 32.8986 -9.4049
# 6 6.5947 11.5076 -1.3350 -0.1438 -9.4049 23.6259
#
#
#
# Elastic Compliance Matrix: (Units=1/GPa)
#
#
# Indices 1 2 3 4 5 6 
#
# 1 0.013061 -0.003696 -0.003111 0.001658 0.003040 -0.000801
# 2 -0.003696 0.016127 -0.004659 0.003682 -0.005072 -0.009083
# 3 -0.003111 -0.004659 0.009417 -0.002515 0.004587 0.005480
# 4 0.001658 0.003682 -0.002515 0.024772 -0.003060 -0.003466
# 5 0.003040 -0.005072 0.004587 -0.003060 0.038480 0.017181
# 6 -0.000801 -0.009083 0.005480 -0.003466 0.017181 0.054102
#
#
# Mechanical properties :
#
#
# Convention : Reuss Voigt Hill
#
# Bulk Modulus (GPa) = 63.80375 73.80876 68.80625
# Shear Modulus (GPa) = 27.15689 33.90184 30.52936
#
# Velocity S-wave (km/s) = 3.68917 4.12193 3.91154
# Velocity P-wave (km/s) = 7.07973 7.72294 7.40832
#
# Compressibility (1/GPa) = 0.01567306
#
# Stress axis : x y z
#
# Youngs Moduli (GPa) = 76.56338 62.00758 106.19271
#
# Poissons Ratio (x) = 0.22918 0.33041
# Poissons Ratio (y) = 0.28297 0.49471
# Poissons Ratio (z) = 0.23822 0.28887
#
# Static dielectric constant tensor:
#      x y z
#    x 1.448380 0.540430 1.141620 
#    y 0.540430 3.741540 -0.136870 
#    z 1.141620 -0.136870 3.127610 
# 
# 
# High freq. dielectric constant tensor:
#      x y z
#    x 1.768380 0.016820 -0.010150 
#    y 0.016820 1.783250 0.004570 
#    z -0.010150 0.004570 1.797810 
# 
# From -- ./inp_files/68202.got.cif
#   From: 2010.06.25/outbox.cif.g09.slc.cpg/sg2_35_cif.got.tgz:68202.got - 2010.06.27 13:26:56.
