data_PCOD8025556
_publ_section_title
;
Structure prediction by ZEFSAII (Michael W. Deem and Ramdas Pophale) SiO2 
 PCOD8025556
Probable space group: P -1
;
_chemical_formula_sum "Si O2"
_cell_formula_units_Z 16
_cell_length_a 10.411529
_cell_length_b 8.403560
_cell_length_c 9.485029
_cell_angle_alpha 82.481312
_cell_angle_beta 80.942167
_cell_angle_gamma 49.547851
_cell_volume 623.167326
_symmetry_space_group_name_H-M "P -1"
_symmetry_group_IT_number 2
_symmetry_cell_setting 'triclinic'
loop_
_space_group_symop_operation_xyz
x,y,z
-x,-y,-z
loop_
_atom_site_type_symbol
_atom_site_label
_atom_site_fract_x
_atom_site_fract_y
_atom_site_fract_z
Si Si1 0.693825 0.307976 0.964654
Si Si2 0.388041 0.961205 0.941480
Si Si3 0.951056 0.645527 0.671041
Si Si4 0.835648 0.282159 0.241100
Si Si5 0.798619 0.036141 0.466001
Si Si6 0.671818 0.600589 0.736878
Si Si7 0.440768 0.344721 0.564880
Si Si8 0.736715 0.808249 0.317630
O O1 0.700716 0.111359 0.942225
O O2 0.807164 0.245264 0.091939
O O3 0.500000 0.500000 0.000000
O O4 0.761442 0.374762 0.823402
O O5 0.499335 0.781895 0.824770
O O6 0.243691 0.174451 0.856037
O O7 0.500000 0.000000 0.000000
O O8 0.788035 0.668138 0.728004
O O9 0.032510 0.672216 0.790525
O O10 0.100110 0.409968 0.615006
O O11 0.921503 0.820571 0.553903
O O12 0.907188 0.081201 0.353746
O O13 0.657353 0.474127 0.321232
O O14 0.638392 0.243083 0.553292
O O15 0.698498 0.005889 0.374975
O O16 0.643362 0.570864 0.584758
O O17 0.430379 0.166894 0.632662
#
# Coordination Sequence:
#
# PCOD8025556 Si02
#       8
#     2   2   2   2   2   2   2   2
#     4  10  23  45  69  94 135 171 219 277 335 392
#     4  11  24  45  73 100 125 176 225 281 333 394
#     4  11  26  40  65  97 138 185 215 274 333 404
#     4  11  25  43  68  99 138 178 220 275 341 395
#     4  12  20  42  65 100 135 173 227 279 333 388
#     4  11  23  46  66 101 137 173 225 273 334 395
#     4  11  23  40  73 102 130 173 227 288 324 391
#     4  11  22  41  68  95 135 174 223 271 338 391
#
# _framework density 25.675287999999998
#
# number of rings (size 3 to 8) (size 9 to 14) (size 15 to 20)
#    0.000    1.000    3.750    3.000    8.750    0.500 
#    2.250    0.625    0.000    0.000    0.000    0.000 
#    0.000    0.000    0.000    0.000    0.000    0.000 
#
# Total GULP energy -198214.611208 kJ/mol
# GULP energy per Si atom -12388.413200 kJ/mol
# Density = 2.561685 g / cm^3
# Si number density = 25.675288 Si / 1000 Ang^3
#
#
#
# Elastic Constant Matrix: (Units=GPa)
#
#
# Indices 1 2 3 4 5 6 
#
# 1 90.8163 32.2275 -0.8652 -16.6879 -4.5709 29.7096
# 2 32.2275 75.1888 46.9483 -25.8265 1.2936 11.1937
# 3 -0.8652 46.9483 78.3734 -31.9793 2.4177 12.5032
# 4 -16.6879 -25.8265 -31.9793 43.8311 11.2750 -3.1976
# 5 -4.5709 1.2936 2.4177 11.2750 34.0317 -6.5256
# 6 29.7096 11.1937 12.5032 -3.1976 -6.5256 50.8369
#
#
#
# Elastic Compliance Matrix: (Units=1/GPa)
#
#
# Indices 1 2 3 4 5 6 
#
# 1 0.022062 -0.012594 0.014982 0.012000 -0.004204 -0.013590
# 2 -0.012594 0.029452 -0.019013 -0.000882 -0.000117 0.005480
# 3 0.014982 -0.019013 0.035734 0.022093 -0.009656 -0.013208
# 4 0.012000 -0.000882 0.022093 0.046667 -0.017605 -0.011577
# 5 -0.004204 -0.000117 -0.009656 -0.017605 0.036972 0.008496
# 6 -0.013590 0.005480 -0.013208 -0.011577 0.008496 0.030017
#
#
# Mechanical properties :
#
#
# Convention : Reuss Voigt Hill
#
# Bulk Modulus (GPa) = 18.51876 44.55553 31.53714
# Shear Modulus (GPa) = 19.82916 36.81111 28.32014
#
# Velocity S-wave (km/s) = 2.78205 3.79055 3.32476
# Velocity P-wave (km/s) = 4.18904 6.04557 5.20082
#
# Compressibility (1/GPa) = 0.05399930
#
# Stress axis : x y z
#
# Youngs Moduli (GPa) = 45.32604 33.95299 27.98468
#
# Poissons Ratio (x) = 0.42759 -0.41926
# Poissons Ratio (y) = 0.57082 0.53207
# Poissons Ratio (z) = -0.67907 0.64554
#
# Static dielectric constant tensor:
#      x y z
#    x 4.913510 0.585610 -0.179190 
#    y 0.585610 4.822120 -0.592950 
#    z -0.179190 -0.592950 4.678420 
# 
# 
# High freq. dielectric constant tensor:
#      x y z
#    x 2.035950 0.028750 0.007030 
#    y 0.028750 2.025330 -0.030990 
#    z 0.007030 -0.030990 2.007440 
# 
# From -- ./inp_files/243502.got.cif
#   From: 2010.06.25/outbox.cif.g09.slc.cpg/sg2_122_cif.got.tgz:243502.got - 2010.06.27 13:26:56.
