data_PCOD8025563
_publ_section_title
;
Structure prediction by ZEFSAII (Michael W. Deem and Ramdas Pophale) SiO2 
 PCOD8025563
Probable space group: P -1
;
_chemical_formula_sum "Si O2"
_cell_formula_units_Z 16
_cell_length_a 8.669315
_cell_length_b 19.393941
_cell_length_c 6.293143
_cell_angle_alpha 45.363183
_cell_angle_beta 98.169429
_cell_angle_gamma 87.776214
_cell_volume 730.682150
_symmetry_space_group_name_H-M "P -1"
_symmetry_group_IT_number 2
_symmetry_cell_setting 'triclinic'
loop_
_space_group_symop_operation_xyz
x,y,z
-x,-y,-z
loop_
_atom_site_type_symbol
_atom_site_label
_atom_site_fract_x
_atom_site_fract_y
_atom_site_fract_z
Si Si1 0.215740 0.035661 0.533083
Si Si2 0.416495 0.196539 0.270527
Si Si3 0.192046 0.393081 0.929673
Si Si4 0.828193 0.417971 0.774947
Si Si5 0.086219 0.934551 0.345391
Si Si6 0.384172 0.709181 0.197345
Si Si7 0.626502 0.543164 0.798106
Si Si8 0.674157 0.151465 0.743055
O O1 0.335166 0.109008 0.362144
O O2 0.048315 0.098021 0.460443
O O3 0.188841 0.993898 0.385508
O O4 0.288357 0.949563 0.898175
O O5 0.495861 0.167221 0.579394
O O6 0.288939 0.298138 0.034641
O O7 0.554418 0.206936 0.107596
O O8 0.201387 0.492535 0.590949
O O9 0.012036 0.379602 0.946855
O O10 0.265345 0.399927 0.161644
O O11 0.761620 0.325853 0.869889
O O12 0.738399 0.452478 0.900506
O O13 0.204329 0.846540 0.436193
O O14 0.000000 0.000000 0.000000
O O15 0.531879 0.618472 0.446133
O O16 0.316016 0.755425 0.307847
O O17 0.500000 0.500000 0.000000
#
# Coordination Sequence:
#
# PCOD8025563 Si02
#       8
#     2   2   2   2   2   2   2   2
#     4  10  23  45  69  98 133 176 223 277 335 395
#     4  12  25  42  67  97 136 175 224 282 330 399
#     4  11  24  44  66  99 133 174 221 279 337 396
#     4  11  25  44  69  97 135 174 221 279 338 400
#     4   9  21  44  70  92 130 175 218 275 339 395
#     4  12  25  41  68  99 133 175 226 273 336 407
#     4  12  22  44  70  95 132 178 220 276 337 402
#     4  11  24  42  67  99 132 176 226 273 336 396
#
# _framework density 21.897345999999999
#
# number of rings (size 3 to 8) (size 9 to 14) (size 15 to 20)
#    0.000    1.000    3.750    2.625    0.000    8.000 
#    0.000    0.000    2.750    0.000    0.000    0.000 
#    0.000    0.000    0.000    0.000    0.000    0.000 
#
# Total GULP energy -198426.819179 kJ/mol
# GULP energy per Si atom -12401.676199 kJ/mol
# Density = 2.184751 g / cm^3
# Si number density = 21.897346 Si / 1000 Ang^3
#
#
#
# Elastic Constant Matrix: (Units=GPa)
#
#
# Indices 1 2 3 4 5 6 
#
# 1 149.5108 76.5763 41.8096 4.8444 -3.7277 11.5654
# 2 76.5763 136.1085 19.8537 14.1957 -9.9635 -3.4210
# 3 41.8096 19.8537 74.4562 5.9608 2.3686 13.9718
# 4 4.8444 14.1957 5.9608 30.2238 0.7240 0.9384
# 5 -3.7277 -9.9635 2.3686 0.7240 35.2043 0.4567
# 6 11.5654 -3.4210 13.9718 0.9384 0.4567 50.1961
#
#
#
# Elastic Compliance Matrix: (Units=1/GPa)
#
#
# Indices 1 2 3 4 5 6 
#
# 1 0.010949 -0.005767 -0.004433 0.001886 -0.000191 -0.001715
# 2 -0.005767 0.011296 0.000105 -0.004531 0.002645 0.002130
# 3 -0.004433 0.000105 0.016814 -0.002508 -0.001473 -0.003591
# 4 0.001886 -0.004531 -0.002508 0.035468 -0.001634 -0.000693
# 5 -0.000191 0.002645 -0.001473 -0.001634 0.029261 0.000399
# 6 -0.001715 0.002130 -0.003591 -0.000693 0.000399 0.021471
#
#
# Mechanical properties :
#
#
# Convention : Reuss Voigt Hill
#
# Bulk Modulus (GPa) = 52.99926 70.72829 61.86378
# Shear Modulus (GPa) = 32.95135 37.91390 35.43263
#
# Velocity S-wave (km/s) = 3.88340 4.16557 4.02696
# Velocity P-wave (km/s) = 6.66061 7.45024 7.06646
#
# Compressibility (1/GPa) = 0.01886819
#
# Stress axis : x y z
#
# Youngs Moduli (GPa) = 91.33414 88.52613 59.47546
#
# Poissons Ratio (x) = 0.51053 0.26368
# Poissons Ratio (y) = 0.52673 -0.00626
# Poissons Ratio (z) = 0.40492 -0.00932
#
# Static dielectric constant tensor:
#      x y z
#    x 4.229430 -0.198420 0.270310 
#    y -0.198420 4.045910 0.017550 
#    z 0.270310 0.017550 4.167360 
# 
# 
# High freq. dielectric constant tensor:
#      x y z
#    x 1.869700 -0.007100 0.016150 
#    y -0.007100 1.865730 0.010970 
#    z 0.016150 0.010970 1.860590 
# 
# From -- ./inp_files/46316.got.cif
#   From: 2010.06.25/outbox.cif.g09.slc.cpg/sg2_24_cif.got.tgz:46316.got - 2010.06.27 13:26:56.
