data_PCOD8025137
_publ_section_title
;
Structure prediction by ZEFSAII (Michael W. Deem and Ramdas Pophale) SiO2 
 PCOD8025137
Probable space group: P -1
;
_chemical_formula_sum "Si O2"
_cell_formula_units_Z 16
_cell_length_a 14.931385
_cell_length_b 15.540515
_cell_length_c 9.320886
_cell_angle_alpha 38.212728
_cell_angle_beta 37.605714
_cell_angle_gamma 38.238219
_cell_volume 736.399219
_symmetry_space_group_name_H-M "P -1"
_symmetry_group_IT_number 2
_symmetry_cell_setting 'triclinic'
loop_
_space_group_symop_operation_xyz
x,y,z
-x,-y,-z
loop_
_atom_site_type_symbol
_atom_site_label
_atom_site_fract_x
_atom_site_fract_y
_atom_site_fract_z
Si Si1 0.652992 0.477188 0.176786
Si Si2 0.673317 0.865250 0.990703
Si Si3 0.463632 0.790668 0.869035
Si Si4 0.047457 0.034874 0.552682
Si Si5 0.338786 0.442900 0.632495
Si Si6 0.068696 0.748633 0.063474
Si Si7 0.186907 0.713048 0.274377
Si Si8 0.293811 0.134392 0.723219
O O1 0.529302 0.397983 0.418682
O O2 0.720046 0.450807 0.288907
O O3 0.557529 0.662071 0.037040
O O4 0.799960 0.409651 0.965097
O O5 0.809073 0.912482 0.697018
O O6 0.689870 0.707662 0.103965
O O7 0.701119 0.824498 0.174122
O O8 0.500000 0.000000 0.000000
O O9 0.590946 0.806561 0.580705
O O10 0.354401 0.951454 0.874123
O O11 0.348737 0.733269 0.999556
O O12 0.895880 0.166909 0.650012
O O13 0.000000 0.000000 0.500000
O O14 0.107740 0.882731 0.772347
O O15 0.231933 0.542796 0.503326
O O16 0.078882 0.742475 0.231077
O O17 0.887599 0.773654 0.225592
#
# Coordination Sequence:
#
# PCOD8025137 Si02
#       8
#     2   2   2   2   2   2   2   2
#     4  10  23  45  72  99 138 187 227 288 351 416
#     4  12  26  43  72 102 135 182 240 286 339 419
#     4  10  23  44  69  95 141 180 231 279 349 417
#     4  12  24  46  70 101 144 182 230 287 348 410
#     4  10  24  45  70 102 139 183 237 280 351 415
#     4  12  25  43  70 105 138 184 231 287 355 406
#     4  11  25  43  73 100 138 184 234 284 346 420
#     4  11  25  43  67 103 140 180 229 290 350 408
#
# _framework density 21.727346000000001
#
# number of rings (size 3 to 8) (size 9 to 14) (size 15 to 20)
#    0.000    1.000    2.500    2.625    5.250    6.000 
#    0.000    0.000    0.000    0.000    0.000    0.000 
#    0.000    0.000    0.000    0.000    0.000    0.000 
#
# Total GULP energy -198439.667122 kJ/mol
# GULP energy per Si atom -12402.479195 kJ/mol
# Density = 2.167789 g / cm^3
# Si number density = 21.727346 Si / 1000 Ang^3
#
#
#
# Elastic Constant Matrix: (Units=GPa)
#
#
# Indices 1 2 3 4 5 6 
#
# 1 144.0062 51.9428 48.4224 1.4732 12.3046 -10.8555
# 2 51.9428 100.7158 34.1138 6.8296 -2.9993 -6.4617
# 3 48.4224 34.1138 93.8735 -4.7341 -11.6933 -6.0028
# 4 1.4732 6.8296 -4.7341 41.3907 1.3558 3.7714
# 5 12.3046 -2.9993 -11.6933 1.3558 39.1488 3.3541
# 6 -10.8555 -6.4617 -6.0028 3.7714 3.3541 24.5625
#
#
#
# Elastic Compliance Matrix: (Units=1/GPa)
#
#
# Indices 1 2 3 4 5 6 
#
# 1 0.010539 -0.003826 -0.004504 -0.000391 -0.005222 0.003324
# 2 -0.003826 0.013095 -0.002655 -0.002492 0.001388 0.001298
# 3 -0.004504 -0.002655 0.014728 0.002117 0.005553 -0.000173
# 4 -0.000391 -0.002492 0.002117 0.025207 0.000050 -0.004188
# 5 -0.005222 0.001388 0.005553 0.000050 0.029342 -0.004600
# 6 0.003324 0.001298 -0.000173 -0.004188 -0.004600 0.043752
#
#
# Mechanical properties :
#
#
# Convention : Reuss Voigt Hill
#
# Bulk Modulus (GPa) = 61.00173 67.50593 64.25383
# Shear Modulus (GPa) = 30.46976 34.62817 32.54897
#
# Velocity S-wave (km/s) = 3.74888 3.99652 3.87468
# Velocity P-wave (km/s) = 6.84659 7.24108 7.04660
#
# Compressibility (1/GPa) = 0.01639298
#
# Stress axis : x y z
#
# Youngs Moduli (GPa) = 94.88349 76.36547 67.89765
#
# Poissons Ratio (x) = 0.29215 0.30580
# Poissons Ratio (y) = 0.36300 0.18028
# Poissons Ratio (z) = 0.42733 0.20276
#
# Static dielectric constant tensor:
#      x y z
#    x 3.870910 -0.086820 -0.068450 
#    y -0.086820 3.893440 -0.026690 
#    z -0.068450 -0.026690 4.105190 
# 
# 
# High freq. dielectric constant tensor:
#      x y z
#    x 1.855350 -0.006600 0.001660 
#    y -0.006600 1.855390 -0.003190 
#    z 0.001660 -0.003190 1.866650 
# 
# From -- ./inp_files/209077.got.cif
#   From: 2010.06.25/outbox.cif.g09.slc.cpg/sg2_105_cif.got.tgz:209077.got - 2010.06.27 13:26:56.
