data_PCOD8025926
_publ_section_title
;
Structure prediction by ZEFSAII (Michael W. Deem and Ramdas Pophale) SiO2 
 PCOD8025926
Probable space group: P -1
;
_chemical_formula_sum "Si O2"
_cell_formula_units_Z 16
_cell_length_a 14.363046
_cell_length_b 16.157125
_cell_length_c 15.792908
_cell_angle_alpha 18.249977
_cell_angle_beta 134.150177
_cell_angle_gamma 135.945483
_cell_volume 796.418698
_symmetry_space_group_name_H-M "P -1"
_symmetry_group_IT_number 2
_symmetry_cell_setting 'triclinic'
loop_
_space_group_symop_operation_xyz
x,y,z
-x,-y,-z
loop_
_atom_site_type_symbol
_atom_site_label
_atom_site_fract_x
_atom_site_fract_y
_atom_site_fract_z
Si Si1 0.774702 0.565798 0.652801
Si Si2 0.602623 0.863586 0.973301
Si Si3 0.352624 0.805568 0.610605
Si Si4 0.035460 0.754901 0.713298
Si Si5 0.336231 0.292536 0.218630
Si Si6 0.644973 0.991228 0.067883
Si Si7 0.290769 0.609815 0.026320
Si Si8 0.632900 0.351843 0.404743
O O1 0.702365 0.794954 0.355487
O O2 0.936967 0.684636 0.637313
O O3 0.725056 0.488661 0.791815
O O4 0.738412 0.298795 0.830288
O O5 0.442401 0.777465 0.942303
O O6 0.664379 0.158337 0.685975
O O7 0.639496 0.871022 0.087664
O O8 0.674461 0.658148 0.170182
O O9 0.288514 0.686073 0.595378
O O10 0.500000 0.000000 0.500000
O O11 0.268265 0.003487 0.408851
O O12 0.358744 0.549284 0.920489
O O13 0.194686 0.806580 0.746526
O O14 0.000000 0.000000 0.500000
O O15 0.000000 0.500000 0.000000
O O16 0.476488 0.265128 0.369882
O O17 0.250026 0.347802 0.191268
O O18 0.500000 0.000000 0.000000
#
# Coordination Sequence:
#
# PCOD8025926 Si02
#       8
#     2   2   2   2   2   2   2   2
#     4  11  23  38  54  73 106 146 181 215 263 299
#     4  11  22  32  52  76 103 138 177 212 257 302
#     4  10  17  30  44  68 101 137 165 196 256 313
#     4  10  22  37  55  74 101 142 180 222 259 309
#     4  10  19  27  48  71 100 134 168 205 248 314
#     4  12  24  36  54  75 107 138 183 225 253 302
#     4  10  21  35  53  78 107 136 180 212 260 312
#     4  10  19  32  47  70 104 138 169 205 253 321
#
# _framework density 20.089935000000001
#
# number of rings (size 3 to 8) (size 9 to 14) (size 15 to 20)
#    0.000    1.500    1.250    7.875    3.500    5.000 
#    0.000    0.000    0.000    0.000    0.000    0.000 
#    0.000   20.000    0.000    0.000    0.000    0.000 
#
# Total GULP energy -198287.756224 kJ/mol
# GULP energy per Si atom -12392.984764 kJ/mol
# Density = 2.004421 g / cm^3
# Si number density = 20.089935 Si / 1000 Ang^3
#
#
#
# Elastic Constant Matrix: (Units=GPa)
#
#
# Indices 1 2 3 4 5 6 
#
# 1 39.1323 30.8869 15.0409 -1.1203 19.3137 -25.2603
# 2 30.8869 103.5467 36.2767 -4.3310 21.5222 -15.7275
# 3 15.0409 36.2767 137.8500 -0.8036 20.2915 -5.9601
# 4 -1.1203 -4.3310 -0.8036 38.0022 -11.2964 5.5866
# 5 19.3137 21.5222 20.2915 -11.2964 32.0323 -4.2697
# 6 -25.2603 -15.7275 -5.9601 5.5866 -4.2697 37.7299
#
#
#
# Elastic Compliance Matrix: (Units=1/GPa)
#
#
# Indices 1 2 3 4 5 6 
#
# 1 0.094164 -0.010589 0.002390 -0.021955 -0.051394 0.056442
# 2 -0.010589 0.013605 -0.002340 0.001155 -0.001145 -0.002088
# 3 0.002390 -0.002340 0.008512 -0.001958 -0.005737 0.001610
# 4 -0.021955 0.001155 -0.001958 0.035370 0.023901 -0.017059
# 5 -0.051394 -0.001145 -0.005737 0.023901 0.070865 -0.031312
# 6 0.056442 -0.002088 0.001610 -0.017059 -0.031312 0.062659
#
#
# Mechanical properties :
#
#
# Convention : Reuss Voigt Hill
#
# Bulk Modulus (GPa) = 10.50381 49.43756 29.97069
# Shear Modulus (GPa) = 14.79348 34.77452 24.78400
#
# Velocity S-wave (km/s) = 2.71654 4.16497 3.51615
# Velocity P-wave (km/s) = 3.88320 6.91309 5.60670
#
# Compressibility (1/GPa) = 0.09520356
#
# Stress axis : x y z
#
# Youngs Moduli (GPa) = 10.61974 73.50289 117.48218
#
# Poissons Ratio (x) = 0.77829 -0.28075
# Poissons Ratio (y) = 0.11245 0.27490
# Poissons Ratio (z) = -0.02538 0.17199
#
# Static dielectric constant tensor:
#      x y z
#    x 3.845370 -0.613940 0.322600 
#    y -0.613940 3.970010 -0.345280 
#    z 0.322600 -0.345280 3.849560 
# 
# 
# High freq. dielectric constant tensor:
#      x y z
#    x 1.746710 -0.041510 0.009090 
#    y -0.041510 1.765980 -0.009100 
#    z 0.009090 -0.009100 1.808860 
# 
# From -- ./inp_files/436795.got.cif
#   From: 2010.06.25/outbox.cif.g09.slc.cpg/sg2_219_cif.got.tgz:436795.got - 2010.06.27 13:26:56.
