data_PCOD8025430
_publ_section_title
;
Structure prediction by ZEFSAII (Michael W. Deem and Ramdas Pophale) SiO2 
 PCOD8025430
Probable space group: P -1
;
_chemical_formula_sum "Si O2"
_cell_formula_units_Z 14
_cell_length_a 11.394524
_cell_length_b 16.468864
_cell_length_c 8.237620
_cell_angle_alpha 124.932999
_cell_angle_beta 72.924397
_cell_angle_gamma 148.541016
_cell_volume 588.849900
_symmetry_space_group_name_H-M "P -1"
_symmetry_group_IT_number 2
_symmetry_cell_setting 'triclinic'
loop_
_space_group_symop_operation_xyz
x,y,z
-x,-y,-z
loop_
_atom_site_type_symbol
_atom_site_label
_atom_site_fract_x
_atom_site_fract_y
_atom_site_fract_z
Si Si1 0.589725 0.105685 0.381467
Si Si2 0.914378 0.638526 0.634480
Si Si3 0.483298 0.256498 0.169833
Si Si4 0.289333 0.716114 0.161630
Si Si5 0.852033 0.798174 0.281578
Si Si6 0.796999 0.087371 0.898668
Si Si7 0.385174 0.387875 0.182915
O O1 0.646119 0.243735 0.625682
O O2 0.480825 0.066587 0.208098
O O3 0.831101 0.202923 0.389404
O O4 0.355446 0.876605 0.279738
O O5 0.705720 0.414275 0.397377
O O6 0.796374 0.665438 0.705232
O O7 0.015619 0.698270 0.848967
O O8 0.248112 0.032502 0.087419
O O9 0.414383 0.318823 0.217567
O O10 0.560034 0.256920 0.973043
O O11 0.000000 0.500000 0.000000
O O12 0.651376 0.629685 0.310525
O O13 0.725755 0.726140 0.074463
O O14 0.000000 0.000000 0.500000
O O15 0.056067 0.852705 0.248123
#
# Coordination Sequence:
#
# PCOD8025430 Si02
#       7
#     2   2   2   2   2   2   2
#     4  11  25  46  68 100 141 178 231 280 338 411
#     4  11  23  44  66  99 139 174 226 281 337 402
#     4  12  25  43  70 105 136 179 229 279 349 398
#     4  11  25  44  67 101 136 186 227 279 341 402
#     4  10  23  45  67 100 136 183 226 276 344 399
#     4  11  26  43  69 102 137 181 224 283 344 403
#     4  10  25  43  69 103 137 175 230 284 332 410
#
# _framework density 23.77516
#
# number of rings (size 3 to 8) (size 9 to 14) (size 15 to 20)
#    0.000    1.143    2.857    1.714    4.000    5.143 
#    0.000    0.000    0.000    0.000    0.000    0.000 
#    0.000    0.000    0.000    0.000    0.000    0.000 
#
# Total GULP energy -173444.604300 kJ/mol
# GULP energy per Si atom -12388.900307 kJ/mol
# Density = 2.372105 g / cm^3
# Si number density = 23.775160 Si / 1000 Ang^3
#
#
#
# Elastic Constant Matrix: (Units=GPa)
#
#
# Indices 1 2 3 4 5 6 
#
# 1 90.0241 47.4585 42.9090 -1.6451 6.8096 17.9623
# 2 47.4585 100.7420 34.3046 4.7423 -2.4380 24.1620
# 3 42.9090 34.3046 169.3151 -6.6484 -9.6179 20.3312
# 4 -1.6451 4.7423 -6.6484 39.8322 4.7006 -6.2497
# 5 6.8096 -2.4380 -9.6179 4.7006 28.1790 -2.9123
# 6 17.9623 24.1620 20.3312 -6.2497 -2.9123 37.6466
#
#
#
# Elastic Compliance Matrix: (Units=1/GPa)
#
#
# Indices 1 2 3 4 5 6 
#
# 1 0.016998 -0.006603 -0.002965 0.001325 -0.006173 -0.002529
# 2 -0.006603 0.015035 -0.000573 -0.003497 0.002605 -0.006568
# 3 -0.002965 -0.000573 0.007170 0.000528 0.002842 -0.001782
# 4 0.001325 -0.003497 0.000528 0.027041 -0.004387 0.005477
# 5 -0.006173 0.002605 0.002842 -0.004387 0.039117 0.002036
# 6 -0.002529 -0.006568 -0.001782 0.005477 0.002036 0.034014
#
#
# Mechanical properties :
#
#
# Convention : Reuss Voigt Hill
#
# Bulk Modulus (GPa) = 52.85391 67.71393 60.28392
# Shear Modulus (GPa) = 30.12667 36.82552 33.47610
#
# Velocity S-wave (km/s) = 3.56357 3.93989 3.75644
# Velocity P-wave (km/s) = 6.26187 7.01710 6.65021
#
# Compressibility (1/GPa) = 0.01892008
#
# Stress axis : x y z
#
# Youngs Moduli (GPa) = 58.82987 66.50967 139.47310
#
# Poissons Ratio (x) = 0.43919 0.41352
# Poissons Ratio (y) = 0.38848 0.07997
# Poissons Ratio (z) = 0.17443 0.03814
#
# Static dielectric constant tensor:
#      x y z
#    x 4.086090 0.340430 0.057260 
#    y 0.340430 4.306700 -0.117730 
#    z 0.057260 -0.117730 4.947440 
# 
# 
# High freq. dielectric constant tensor:
#      x y z
#    x 1.917060 0.026010 0.001660 
#    y 0.026010 1.934670 0.000030 
#    z 0.001660 0.000030 1.977340 
# 
# From -- ./inp_files/279837.got.cif
#   From: 2010.06.25/outbox.cif.g09.slc.cpg/sg2_140_cif.got.tgz:279837.got - 2010.06.27 13:26:56.
