data_PCOD8025080
_publ_section_title
;
Structure prediction by ZEFSAII (Michael W. Deem and Ramdas Pophale) SiO2 
 PCOD8025080
Probable space group: P -1
;
_chemical_formula_sum "Si O2"
_cell_formula_units_Z 8
_cell_length_a 6.646716
_cell_length_b 9.094630
_cell_length_c 8.339405
_cell_angle_alpha 45.900761
_cell_angle_beta 107.586736
_cell_angle_gamma 89.601070
_cell_volume 327.264755
_symmetry_space_group_name_H-M "P -1"
_symmetry_group_IT_number 2
_symmetry_cell_setting 'triclinic'
loop_
_space_group_symop_operation_xyz
x,y,z
-x,-y,-z
loop_
_atom_site_type_symbol
_atom_site_label
_atom_site_fract_x
_atom_site_fract_y
_atom_site_fract_z
Si Si1 0.899426 0.359152 0.697725
Si Si2 0.374478 0.850266 0.709299
Si Si3 0.764556 0.492217 0.893460
Si Si4 0.262223 0.979109 0.253988
O O1 0.746714 0.512456 0.680374
O O2 0.749648 0.246304 0.647802
O O3 0.000000 0.500000 0.500000
O O4 0.096784 0.181977 0.971111
O O5 0.568615 0.675700 0.789512
O O6 0.206094 0.984217 0.428689
O O7 0.487396 0.004019 0.716911
O O8 0.251656 0.742927 0.885697
O O9 0.000000 0.500000 0.000000
#
# Coordination Sequence:
#
# PCOD8025080 Si02
#       4
#     2   2   2   2
#     4  11  24  44  67  95 138 172 211 268 332 381
#     4  10  23  44  68  98 128 168 228 263 320 386
#     4  11  22  42  71  95 132 174 212 272 325 381
#     4  10  23  45  63 100 132 167 222 268 316 393
#
# _framework density 24.445036999999999
#
# number of rings (size 3 to 8) (size 9 to 14) (size 15 to 20)
#    0.000    1.500    2.500    1.500    3.500    3.000 
#   18.000    0.000    0.000    0.000    0.000    0.000 
#    0.000    0.000    0.000    0.000    0.000    0.000 
#
# Total GULP energy -99168.041261 kJ/mol
# GULP energy per Si atom -12396.005158 kJ/mol
# Density = 2.438940 g / cm^3
# Si number density = 24.445037 Si / 1000 Ang^3
#
#
#
# Elastic Constant Matrix: (Units=GPa)
#
#
# Indices 1 2 3 4 5 6 
#
# 1 136.0606 78.0309 58.5585 9.0222 -46.5180 25.2749
# 2 78.0309 151.0602 36.4201 19.0461 -11.0218 40.8178
# 3 58.5585 36.4201 121.9273 11.6363 -29.4322 15.6496
# 4 9.0222 19.0461 11.6363 38.8041 4.9699 -0.3381
# 5 -46.5180 -11.0218 -29.4322 4.9699 54.3340 -2.9924
# 6 25.2749 40.8178 15.6496 -0.3381 -2.9924 53.4322
#
#
#
# Elastic Compliance Matrix: (Units=1/GPa)
#
#
# Indices 1 2 3 4 5 6 
#
# 1 0.016538 -0.006472 -0.002998 -0.001223 0.011258 -0.001378
# 2 -0.006472 0.011935 -0.000024 -0.004002 -0.003111 -0.006248
# 3 -0.002998 -0.000024 0.011013 -0.003067 0.003586 -0.001608
# 4 -0.001223 -0.004002 -0.003067 0.029746 -0.006000 0.004386
# 5 0.011258 -0.003111 0.003586 -0.006000 0.029773 -0.002370
# 6 -0.001378 -0.006248 -0.001608 0.004386 -0.002370 0.024506
#
#
# Mechanical properties :
#
#
# Convention : Reuss Voigt Hill
#
# Bulk Modulus (GPa) = 48.78478 83.89635 66.34056
# Shear Modulus (GPa) = 33.48273 45.04998 39.26636
#
# Velocity S-wave (km/s) = 3.70498 4.29757 4.01223
# Velocity P-wave (km/s) = 6.18892 7.68247 6.97578
#
# Compressibility (1/GPa) = 0.02049820
#
# Stress axis : x y z
#
# Youngs Moduli (GPa) = 60.46788 83.79021 90.79818
#
# Poissons Ratio (x) = 0.54227 0.27224
# Poissons Ratio (y) = 0.39133 0.00215
# Poissons Ratio (z) = 0.18130 0.00198
#
# Static dielectric constant tensor:
#      x y z
#    x 4.405490 0.300590 -0.249290 
#    y 0.300590 4.822900 0.086990 
#    z -0.249290 0.086990 4.867870 
# 
# 
# High freq. dielectric constant tensor:
#      x y z
#    x 1.965390 0.026620 -0.010240 
#    y 0.026620 1.975000 0.001260 
#    z -0.010240 0.001260 1.988380 
# 
# From -- ./inp_files/16485.got.cif
#   From: 2010.06.25/outbox.cif.g09.slc.cpg/sg2_9_cif.got.tgz:16485.got - 2010.06.27 13:26:56.
