data_PCOD8025231
_publ_section_title
;
Structure prediction by ZEFSAII (Michael W. Deem and Ramdas Pophale) SiO2 
 PCOD8025231
Probable space group: P -1
;
_chemical_formula_sum "Si O2"
_cell_formula_units_Z 12
_cell_length_a 5.107767
_cell_length_b 9.096423
_cell_length_c 17.147202
_cell_angle_alpha 132.703880
_cell_angle_beta 118.210711
_cell_angle_gamma 49.118044
_cell_volume 442.054167
_symmetry_space_group_name_H-M "P -1"
_symmetry_group_IT_number 2
_symmetry_cell_setting 'triclinic'
loop_
_space_group_symop_operation_xyz
x,y,z
-x,-y,-z
loop_
_atom_site_type_symbol
_atom_site_label
_atom_site_fract_x
_atom_site_fract_y
_atom_site_fract_z
Si Si1 0.782446 0.641861 0.431302
Si Si2 0.766564 0.155634 0.454058
Si Si3 0.288281 0.101195 0.103303
Si Si4 0.254556 0.380950 0.064649
Si Si5 0.052187 0.850762 0.765955
Si Si6 0.751715 0.183642 0.714687
O O1 0.626536 0.735346 0.530647
O O2 0.826050 0.390487 0.346170
O O3 0.528619 0.800374 0.381460
O O4 0.139695 0.641431 0.474593
O O5 0.000000 0.000000 0.500000
O O6 0.862286 0.990201 0.331136
O O7 0.090458 0.284102 0.070289
O O8 0.644678 0.092578 0.167449
O O9 0.057108 0.177365 0.173870
O O10 0.383147 0.841093 0.995787
O O11 0.326967 0.558872 0.185543
O O12 0.000000 0.500000 0.000000
O O13 0.735788 0.063069 0.749538
#
# Coordination Sequence:
#
# PCOD8025231 Si02
#       6
#     2   2   2   2   2   2
#     4  11  24  46  70 100 145 183 227 291 345 405
#     4  10  23  44  71 102 138 185 233 283 346 409
#     4  11  27  48  68 105 142 182 232 288 346 413
#     4  11  24  49  75 103 140 187 232 288 348 416
#     4  12  26  45  73 104 140 186 230 285 353 408
#     4  11  24  44  73 106 137 187 236 285 345 419
#
# _framework density 27.145996
#
# number of rings (size 3 to 8) (size 9 to 14) (size 15 to 20)
#    0.000    1.000    3.333    3.000    2.333   10.000 
#    0.000    0.000    0.000    0.000    0.000    0.000 
#    0.000    0.000    0.000    0.000    0.000    0.000 
#
# Total GULP energy -148777.177098 kJ/mol
# GULP energy per Si atom -12398.098092 kJ/mol
# Density = 2.708421 g / cm^3
# Si number density = 27.145996 Si / 1000 Ang^3
#
#
#
# Elastic Constant Matrix: (Units=GPa)
#
#
# Indices 1 2 3 4 5 6 
#
# 1 115.7878 11.5919 43.0669 1.6234 -3.8583 14.7298
# 2 11.5919 150.8018 37.7409 -16.7561 -7.3504 24.4723
# 3 43.0669 37.7409 129.9604 9.7800 -20.3297 3.2457
# 4 1.6234 -16.7561 9.7800 54.5354 -8.5044 -1.4895
# 5 -3.8583 -7.3504 -20.3297 -8.5044 38.7122 -1.2506
# 6 14.7298 24.4723 3.2457 -1.4895 -1.2506 23.3549
#
#
#
# Elastic Compliance Matrix: (Units=1/GPa)
#
#
# Indices 1 2 3 4 5 6 
#
# 1 0.010959 0.001460 -0.004036 0.000490 -0.000897 -0.007898
# 2 0.001460 0.009297 -0.003069 0.003196 0.000679 -0.009996
# 3 -0.004036 -0.003069 0.010634 -0.001937 0.004316 0.004390
# 4 0.000490 0.003196 -0.001937 0.020227 0.004021 -0.001884
# 5 -0.000897 0.000679 0.004316 0.004021 0.029056 0.001067
# 6 -0.007898 -0.009996 0.004390 -0.001884 0.001067 0.057600
#
#
# Mechanical properties :
#
#
# Convention : Reuss Voigt Hill
#
# Bulk Modulus (GPa) = 51.01369 64.59437 57.80403
# Shear Modulus (GPa) = 32.13429 43.59719 37.86574
#
# Velocity S-wave (km/s) = 3.44431 4.01187 3.73888
# Velocity P-wave (km/s) = 5.88650 6.73105 6.32289
#
# Compressibility (1/GPa) = 0.01960258
#
# Stress axis : x y z
#
# Youngs Moduli (GPa) = 91.24642 107.55682 94.03411
#
# Poissons Ratio (x) = -0.15703 0.37950
# Poissons Ratio (y) = -0.13322 0.28855
# Poissons Ratio (z) = 0.36825 0.33004
#
# Static dielectric constant tensor:
#      x y z
#    x 5.578390 0.035950 -0.587290 
#    y 0.035950 5.400230 0.091690 
#    z -0.587290 0.091690 5.608870 
# 
# 
# High freq. dielectric constant tensor:
#      x y z
#    x 2.073140 0.016620 -0.001630 
#    y 0.016620 2.119130 -0.004320 
#    z -0.001630 -0.004320 2.111880 
# 
# From -- ./inp_files/49509.got.cif
#   From: 2010.06.25/outbox.cif.g09.slc.cpg/sg2_25_cif.got.tgz:49509.got - 2010.06.27 13:26:56.
