data_PCOD8025496
_publ_section_title
;
Structure prediction by ZEFSAII (Michael W. Deem and Ramdas Pophale) SiO2 
 PCOD8025496
Probable space group: P -1
;
_chemical_formula_sum "Si O2"
_cell_formula_units_Z 14
_cell_length_a 9.214175
_cell_length_b 17.256533
_cell_length_c 15.423672
_cell_angle_alpha 16.953987
_cell_angle_beta 113.067930
_cell_angle_gamma 121.552809
_cell_volume 547.989343
_symmetry_space_group_name_H-M "P -1"
_symmetry_group_IT_number 2
_symmetry_cell_setting 'triclinic'
loop_
_space_group_symop_operation_xyz
x,y,z
-x,-y,-z
loop_
_atom_site_type_symbol
_atom_site_label
_atom_site_fract_x
_atom_site_fract_y
_atom_site_fract_z
Si Si1 0.998935 0.424876 0.208641
Si Si2 0.121762 0.420462 0.672999
Si Si3 0.351759 0.929224 0.666801
Si Si4 0.965113 0.839426 0.890445
Si Si5 0.533302 0.505910 0.400781
Si Si6 0.501235 0.961995 0.231833
Si Si7 0.623476 0.793498 0.788831
O O1 0.075075 0.204058 0.492445
O O2 0.775574 0.189580 0.384770
O O3 0.035931 0.647431 0.062174
O O4 0.125947 0.657024 0.910267
O O5 0.238960 0.315304 0.754546
O O6 0.000000 0.500000 0.500000
O O7 0.272467 0.740838 0.418320
O O8 0.000997 0.160416 0.998187
O O9 0.414343 0.073299 0.622657
O O10 0.456557 0.756391 0.847022
O O11 0.416655 0.256040 0.273920
O O12 0.737700 0.666402 0.999600
O O13 0.500000 0.500000 0.500000
O O14 0.425581 0.153039 0.709047
O O15 0.442211 0.680367 0.149466
#
# Coordination Sequence:
#
# PCOD8025496 Si02
#       7
#     2   2   2   2   2   2   2
#     4  10  24  45  67 100 143 182 234 279 342 410
#     4  10  24  44  71  95 137 180 227 286 352 406
#     4  11  21  46  71 107 137 193 224 291 342 410
#     4  10  23  46  66 100 139 181 231 290 335 414
#     4  10  23  45  68  96 137 173 231 290 340 419
#     4  10  24  42  69 100 136 175 231 284 338 417
#     4   9  23  44  72 102 144 184 237 277 347 411
#
# _framework density 25.547941000000002
#
# number of rings (size 3 to 8) (size 9 to 14) (size 15 to 20)
#    1.714    0.286    0.000    2.571    2.000    3.429 
#    7.714    2.143    0.000    0.000    0.000    0.000 
#    0.000    0.000    0.000    0.000    0.000    0.000 
#
# Total GULP energy -173458.775552 kJ/mol
# GULP energy per Si atom -12389.912539 kJ/mol
# Density = 2.548979 g / cm^3
# Si number density = 25.547941 Si / 1000 Ang^3
#
#
#
# Elastic Constant Matrix: (Units=GPa)
#
#
# Indices 1 2 3 4 5 6 
#
# 1 90.5149 21.1621 2.2306 2.7187 10.1701 -21.4033
# 2 21.1621 58.3362 -90.1159 28.7451 22.2036 11.8752
# 3 2.2306 -90.1159 -67.3625 30.1252 39.0281 24.0662
# 4 2.7187 28.7451 30.1252 41.6203 -4.7531 -1.2284
# 5 10.1701 22.2036 39.0281 -4.7531 46.5561 -3.6852
# 6 -21.4033 11.8752 24.0662 -1.2284 -3.6852 44.4095
#
#
#
# Elastic Compliance Matrix: (Units=1/GPa)
#
#
# Indices 1 2 3 4 5 6 
#
# 1 0.013015 -0.001346 0.001659 -0.001338 -0.003299 0.005423
# 2 -0.001346 0.006361 -0.006278 0.000583 0.002684 0.001291
# 3 0.001659 -0.006278 -0.000609 0.005214 0.003934 0.003279
# 4 -0.001338 0.000583 0.005214 0.019540 -0.002623 -0.003304
# 5 -0.003299 0.002684 0.003934 -0.002623 0.017109 -0.003093
# 6 0.005423 0.001291 0.003279 -0.003304 -0.003093 0.022661
#
#
# Mechanical properties :
#
#
# Convention : Reuss Voigt Hill
#
# Bulk Modulus (GPa) = 146.24388 -5.77310 70.23539
# Shear Modulus (GPa) = 54.17952 36.39796 45.28874
#
# Velocity S-wave (km/s) = 4.61010 3.77860 4.21491
# Velocity P-wave (km/s) = 9.25768 4.09543 7.15811
#
# Compressibility (1/GPa) = 0.00683789
#
# Stress axis : x y z
#
# Youngs Moduli (GPa) = 76.83479 157.19874 -1641.16445
#
# Poissons Ratio (x) = 0.21166 2.72348
# Poissons Ratio (y) = 0.10346 -10.30251
# Poissons Ratio (z) = -0.12751 0.98682
#
# Static dielectric constant tensor:
#      x y z
#    x 4.351940 0.035560 -0.224860 
#    y 0.035560 4.561550 0.043860 
#    z -0.224860 0.043860 4.817900 
# 
# 
# High freq. dielectric constant tensor:
#      x y z
#    x 2.011350 -0.000240 -0.004260 
#    y -0.000240 2.029770 0.001600 
#    z -0.004260 0.001600 2.021200 
# 
# From -- ./inp_files/503520.got.cif
#   From: 2010.06.25/outbox.cif.g09.slc.cpg/sg2_252_cif.got.tgz:503520.got - 2010.06.27 13:26:56.
