data_PCOD8025268
_publ_section_title
;
Structure prediction by ZEFSAII (Michael W. Deem and Ramdas Pophale) SiO2 
 PCOD8025268
Probable space group: P -1
;
_chemical_formula_sum "Si O2"
_cell_formula_units_Z 14
_cell_length_a 4.794312
_cell_length_b 11.373927
_cell_length_c 11.103182
_cell_angle_alpha 109.026251
_cell_angle_beta 77.597235
_cell_angle_gamma 72.433502
_cell_volume 511.687583
_symmetry_space_group_name_H-M "P -1"
_symmetry_group_IT_number 2
_symmetry_cell_setting 'triclinic'
loop_
_space_group_symop_operation_xyz
x,y,z
-x,-y,-z
loop_
_atom_site_type_symbol
_atom_site_label
_atom_site_fract_x
_atom_site_fract_y
_atom_site_fract_z
Si Si1 0.935244 0.554689 0.213869
Si Si2 0.160323 0.112983 0.078395
Si Si3 0.929348 0.077860 0.808826
Si Si4 0.357318 0.528161 0.371157
Si Si5 0.567857 0.981091 0.627554
Si Si6 0.737783 0.714112 0.056265
Si Si7 0.172964 0.289242 0.357066
O O1 0.697514 0.528070 0.319123
O O2 0.782329 0.683916 0.184147
O O3 0.169104 0.591351 0.287773
O O4 0.134394 0.424635 0.074094
O O5 0.140765 0.229018 0.212248
O O6 0.965660 0.029981 0.122371
O O7 0.076918 0.192462 0.982196
O O8 0.500000 0.000000 0.000000
O O9 0.631498 0.215226 0.913816
O O10 0.846438 0.012234 0.672544
O O11 0.251054 0.092468 0.754249
O O12 0.374219 0.377758 0.343574
O O13 0.179256 0.621903 0.532127
O O14 0.631363 0.826054 0.602921
O O15 0.500000 0.000000 0.500000
#
# Coordination Sequence:
#
# PCOD8025268 Si02
#       7
#     2   2   2   2   2   2   2
#     4  11  26  44  70 103 136 187 226 293 337 407
#     4   9  19  45  69 102 135 181 227 281 338 413
#     4  10  24  42  68  99 131 178 224 279 347 402
#     4  11  26  45  71 101 140 183 234 281 347 407
#     4  11  25  42  67 100 133 176 222 282 345 409
#     4  10  23  44  71  99 141 177 235 282 346 406
#     4  10  24  44  72 102 140 183 230 286 343 416
#
# _framework density 27.360446
#
# number of rings (size 3 to 8) (size 9 to 14) (size 15 to 20)
#    0.000    1.714    1.429    0.429    6.000    8.000 
#    0.000    6.429    0.000    0.000    0.000    0.000 
#    0.000    0.000    0.000    0.000    0.000    0.000 
#
# Total GULP energy -173549.034599 kJ/mol
# GULP energy per Si atom -12396.359614 kJ/mol
# Density = 2.729817 g / cm^3
# Si number density = 27.360446 Si / 1000 Ang^3
#
#
#
# Elastic Constant Matrix: (Units=GPa)
#
#
# Indices 1 2 3 4 5 6 
#
# 1 60.2556 -0.5475 7.3275 -1.7398 -4.5686 -0.8566
# 2 -0.5475 150.4333 43.7465 -11.2347 1.2859 -0.2119
# 3 7.3275 43.7465 146.8499 -8.2486 8.1993 -1.4820
# 4 -1.7398 -11.2347 -8.2486 53.9265 -16.1497 8.6356
# 5 -4.5686 1.2859 8.1993 -16.1497 36.7162 -12.2197
# 6 -0.8566 -0.2119 -1.4820 8.6356 -12.2197 30.0306
#
#
#
# Elastic Compliance Matrix: (Units=1/GPa)
#
#
# Indices 1 2 3 4 5 6 
#
# 1 0.017046 0.000445 -0.001087 0.001258 0.003384 0.001451
# 2 0.000445 0.007391 -0.002191 0.001510 0.000915 -0.000105
# 3 -0.001087 -0.002191 0.007625 0.000203 -0.001830 -0.000473
# 4 0.001258 0.001510 0.000203 0.022008 0.008850 -0.002671
# 5 0.003384 0.000915 -0.001830 0.008850 0.035952 0.012097
# 6 0.001451 -0.000105 -0.000473 -0.002671 0.012097 0.039007
#
#
# Mechanical properties :
#
#
# Convention : Reuss Voigt Hill
#
# Bulk Modulus (GPa) = 37.88426 50.95464 44.41945
# Shear Modulus (GPa) = 34.84454 44.60216 39.72335
#
# Velocity S-wave (km/s) = 3.57254 4.04192 3.81445
# Velocity P-wave (km/s) = 5.55822 6.35977 5.97246
#
# Compressibility (1/GPa) = 0.02639618
#
# Stress axis : x y z
#
# Youngs Moduli (GPa) = 58.66575 135.29738 131.13938
#
# Poissons Ratio (x) = -0.06022 0.14253
# Poissons Ratio (y) = -0.02611 0.28737
# Poissons Ratio (z) = 0.06376 0.29649
#
# Static dielectric constant tensor:
#      x y z
#    x 5.113600 0.084390 -0.226450 
#    y 0.084390 5.933920 -0.500470 
#    z -0.226450 -0.500470 5.842030 
# 
# 
# High freq. dielectric constant tensor:
#      x y z
#    x 2.097540 -0.006050 0.020170 
#    y -0.006050 2.122390 -0.002130 
#    z 0.020170 -0.002130 2.133050 
# 
# From -- ./inp_files/364688.got.cif
#   From: 2010.06.25/outbox.cif.g09.slc.cpg/sg2_183_cif.got.tgz:364688.got - 2010.06.27 13:26:56.
