data_PCOD8025241
_publ_section_title
;
Structure prediction by ZEFSAII (Michael W. Deem and Ramdas Pophale) SiO2 
 PCOD8025241
Probable space group: P -1
;
_chemical_formula_sum "Si O2"
_cell_formula_units_Z 16
_cell_length_a 14.398162
_cell_length_b 8.753128
_cell_length_c 14.663149
_cell_angle_alpha 134.493376
_cell_angle_beta 140.410108
_cell_angle_gamma 74.192828
_cell_volume 679.015324
_symmetry_space_group_name_H-M "P -1"
_symmetry_group_IT_number 2
_symmetry_cell_setting 'triclinic'
loop_
_space_group_symop_operation_xyz
x,y,z
-x,-y,-z
loop_
_atom_site_type_symbol
_atom_site_label
_atom_site_fract_x
_atom_site_fract_y
_atom_site_fract_z
Si Si1 0.516740 0.603179 0.222749
Si Si2 0.516908 0.127421 0.970004
Si Si3 0.129207 0.967891 0.026627
Si Si4 0.406766 0.115129 0.428455
Si Si5 0.133107 0.239851 0.866108
Si Si6 0.738148 0.513129 0.745669
Si Si7 0.755241 0.102337 0.485332
Si Si8 0.126293 0.779177 0.760024
O O1 0.619587 0.721704 0.447297
O O2 0.596736 0.853261 0.320743
O O3 0.568934 0.420624 0.144410
O O4 0.299397 0.436032 0.004653
O O5 0.327336 0.940932 0.695880
O O6 0.676044 0.149663 0.043992
O O7 0.500000 0.000000 0.000000
O O8 0.222525 0.897125 0.144800
O O9 0.262340 0.255516 0.203159
O O10 0.045879 0.760255 0.792753
O O11 0.000000 0.000000 0.000000
O O12 0.529041 0.301133 0.517036
O O13 0.500000 0.000000 0.500000
O O14 0.938948 0.123093 0.625413
O O15 0.139861 0.995764 0.795194
O O16 0.150864 0.395523 0.036797
O O17 0.810874 0.383396 0.683339
O O18 0.000000 0.500000 0.500000
#
# Coordination Sequence:
#
# PCOD8025241 Si02
#       8
#     2   2   2   2   2   2   2   2
#     4  11  25  45  74 104 149 191 244 304 371 440
#     4  12  27  48  71 102 144 198 248 298 368 443
#     4  11  27  44  73 111 147 190 248 307 371 438
#     4  11  23  43  73 103 144 188 241 299 371 438
#     4  10  24  46  72 110 142 185 247 306 361 444
#     4  10  23  44  71 106 143 185 240 301 367 442
#     4  12  25  45  76 102 148 192 242 305 376 434
#     4  11  25  48  74 104 150 195 249 304 369 447
#
# _framework density 23.563534000000001
#
# number of rings (size 3 to 8) (size 9 to 14) (size 15 to 20)
#    0.000    1.000    2.500    2.625    7.000    2.500 
#    2.250    0.000    0.000    0.000    0.000    0.000 
#    0.000    0.000    0.000    0.000    0.000    0.000 
#
# Total GULP energy -198323.225251 kJ/mol
# GULP energy per Si atom -12395.201578 kJ/mol
# Density = 2.350990 g / cm^3
# Si number density = 23.563534 Si / 1000 Ang^3
#
#
#
# Elastic Constant Matrix: (Units=GPa)
#
#
# Indices 1 2 3 4 5 6 
#
# 1 125.0570 32.8123 51.4010 -15.0355 -14.2571 -8.1678
# 2 32.8123 93.0730 54.8450 -23.6162 -11.5034 -7.2068
# 3 51.4010 54.8450 132.7338 -24.3232 -12.8611 -4.2086
# 4 -15.0355 -23.6162 -24.3232 45.8182 -9.0400 -1.9915
# 5 -14.2571 -11.5034 -12.8611 -9.0400 35.2679 12.7846
# 6 -8.1678 -7.2068 -4.2086 -1.9915 12.7846 38.8675
#
#
#
# Elastic Compliance Matrix: (Units=1/GPa)
#
#
# Indices 1 2 3 4 5 6 
#
# 1 0.010022 -0.000966 -0.002827 0.001898 0.002917 0.000759
# 2 -0.000966 0.016076 -0.004628 0.006429 0.004392 0.001161
# 3 -0.002827 -0.004628 0.011353 0.003195 0.002643 -0.000929
# 4 0.001898 0.006429 0.003195 0.029771 0.011814 -0.000424
# 5 0.002917 0.004392 0.002643 0.011814 0.038737 -0.010423
# 6 0.000759 0.001161 -0.000929 -0.000424 -0.010423 0.029409
#
#
# Mechanical properties :
#
#
# Convention : Reuss Voigt Hill
#
# Bulk Modulus (GPa) = 48.52312 69.88673 59.20492
# Shear Modulus (GPa) = 31.43061 38.11109 34.77085
#
# Velocity S-wave (km/s) = 3.65618 4.02602 3.84555
# Velocity P-wave (km/s) = 6.20167 7.16485 6.70059
#
# Compressibility (1/GPa) = 0.02060873
#
# Stress axis : x y z
#
# Youngs Moduli (GPa) = 99.77747 62.20400 88.08182
#
# Poissons Ratio (x) = 0.06011 0.24903
# Poissons Ratio (y) = 0.09642 0.40762
# Poissons Ratio (z) = 0.28210 0.28787
#
# Static dielectric constant tensor:
#      x y z
#    x 2.824050 -1.311730 0.022920 
#    y -1.311730 3.200940 0.189140 
#    z 0.022920 0.189140 4.285610 
# 
# 
# High freq. dielectric constant tensor:
#      x y z
#    x 1.940650 -0.003390 -0.007280 
#    y -0.003390 1.934940 0.002800 
#    z -0.007280 0.002800 1.929590 
# 
# From -- ./inp_files/530168.got.cif
#   From: 2010.06.25/outbox.cif.g09.slc.cpg/sg2_266_cif.got.tgz:530168.got - 2010.06.27 13:26:56.
