data_PCOD8025887
_publ_section_title
;
Structure prediction by ZEFSAII (Michael W. Deem and Ramdas Pophale) SiO2 
 PCOD8025887
Probable space group: P -1
;
_chemical_formula_sum "Si O2"
_cell_formula_units_Z 16
_cell_length_a 11.206002
_cell_length_b 10.959505
_cell_length_c 6.426979
_cell_angle_alpha 80.315188
_cell_angle_beta 67.865895
_cell_angle_gamma 65.161455
_cell_volume 663.462080
_symmetry_space_group_name_H-M "P -1"
_symmetry_group_IT_number 2
_symmetry_cell_setting 'triclinic'
loop_
_space_group_symop_operation_xyz
x,y,z
-x,-y,-z
loop_
_atom_site_type_symbol
_atom_site_label
_atom_site_fract_x
_atom_site_fract_y
_atom_site_fract_z
Si Si1 0.840250 0.582065 0.556413
Si Si2 0.368420 0.554750 0.722731
Si Si3 0.354524 0.287870 0.996782
Si Si4 0.190898 0.672942 0.442522
Si Si5 0.890265 0.981176 0.880676
Si Si6 0.640132 0.232844 0.999980
Si Si7 0.905956 0.908129 0.438481
Si Si8 0.791886 0.797392 0.213512
O O1 0.765615 0.477203 0.632767
O O2 0.835554 0.647408 0.312818
O O3 0.000000 0.500000 0.500000
O O4 0.770056 0.686150 0.760407
O O5 0.500000 0.500000 0.500000
O O6 0.344387 0.429781 0.873283
O O7 0.226085 0.653362 0.670997
O O8 0.400999 0.646061 0.845754
O O9 0.501295 0.209417 0.036639
O O10 0.338106 0.186310 0.858315
O O11 0.296327 0.730730 0.258230
O O12 0.029734 0.766803 0.468570
O O13 0.754886 0.092291 0.052403
O O14 0.031076 0.013479 0.793219
O O15 0.850968 0.996495 0.654264
O O16 0.908268 0.833040 0.995302
O O17 0.778237 0.885425 0.410612
#
# Coordination Sequence:
#
# PCOD8025887 Si02
#       8
#     2   2   2   2   2   2   2   2
#     4  12  25  43  64 101 148 181 216 284 351 413
#     4  12  23  42  73 106 137 179 233 283 347 408
#     4  12  26  43  69 103 143 180 230 287 347 411
#     4  11  22  41  70 105 133 183 226 285 347 404
#     4  10  25  47  70  98 133 188 234 285 337 407
#     4  11  25  46  72  99 139 182 236 288 339 399
#     4  10  23  46  71  98 142 173 235 290 337 407
#     4  12  25  43  69 102 138 186 224 277 346 417
#
# _framework density 24.115924
#
# number of rings (size 3 to 8) (size 9 to 14) (size 15 to 20)
#    0.000    0.750    5.000    2.250    0.000    7.000 
#    0.000    1.250    0.000    0.000    0.000    0.000 
#    0.000    0.000    0.000    0.000    0.000    0.000 
#
# Total GULP energy -198217.007071 kJ/mol
# GULP energy per Si atom -12388.562942 kJ/mol
# Density = 2.406103 g / cm^3
# Si number density = 24.115924 Si / 1000 Ang^3
#
#
#
# Elastic Constant Matrix: (Units=GPa)
#
#
# Indices 1 2 3 4 5 6 
#
# 1 143.2788 38.7185 30.6247 17.5902 17.8151 19.4039
# 2 38.7185 86.1396 37.1328 -2.2988 -4.6228 10.8020
# 3 30.6247 37.1328 81.8555 -9.7217 -12.1783 -5.9705
# 4 17.5902 -2.2988 -9.7217 46.2492 5.8330 4.8794
# 5 17.8151 -4.6228 -12.1783 5.8330 35.1660 6.3540
# 6 19.4039 10.8020 -5.9705 4.8794 6.3540 39.5235
#
#
#
# Elastic Compliance Matrix: (Units=1/GPa)
#
#
# Indices 1 2 3 4 5 6 
#
# 1 0.010281 -0.002808 -0.004137 -0.003825 -0.005742 -0.003510
# 2 -0.002808 0.016251 -0.006246 0.000770 0.002069 -0.004434
# 3 -0.004137 -0.006246 0.018324 0.003815 0.006074 0.005059
# 4 -0.003825 0.000770 0.003815 0.024050 -0.000513 -0.000643
# 5 -0.005742 0.002069 0.006074 -0.000513 0.034215 -0.002266
# 6 -0.003510 -0.004434 0.005059 -0.000643 -0.002266 0.029444
#
#
# Mechanical properties :
#
#
# Convention : Reuss Voigt Hill
#
# Bulk Modulus (GPa) = 54.12986 58.24733 56.18859
# Shear Modulus (GPa) = 30.28362 37.84093 34.06228
#
# Velocity S-wave (km/s) = 3.54750 3.96552 3.76232
# Velocity P-wave (km/s) = 6.26691 6.72106 6.49795
#
# Compressibility (1/GPa) = 0.01847409
#
# Stress axis : x y z
#
# Youngs Moduli (GPa) = 97.26309 61.53366 54.57428
#
# Poissons Ratio (x) = 0.17278 0.22579
# Poissons Ratio (y) = 0.27310 0.34086
# Poissons Ratio (z) = 0.40241 0.38433
#
# Static dielectric constant tensor:
#      x y z
#    x 4.400720 0.308230 0.337420 
#    y 0.308230 4.568680 -0.105530 
#    z 0.337420 -0.105530 4.657110 
# 
# 
# High freq. dielectric constant tensor:
#      x y z
#    x 1.953690 0.026520 0.020640 
#    y 0.026520 1.948810 -0.021640 
#    z 0.020640 -0.021640 1.965720 
# 
# From -- ./inp_files/69708.got.cif
#   From: 2010.06.25/outbox.cif.g09.slc.cpg/sg2_35_cif.got.tgz:69708.got - 2010.06.27 13:26:56.
