data_PCOD8025845
_publ_section_title
;
Structure prediction by ZEFSAII (Michael W. Deem and Ramdas Pophale) SiO2 
 PCOD8025845
Probable space group: P -1
;
_chemical_formula_sum "Si O2"
_cell_formula_units_Z 12
_cell_length_a 4.871895
_cell_length_b 10.046451
_cell_length_c 12.025013
_cell_angle_alpha 123.226854
_cell_angle_beta 63.454238
_cell_angle_gamma 113.138214
_cell_volume 431.730027
_symmetry_space_group_name_H-M "P -1"
_symmetry_group_IT_number 2
_symmetry_cell_setting 'triclinic'
loop_
_space_group_symop_operation_xyz
x,y,z
-x,-y,-z
loop_
_atom_site_type_symbol
_atom_site_label
_atom_site_fract_x
_atom_site_fract_y
_atom_site_fract_z
Si Si1 0.322828 0.631408 0.447000
Si Si2 0.859987 0.246164 0.858646
Si Si3 0.712962 0.922851 0.843753
Si Si4 0.022876 0.815744 0.421966
Si Si5 0.151428 0.695597 0.741351
Si Si6 0.338838 0.539400 0.842812
O O1 0.175506 0.778493 0.493448
O O2 0.168896 0.581957 0.573976
O O3 0.326131 0.480875 0.287418
O O4 0.691593 0.694993 0.418421
O O5 0.758603 0.224178 0.737643
O O6 0.184699 0.378956 0.865453
O O7 0.929522 0.074547 0.811065
O O8 0.599960 0.311451 0.011399
O O9 0.499622 0.809043 0.739846
O O10 0.913812 0.817727 0.829441
O O11 0.500000 0.000000 0.000000
O O12 0.000000 0.000000 0.500000
O O13 0.103539 0.584864 0.810584
#
# Coordination Sequence:
#
# PCOD8025845 Si02
#       6
#     2   2   2   2   2   2
#     4  11  24  43  68 101 140 181 232 282 346 414
#     4  10  23  46  70 102 143 181 236 286 350 411
#     4  12  26  47  72 105 138 183 237 290 346 412
#     4  11  23  43  68 102 137 186 230 286 345 409
#     4  12  25  47  74 103 141 183 237 288 346 415
#     4  10  24  45  71 106 142 188 228 288 353 416
#
# _framework density 27.795144000000001
#
# number of rings (size 3 to 8) (size 9 to 14) (size 15 to 20)
#    0.000    1.000    1.667    4.500    0.000    7.333 
#    3.000    5.833    0.000    0.000    0.000    0.000 
#    0.000    0.000    0.000    0.000    0.000    0.000 
#
# Total GULP energy -148754.167770 kJ/mol
# GULP energy per Si atom -12396.180647 kJ/mol
# Density = 2.773188 g / cm^3
# Si number density = 27.795144 Si / 1000 Ang^3
#
#
#
# Elastic Constant Matrix: (Units=GPa)
#
#
# Indices 1 2 3 4 5 6 
#
# 1 80.7940 30.0841 28.5577 -4.2422 -17.3106 -31.2744
# 2 30.0841 173.8519 22.4224 -1.5380 -14.5131 -8.9869
# 3 28.5577 22.4224 177.6186 -13.0054 -2.4754 -10.3054
# 4 -4.2422 -1.5380 -13.0054 44.4440 -1.0344 2.6619
# 5 -17.3106 -14.5131 -2.4754 -1.0344 43.9067 2.9426
# 6 -31.2744 -8.9869 -10.3054 2.6619 2.9426 42.9542
#
#
#
# Elastic Compliance Matrix: (Units=1/GPa)
#
#
# Indices 1 2 3 4 5 6 
#
# 1 0.020532 -0.002039 -0.002125 0.000606 0.006408 0.013536
# 2 -0.002039 0.006251 -0.000470 -0.000064 0.001259 -0.000372
# 3 -0.002125 -0.000470 0.006124 0.001573 -0.000595 -0.000233
# 4 0.000606 -0.000064 0.001573 0.023078 0.000896 -0.000686
# 5 0.006408 0.001259 -0.000595 0.000896 0.025506 0.002984
# 6 0.013536 -0.000372 -0.000233 -0.000686 0.002984 0.032841
#
#
# Mechanical properties :
#
#
# Convention : Reuss Voigt Hill
#
# Bulk Modulus (GPa) = 42.30148 66.04366 54.17257
# Shear Modulus (GPa) = 38.02900 49.67434 43.85167
#
# Velocity S-wave (km/s) = 3.70292 4.23207 3.97630
# Velocity P-wave (km/s) = 5.79087 6.90601 6.37288
#
# Compressibility (1/GPa) = 0.02363984
#
# Stress axis : x y z
#
# Youngs Moduli (GPa) = 48.70499 159.97979 163.28179
#
# Poissons Ratio (x) = 0.32617 0.34693
# Poissons Ratio (y) = 0.09930 0.07674
# Poissons Ratio (z) = 0.10348 0.07519
#
# Static dielectric constant tensor:
#      x y z
#    x 5.179920 0.407740 0.250550 
#    y 0.407740 5.587630 0.126810 
#    z 0.250550 0.126810 5.871670 
# 
# 
# High freq. dielectric constant tensor:
#      x y z
#    x 2.101500 0.015060 0.000540 
#    y 0.015060 2.149480 0.002030 
#    z 0.000540 0.002030 2.151180 
# 
# From -- ./inp_files/62611.got.cif
#   From: 2010.06.25/outbox.cif.g09.slc.cpg/sg2_32_cif.got.tgz:62611.got - 2010.06.27 13:26:56.
