data_PCOD8025074
_publ_section_title
;
Structure prediction by ZEFSAII (Michael W. Deem and Ramdas Pophale) SiO2 
 PCOD8025074
Probable space group: P -1
;
_chemical_formula_sum "Si O2"
_cell_formula_units_Z 16
_cell_length_a 8.564289
_cell_length_b 9.282979
_cell_length_c 25.338486
_cell_angle_alpha 139.833759
_cell_angle_beta 140.011563
_cell_angle_gamma 67.795453
_cell_volume 722.752538
_symmetry_space_group_name_H-M "P -1"
_symmetry_group_IT_number 2
_symmetry_cell_setting 'triclinic'
loop_
_space_group_symop_operation_xyz
x,y,z
-x,-y,-z
loop_
_atom_site_type_symbol
_atom_site_label
_atom_site_fract_x
_atom_site_fract_y
_atom_site_fract_z
Si Si1 0.871059 0.859205 0.733038
Si Si2 0.458939 0.305368 0.982209
Si Si3 0.723256 0.324721 0.521894
Si Si4 0.338310 0.328639 0.765791
Si Si5 0.717769 0.537921 0.332505
Si Si6 0.713202 0.980849 0.510647
Si Si7 0.266828 0.966379 0.069187
Si Si8 0.777563 0.212289 0.877791
O O1 0.866863 0.591300 0.668792
O O2 0.588800 0.762306 0.599851
O O3 0.858377 0.999283 0.821809
O O4 0.144204 0.059405 0.826636
O O5 0.492663 0.429106 0.083391
O O6 0.500000 0.500000 0.000000
O O7 0.682041 0.202129 0.008696
O O8 0.953022 0.374513 0.549873
O O9 0.692150 0.085331 0.478434
O O10 0.342504 0.420468 0.732556
O O11 0.487551 0.154462 0.758499
O O12 0.030000 0.154873 0.662112
O O13 0.637644 0.689697 0.397164
O O14 0.538887 0.244341 0.220736
O O15 0.500000 0.000000 0.500000
O O16 0.238701 0.803940 0.068445
O O17 0.000000 0.000000 0.000000
O O18 0.000000 0.500000 0.000000
#
# Coordination Sequence:
#
# PCOD8025074 Si02
#       8
#     2   2   2   2   2   2   2   2
#     4  11  23  42  71  97 138 175 237 283 346 421
#     4  12  25  46  71 106 141 183 239 289 348 416
#     4  10  23  44  68  97 134 185 223 289 348 417
#     4  11  24  45  73  96 139 191 228 283 352 421
#     4  11  24  48  68 100 141 183 231 287 351 422
#     4  11  26  43  69 100 136 180 234 283 349 413
#     4  12  28  42  69 104 144 181 231 297 346 411
#     4  12  23  44  67 101 135 184 228 282 359 413
#
# _framework density 22.137591
#
# number of rings (size 3 to 8) (size 9 to 14) (size 15 to 20)
#    0.000    0.750    3.750    3.750    5.250    1.500 
#    0.000    1.250    0.000    0.000    0.000    0.000 
#    0.000    0.000    0.000    0.000    0.000    0.000 
#
# Total GULP energy -198300.671433 kJ/mol
# GULP energy per Si atom -12393.791965 kJ/mol
# Density = 2.208720 g / cm^3
# Si number density = 22.137591 Si / 1000 Ang^3
#
#
#
# Elastic Constant Matrix: (Units=GPa)
#
#
# Indices 1 2 3 4 5 6 
#
# 1 127.5559 22.7935 43.1863 6.4371 4.6698 -25.2253
# 2 22.7935 71.2887 25.9061 1.7575 10.8163 -10.4754
# 3 43.1863 25.9061 101.0522 4.0050 10.3698 3.0999
# 4 6.4371 1.7575 4.0050 37.9586 -11.9518 0.0250
# 5 4.6698 10.8163 10.3698 -11.9518 48.9339 5.9290
# 6 -25.2253 -10.4754 3.0999 0.0250 5.9290 42.0601
#
#
#
# Elastic Compliance Matrix: (Units=1/GPa)
#
#
# Indices 1 2 3 4 5 6 
#
# 1 0.011002 -0.000609 -0.004565 -0.001744 -0.001217 0.006956
# 2 -0.000609 0.016887 -0.003763 -0.001482 -0.003803 0.004655
# 3 -0.004565 -0.003763 0.013100 -0.000796 -0.001161 -0.004477
# 4 -0.001744 -0.001482 -0.000796 0.029357 0.008138 -0.002521
# 5 -0.001217 -0.003803 -0.001161 0.008138 0.024234 -0.005012
# 6 0.006956 0.004655 -0.004477 -0.002521 -0.005012 0.030145
#
#
# Mechanical properties :
#
#
# Convention : Reuss Voigt Hill
#
# Bulk Modulus (GPa) = 43.26239 53.74095 48.50167
# Shear Modulus (GPa) = 33.26608 39.65791 36.46200
#
# Velocity S-wave (km/s) = 3.88067 4.23712 4.06280
# Velocity P-wave (km/s) = 6.29797 6.94738 6.63063
#
# Compressibility (1/GPa) = 0.02311477
#
# Stress axis : x y z
#
# Youngs Moduli (GPa) = 90.89001 59.21649 76.33862
#
# Poissons Ratio (x) = 0.03607 0.34851
# Poissons Ratio (y) = 0.05536 0.28724
# Poissons Ratio (z) = 0.41494 0.22281
#
# Static dielectric constant tensor:
#      x y z
#    x 3.490020 -0.428900 -0.283050 
#    y -0.428900 4.128310 0.157820 
#    z -0.283050 0.157820 4.003430 
# 
# 
# High freq. dielectric constant tensor:
#      x y z
#    x 1.882000 -0.031270 0.008450 
#    y -0.031270 1.864800 0.013290 
#    z 0.008450 0.013290 1.882580 
# 
# From -- ./inp_files/447170.got.cif
#   From: 2010.06.25/outbox.cif.g09.slc.cpg/sg2_224_cif.got.tgz:447170.got - 2010.06.27 13:26:56.
