data_PCOD8025254
_publ_section_title
;
Structure prediction by ZEFSAII (Michael W. Deem and Ramdas Pophale) SiO2 
 PCOD8025254
Probable space group: P -1
;
_chemical_formula_sum "Si O2"
_cell_formula_units_Z 14
_cell_length_a 13.681181
_cell_length_b 8.600927
_cell_length_c 14.173240
_cell_angle_alpha 144.696574
_cell_angle_beta 40.101903
_cell_angle_gamma 137.746461
_cell_volume 589.964146
_symmetry_space_group_name_H-M "P -1"
_symmetry_group_IT_number 2
_symmetry_cell_setting 'triclinic'
loop_
_space_group_symop_operation_xyz
x,y,z
-x,-y,-z
loop_
_atom_site_type_symbol
_atom_site_label
_atom_site_fract_x
_atom_site_fract_y
_atom_site_fract_z
Si Si1 0.489487 0.692847 0.778973
Si Si2 0.716931 0.942185 0.891005
Si Si3 0.672955 0.166574 0.733143
Si Si4 0.133341 0.819251 0.721786
Si Si5 0.225114 0.197138 0.013531
Si Si6 0.019243 0.172407 0.476409
Si Si7 0.595896 0.944138 0.489649
O O1 0.452380 0.385262 0.609634
O O2 0.580730 0.700977 0.815260
O O3 0.607215 0.931999 0.744665
O O4 0.322586 0.763073 0.950464
O O5 0.697284 0.872068 0.981839
O O6 0.892977 0.964117 0.734381
O O7 0.686754 0.475561 0.917178
O O8 0.844502 0.159858 0.564693
O O9 0.565819 0.103991 0.685711
O O10 0.126329 0.493981 0.577617
O O11 0.961764 0.858539 0.860168
O O12 0.219146 0.941651 0.621281
O O13 0.239964 0.992193 0.816015
O O14 0.000000 0.000000 0.500000
O O15 0.500000 0.000000 0.500000
#
# Coordination Sequence:
#
# PCOD8025254 Si02
#       7
#     2   2   2   2   2   2   2
#     4  11  26  42  67 102 137 172 224 273 333 402
#     4  11  24  43  68  97 135 178 220 269 340 388
#     4  11  24  44  71  97 132 179 228 272 327 399
#     4  10  24  42  67 101 130 173 230 273 323 400
#     4  10  23  44  71  95 134 177 223 276 331 388
#     4  11  22  43  72  96 131 173 226 277 328 387
#     4  12  26  43  69  97 138 174 222 273 333 400
#
# _framework density 23.730257999999999
#
# number of rings (size 3 to 8) (size 9 to 14) (size 15 to 20)
#    0.000    1.143    1.429    3.857    6.000    5.143 
#    0.000    2.143    0.000    0.000    0.000    0.000 
#    0.000    0.000    0.000    0.000    0.000    0.000 
#
# Total GULP energy -173607.777227 kJ/mol
# GULP energy per Si atom -12400.555516 kJ/mol
# Density = 2.367625 g / cm^3
# Si number density = 23.730258 Si / 1000 Ang^3
#
#
#
# Elastic Constant Matrix: (Units=GPa)
#
#
# Indices 1 2 3 4 5 6 
#
# 1 107.5922 23.6805 18.3069 13.5554 21.0831 -13.3221
# 2 23.6805 127.7596 36.1854 24.5025 17.5340 -12.5396
# 3 18.3069 36.1854 95.4420 11.7859 16.1051 -2.3671
# 4 13.5554 24.5025 11.7859 38.8518 1.4433 2.8340
# 5 21.0831 17.5340 16.1051 1.4433 42.2830 -5.9970
# 6 -13.3221 -12.5396 -2.3671 2.8340 -5.9970 28.6704
#
#
#
# Elastic Compliance Matrix: (Units=1/GPa)
#
#
# Indices 1 2 3 4 5 6 
#
# 1 0.011399 -0.000065 -0.000800 -0.003862 -0.004564 0.004629
# 2 -0.000065 0.010538 -0.002711 -0.006033 -0.002470 0.004435
# 3 -0.000800 -0.002711 0.012381 -0.001567 -0.003291 -0.001069
# 4 -0.003862 -0.006033 -0.001567 0.031774 0.002934 -0.007089
# 5 -0.004564 -0.002470 -0.003291 0.002934 0.028412 0.002180
# 6 0.004629 0.004435 -0.001069 -0.007089 0.002180 0.040039
#
#
# Mechanical properties :
#
#
# Convention : Reuss Voigt Hill
#
# Bulk Modulus (GPa) = 36.81075 54.12658 45.46867
# Shear Modulus (GPa) = 33.16717 38.80245 35.98481
#
# Velocity S-wave (km/s) = 3.74260 4.04808 3.89834
# Velocity P-wave (km/s) = 5.84995 6.68640 6.28211
#
# Compressibility (1/GPa) = 0.02716598
#
# Stress axis : x y z
#
# Youngs Moduli (GPa) = 87.72902 94.89056 80.76770
#
# Poissons Ratio (x) = 0.00616 0.06462
# Poissons Ratio (y) = 0.00569 0.21898
# Poissons Ratio (z) = 0.07019 0.25727
#
# Static dielectric constant tensor:
#      x y z
#    x 4.465640 -0.056460 0.178440 
#    y -0.056460 4.812320 -0.579130 
#    z 0.178440 -0.579130 4.871700 
# 
# 
# High freq. dielectric constant tensor:
#      x y z
#    x 1.948280 0.002660 -0.003680 
#    y 0.002660 1.938090 -0.011600 
#    z -0.003680 -0.011600 1.949270 
# 
# From -- ./inp_files/332802.got.cif
#   From: 2010.06.25/outbox.cif.g09.slc.cpg/sg2_167_cif.got.tgz:332802.got - 2010.06.27 13:26:56.
