data_PCOD8025999
_publ_section_title
;
Structure prediction by ZEFSAII (Michael W. Deem and Ramdas Pophale) SiO2 
 PCOD8025999
Probable space group: P -1
;
_chemical_formula_sum "Si O2"
_cell_formula_units_Z 16
_cell_length_a 16.084432
_cell_length_b 7.815461
_cell_length_c 6.903241
_cell_angle_alpha 96.083968
_cell_angle_beta 87.549253
_cell_angle_gamma 125.057244
_cell_volume 706.176267
_symmetry_space_group_name_H-M "P -1"
_symmetry_group_IT_number 2
_symmetry_cell_setting 'triclinic'
loop_
_space_group_symop_operation_xyz
x,y,z
-x,-y,-z
loop_
_atom_site_type_symbol
_atom_site_label
_atom_site_fract_x
_atom_site_fract_y
_atom_site_fract_z
Si Si1 0.060493 0.233967 0.941923
Si Si2 0.291092 0.176606 0.427895
Si Si3 0.071675 0.786803 0.373870
Si Si4 0.427526 0.767548 0.892796
Si Si5 0.428601 0.505640 0.163122
Si Si6 0.465060 0.155738 0.478978
Si Si7 0.895472 0.567903 0.635396
Si Si8 0.243490 0.451211 0.666199
O O1 0.108439 0.391671 0.135071
O O2 0.153335 0.293686 0.801352
O O3 0.983413 0.266237 0.835552
O O4 0.000000 0.000000 0.000000
O O5 0.338339 0.280461 0.225785
O O6 0.344255 0.060883 0.482837
O O7 0.306152 0.350404 0.600935
O O8 0.171156 0.021034 0.389612
O O9 0.104830 0.636098 0.407335
O O10 0.996100 0.766488 0.546846
O O11 0.498097 0.749283 0.729311
O O12 0.323095 0.688469 0.775419
O O13 0.382252 0.607278 0.056712
O O14 0.500000 0.000000 0.000000
O O15 0.488806 0.655523 0.354546
O O16 0.500000 0.500000 0.000000
O O17 0.500000 0.000000 0.500000
O O18 0.796243 0.519426 0.529112
#
# Coordination Sequence:
#
# PCOD8025999 Si02
#       8
#     2   2   2   2   2   2   2   2
#     4  11  23  43  72 103 143 183 233 292 360 434
#     4  12  25  44  71 103 141 186 243 294 363 428
#     4  10  24  43  69 105 139 183 235 291 363 427
#     4  12  26  45  70 103 139 186 243 294 361 431
#     4  12  25  45  69  97 144 184 238 306 355 424
#     4  12  26  48  71  99 144 188 237 304 361 428
#     4  10  23  47  70  99 148 181 229 302 358 429
#     4  11  26  43  70 104 138 189 239 294 361 430
#
# _framework density 22.657230999999999
#
# number of rings (size 3 to 8) (size 9 to 14) (size 15 to 20)
#    0.000    0.750    3.750    3.000    5.250    3.000 
#    2.250    0.000    0.000    0.000    0.000    0.000 
#    0.000    0.000    0.000    0.000    0.000    0.000 
#
# Total GULP energy -198264.849776 kJ/mol
# GULP energy per Si atom -12391.553111 kJ/mol
# Density = 2.260566 g / cm^3
# Si number density = 22.657231 Si / 1000 Ang^3
#
#
#
# Elastic Constant Matrix: (Units=GPa)
#
#
# Indices 1 2 3 4 5 6 
#
# 1 131.3239 45.7190 51.9293 3.2553 11.4691 4.1104
# 2 45.7190 104.3485 41.0983 -0.1469 4.8442 16.0942
# 3 51.9293 41.0983 150.7489 4.5784 1.9260 9.2441
# 4 3.2553 -0.1469 4.5784 40.6701 2.3023 4.7373
# 5 11.4691 4.8442 1.9260 2.3023 39.5353 1.0615
# 6 4.1104 16.0942 9.2441 4.7373 1.0615 34.3979
#
#
#
# Elastic Compliance Matrix: (Units=1/GPa)
#
#
# Indices 1 2 3 4 5 6 
#
# 1 0.010004 -0.003472 -0.002530 -0.000541 -0.002356 0.001256
# 2 -0.003472 0.012697 -0.001981 0.001167 -0.000382 -0.005142
# 3 -0.002530 -0.001981 0.008111 -0.000652 0.000643 -0.000881
# 4 -0.000541 0.001167 -0.000652 0.025219 -0.001323 -0.003739
# 5 -0.002356 -0.000382 0.000643 -0.001323 0.026079 -0.000335
# 6 0.001256 -0.005142 -0.000881 -0.003739 -0.000335 0.032089
#
#
# Mechanical properties :
#
#
# Convention : Reuss Voigt Hill
#
# Bulk Modulus (GPa) = 67.35708 73.76828 70.56268
# Shear Modulus (GPa) = 37.00612 39.43232 38.21922
#
# Velocity S-wave (km/s) = 4.04580 4.17632 4.11158
# Velocity P-wave (km/s) = 7.18456 7.47560 7.33152
#
# Compressibility (1/GPa) = 0.01484625
#
# Stress axis : x y z
#
# Youngs Moduli (GPa) = 99.96351 78.75850 123.29394
#
# Poissons Ratio (x) = 0.27342 0.31194
# Poissons Ratio (y) = 0.34704 0.24423
# Poissons Ratio (z) = 0.25291 0.15601
#
# Static dielectric constant tensor:
#      x y z
#    x 4.212130 0.092790 0.009910 
#    y 0.092790 4.131490 -0.326440 
#    z 0.009910 -0.326440 4.595690 
# 
# 
# High freq. dielectric constant tensor:
#      x y z
#    x 1.896700 0.007710 0.004100 
#    y 0.007710 1.887510 -0.009140 
#    z 0.004100 -0.009140 1.909960 
# 
# From -- ./inp_files/107190.got.cif
#   From: 2010.06.25/outbox.cif.g09.slc.cpg/sg2_54_cif.got.tgz:107190.got - 2010.06.27 13:26:56.
