data_PCOD8025188
_publ_section_title
;
Structure prediction by ZEFSAII (Michael W. Deem and Ramdas Pophale) SiO2 
 PCOD8025188
Probable space group: P -1
;
_chemical_formula_sum "Si O2"
_cell_formula_units_Z 12
_cell_length_a 5.306136
_cell_length_b 8.975391
_cell_length_c 13.884389
_cell_angle_alpha 55.838584
_cell_angle_beta 109.679933
_cell_angle_gamma 100.590522
_cell_volume 515.176480
_symmetry_space_group_name_H-M "P -1"
_symmetry_group_IT_number 2
_symmetry_cell_setting 'triclinic'
loop_
_space_group_symop_operation_xyz
x,y,z
-x,-y,-z
loop_
_atom_site_type_symbol
_atom_site_label
_atom_site_fract_x
_atom_site_fract_y
_atom_site_fract_z
Si Si1 0.874502 0.076855 0.551759
Si Si2 0.714138 0.602327 0.928277
Si Si3 0.742435 0.352882 0.760963
Si Si4 0.412553 0.281939 0.333318
Si Si5 0.058966 0.867819 0.969558
Si Si6 0.179602 0.171425 0.743414
O O1 0.688114 0.246098 0.438129
O O2 0.084593 0.145622 0.631362
O O3 0.721598 0.908033 0.637998
O O4 0.000000 0.000000 0.500000
O O5 0.554827 0.626988 0.799327
O O6 0.783035 0.797599 0.911984
O O7 0.500000 0.500000 0.000000
O O8 0.000000 0.500000 0.000000
O O9 0.750952 0.571314 0.676359
O O10 0.960307 0.277619 0.741275
O O11 0.787330 0.299168 0.899249
O O12 0.551024 0.718682 0.275579
O O13 0.230724 0.975860 0.871676
O O14 0.000000 0.000000 0.000000
#
# Coordination Sequence:
#
# PCOD8025188 Si02
#       6
#     2   2   2   2   2   2
#     4  11  28  48  76 100 146 196 246 301 353 429
#     4  12  27  44  75 109 143 186 238 298 364 427
#     4  11  26  44  74 104 145 186 241 296 363 424
#     4  11  27  48  71 108 144 191 247 299 359 431
#     4  10  23  44  70 106 147 184 233 291 362 427
#     4  11  26  47  71 106 143 194 236 294 358 432
#
# _framework density 23.292988999999999
#
# number of rings (size 3 to 8) (size 9 to 14) (size 15 to 20)
#    0.000    1.000    3.333    0.500   14.000    4.000 
#    0.000    0.000    0.000    0.000    0.000    0.000 
#    0.000    0.000    0.000    0.000    0.000    0.000 
#
# Total GULP energy -148713.533947 kJ/mol
# GULP energy per Si atom -12392.794496 kJ/mol
# Density = 2.323997 g / cm^3
# Si number density = 23.292989 Si / 1000 Ang^3
#
#
#
# Elastic Constant Matrix: (Units=GPa)
#
#
# Indices 1 2 3 4 5 6 
#
# 1 97.5092 13.7997 22.5628 0.3456 1.8571 0.1302
# 2 13.7997 96.6548 29.3010 8.9808 13.9722 1.5916
# 3 22.5628 29.3010 126.7212 12.6821 16.7663 -13.5518
# 4 0.3456 8.9808 12.6821 46.3968 -3.1548 6.3875
# 5 1.8571 13.9722 16.7663 -3.1548 33.4516 0.6292
# 6 0.1302 1.5916 -13.5518 6.3875 0.6292 37.7804
#
#
#
# Elastic Compliance Matrix: (Units=1/GPa)
#
#
# Indices 1 2 3 4 5 6 
#
# 1 0.010855 -0.001158 -0.001971 0.000866 0.000967 -0.000858
# 2 -0.001158 0.011871 -0.001881 -0.001949 -0.004121 -0.000773
# 3 -0.001971 -0.001881 0.010069 -0.003278 -0.004542 0.004328
# 4 0.000866 -0.001949 -0.003278 0.023861 0.004757 -0.005210
# 5 0.000967 -0.004121 -0.004542 0.004757 0.034340 -0.002835
# 6 -0.000858 -0.000773 0.004328 -0.005210 -0.002835 0.028985
#
#
# Mechanical properties :
#
#
# Convention : Reuss Voigt Hill
#
# Bulk Modulus (GPa) = 43.90981 50.24583 47.07782
# Shear Modulus (GPa) = 36.33883 40.54053 38.43968
#
# Velocity S-wave (km/s) = 3.95406 4.17641 4.06676
# Velocity P-wave (km/s) = 6.30382 6.69885 6.50434
#
# Compressibility (1/GPa) = 0.02277395
#
# Stress axis : x y z
#
# Youngs Moduli (GPa) = 92.12186 84.23755 99.31323
#
# Poissons Ratio (x) = 0.09758 0.19578
# Poissons Ratio (y) = 0.10671 0.18682
# Poissons Ratio (z) = 0.18161 0.15846
#
# Static dielectric constant tensor:
#      x y z
#    x 6.143430 5.572790 -4.523350 
#    y 5.572790 19.129260 -13.017020 
#    z -4.523350 -13.017020 16.891390 
# 
# 
# High freq. dielectric constant tensor:
#      x y z
#    x 1.897840 -0.000400 0.005760 
#    y -0.000400 1.946180 0.000320 
#    z 0.005760 0.000320 1.935550 
# 
# From -- ./inp_files/479580.got.cif
#   From: 2010.06.25/outbox.cif.g09.slc.cpg/sg2_240_cif.got.tgz:479580.got - 2010.06.27 13:26:56.
