data_PCOD8025547
_publ_section_title
;
Structure prediction by ZEFSAII (Michael W. Deem and Ramdas Pophale) SiO2 
 PCOD8025547
Probable space group: P -1
;
_chemical_formula_sum "Si O2"
_cell_formula_units_Z 16
_cell_length_a 21.338763
_cell_length_b 8.701681
_cell_length_c 24.148305
_cell_angle_alpha 29.365499
_cell_angle_beta 19.464736
_cell_angle_gamma 38.654916
_cell_volume 709.526973
_symmetry_space_group_name_H-M "P -1"
_symmetry_group_IT_number 2
_symmetry_cell_setting 'triclinic'
loop_
_space_group_symop_operation_xyz
x,y,z
-x,-y,-z
loop_
_atom_site_type_symbol
_atom_site_label
_atom_site_fract_x
_atom_site_fract_y
_atom_site_fract_z
Si Si1 0.943351 0.788986 0.489212
Si Si2 0.300283 0.768414 0.078950
Si Si3 0.008811 0.917463 0.812708
Si Si4 0.442738 0.167094 0.364741
Si Si5 0.390589 0.944947 0.357183
Si Si6 0.311052 0.199731 0.664029
Si Si7 0.366815 0.097556 0.034082
Si Si8 0.979960 0.786887 0.001653
O O1 0.000000 0.500000 0.500000
O O2 0.823080 0.987894 0.489956
O O3 0.806833 0.617076 0.708126
O O4 0.145933 0.030932 0.262669
O O5 0.468829 0.824452 0.875818
O O6 0.387801 0.888058 0.028470
O O7 0.138679 0.957805 0.141247
O O8 0.925942 0.874153 0.957578
O O9 0.219120 0.167739 0.559938
O O10 0.027590 0.589305 0.871339
O O11 0.476843 0.030955 0.318956
O O12 0.503552 0.939526 0.432469
O O13 0.570406 0.528378 0.151656
O O14 0.381035 0.571060 0.469884
O O15 0.181443 0.146742 0.843834
O O16 0.192376 0.999353 0.775127
O O17 0.500000 0.000000 0.000000
#
# Coordination Sequence:
#
# PCOD8025547 Si02
#       8
#     2   2   2   2   2   2   2   2
#     4  10  23  45  69  91 126 171 217 270 329 390
#     4  11  24  44  70  95 132 169 221 272 332 386
#     4  11  23  42  67  96 132 181 220 263 322 394
#     4  12  24  40  67  98 137 177 221 267 327 387
#     4  12  25  43  67  99 134 174 217 272 333 389
#     4  11  25  41  63  98 139 175 218 274 327 384
#     4  11  24  44  70  99 128 171 222 272 326 394
#     4  10  24  41  64  90 139 175 225 259 327 382
#
# _framework density 22.550236000000002
#
# number of rings (size 3 to 8) (size 9 to 14) (size 15 to 20)
#    0.000    1.000    1.250    6.000    8.750    0.500 
#    0.000    1.250    0.000    0.000    0.000    0.000 
#    0.000    0.000    0.000    0.000    0.000    0.000 
#
# Total GULP energy -198472.666523 kJ/mol
# GULP energy per Si atom -12404.541658 kJ/mol
# Density = 2.249891 g / cm^3
# Si number density = 22.550236 Si / 1000 Ang^3
#
#
#
# Elastic Constant Matrix: (Units=GPa)
#
#
# Indices 1 2 3 4 5 6 
#
# 1 68.6847 20.2905 1.7103 2.1462 -7.2573 -15.9524
# 2 20.2905 74.9741 25.6024 -4.5736 -8.2998 -23.5685
# 3 1.7103 25.6024 122.9331 -11.6049 -6.1319 -2.1677
# 4 2.1462 -4.5736 -11.6049 37.9058 -5.6561 -3.7720
# 5 -7.2573 -8.2998 -6.1319 -5.6561 32.4452 -0.6304
# 6 -15.9524 -23.5685 -2.1677 -3.7720 -0.6304 36.0908
#
#
#
# Elastic Compliance Matrix: (Units=1/GPa)
#
#
# Indices 1 2 3 4 5 6 
#
# 1 0.017041 -0.002561 0.000570 -0.000003 0.003379 0.005953
# 2 -0.002561 0.019622 -0.003289 0.003385 0.004647 0.011919
# 3 0.000570 -0.003289 0.009096 0.002460 0.001413 -0.001068
# 4 -0.000003 0.003385 0.002460 0.029061 0.006503 0.005508
# 5 0.003379 0.004647 0.001413 0.006503 0.034281 0.005892
# 6 0.005953 0.011919 -0.001068 0.005508 0.005892 0.038737
#
#
# Mechanical properties :
#
#
# Convention : Reuss Voigt Hill
#
# Bulk Modulus (GPa) = 28.41162 40.19982 34.30572
# Shear Modulus (GPa) = 29.38875 35.88763 32.63819
#
# Velocity S-wave (km/s) = 3.61398 3.99363 3.80854
# Velocity P-wave (km/s) = 5.48098 6.25547 5.88099
#
# Compressibility (1/GPa) = 0.03519686
#
# Stress axis : x y z
#
# Youngs Moduli (GPa) = 58.68039 50.96282 109.94432
#
# Poissons Ratio (x) = 0.13053 -0.06262
# Poissons Ratio (y) = 0.15030 0.36166
# Poissons Ratio (z) = -0.03342 0.16764
#
# Static dielectric constant tensor:
#      x y z
#    x 4.043530 -0.113950 0.010320 
#    y -0.113950 3.886310 -0.076570 
#    z 0.010320 -0.076570 4.565600 
# 
# 
# High freq. dielectric constant tensor:
#      x y z
#    x 1.891080 -0.016610 0.001210 
#    y -0.016610 1.880040 -0.001160 
#    z 0.001210 -0.001160 1.907030 
# 
# From -- ./inp_files/601930.got.cif
#   From: 2010.06.25/outbox.cif.g09.slc.cpg/sg2_301_cif.got.tgz:601930.got - 2010.06.27 13:26:56.
