data_PCOD8025625
_publ_section_title
;
Structure prediction by ZEFSAII (Michael W. Deem and Ramdas Pophale) SiO2 
 PCOD8025625
Probable space group: P -1
;
_chemical_formula_sum "Si O2"
_cell_formula_units_Z 12
_cell_length_a 5.482325
_cell_length_b 26.796910
_cell_length_c 11.503861
_cell_angle_alpha 157.092485
_cell_angle_beta 53.111434
_cell_angle_gamma 124.630503
_cell_volume 525.497202
_symmetry_space_group_name_H-M "P -1"
_symmetry_group_IT_number 2
_symmetry_cell_setting 'triclinic'
loop_
_space_group_symop_operation_xyz
x,y,z
-x,-y,-z
loop_
_atom_site_type_symbol
_atom_site_label
_atom_site_fract_x
_atom_site_fract_y
_atom_site_fract_z
Si Si1 0.225603 0.552921 0.452119
Si Si2 0.272638 0.107630 0.654908
Si Si3 0.080670 0.906273 0.631399
Si Si4 0.264163 0.274298 0.795116
Si Si5 0.805307 0.705161 0.723949
Si Si6 0.829423 0.155390 0.272101
O O1 0.502760 0.626326 0.597844
O O2 0.000000 0.500000 0.500000
O O3 0.042426 0.632313 0.581024
O O4 0.343858 0.425142 0.081838
O O5 0.574959 0.038275 0.376615
O O6 0.239095 0.229059 0.838730
O O7 0.295420 0.167854 0.906799
O O8 0.000000 0.000000 0.500000
O O9 0.006865 0.861988 0.688484
O O10 0.052252 0.777393 0.283824
O O11 0.848079 0.017972 0.905272
O O12 0.492631 0.198240 0.484720
O O13 0.987189 0.736996 0.622806
#
# Coordination Sequence:
#
# PCOD8025625 Si02
#       6
#     2   2   2   2   2   2
#     4  12  27  47  74 102 146 189 235 293 353 416
#     4  11  25  42  73 106 136 182 237 293 355 420
#     4  10  23  45  71 100 145 183 231 295 361 414
#     4  11  24  44  71  98 143 187 233 288 357 420
#     4  12  28  46  74 107 141 184 244 290 348 425
#     4  10  25  43  70 103 142 182 237 292 357 412
#
# _framework density 22.835516999999999
#
# number of rings (size 3 to 8) (size 9 to 14) (size 15 to 20)
#    0.000    1.000    1.667    3.000    9.333    4.000 
#    0.000    0.000    0.000    0.000    0.000    0.000 
#    0.000    0.000    0.000    0.000    0.000    0.000 
#
# Total GULP energy -148693.287375 kJ/mol
# GULP energy per Si atom -12391.107281 kJ/mol
# Density = 2.278354 g / cm^3
# Si number density = 22.835517 Si / 1000 Ang^3
#
#
#
# Elastic Constant Matrix: (Units=GPa)
#
#
# Indices 1 2 3 4 5 6 
#
# 1 122.7272 47.3271 58.5666 6.4238 14.9438 7.7181
# 2 47.3271 156.4057 46.8717 -2.4844 4.4687 7.4825
# 3 58.5666 46.8717 143.2188 4.2757 14.6202 11.8922
# 4 6.4238 -2.4844 4.2757 27.1928 4.2807 4.2251
# 5 14.9438 4.4687 14.6202 4.2807 43.9009 12.6894
# 6 7.7181 7.4825 11.8922 4.2251 12.6894 24.2699
#
#
#
# Elastic Compliance Matrix: (Units=1/GPa)
#
#
# Indices 1 2 3 4 5 6 
#
# 1 0.011063 -0.002280 -0.003522 -0.001977 -0.002300 0.000457
# 2 -0.002280 0.007630 -0.001566 0.001596 0.000818 -0.001565
# 3 -0.003522 -0.001566 0.009241 -0.000239 -0.001016 -0.002353
# 4 -0.001977 0.001596 -0.000239 0.038545 -0.001534 -0.005655
# 5 -0.002300 0.000818 -0.001016 -0.001534 0.027809 -0.013296
# 6 0.000457 -0.001565 -0.002353 -0.005655 -0.013296 0.050629
#
#
# Mechanical properties :
#
#
# Convention : Reuss Voigt Hill
#
# Bulk Modulus (GPa) = 75.76560 80.87582 78.32071
# Shear Modulus (GPa) = 30.47828 37.04517 33.76173
#
# Velocity S-wave (km/s) = 3.65730 4.03210 3.84926
# Velocity P-wave (km/s) = 7.14740 7.56113 7.35717
#
# Compressibility (1/GPa) = 0.01319860
#
# Stress axis : x y z
#
# Youngs Moduli (GPa) = 90.39350 131.06911 108.21052
#
# Poissons Ratio (x) = 0.29878 0.38112
# Poissons Ratio (y) = 0.20606 0.16945
# Poissons Ratio (z) = 0.31837 0.20524
#
# Static dielectric constant tensor:
#      x y z
#    x 4.501820 0.022380 0.093440 
#    y 0.022380 4.266210 0.244320 
#    z 0.093440 0.244320 5.297450 
# 
# 
# High freq. dielectric constant tensor:
#      x y z
#    x 1.901030 0.000980 0.002070 
#    y 0.000980 1.911960 -0.008770 
#    z 0.002070 -0.008770 1.908960 
# 
# From -- ./inp_files/28073.got.cif
#   From: 2010.06.25/outbox.cif.g09.slc.cpg/sg2_15_cif.got.tgz:28073.got - 2010.06.27 13:26:56.
