data_PCOD8026701
_publ_section_title
;
Structure prediction by ZEFSAII (Michael W. Deem and Ramdas Pophale) SiO2 
 PCOD8026701
Probable space group: P -1
;
_chemical_formula_sum "Si O2"
_cell_formula_units_Z 16
_cell_length_a 7.632637
_cell_length_b 6.712829
_cell_length_c 16.467548
_cell_angle_alpha 69.129431
_cell_angle_beta 111.601440
_cell_angle_gamma 91.861722
_cell_volume 728.268046
_symmetry_space_group_name_H-M "P -1"
_symmetry_group_IT_number 2
_symmetry_cell_setting 'triclinic'
loop_
_space_group_symop_operation_xyz
x,y,z
-x,-y,-z
loop_
_atom_site_type_symbol
_atom_site_label
_atom_site_fract_x
_atom_site_fract_y
_atom_site_fract_z
Si Si1 0.633374 0.005416 0.407574
Si Si2 0.401875 0.525290 0.648564
Si Si3 0.251584 0.785827 0.186849
Si Si4 0.694198 0.952542 0.994522
Si Si5 0.124357 0.205174 0.663575
Si Si6 0.695482 0.200651 0.550430
Si Si7 0.046905 0.461293 0.919947
Si Si8 0.069258 0.932980 0.837408
O O1 0.790860 0.892266 0.391573
O O2 0.449089 0.873859 0.395699
O O3 0.578204 0.252607 0.331898
O O4 0.721120 0.011453 0.513017
O O5 0.580740 0.352983 0.718050
O O6 0.209840 0.430179 0.659800
O O7 0.389123 0.578485 0.541713
O O8 0.141541 0.940030 0.212928
O O9 0.121237 0.629590 0.143455
O O10 0.334542 0.937346 0.113198
O O11 0.758618 0.698629 0.031846
O O12 0.850604 0.056856 0.058949
O O13 0.500000 0.000000 0.000000
O O14 0.896867 0.239311 0.616996
O O15 0.187190 0.048066 0.772955
O O16 0.073083 0.686010 0.848514
O O17 0.000000 0.500000 0.000000
#
# Coordination Sequence:
#
# PCOD8026701 Si02
#       8
#     2   2   2   2   2   2   2   2
#     4   9  23  45  67  96 135 171 231 274 337 402
#     4  10  24  43  65 102 129 177 222 274 344 388
#     4  11  23  42  67  93 139 168 225 284 326 406
#     4  11  23  43  65  95 139 165 222 287 329 400
#     4  12  24  41  69  99 136 173 228 281 329 410
#     4   9  22  48  65  97 136 175 226 278 338 397
#     4  11  21  44  71  91 123 188 222 265 346 400
#     4  11  25  41  64 103 127 176 226 270 339 406
#
# _framework density 21.969933000000001
#
# number of rings (size 3 to 8) (size 9 to 14) (size 15 to 20)
#    0.750    0.750    2.500    2.250    3.500    4.000 
#    4.500    0.000    0.000    0.000    0.000    0.000 
#    0.000    0.000    0.000    0.000    0.000    0.000 
#
# Total GULP energy -198339.619273 kJ/mol
# GULP energy per Si atom -12396.226205 kJ/mol
# Density = 2.191993 g / cm^3
# Si number density = 21.969933 Si / 1000 Ang^3
#
#
#
# Elastic Constant Matrix: (Units=GPa)
#
#
# Indices 1 2 3 4 5 6 
#
# 1 127.8837 51.0667 54.0882 -20.3769 3.8834 13.3815
# 2 51.0667 111.3914 49.9866 -33.7636 3.2739 13.2742
# 3 54.0882 49.9866 107.8394 -29.1243 2.4239 5.8826
# 4 -20.3769 -33.7636 -29.1243 31.9282 1.5969 -11.9985
# 5 3.8834 3.2739 2.4239 1.5969 43.7639 -4.6191
# 6 13.3815 13.2742 5.8826 -11.9985 -4.6191 35.2606
#
#
#
# Elastic Compliance Matrix: (Units=1/GPa)
#
#
# Indices 1 2 3 4 5 6 
#
# 1 0.010979 -0.003149 -0.004189 -0.001148 -0.000757 -0.002772
# 2 -0.003149 0.015061 -0.002137 0.011950 -0.001187 -0.000208
# 3 -0.004189 -0.002137 0.014854 0.009844 -0.000310 0.003225
# 4 -0.001148 0.011950 0.009844 0.057402 -0.002000 0.013565
# 5 -0.000757 -0.001187 -0.000310 -0.002000 0.023431 0.003175
# 6 -0.002772 -0.000208 0.003225 0.013565 0.003175 0.033984
#
#
# Mechanical properties :
#
#
# Convention : Reuss Voigt Hill
#
# Bulk Modulus (GPa) = 45.56686 73.04418 59.30552
# Shear Modulus (GPa) = 27.47616 34.98874 31.23245
#
# Velocity S-wave (km/s) = 3.54025 3.99504 3.77450
# Velocity P-wave (km/s) = 6.12346 7.38918 6.78589
#
# Compressibility (1/GPa) = 0.02194578
#
# Stress axis : x y z
#
# Youngs Moduli (GPa) = 91.08479 66.39446 67.32143
#
# Poissons Ratio (x) = 0.20906 0.28199
# Poissons Ratio (y) = 0.28680 0.14385
# Poissons Ratio (z) = 0.38153 0.14187
#
# Static dielectric constant tensor:
#      x y z
#    x 3.731320 0.040660 0.000280 
#    y 0.040660 3.983880 -0.064740 
#    z 0.000280 -0.064740 4.347880 
# 
# 
# High freq. dielectric constant tensor:
#      x y z
#    x 1.860100 0.003800 -0.008900 
#    y 0.003800 1.864210 -0.006220 
#    z -0.008900 -0.006220 1.864630 
# 
# From -- ./inp_files/585556.got.cif
#   From: 2010.06.25/outbox.cif.g09.slc.cpg/sg2_293_cif.got.tgz:585556.got - 2010.06.27 13:26:56.
