data_PCOD8026624
_publ_section_title
;
Structure prediction by ZEFSAII (Michael W. Deem and Ramdas Pophale) SiO2 
 PCOD8026624
Probable space group: P -1
;
_chemical_formula_sum "Si O2"
_cell_formula_units_Z 14
_cell_length_a 15.128413
_cell_length_b 9.433251
_cell_length_c 9.810634
_cell_angle_alpha 95.369396
_cell_angle_beta 119.492909
_cell_angle_gamma 38.338421
_cell_volume 635.327542
_symmetry_space_group_name_H-M "P -1"
_symmetry_group_IT_number 2
_symmetry_cell_setting 'triclinic'
loop_
_space_group_symop_operation_xyz
x,y,z
-x,-y,-z
loop_
_atom_site_type_symbol
_atom_site_label
_atom_site_fract_x
_atom_site_fract_y
_atom_site_fract_z
Si Si1 0.982400 0.108041 0.358313
Si Si2 0.418697 0.965704 0.621969
Si Si3 0.173312 0.203900 0.940829
Si Si4 0.164964 0.394310 0.686955
Si Si5 0.674515 0.275263 0.011449
Si Si6 0.247081 0.262735 0.255915
Si Si7 0.425851 0.631011 0.601650
O O1 0.890956 0.373098 0.337536
O O2 0.839754 0.199042 0.150173
O O3 0.202799 0.848294 0.451125
O O4 0.000000 0.000000 0.500000
O O5 0.612562 0.771840 0.667214
O O6 0.433541 0.786498 0.663479
O O7 0.362809 0.130164 0.725879
O O8 0.255309 0.176818 0.401209
O O9 0.188950 0.312638 0.852787
O O10 0.969186 0.420333 0.880742
O O11 0.233267 0.985159 0.898993
O O12 0.305051 0.088178 0.160107
O O13 0.000000 0.500000 0.500000
O O14 0.500000 0.500000 0.000000
O O15 0.579246 0.377280 0.799097
O O16 0.500000 0.500000 0.500000
#
# Coordination Sequence:
#
# PCOD8026624 Si02
#       7
#     2   2   2   2   2   2   2
#     4  12  27  47  75 103 144 190 232 293 357 413
#     4  11  24  44  69 102 134 182 234 281 348 414
#     4  11  24  46  68 101 136 178 233 284 342 419
#     4  12  23  44  74 100 135 180 236 288 339 411
#     4  12  27  46  73 104 143 188 237 284 358 422
#     4  10  24  42  71  95 138 177 227 285 351 404
#     4  12  27  47  71 105 148 182 237 294 352 421
#
# _framework density 22.035878
#
# number of rings (size 3 to 8) (size 9 to 14) (size 15 to 20)
#    0.000    0.571    4.286    2.571    6.000    3.429 
#    0.000    0.000    0.000    0.000    0.000    0.000 
#    0.000    0.000    0.000    0.000    0.000    0.000 
#
# Total GULP energy -173508.891216 kJ/mol
# GULP energy per Si atom -12393.492230 kJ/mol
# Density = 2.198572 g / cm^3
# Si number density = 22.035878 Si / 1000 Ang^3
#
#
#
# Elastic Constant Matrix: (Units=GPa)
#
#
# Indices 1 2 3 4 5 6 
#
# 1 109.3658 64.5410 38.0501 -2.7085 -12.4661 4.2822
# 2 64.5410 147.1350 38.5068 7.9476 -8.0979 6.7168
# 3 38.0501 38.5068 117.6565 9.7213 -5.9379 -3.0270
# 4 -2.7085 7.9476 9.7213 29.8857 -6.3108 -3.5517
# 5 -12.4661 -8.0979 -5.9379 -6.3108 33.6425 7.2338
# 6 4.2822 6.7168 -3.0270 -3.5517 7.2338 44.3563
#
#
#
# Elastic Compliance Matrix: (Units=1/GPa)
#
#
# Indices 1 2 3 4 5 6 
#
# 1 0.013955 -0.005293 -0.002952 0.004439 0.004449 -0.001117
# 2 -0.005293 0.009648 -0.001252 -0.002811 -0.000120 -0.001241
# 3 -0.002952 -0.001252 0.010132 -0.003203 -0.000418 0.000978
# 4 0.004439 -0.002811 -0.003203 0.037335 0.007059 0.001617
# 5 0.004449 -0.000120 -0.000418 0.007059 0.033751 -0.005379
# 6 -0.001117 -0.001241 0.000978 0.001617 -0.005379 0.023914
#
#
# Mechanical properties :
#
#
# Convention : Reuss Voigt Hill
#
# Bulk Modulus (GPa) = 67.83102 72.92812 70.37957
# Shear Modulus (GPa) = 32.75671 37.11421 34.93546
#
# Velocity S-wave (km/s) = 3.85972 4.10843 3.98602
# Velocity P-wave (km/s) = 7.12125 7.46141 7.29331
#
# Compressibility (1/GPa) = 0.01474252
#
# Stress axis : x y z
#
# Youngs Moduli (GPa) = 71.65985 103.65333 98.69517
#
# Poissons Ratio (x) = 0.54861 0.29133
# Poissons Ratio (y) = 0.37928 0.12352
# Poissons Ratio (z) = 0.21152 0.12973
#
# Static dielectric constant tensor:
#      x y z
#    x 1.893180 -0.526920 -2.305090 
#    y -0.526920 3.855830 -0.347060 
#    z -2.305090 -0.347060 1.546040 
# 
# 
# High freq. dielectric constant tensor:
#      x y z
#    x 1.874670 -0.011140 -0.000560 
#    y -0.011140 1.872830 -0.000210 
#    z -0.000560 -0.000210 1.877620 
# 
# From -- ./inp_files/209407.got.cif
#   From: 2010.06.25/outbox.cif.g09.slc.cpg/sg2_105_cif.got.tgz:209407.got - 2010.06.27 13:26:56.
