data_PCOD8026384
_publ_section_title
;
Structure prediction by ZEFSAII (Michael W. Deem and Ramdas Pophale) SiO2 
 PCOD8026384
Probable space group: P -1
;
_chemical_formula_sum "Si O2"
_cell_formula_units_Z 16
_cell_length_a 8.507946
_cell_length_b 12.083346
_cell_length_c 15.710933
_cell_angle_alpha 154.360820
_cell_angle_beta 98.371711
_cell_angle_gamma 88.337225
_cell_volume 671.424337
_symmetry_space_group_name_H-M "P -1"
_symmetry_group_IT_number 2
_symmetry_cell_setting 'triclinic'
loop_
_space_group_symop_operation_xyz
x,y,z
-x,-y,-z
loop_
_atom_site_type_symbol
_atom_site_label
_atom_site_fract_x
_atom_site_fract_y
_atom_site_fract_z
Si Si1 0.061064 0.926415 0.717376
Si Si2 0.356897 0.409550 0.859093
Si Si3 0.505148 0.758315 0.397567
Si Si4 0.658171 0.992508 0.886353
Si Si5 0.322330 0.927398 0.874072
Si Si6 0.304396 0.343077 0.499451
Si Si7 0.917588 0.382435 0.074174
Si Si8 0.810963 0.176850 0.521657
O O1 0.154643 0.878431 0.776145
O O2 0.170068 0.877846 0.613744
O O3 0.890688 0.717860 0.554185
O O4 0.031999 0.222399 0.923665
O O5 0.445222 0.463853 0.811318
O O6 0.220601 0.576979 0.975907
O O7 0.257632 0.107785 0.640873
O O8 0.500000 0.500000 0.000000
O O9 0.631155 0.809547 0.522860
O O10 0.325956 0.656929 0.356310
O O11 0.500000 0.000000 0.500000
O O12 0.480790 0.070301 0.929361
O O13 0.640404 0.754889 0.653913
O O14 0.695647 0.908819 0.927882
O O15 0.814585 0.225988 0.035683
O O16 0.364419 0.656620 0.723874
O O17 0.021340 0.663656 0.311373
#
# Coordination Sequence:
#
# PCOD8026384 Si02
#       8
#     2   2   2   2   2   2   2   2
#     4  11  26  40  72 102 144 186 235 285 359 418
#     4  11  26  45  75 101 138 185 235 292 352 422
#     4  10  24  44  73 102 139 182 237 286 351 412
#     4  10  24  41  70  95 139 185 239 285 351 411
#     4  11  23  42  67 103 136 186 237 293 346 417
#     4  11  23  44  68 101 143 185 233 292 350 420
#     4  11  26  45  68  99 145 182 235 291 351 423
#     4  11  25  46  70 103 142 185 233 287 356 418
#
# _framework density 23.829936
#
# number of rings (size 3 to 8) (size 9 to 14) (size 15 to 20)
#    0.000    1.250    0.000    4.125   10.500    6.500 
#    0.000    0.000    0.000    0.000    0.000    0.000 
#    0.000    0.000    0.000    0.000    0.000    0.000 
#
# Total GULP energy -198240.310780 kJ/mol
# GULP energy per Si atom -12390.019424 kJ/mol
# Density = 2.377570 g / cm^3
# Si number density = 23.829936 Si / 1000 Ang^3
#
#
#
# Elastic Constant Matrix: (Units=GPa)
#
#
# Indices 1 2 3 4 5 6 
#
# 1 141.9211 62.0664 42.4210 -26.6169 17.0722 -4.5767
# 2 62.0664 97.5294 50.0650 -30.5673 -1.3551 -10.7492
# 3 42.4210 50.0650 112.9393 -19.7497 5.3343 -0.2340
# 4 -26.6169 -30.5673 -19.7497 45.0848 6.8200 1.1731
# 5 17.0722 -1.3551 5.3343 6.8200 33.8266 -11.9140
# 6 -4.5767 -10.7492 -0.2340 1.1731 -11.9140 48.7266
#
#
#
# Elastic Compliance Matrix: (Units=1/GPa)
#
#
# Indices 1 2 3 4 5 6 
#
# 1 0.011403 -0.006230 -0.000578 0.003428 -0.007377 -0.002192
# 2 -0.006230 0.019618 -0.005492 0.006300 0.005232 0.004844
# 3 -0.000578 -0.005492 0.011921 0.001634 -0.002820 -0.001937
# 4 0.003428 0.006300 0.001634 0.030465 -0.008240 -0.001029
# 5 -0.007377 0.005232 -0.002820 -0.008240 0.039205 0.010232
# 6 -0.002192 0.004844 -0.001937 -0.001029 0.010232 0.023903
#
#
# Mechanical properties :
#
#
# Convention : Reuss Voigt Hill
#
# Bulk Modulus (GPa) = 54.51871 73.49940 64.00905
# Shear Modulus (GPa) = 29.89933 38.71676 34.30805
#
# Velocity S-wave (km/s) = 3.54601 4.03514 3.79846
# Velocity P-wave (km/s) = 6.30028 7.25397 6.79388
#
# Compressibility (1/GPa) = 0.01834233
#
# Stress axis : x y z
#
# Youngs Moduli (GPa) = 87.69643 50.97348 83.88557
#
# Poissons Ratio (x) = 0.31754 0.04850
# Poissons Ratio (y) = 0.54631 0.46070
# Poissons Ratio (z) = 0.05071 0.27995
#
# Static dielectric constant tensor:
#      x y z
#    x 4.893660 0.214840 -0.221400 
#    y 0.214840 4.147950 -0.106260 
#    z -0.221400 -0.106260 4.248560 
# 
# 
# High freq. dielectric constant tensor:
#      x y z
#    x 1.965780 0.009530 0.001320 
#    y 0.009530 1.932390 -0.013410 
#    z 0.001320 -0.013410 1.947000 
# 
# From -- ./inp_files/501238.got.cif
#   From: 2010.06.25/outbox.cif.g09.slc.cpg/sg2_251_cif.got.tgz:501238.got - 2010.06.27 13:26:56.
