data_PCOD8026347
_publ_section_title
;
Structure prediction by ZEFSAII (Michael W. Deem and Ramdas Pophale) SiO2 
 PCOD8026347
Probable space group: P -1
;
_chemical_formula_sum "Si O2"
_cell_formula_units_Z 16
_cell_length_a 19.747585
_cell_length_b 14.555108
_cell_length_c 8.637440
_cell_angle_alpha 56.543343
_cell_angle_beta 122.840679
_cell_angle_gamma 159.712578
_cell_volume 715.443588
_symmetry_space_group_name_H-M "P -1"
_symmetry_group_IT_number 2
_symmetry_cell_setting 'triclinic'
loop_
_space_group_symop_operation_xyz
x,y,z
-x,-y,-z
loop_
_atom_site_type_symbol
_atom_site_label
_atom_site_fract_x
_atom_site_fract_y
_atom_site_fract_z
Si Si1 0.005428 0.741638 0.468851
Si Si2 0.857619 0.493645 0.818305
Si Si3 0.278461 0.246717 0.509525
Si Si4 0.386666 0.606588 0.371741
Si Si5 0.795945 0.990764 0.081140
Si Si6 0.680685 0.923759 0.688104
Si Si7 0.564123 0.198059 0.341053
Si Si8 0.387206 0.025068 0.977984
O O1 0.994012 0.645156 0.693624
O O2 0.788263 0.509295 0.365190
O O3 0.128703 0.003526 0.429465
O O4 0.115318 0.813530 0.399307
O O5 0.713703 0.412876 0.654557
O O6 0.765427 0.264570 0.968341
O O7 0.971844 0.689603 0.924452
O O8 0.500000 0.500000 0.500000
O O9 0.239849 0.331406 0.374315
O O10 0.246510 0.169110 0.719986
O O11 0.509888 0.685617 0.573989
O O12 0.526380 0.836712 0.207264
O O13 0.715201 0.875341 0.912400
O O14 0.705509 0.982463 0.061071
O O15 0.609385 0.944937 0.665537
O O16 0.552659 0.188817 0.149182
O O17 0.500000 0.000000 0.500000
#
# Coordination Sequence:
#
# PCOD8026347 Si02
#       8
#     2   2   2   2   2   2   2   2
#     4  11  23  43  70  95 136 181 224 277 340 403
#     4  11  23  43  66 103 133 177 232 275 342 414
#     4  11  22  46  70  96 135 184 232 277 335 410
#     4  12  23  43  70  95 136 183 222 285 343 396
#     4  10  24  41  67  98 135 175 229 278 339 405
#     4  11  24  43  66 102 134 179 226 279 346 392
#     4  11  23  45  65 102 143 173 224 287 337 407
#     4  11  22  42  69  95 140 177 221 284 343 402
#
# _framework density 22.363745999999999
#
# number of rings (size 3 to 8) (size 9 to 14) (size 15 to 20)
#    0.000    1.000    5.000    1.500    1.750    3.000 
#    0.000    0.625    0.000    0.000    0.000    0.000 
#    0.000    0.000    0.000    0.000    0.000    0.000 
#
# Total GULP energy -198214.153508 kJ/mol
# GULP energy per Si atom -12388.384594 kJ/mol
# Density = 2.231285 g / cm^3
# Si number density = 22.363746 Si / 1000 Ang^3
#
#
#
# Elastic Constant Matrix: (Units=GPa)
#
#
# Indices 1 2 3 4 5 6 
#
# 1 95.1092 38.3672 38.6788 -22.0796 -1.1263 1.8464
# 2 38.3672 140.7161 71.8456 -18.5795 -0.9838 -11.2454
# 3 38.6788 71.8456 139.1979 -6.0003 -8.0722 -9.0532
# 4 -22.0796 -18.5795 -6.0003 37.8909 -9.7386 11.0182
# 5 -1.1263 -0.9838 -8.0722 -9.7386 34.9931 -8.6217
# 6 1.8464 -11.2454 -9.0532 11.0182 -8.6217 34.3133
#
#
#
# Elastic Compliance Matrix: (Units=1/GPa)
#
#
# Indices 1 2 3 4 5 6 
#
# 1 0.014573 -0.001596 -0.003092 0.008850 0.001013 -0.004710
# 2 -0.001596 0.010480 -0.004720 0.003163 0.000368 0.001352
# 3 -0.003092 -0.004720 0.010675 -0.002693 0.002183 0.002849
# 4 0.008850 0.003163 -0.002693 0.037647 0.007690 -0.010307
# 5 0.001013 0.000368 0.002183 0.007690 0.032847 0.006426
# 6 -0.004710 0.001352 0.002849 -0.010307 0.006426 0.035515
#
#
# Mechanical properties :
#
#
# Convention : Reuss Voigt Hill
#
# Bulk Modulus (GPa) = 59.12631 74.75626 66.94129
# Shear Modulus (GPa) = 30.08602 36.51491 33.30047
#
# Velocity S-wave (km/s) = 3.67182 4.04514 3.86299
# Velocity P-wave (km/s) = 6.66875 7.43758 7.06363
#
# Compressibility (1/GPa) = 0.01691294
#
# Stress axis : x y z
#
# Youngs Moduli (GPa) = 68.61834 95.42278 93.67531
#
# Poissons Ratio (x) = 0.15226 0.28964
# Poissons Ratio (y) = 0.10949 0.44215
# Poissons Ratio (z) = 0.21217 0.45040
#
# Static dielectric constant tensor:
#      x y z
#    x 4.034620 -0.077790 -0.207500 
#    y -0.077790 3.923780 0.266630 
#    z -0.207500 0.266630 4.589160 
# 
# 
# High freq. dielectric constant tensor:
#      x y z
#    x 1.875100 0.007420 -0.006110 
#    y 0.007420 1.879160 0.008300 
#    z -0.006110 0.008300 1.887660 
# 
# From -- ./inp_files/318940.got.cif
#   From: 2010.06.25/outbox.cif.g09.slc.cpg/sg2_160_cif.got.tgz:318940.got - 2010.06.27 13:26:56.
