data_PCOD8026871
_publ_section_title
;
Structure prediction by ZEFSAII (Michael W. Deem and Ramdas Pophale) SiO2 
 PCOD8026871
Probable space group: P -1
;
_chemical_formula_sum "Si O2"
_cell_formula_units_Z 16
_cell_length_a 18.783385
_cell_length_b 19.090542
_cell_length_c 11.332752
_cell_angle_alpha 151.372170
_cell_angle_beta 30.720800
_cell_angle_gamma 158.871587
_cell_volume 681.833357
_symmetry_space_group_name_H-M "P -1"
_symmetry_group_IT_number 2
_symmetry_cell_setting 'triclinic'
loop_
_space_group_symop_operation_xyz
x,y,z
-x,-y,-z
loop_
_atom_site_type_symbol
_atom_site_label
_atom_site_fract_x
_atom_site_fract_y
_atom_site_fract_z
Si Si1 0.985158 0.855234 0.151204
Si Si2 0.714667 0.896693 0.705266
Si Si3 0.707218 0.326818 0.080426
Si Si4 0.639992 0.355847 0.644338
Si Si5 0.282109 0.894707 0.430724
Si Si6 0.818942 0.426867 0.726995
Si Si7 0.841153 0.314132 0.109071
Si Si8 0.940624 0.812118 0.875231
O O1 0.820829 0.854473 0.412826
O O2 0.902932 0.633991 0.984346
O O3 0.019757 0.883302 0.002325
O O4 0.198106 0.048003 0.202763
O O5 0.468172 0.691620 0.738549
O O6 0.756729 0.087804 0.873582
O O7 0.749546 0.355495 0.201962
O O8 0.648507 0.116629 0.811324
O O9 0.915225 0.515858 0.992089
O O10 0.652714 0.355069 0.765342
O O11 0.779873 0.336376 0.355035
O O12 0.707515 0.576120 0.844622
O O13 0.406654 0.141191 0.632292
O O14 0.309537 0.784577 0.323328
O O15 0.049170 0.762296 0.577567
O O16 0.000000 0.500000 0.500000
O O17 0.000000 0.000000 0.000000
#
# Coordination Sequence:
#
# PCOD8026871 Si02
#       8
#     2   2   2   2   2   2   2   2
#     4  10  24  43  70 101 142 180 225 280 352 406
#     4  11  23  43  68  97 139 179 221 291 341 409
#     4  11  24  39  70 101 132 182 233 283 346 404
#     4  11  23  40  68 100 132 171 231 280 341 402
#     4  12  23  39  72 100 129 177 231 282 342 408
#     4  11  20  42  69  97 135 176 224 285 331 410
#     4  11  23  42  68 102 133 180 236 286 335 412
#     4  11  26  45  66  96 144 182 219 287 345 410
#
# _framework density 23.466145000000001
#
# number of rings (size 3 to 8) (size 9 to 14) (size 15 to 20)
#    0.000    1.000    5.000    2.250    1.750    1.500 
#    0.000    9.375    0.000    0.000    0.000    0.000 
#    0.000    0.000    0.000    0.000    0.000    0.000 
#
# Total GULP energy -198216.515761 kJ/mol
# GULP energy per Si atom -12388.532235 kJ/mol
# Density = 2.341274 g / cm^3
# Si number density = 23.466145 Si / 1000 Ang^3
#
#
#
# Elastic Constant Matrix: (Units=GPa)
#
#
# Indices 1 2 3 4 5 6 
#
# 1 94.5328 42.8883 24.1121 -0.6590 0.2788 4.1430
# 2 42.8883 110.8577 12.7869 16.9578 -6.6163 1.6298
# 3 24.1121 12.7869 94.7421 0.3473 -6.2119 4.4241
# 4 -0.6590 16.9578 0.3473 43.6876 1.3500 -14.8147
# 5 0.2788 -6.6163 -6.2119 1.3500 22.0979 5.8437
# 6 4.1430 1.6298 4.4241 -14.8147 5.8437 43.5265
#
#
#
# Elastic Compliance Matrix: (Units=1/GPa)
#
#
# Indices 1 2 3 4 5 6 
#
# 1 0.013906 -0.005630 -0.003010 0.002685 -0.003006 0.000511
# 2 -0.005630 0.012415 0.000224 -0.005952 0.004912 -0.002637
# 3 -0.003010 0.000224 0.011631 -0.000937 0.003894 -0.001746
# 4 0.002685 -0.005952 -0.000937 0.029149 -0.006740 0.010888
# 5 -0.003006 0.004912 0.003894 -0.006740 0.050754 -0.009402
# 6 0.000511 -0.002637 -0.001746 0.010888 -0.009402 0.028170
#
#
# Mechanical properties :
#
#
# Convention : Reuss Voigt Hill
#
# Bulk Modulus (GPa) = 47.34813 51.07860 49.21336
# Shear Modulus (GPa) = 29.42954 36.55208 32.99081
#
# Velocity S-wave (km/s) = 3.54521 3.95099 3.75359
# Velocity P-wave (km/s) = 6.08104 6.52901 6.30900
#
# Compressibility (1/GPa) = 0.02112016
#
# Stress axis : x y z
#
# Youngs Moduli (GPa) = 71.91309 80.54546 85.97722
#
# Poissons Ratio (x) = 0.45350 0.25879
# Poissons Ratio (y) = 0.40489 -0.01929
# Poissons Ratio (z) = 0.21645 -0.01807
#
# Static dielectric constant tensor:
#      x y z
#    x 4.328340 0.421770 0.473570 
#    y 0.421770 3.352190 -0.994270 
#    z 0.473570 -0.994270 2.826330 
# 
# 
# High freq. dielectric constant tensor:
#      x y z
#    x 1.921650 0.005120 0.014950 
#    y 0.005120 1.930930 0.007220 
#    z 0.014950 0.007220 1.924330 
# 
# From -- ./inp_files/472683.got.cif
#   From: 2010.06.25/outbox.cif.g09.slc.cpg/sg2_237_cif.got.tgz:472683.got - 2010.06.27 13:26:56.
