data_PCOD8026520
_publ_section_title
;
Structure prediction by ZEFSAII (Michael W. Deem and Ramdas Pophale) SiO2 
 PCOD8026520
Probable space group: P -1
;
_chemical_formula_sum "Si O2"
_cell_formula_units_Z 16
_cell_length_a 6.504094
_cell_length_b 8.118304
_cell_length_c 18.524848
_cell_angle_alpha 61.813432
_cell_angle_beta 59.231586
_cell_angle_gamma 81.455539
_cell_volume 735.188554
_symmetry_space_group_name_H-M "P -1"
_symmetry_group_IT_number 2
_symmetry_cell_setting 'triclinic'
loop_
_space_group_symop_operation_xyz
x,y,z
-x,-y,-z
loop_
_atom_site_type_symbol
_atom_site_label
_atom_site_fract_x
_atom_site_fract_y
_atom_site_fract_z
Si Si1 0.657953 0.331302 0.718918
Si Si2 0.452840 0.145777 0.266872
Si Si3 0.735020 0.240532 0.331984
Si Si4 0.779243 0.523445 0.801883
Si Si5 0.005021 0.889174 0.371607
Si Si6 0.233988 0.033377 0.862483
Si Si7 0.412292 0.414809 0.455836
Si Si8 0.271959 0.866325 0.040553
O O1 0.761124 0.480645 0.728705
O O2 0.853455 0.181883 0.708136
O O3 0.405561 0.222216 0.815141
O O4 0.610480 0.419219 0.631262
O O5 0.539151 0.250398 0.302881
O O6 0.374056 0.302367 0.192906
O O7 0.219992 0.994971 0.361016
O O8 0.667485 0.049662 0.211416
O O9 0.609063 0.280766 0.422150
O O10 0.944330 0.408500 0.243309
O O11 0.819963 0.035175 0.355257
O O12 0.685454 0.347577 0.905340
O O13 0.851293 0.706256 0.471170
O O14 0.964912 0.081678 0.885742
O O15 0.233315 0.883096 0.958526
O O16 0.500000 0.500000 0.500000
O O17 0.500000 0.000000 0.000000
#
# Coordination Sequence:
#
# PCOD8026520 Si02
#       8
#     2   2   2   2   2   2   2   2
#     4  11  22  45  66  95 133 170 219 270 323 388
#     4  10  24  44  65  94 135 176 214 266 328 389
#     4  11  24  44  65  94 133 178 216 267 331 387
#     4  11  23  42  69  96 130 171 220 265 327 387
#     4  10  25  41  64  95 131 173 219 270 322 377
#     4  10  24  42  67  98 131 173 212 266 326 390
#     4  12  25  42  67  98 131 174 224 274 323 380
#     4  11  23  41  70 102 130 163 219 269 323 388
#
# _framework density 21.763124999999999
#
# number of rings (size 3 to 8) (size 9 to 14) (size 15 to 20)
#    0.000    1.250    2.500    2.250    5.250    2.000 
#    0.000    1.250    0.000    0.000    0.000    0.000 
#    0.000    0.000    0.000    0.000    0.000    0.000 
#
# Total GULP energy -198386.124457 kJ/mol
# GULP energy per Si atom -12399.132779 kJ/mol
# Density = 2.171359 g / cm^3
# Si number density = 21.763125 Si / 1000 Ang^3
#
#
#
# Elastic Constant Matrix: (Units=GPa)
#
#
# Indices 1 2 3 4 5 6 
#
# 1 106.5722 45.3037 47.9850 -4.2642 -19.1149 7.2857
# 2 45.3037 97.3388 34.3242 -6.8861 -10.2941 -2.8805
# 3 47.9850 34.3242 103.5873 -18.1526 -11.8328 4.0067
# 4 -4.2642 -6.8861 -18.1526 34.6473 1.0549 -7.0122
# 5 -19.1149 -10.2941 -11.8328 1.0549 47.3916 1.3758
# 6 7.2857 -2.8805 4.0067 -7.0122 1.3758 41.3905
#
#
#
# Elastic Compliance Matrix: (Units=1/GPa)
#
#
# Indices 1 2 3 4 5 6 
#
# 1 0.014450 -0.004840 -0.004996 -0.002509 0.003671 -0.002944
# 2 -0.004840 0.013439 -0.001998 0.001466 0.000371 0.002217
# 3 -0.004996 -0.001998 0.013812 0.006288 0.000847 0.000441
# 4 -0.002509 0.001466 0.006288 0.033268 -0.000026 0.005572
# 5 0.003671 0.000371 0.000847 -0.000026 0.022917 -0.001468
# 6 -0.002944 0.002217 0.000441 0.005572 -0.001468 0.025783
#
#
# Mechanical properties :
#
#
# Convention : Reuss Voigt Hill
#
# Bulk Modulus (GPa) = 55.45430 62.52489 58.98959
# Shear Modulus (GPa) = 32.60625 36.67823 34.64224
#
# Velocity S-wave (km/s) = 3.87490 4.10974 3.99405
# Velocity P-wave (km/s) = 6.74952 7.16324 6.95946
#
# Compressibility (1/GPa) = 0.01803287
#
# Stress axis : x y z
#
# Youngs Moduli (GPa) = 69.20652 74.41110 72.40309
#
# Poissons Ratio (x) = 0.36013 0.36175
# Poissons Ratio (y) = 0.33494 0.14463
# Poissons Ratio (z) = 0.34578 0.14864
#
# Static dielectric constant tensor:
#      x y z
#    x 3.918110 -0.078150 -0.241290 
#    y -0.078150 4.043290 -0.094100 
#    z -0.241290 -0.094100 3.804450 
# 
# 
# High freq. dielectric constant tensor:
#      x y z
#    x 1.863330 -0.005930 -0.016080 
#    y -0.005930 1.866120 -0.009890 
#    z -0.016080 -0.009890 1.841470 
# 
# From -- ./inp_files/53966.got.cif
#   From: 2010.06.25/outbox.cif.g09.slc.cpg/sg2_27_cif.got.tgz:53966.got - 2010.06.27 13:26:56.
