data_PCOD8026753
_publ_section_title
;
Structure prediction by ZEFSAII (Michael W. Deem and Ramdas Pophale) SiO2 
 PCOD8026753
Probable space group: P -1
;
_chemical_formula_sum "Si O2"
_cell_formula_units_Z 16
_cell_length_a 19.045849
_cell_length_b 9.082431
_cell_length_c 5.879883
_cell_angle_alpha 79.631276
_cell_angle_beta 61.447932
_cell_angle_gamma 50.170459
_cell_volume 673.999188
_symmetry_space_group_name_H-M "P -1"
_symmetry_group_IT_number 2
_symmetry_cell_setting 'triclinic'
loop_
_space_group_symop_operation_xyz
x,y,z
-x,-y,-z
loop_
_atom_site_type_symbol
_atom_site_label
_atom_site_fract_x
_atom_site_fract_y
_atom_site_fract_z
Si Si1 0.022211 0.355693 0.196456
Si Si2 0.715606 0.085143 0.588738
Si Si3 0.342985 0.252299 0.812473
Si Si4 0.048516 0.986394 0.179520
Si Si5 0.833305 0.681020 0.664479
Si Si6 0.272614 0.655645 0.813370
Si Si7 0.582122 0.341347 0.099365
Si Si8 0.439027 0.891587 0.480264
O O1 0.049210 0.163413 0.108376
O O2 0.122793 0.296971 0.183541
O O3 0.919207 0.468004 0.483840
O O4 0.000000 0.500000 0.000000
O O5 0.748912 0.200582 0.393522
O O6 0.609199 0.148168 0.633013
O O7 0.806776 0.852339 0.490266
O O8 0.687900 0.151224 0.874527
O O9 0.293569 0.465300 0.731226
O O10 0.459445 0.143131 0.757333
O O11 0.352657 0.115369 0.639623
O O12 0.272327 0.281497 0.123711
O O13 0.000000 0.000000 0.500000
O O14 0.164664 0.780221 0.084143
O O15 0.000000 0.000000 0.000000
O O16 0.375304 0.579387 0.821328
O O17 0.528024 0.267444 0.331678
O O18 0.500000 0.500000 0.000000
#
# Coordination Sequence:
#
# PCOD8026753 Si02
#       8
#     2   2   2   2   2   2   2   2
#     4  11  27  48  76 103 142 191 248 309 374 452
#     4  11  23  44  70  97 135 189 233 292 359 442
#     4  11  23  46  65 101 144 178 234 295 356 432
#     4  12  30  50  77 112 154 192 251 319 385 445
#     4  11  25  44  74 102 140 186 248 294 377 440
#     4  11  26  44  72 101 142 188 243 299 373 436
#     4  11  22  43  69  99 138 189 239 290 360 442
#     4  10  24  43  67 101 143 183 235 293 357 435
#
# _framework density 23.738904000000002
#
# number of rings (size 3 to 8) (size 9 to 14) (size 15 to 20)
#    0.000    1.000    1.250    3.750   12.250    2.500 
#    6.750    0.000    0.000    0.000    0.000    0.000 
#    0.000    0.000    0.000    0.000    0.000    0.000 
#
# Total GULP energy -198311.578909 kJ/mol
# GULP energy per Si atom -12394.473682 kJ/mol
# Density = 2.368487 g / cm^3
# Si number density = 23.738904 Si / 1000 Ang^3
#
#
#
# Elastic Constant Matrix: (Units=GPa)
#
#
# Indices 1 2 3 4 5 6 
#
# 1 79.9476 42.6897 45.2470 -8.0036 -2.5203 3.0996
# 2 42.6897 147.1772 24.9072 -4.8819 -0.3678 9.1145
# 3 45.2470 24.9072 98.1456 -2.6909 -11.8929 3.0605
# 4 -8.0036 -4.8819 -2.6909 42.2718 -5.6010 3.4402
# 5 -2.5203 -0.3678 -11.8929 -5.6010 39.4430 3.6406
# 6 3.0996 9.1145 3.0605 3.4402 3.6406 42.7381
#
#
#
# Elastic Compliance Matrix: (Units=1/GPa)
#
#
# Indices 1 2 3 4 5 6 
#
# 1 0.019494 -0.004221 -0.007940 0.002597 -0.000811 -0.000085
# 2 -0.004221 0.008128 -0.000071 0.000246 -0.000048 -0.001438
# 3 -0.007940 -0.000071 0.014362 -0.000019 0.003891 -0.000767
# 4 0.002597 0.000246 -0.000019 0.024907 0.003937 -0.002580
# 5 -0.000811 -0.000048 0.003891 0.003937 0.027296 -0.002852
# 6 -0.000085 -0.001438 -0.000767 -0.002580 -0.002852 0.024217
#
#
# Mechanical properties :
#
#
# Convention : Reuss Voigt Hill
#
# Bulk Modulus (GPa) = 57.07884 61.21757 59.14820
# Shear Modulus (GPa) = 33.62287 39.05234 36.33760
#
# Velocity S-wave (km/s) = 3.76754 4.06036 3.91669
# Velocity P-wave (km/s) = 6.55915 6.91562 6.73974
#
# Compressibility (1/GPa) = 0.01751963
#
# Stress axis : x y z
#
# Youngs Moduli (GPa) = 51.29850 123.03191 69.62638
#
# Poissons Ratio (x) = 0.51934 0.55285
# Poissons Ratio (y) = 0.21654 0.00493
# Poissons Ratio (z) = 0.40732 0.00872
#
# Static dielectric constant tensor:
#      x y z
#    x 4.185070 0.155550 -0.072370 
#    y 0.155550 4.614250 0.312220 
#    z -0.072370 0.312220 4.452870 
# 
# 
# High freq. dielectric constant tensor:
#      x y z
#    x 1.932990 0.006260 -0.011250 
#    y 0.006260 1.960640 0.012670 
#    z -0.011250 0.012670 1.941940 
# 
# From -- ./inp_files/116898.got.cif
#   From: 2010.06.25/outbox.cif.g09.slc.cpg/sg2_59_cif.got.tgz:116898.got - 2010.06.27 13:26:56.
