data_PCOD8026307
_publ_section_title
;
Structure prediction by ZEFSAII (Michael W. Deem and Ramdas Pophale) SiO2 
 PCOD8026307
Probable space group: P -1
;
_chemical_formula_sum "Si O2"
_cell_formula_units_Z 16
_cell_length_a 15.520296
_cell_length_b 9.539831
_cell_length_c 8.880959
_cell_angle_alpha 110.993894
_cell_angle_beta 97.824148
_cell_angle_gamma 135.849087
_cell_volume 681.106903
_symmetry_space_group_name_H-M "P -1"
_symmetry_group_IT_number 2
_symmetry_cell_setting 'triclinic'
loop_
_space_group_symop_operation_xyz
x,y,z
-x,-y,-z
loop_
_atom_site_type_symbol
_atom_site_label
_atom_site_fract_x
_atom_site_fract_y
_atom_site_fract_z
Si Si1 0.253931 0.659907 0.555305
Si Si2 0.627047 0.694509 0.314501
Si Si3 0.337136 0.958227 0.419739
Si Si4 0.039492 0.814152 0.887383
Si Si5 0.306346 0.361833 0.992887
Si Si6 0.156511 0.459882 0.999476
Si Si7 0.481186 0.739959 0.703311
Si Si8 0.193503 0.722546 0.861139
O O1 0.369311 0.904620 0.555921
O O2 0.348086 0.671528 0.677871
O O3 0.194328 0.699394 0.673476
O O4 0.108172 0.373531 0.328559
O O5 0.718233 0.742861 0.219869
O O6 0.580538 0.511236 0.362124
O O7 0.732203 0.977306 0.521899
O O8 0.478031 0.572111 0.169979
O O9 0.216161 0.695029 0.188561
O O10 0.489032 0.211164 0.451471
O O11 0.081384 0.699631 0.860573
O O12 0.995004 0.807806 0.043925
O O13 0.183401 0.116820 0.983965
O O14 0.282431 0.506760 0.037524
O O15 0.122776 0.471719 0.827893
O O16 0.631416 0.993166 0.934735
#
# Coordination Sequence:
#
# PCOD8026307 Si02
#       8
#     2   2   2   2   2   2   2   2
#     4  11  24  40  70  98 137 176 220 276 334 396
#     4  11  24  41  69  99 137 172 225 276 334 389
#     4  10  24  41  65 101 133 175 216 280 329 390
#     4  11  23  45  63  98 135 182 217 269 337 400
#     4  11  24  43  68  99 133 180 221 274 333 396
#     4  10  24  43  69  99 133 176 225 274 330 397
#     4  11  23  42  64 103 132 175 224 278 327 391
#     4  11  22  42  67  99 135 174 227 271 331 395
#
# _framework density 23.491173
#
# number of rings (size 3 to 8) (size 9 to 14) (size 15 to 20)
#    0.000    1.250    1.250    3.750    8.750    1.000 
#    0.000    5.000    0.000    0.000    0.000    0.000 
#    0.000    0.000    0.000    0.000    0.000    0.000 
#
# Total GULP energy -198381.605558 kJ/mol
# GULP energy per Si atom -12398.850347 kJ/mol
# Density = 2.343771 g / cm^3
# Si number density = 23.491173 Si / 1000 Ang^3
#
#
#
# Elastic Constant Matrix: (Units=GPa)
#
#
# Indices 1 2 3 4 5 6 
#
# 1 91.4633 15.9165 13.1114 -4.2360 -7.2497 -0.3965
# 2 15.9165 116.1701 19.4537 -14.4184 -10.0126 -6.0141
# 3 13.1114 19.4537 48.3077 -6.6084 -15.1438 1.0339
# 4 -4.2360 -14.4184 -6.6084 33.4765 0.5295 -1.2158
# 5 -7.2497 -10.0126 -15.1438 0.5295 33.4619 0.1527
# 6 -0.3965 -6.0141 1.0339 -1.2158 0.1527 34.2356
#
#
#
# Elastic Compliance Matrix: (Units=1/GPa)
#
#
# Indices 1 2 3 4 5 6 
#
# 1 0.011557 -0.001031 -0.002286 0.000550 0.001152 0.000036
# 2 -0.001031 0.009890 -0.002811 0.003622 0.001398 0.001933
# 3 -0.002286 -0.002811 0.026243 0.003470 0.010491 -0.001236
# 4 0.000550 0.003622 0.003470 0.032211 0.002256 0.001672
# 5 0.001152 0.001398 0.010491 0.002256 0.035266 -0.000135
# 6 0.000036 0.001933 -0.001236 0.001672 -0.000135 0.029647
#
#
# Mechanical properties :
#
#
# Convention : Reuss Voigt Hill
#
# Bulk Modulus (GPa) = 28.22067 39.21159 33.71613
# Shear Modulus (GPa) = 29.60662 34.06544 31.83603
#
# Velocity S-wave (km/s) = 3.55396 3.81220 3.68534
# Velocity P-wave (km/s) = 5.37404 6.00878 5.70025
#
# Compressibility (1/GPa) = 0.03543501
#
# Stress axis : x y z
#
# Youngs Moduli (GPa) = 86.52431 101.11081 38.10560
#
# Poissons Ratio (x) = 0.10427 0.08711
# Poissons Ratio (y) = 0.08923 0.10710
# Poissons Ratio (z) = 0.19779 0.28417
#
# Static dielectric constant tensor:
#      x y z
#    x 4.290190 0.046090 -0.268510 
#    y 0.046090 4.640210 -0.342050 
#    z -0.268510 -0.342050 4.025550 
# 
# 
# High freq. dielectric constant tensor:
#      x y z
#    x 1.935510 -0.003560 -0.015740 
#    y -0.003560 1.944150 -0.018940 
#    z -0.015740 -0.018940 1.905930 
# 
# From -- ./inp_files/299279.got.cif
#   From: 2010.06.25/outbox.cif.g09.slc.cpg/sg2_150_cif.got.tgz:299279.got - 2010.06.27 13:26:56.
