data_PCOD8026858
_publ_section_title
;
Structure prediction by ZEFSAII (Michael W. Deem and Ramdas Pophale) SiO2 
 PCOD8026858
Probable space group: P -1
;
_chemical_formula_sum "Si O2"
_cell_formula_units_Z 14
_cell_length_a 8.770555
_cell_length_b 19.155099
_cell_length_c 6.583391
_cell_angle_alpha 46.491448
_cell_angle_beta 62.597625
_cell_angle_gamma 59.273489
_cell_volume 679.033785
_symmetry_space_group_name_H-M "P -1"
_symmetry_group_IT_number 2
_symmetry_cell_setting 'triclinic'
loop_
_space_group_symop_operation_xyz
x,y,z
-x,-y,-z
loop_
_atom_site_type_symbol
_atom_site_label
_atom_site_fract_x
_atom_site_fract_y
_atom_site_fract_z
Si Si1 0.876358 0.105308 0.289924
Si Si2 0.937529 0.835348 0.291043
Si Si3 0.870058 0.513577 0.362014
Si Si4 0.418410 0.415022 0.294847
Si Si5 0.659978 0.034789 0.235420
Si Si6 0.140067 0.361653 0.266284
Si Si7 0.703785 0.201266 0.606402
O O1 0.727898 0.089995 0.261667
O O2 0.766058 0.176793 0.387569
O O3 0.000000 0.000000 0.500000
O O4 0.010772 0.155879 0.992565
O O5 0.819487 0.758431 0.522349
O O6 0.120370 0.796552 0.383121
O O7 0.818089 0.940959 0.242874
O O8 0.673774 0.537850 0.530746
O O9 0.000000 0.500000 0.500000
O O10 0.940948 0.411702 0.387634
O O11 0.867223 0.605749 0.029330
O O12 0.288019 0.394023 0.242485
O O13 0.564778 0.311743 0.473489
O O14 0.500000 0.500000 0.000000
O O15 0.500000 0.000000 0.500000
O O16 0.609517 0.118947 0.916901
#
# Coordination Sequence:
#
# PCOD8026858 Si02
#       7
#     2   2   2   2   2   2   2
#     4  11  21  44  65  91 131 175 213 257 324 391
#     4  11  24  41  69  96 129 172 217 268 326 391
#     4   9  22  45  65  90 130 167 220 266 322 382
#     4  11  27  43  65  97 135 170 220 273 325 384
#     4  11  25  42  65  99 135 166 216 273 323 389
#     4  10  24  43  69  96 128 173 222 266 329 389
#     4  11  25  43  65  95 133 176 218 265 328 386
#
# _framework density 20.617531
#
# number of rings (size 3 to 8) (size 9 to 14) (size 15 to 20)
#    0.000    1.429    2.857    0.857   12.000    4.571 
#    0.000    0.000    0.000    0.000    0.000    0.000 
#    0.000    0.000    0.000    0.000    0.000    0.000 
#
# Total GULP energy -173518.050401 kJ/mol
# GULP energy per Si atom -12394.146457 kJ/mol
# Density = 2.057060 g / cm^3
# Si number density = 20.617531 Si / 1000 Ang^3
#
#
#
# Elastic Constant Matrix: (Units=GPa)
#
#
# Indices 1 2 3 4 5 6 
#
# 1 74.0137 43.4085 59.7638 -4.5561 -3.6094 -5.5129
# 2 43.4085 120.9781 73.2925 3.8447 -2.5785 -20.8356
# 3 59.7638 73.2925 172.7893 5.4685 -2.2029 -3.0581
# 4 -4.5561 3.8447 5.4685 49.6708 0.1565 -0.2432
# 5 -3.6094 -2.5785 -2.2029 0.1565 34.5672 -3.1920
# 6 -5.5129 -20.8356 -3.0581 -0.2432 -3.1920 39.6126
#
#
#
# Elastic Compliance Matrix: (Units=1/GPa)
#
#
# Indices 1 2 3 4 5 6 
#
# 1 0.020577 -0.004056 -0.005458 0.002800 0.001527 0.000449
# 2 -0.004056 0.013317 -0.004096 -0.000924 0.000885 0.006189
# 3 -0.005458 -0.004096 0.009406 -0.001229 -0.000477 -0.002234
# 4 0.002800 -0.000924 -0.001229 0.020596 0.000046 -0.000061
# 5 0.001527 0.000885 -0.000477 0.000046 0.029402 0.003010
# 6 0.000449 0.006189 -0.002234 -0.000061 0.003010 0.028632
#
#
# Mechanical properties :
#
#
# Convention : Reuss Voigt Hill
#
# Bulk Modulus (GPa) = 62.18647 80.07898 71.13273
# Shear Modulus (GPa) = 32.36063 37.52455 34.94259
#
# Velocity S-wave (km/s) = 3.96608 4.27081 4.12126
# Velocity P-wave (km/s) = 7.15545 7.95263 7.56455
#
# Compressibility (1/GPa) = 0.01608067
#
# Stress axis : x y z
#
# Youngs Moduli (GPa) = 48.59769 75.09343 106.31789
#
# Poissons Ratio (x) = 0.30456 0.58028
# Poissons Ratio (y) = 0.19710 0.43545
# Poissons Ratio (z) = 0.26525 0.30756
#
# Static dielectric constant tensor:
#      x y z
#    x 3.636530 -0.140360 0.070370 
#    y -0.140360 3.833140 0.092480 
#    z 0.070370 0.092480 4.064700 
# 
# 
# High freq. dielectric constant tensor:
#      x y z
#    x 1.791840 -0.006440 0.009520 
#    y -0.006440 1.819210 0.008110 
#    z 0.009520 0.008110 1.827130 
# 
# From -- ./inp_files/37001.got.cif
#   From: 2010.06.25/outbox.cif.g09.slc.cpg/sg2_19_cif.got.tgz:37001.got - 2010.06.27 13:26:56.
