data_PCOD8026102
_publ_section_title
;
Structure prediction by ZEFSAII (Michael W. Deem and Ramdas Pophale) SiO2 
 PCOD8026102
Probable space group: P -1
;
_chemical_formula_sum "Si O2"
_cell_formula_units_Z 16
_cell_length_a 17.301311
_cell_length_b 11.612732
_cell_length_c 8.550300
_cell_angle_alpha 78.797800
_cell_angle_beta 139.470406
_cell_angle_gamma 130.403655
_cell_volume 678.177631
_symmetry_space_group_name_H-M "P -1"
_symmetry_group_IT_number 2
_symmetry_cell_setting 'triclinic'
loop_
_space_group_symop_operation_xyz
x,y,z
-x,-y,-z
loop_
_atom_site_type_symbol
_atom_site_label
_atom_site_fract_x
_atom_site_fract_y
_atom_site_fract_z
Si Si1 0.243977 0.402992 0.426630
Si Si2 0.728390 0.296413 0.081571
Si Si3 0.372502 0.955742 0.453255
Si Si4 0.223949 0.930104 0.756086
Si Si5 0.125707 0.959390 0.910118
Si Si6 0.671117 0.296316 0.344987
Si Si7 0.887517 0.644731 0.110438
Si Si8 0.616945 0.616205 0.802224
O O1 0.243580 0.524592 0.486260
O O2 0.461694 0.519344 0.727533
O O3 0.098285 0.200348 0.342692
O O4 0.162596 0.357573 0.140110
O O5 0.798270 0.219176 0.173395
O O6 0.761384 0.352084 0.298830
O O7 0.859308 0.483989 0.130622
O O8 0.506901 0.136393 0.728437
O O9 0.274179 0.774633 0.447795
O O10 0.500000 0.000000 0.500000
O O11 0.209948 0.913070 0.144750
O O12 0.133703 0.947294 0.739948
O O13 0.106710 0.850829 0.433830
O O14 0.443658 0.132146 0.013671
O O15 0.246187 0.167645 0.080348
O O16 0.749579 0.604465 0.036778
O O17 0.500000 0.500000 0.500000
#
# Coordination Sequence:
#
# PCOD8026102 Si02
#       8
#     2   2   2   2   2   2   2   2
#     4  11  25  44  70 102 131 181 229 278 332 408
#     4  11  23  41  66  98 145 178 220 276 341 398
#     4  11  19  38  67  98 135 185 211 274 337 398
#     4  11  23  43  64 101 142 174 218 285 329 407
#     4  12  24  42  73 100 137 174 230 273 341 398
#     4  11  23  42  65 100 146 174 224 273 343 401
#     4  11  25  43  69  96 133 180 228 276 340 395
#     4  10  23  49  68  96 138 172 227 288 331 395
#
# _framework density 23.592639999999999
#
# number of rings (size 3 to 8) (size 9 to 14) (size 15 to 20)
#    0.000    1.000    3.750    4.875    3.500    3.000 
#    2.250    1.250    0.000    0.000    0.000    0.000 
#    0.000    0.000    0.000    0.000    0.000    0.000 
#
# Total GULP energy -198398.319014 kJ/mol
# GULP energy per Si atom -12399.894938 kJ/mol
# Density = 2.353894 g / cm^3
# Si number density = 23.592640 Si / 1000 Ang^3
#
#
#
# Elastic Constant Matrix: (Units=GPa)
#
#
# Indices 1 2 3 4 5 6 
#
# 1 63.2493 20.9832 3.5742 16.1706 -13.1281 -11.5198
# 2 20.9832 72.1548 15.6752 34.7711 -0.1965 -6.2743
# 3 3.5742 15.6752 88.4612 23.2493 -6.4340 -13.2484
# 4 16.1706 34.7711 23.2493 38.4167 3.8924 -4.3729
# 5 -13.1281 -0.1965 -6.4340 3.8924 39.6007 7.6483
# 6 -11.5198 -6.2743 -13.2484 -4.3729 7.6483 27.7887
#
#
#
# Elastic Compliance Matrix: (Units=1/GPa)
#
#
# Indices 1 2 3 4 5 6 
#
# 1 0.021337 -0.001833 0.003449 -0.009396 0.007275 0.006595
# 2 -0.001833 0.025420 0.002154 -0.023521 0.001832 0.001801
# 3 0.003449 0.002154 0.015203 -0.012260 0.003624 0.006238
# 4 -0.009396 -0.023521 -0.012260 0.059441 -0.010525 -0.002800
# 5 0.007275 0.001832 0.003624 -0.010525 0.030227 -0.004818
# 6 0.006595 0.001801 0.006238 -0.002800 -0.004818 0.042986
#
#
# Mechanical properties :
#
#
# Convention : Reuss Voigt Hill
#
# Bulk Modulus (GPa) = 14.38837 33.81450 24.10144
# Shear Modulus (GPa) = 23.78224 33.40339 28.59281
#
# Velocity S-wave (km/s) = 3.17840 3.76685 3.48507
# Velocity P-wave (km/s) = 4.42511 5.76911 5.14121
#
# Compressibility (1/GPa) = 0.06950056
#
# Stress axis : x y z
#
# Youngs Moduli (GPa) = 46.86702 39.33850 65.77585
#
# Poissons Ratio (x) = 0.07212 -0.22685
# Poissons Ratio (y) = 0.08592 -0.14170
# Poissons Ratio (z) = -0.16164 -0.08475
#
# Static dielectric constant tensor:
#      x y z
#    x 4.699860 -0.186230 0.208510 
#    y -0.186230 4.028570 0.069420 
#    z 0.208510 0.069420 4.811660 
# 
# 
# High freq. dielectric constant tensor:
#      x y z
#    x 1.938340 -0.006900 -0.007230 
#    y -0.006900 1.915000 0.015630 
#    z -0.007230 0.015630 1.946140 
# 
# From -- ./inp_files/307330.got.cif
#   From: 2010.06.25/outbox.cif.g09.slc.cpg/sg2_154_cif.got.tgz:307330.got - 2010.06.27 13:26:56.
