data_PCOD8026115
_publ_section_title
;
Structure prediction by ZEFSAII (Michael W. Deem and Ramdas Pophale) SiO2 
 PCOD8026115
Probable space group: P -1
;
_chemical_formula_sum "Si O2"
_cell_formula_units_Z 14
_cell_length_a 17.529847
_cell_length_b 5.485753
_cell_length_c 15.082280
_cell_angle_alpha 79.745241
_cell_angle_beta 155.020568
_cell_angle_gamma 100.267737
_cell_volume 602.203485
_symmetry_space_group_name_H-M "P -1"
_symmetry_group_IT_number 2
_symmetry_cell_setting 'triclinic'
loop_
_space_group_symop_operation_xyz
x,y,z
-x,-y,-z
loop_
_atom_site_type_symbol
_atom_site_label
_atom_site_fract_x
_atom_site_fract_y
_atom_site_fract_z
Si Si1 0.798456 0.975509 0.426486
Si Si2 0.342201 0.681697 0.433417
Si Si3 0.148109 0.986994 0.905342
Si Si4 0.956948 0.781525 0.038525
Si Si5 0.335786 0.619751 0.241606
Si Si6 0.532938 0.153642 0.265422
Si Si7 0.664175 0.486168 0.240513
O O1 0.641693 0.946854 0.339020
O O2 0.788406 0.255191 0.355631
O O3 0.996538 0.935735 0.675926
O O4 0.767354 0.756086 0.335404
O O5 0.132172 0.609541 0.237256
O O6 0.354844 0.795146 0.338373
O O7 0.465626 0.441479 0.580225
O O8 0.420094 0.871026 0.578623
O O9 0.065108 0.130909 0.890070
O O10 0.317089 0.131356 0.027606
O O11 0.225059 0.730758 0.037799
O O12 0.777821 0.627142 0.829249
O O13 0.000000 0.000000 0.000000
O O14 0.592842 0.421552 0.269453
O O15 0.500000 0.500000 0.000000
#
# Coordination Sequence:
#
# PCOD8026115 Si02
#       7
#     2   2   2   2   2   2   2
#     4  10  25  43  75 102 142 181 226 289 352 425
#     4  11  23  43  58  94 129 185 235 288 348 390
#     4  12  25  42  64 100 137 183 237 287 349 414
#     4  12  24  40  59  89 129 183 242 293 345 399
#     4  11  27  38  63  88 143 183 241 293 343 407
#     4  10  25  40  69 100 138 180 234 291 344 418
#     4  10  23  49  77 105 139 181 225 284 363 434
#
# _framework density 23.247955999999999
#
# number of rings (size 3 to 8) (size 9 to 14) (size 15 to 20)
#    0.857    0.286    4.286    0.857    6.000    3.429 
#    0.000    1.429    0.000    0.000    0.000    0.000 
#    0.000    0.000    0.000    0.000    0.000    0.000 
#
# Total GULP energy -173450.060073 kJ/mol
# GULP energy per Si atom -12389.290005 kJ/mol
# Density = 2.319504 g / cm^3
# Si number density = 23.247956 Si / 1000 Ang^3
#
#
#
# Elastic Constant Matrix: (Units=GPa)
#
#
# Indices 1 2 3 4 5 6 
#
# 1 25.0766 8.3285 16.4113 0.5070 9.5153 -5.7258
# 2 8.3285 107.7298 37.6827 -4.0568 -6.8413 -12.9581
# 3 16.4113 37.6827 169.6119 -12.7480 -3.6335 -13.0693
# 4 0.5070 -4.0568 -12.7480 34.8437 -6.0815 -7.2215
# 5 9.5153 -6.8413 -3.6335 -6.0815 50.9550 -0.7466
# 6 -5.7258 -12.9581 -13.0693 -7.2215 -0.7466 23.8361
#
#
#
# Elastic Compliance Matrix: (Units=1/GPa)
#
#
# Indices 1 2 3 4 5 6 
#
# 1 0.048732 -0.002210 -0.004091 -0.002715 -0.009908 0.007128
# 2 -0.002210 0.010850 -0.001588 0.002161 0.002091 0.005217
# 3 -0.004091 -0.001588 0.007179 0.003424 0.001518 0.003175
# 4 -0.002715 0.002161 0.003424 0.033817 0.005265 0.012810
# 5 -0.009908 0.002091 0.001518 0.005265 0.022520 0.001889
# 6 0.007128 0.005217 0.003175 0.012810 0.001889 0.052183
#
#
# Mechanical properties :
#
#
# Convention : Reuss Voigt Hill
#
# Bulk Modulus (GPa) = 19.61451 47.47372 33.54412
# Shear Modulus (GPa) = 24.03217 37.92668 30.97943
#
# Velocity S-wave (km/s) = 3.21866 4.04344 3.65439
# Velocity P-wave (km/s) = 4.71894 6.50109 5.68034
#
# Compressibility (1/GPa) = 0.05098266
#
# Stress axis : x y z
#
# Youngs Moduli (GPa) = 20.52057 92.16279 139.29662
#
# Poissons Ratio (x) = 0.20372 0.56988
# Poissons Ratio (y) = 0.04536 0.22114
# Poissons Ratio (z) = 0.08395 0.14631
#
# Static dielectric constant tensor:
#      x y z
#    x 4.001790 -0.129800 0.140120 
#    y -0.129800 3.936700 -0.088030 
#    z 0.140120 -0.088030 4.432320 
# 
# 
# High freq. dielectric constant tensor:
#      x y z
#    x 1.897680 -0.014420 0.007230 
#    y -0.014420 1.896620 -0.006340 
#    z 0.007230 -0.006340 1.937030 
# 
# From -- ./inp_files/576794.got.cif
#   From: 2010.06.25/outbox.cif.g09.slc.cpg/sg2_289_cif.got.tgz:576794.got - 2010.06.27 13:26:56.
