data_PCOD8026030
_publ_section_title
;
Structure prediction by ZEFSAII (Michael W. Deem and Ramdas Pophale) SiO2 
 PCOD8026030
Probable space group: P -1
;
_chemical_formula_sum "Si O2"
_cell_formula_units_Z 12
_cell_length_a 8.081029
_cell_length_b 10.089189
_cell_length_c 9.214962
_cell_angle_alpha 82.639025
_cell_angle_beta 49.011644
_cell_angle_gamma 61.131576
_cell_volume 476.010621
_symmetry_space_group_name_H-M "P -1"
_symmetry_group_IT_number 2
_symmetry_cell_setting 'triclinic'
loop_
_space_group_symop_operation_xyz
x,y,z
-x,-y,-z
loop_
_atom_site_type_symbol
_atom_site_label
_atom_site_fract_x
_atom_site_fract_y
_atom_site_fract_z
Si Si1 0.329497 0.994106 0.382455
Si Si2 0.728056 0.576951 0.406363
Si Si3 0.571848 0.377218 0.168109
Si Si4 0.133303 0.179040 0.743909
Si Si5 0.225774 0.277458 0.216573
Si Si6 0.532525 0.680794 0.195191
O O1 0.142066 0.072856 0.618504
O O2 0.273905 0.112552 0.266684
O O3 0.627798 0.921203 0.270333
O O4 0.293792 0.850941 0.367262
O O5 0.457857 0.638398 0.638146
O O6 0.846324 0.682898 0.362194
O O7 0.701984 0.575555 0.248584
O O8 0.919815 0.402818 0.384164
O O9 0.381068 0.335517 0.210609
O O10 0.474336 0.561593 0.158069
O O11 0.865639 0.250246 0.973767
O O12 0.305736 0.269023 0.003874
#
# Coordination Sequence:
#
# PCOD8026030 Si02
#       6
#     2   2   2   2   2   2
#     4  10  24  46  70 103 146 181 224 294 355 401
#     4  11  24  46  75 100 140 185 236 281 345 415
#     4  12  25  44  79 103 131 189 245 276 338 425
#     4  10  23  47  73  98 142 186 230 281 353 414
#     4  12  24  44  75 105 139 184 234 286 348 412
#     4  11  25  46  69 107 141 181 232 291 347 406
#
# _framework density 25.209523000000001
#
# number of rings (size 3 to 8) (size 9 to 14) (size 15 to 20)
#    0.000    1.000    3.333    2.500    2.333    0.667 
#    0.000    3.333    0.000    0.000    0.000    0.000 
#    0.000    0.000    0.000    0.000    0.000    0.000 
#
# Total GULP energy -148760.443623 kJ/mol
# GULP energy per Si atom -12396.703635 kJ/mol
# Density = 2.515214 g / cm^3
# Si number density = 25.209523 Si / 1000 Ang^3
#
#
#
# Elastic Constant Matrix: (Units=GPa)
#
#
# Indices 1 2 3 4 5 6 
#
# 1 54.6298 45.0574 25.4086 7.3018 9.3257 15.7104
# 2 45.0574 164.4030 50.8860 8.3681 4.7192 -9.5036
# 3 25.4086 50.8860 170.4379 -5.7722 7.7464 -6.1358
# 4 7.3018 8.3681 -5.7722 36.8443 6.8977 16.9256
# 5 9.3257 4.7192 7.7464 6.8977 25.7152 2.0744
# 6 15.7104 -9.5036 -6.1358 16.9256 2.0744 34.5391
#
#
#
# Elastic Compliance Matrix: (Units=1/GPa)
#
#
# Indices 1 2 3 4 5 6 
#
# 1 0.034842 -0.010184 -0.002239 0.007017 -0.010210 -0.021874
# 2 -0.010184 0.010080 -0.001465 -0.005496 0.002980 0.009660
# 3 -0.002239 -0.001465 0.006801 0.001603 -0.001489 0.001128
# 4 0.007017 -0.005496 0.001603 0.040026 -0.010869 -0.023381
# 5 -0.010210 0.002980 -0.001489 -0.010869 0.044775 0.007837
# 6 -0.021874 0.009660 0.001128 -0.023381 0.007837 0.052747
#
#
# Mechanical properties :
#
#
# Convention : Reuss Voigt Hill
#
# Bulk Modulus (GPa) = 41.76182 70.24164 56.00173
# Shear Modulus (GPa) = 22.21926 37.29427 29.75677
#
# Velocity S-wave (km/s) = 2.97203 3.85043 3.43939
# Velocity P-wave (km/s) = 5.32721 6.90590 6.16728
#
# Compressibility (1/GPa) = 0.02394532
#
# Stress axis : x y z
#
# Youngs Moduli (GPa) = 28.70112 99.20725 147.03757
#
# Poissons Ratio (x) = 1.01037 0.32926
# Poissons Ratio (y) = 0.29231 0.21541
# Poissons Ratio (z) = 0.06427 0.14534
#
# Static dielectric constant tensor:
#      x y z
#    x 4.355170 0.239360 0.383790 
#    y 0.239360 4.769730 0.070960 
#    z 0.383790 0.070960 4.921200 
# 
# 
# High freq. dielectric constant tensor:
#      x y z
#    x 1.989190 0.006500 0.023090 
#    y 0.006500 2.012050 0.000170 
#    z 0.023090 0.000170 2.017850 
# 
# From -- ./inp_files/156435.got.cif
#   From: 2010.06.25/outbox.cif.g09.slc.cpg/sg2_79_cif.got.tgz:156435.got - 2010.06.27 13:26:56.
