data_PCOD8026914
_publ_section_title
;
Structure prediction by ZEFSAII (Michael W. Deem and Ramdas Pophale) SiO2 
 PCOD8026914
Probable space group: P -1
;
_chemical_formula_sum "Si O2"
_cell_formula_units_Z 14
_cell_length_a 7.824096
_cell_length_b 8.680142
_cell_length_c 17.714406
_cell_angle_alpha 117.361752
_cell_angle_beta 150.250741
_cell_angle_gamma 69.496293
_cell_volume 526.922146
_symmetry_space_group_name_H-M "P -1"
_symmetry_group_IT_number 2
_symmetry_cell_setting 'triclinic'
loop_
_space_group_symop_operation_xyz
x,y,z
-x,-y,-z
loop_
_atom_site_type_symbol
_atom_site_label
_atom_site_fract_x
_atom_site_fract_y
_atom_site_fract_z
Si Si1 0.781126 0.477762 0.042035
Si Si2 0.603813 0.985833 0.643543
Si Si3 0.950724 0.115434 0.076910
Si Si4 0.191408 0.529972 0.728430
Si Si5 0.759338 0.091292 0.213422
Si Si6 0.817379 0.707173 0.470066
Si Si7 0.286373 0.660351 0.374027
O O1 0.071669 0.640632 0.207470
O O2 0.500000 0.500000 0.000000
O O3 0.965982 0.307295 0.091906
O O4 0.573352 0.469292 0.881416
O O5 0.299833 0.851249 0.459221
O O6 0.922855 0.014261 0.713533
O O7 0.445354 0.166858 0.638957
O O8 0.728860 0.899487 0.747976
O O9 0.584144 0.042626 0.957852
O O10 0.000000 0.000000 0.000000
O O11 0.259354 0.738950 0.808719
O O12 0.116258 0.448543 0.596962
O O13 0.880594 0.474515 0.656697
O O14 0.827528 0.170914 0.343149
O O15 0.673092 0.634168 0.483013
#
# Coordination Sequence:
#
# PCOD8026914 Si02
#       7
#     2   2   2   2   2   2   2
#     4  10  24  43  71 104 138 189 234 289 350 420
#     4  11  25  46  72 104 140 193 228 297 351 418
#     4  12  28  45  71 108 142 184 236 290 357 422
#     4  11  25  45  74 105 141 191 229 300 349 413
#     4  11  26  47  70 104 147 181 240 286 356 424
#     4  11  26  44  75 107 142 186 238 293 350 421
#     4  10  24  43  71  97 146 176 245 271 361 403
#
# _framework density 26.569389000000001
#
# number of rings (size 3 to 8) (size 9 to 14) (size 15 to 20)
#    0.000    1.143    0.000    5.143   14.000    6.286 
#    0.000    0.000    0.000    0.000    0.000    0.000 
#    0.000    0.000    0.000    0.000    0.000    0.000 
#
# Total GULP energy -173435.005358 kJ/mol
# GULP energy per Si atom -12388.214668 kJ/mol
# Density = 2.650892 g / cm^3
# Si number density = 26.569389 Si / 1000 Ang^3
#
#
#
# Elastic Constant Matrix: (Units=GPa)
#
#
# Indices 1 2 3 4 5 6 
#
# 1 58.1996 13.5611 32.5253 2.1853 -15.2868 0.3621
# 2 13.5611 109.5488 38.9076 -4.9930 0.6983 -3.3410
# 3 32.5253 38.9076 119.1504 10.6909 -12.2271 13.1506
# 4 2.1853 -4.9930 10.6909 38.1300 5.0274 -12.0666
# 5 -15.2868 0.6983 -12.2271 5.0274 42.2854 2.6629
# 6 0.3621 -3.3410 13.1506 -12.0666 2.6629 38.6877
#
#
#
# Elastic Compliance Matrix: (Units=1/GPa)
#
#
# Indices 1 2 3 4 5 6 
#
# 1 0.021955 -0.000970 -0.005044 -0.000577 0.006513 0.000797
# 2 -0.000970 0.011189 -0.004502 0.004414 -0.002618 0.004063
# 3 -0.005044 -0.004502 0.012932 -0.006567 0.003212 -0.007007
# 4 -0.000577 0.004414 -0.006567 0.033945 -0.007079 0.013694
# 5 0.006513 -0.002618 0.003212 -0.007079 0.028165 -0.005525
# 6 0.000797 0.004063 -0.007007 0.013694 -0.005525 0.033224
#
#
# Mechanical properties :
#
#
# Convention : Reuss Voigt Hill
#
# Bulk Modulus (GPa) = 39.93024 50.76518 45.34771
# Shear Modulus (GPa) = 29.27567 37.28094 33.27830
#
# Velocity S-wave (km/s) = 3.32302 3.74993 3.54291
# Velocity P-wave (km/s) = 5.45753 6.15609 5.81730
#
# Compressibility (1/GPa) = 0.02504368
#
# Stress axis : x y z
#
# Youngs Moduli (GPa) = 45.54847 89.37268 77.32731
#
# Poissons Ratio (x) = 0.08667 0.39006
# Poissons Ratio (y) = 0.04417 0.34813
# Poissons Ratio (z) = 0.22976 0.40236
#
# Static dielectric constant tensor:
#      x y z
#    x 3.972100 0.161480 -2.803220 
#    y 0.161480 4.427190 0.566320 
#    z -2.803220 0.566320 -8.389500 
# 
# 
# High freq. dielectric constant tensor:
#      x y z
#    x 2.041810 -0.007660 -0.007620 
#    y -0.007660 2.074540 -0.003200 
#    z -0.007620 -0.003200 2.098430 
# 
# From -- ./inp_files/190154.got.cif
#   From: 2010.06.25/outbox.cif.g09.slc.cpg/sg2_96_cif.got.tgz:190154.got - 2010.06.27 13:26:56.
