data_PCOD8026822
_publ_section_title
;
Structure prediction by ZEFSAII (Michael W. Deem and Ramdas Pophale) SiO2 
 PCOD8026822
Probable space group: P -1
;
_chemical_formula_sum "Si O2"
_cell_formula_units_Z 16
_cell_length_a 8.918987
_cell_length_b 17.726815
_cell_length_c 12.341340
_cell_angle_alpha 41.433991
_cell_angle_beta 141.747842
_cell_angle_gamma 138.658295
_cell_volume 734.260478
_symmetry_space_group_name_H-M "P -1"
_symmetry_group_IT_number 2
_symmetry_cell_setting 'triclinic'
loop_
_space_group_symop_operation_xyz
x,y,z
-x,-y,-z
loop_
_atom_site_type_symbol
_atom_site_label
_atom_site_fract_x
_atom_site_fract_y
_atom_site_fract_z
Si Si1 0.389435 0.523858 0.025975
Si Si2 0.945209 0.279389 0.079492
Si Si3 0.152416 0.251766 0.679294
Si Si4 0.218614 0.491714 0.555651
Si Si5 0.516439 0.262725 0.689397
Si Si6 0.251459 0.120000 0.484749
Si Si7 0.433192 0.755560 0.915311
Si Si8 0.382509 0.971379 0.347809
O O1 0.546773 0.503553 0.238730
O O2 0.091483 0.424026 0.976800
O O3 0.500000 0.500000 0.000000
O O4 0.389646 0.663246 0.886072
O O5 0.842472 0.263210 0.163040
O O6 0.154891 0.214654 0.263544
O O7 0.706445 0.221054 0.919718
O O8 0.073955 0.367299 0.535861
O O9 0.250350 0.253468 0.610059
O O10 0.920804 0.122075 0.717761
O O11 0.405370 0.282039 0.864063
O O12 0.322580 0.600032 0.410388
O O13 0.000000 0.500000 0.500000
O O14 0.419481 0.170407 0.633787
O O15 0.450456 0.089292 0.556079
O O16 0.000000 0.000000 0.500000
O O17 0.599167 0.898652 0.828672
O O18 0.500000 0.000000 0.500000
#
# Coordination Sequence:
#
# PCOD8026822 Si02
#       8
#     2   2   2   2   2   2   2   2
#     4  11  24  41  69 103 136 175 227 286 336 405
#     4  11  24  46  71 102 135 178 228 281 344 400
#     4  10  24  43  68  97 134 181 227 276 343 409
#     4  11  22  42  67 100 140 176 227 285 340 400
#     4  11  24  45  71 101 134 183 224 284 343 400
#     4  12  25  47  70 102 139 177 233 278 336 413
#     4  10  24  46  66  97 138 179 225 280 340 406
#     4  12  26  43  67  98 138 182 221 282 341 406
#
# _framework density 21.790633
#
# number of rings (size 3 to 8) (size 9 to 14) (size 15 to 20)
#    0.000    1.000    2.500    3.375    1.750    2.500 
#    2.250    0.000    0.000    0.000    0.000    0.000 
#    0.000    0.000    0.000    0.000    0.000    0.000 
#
# Total GULP energy -198374.515647 kJ/mol
# GULP energy per Si atom -12398.407228 kJ/mol
# Density = 2.174104 g / cm^3
# Si number density = 21.790633 Si / 1000 Ang^3
#
#
#
# Elastic Constant Matrix: (Units=GPa)
#
#
# Indices 1 2 3 4 5 6 
#
# 1 169.2934 68.8619 34.3396 -15.2008 -3.2901 -8.4739
# 2 68.8619 148.9403 30.3783 -16.9926 -1.7102 -1.6877
# 3 34.3396 30.3783 75.3303 1.1299 -1.4458 -15.5041
# 4 -15.2008 -16.9926 1.1299 42.6421 -1.0205 -7.4136
# 5 -3.2901 -1.7102 -1.4458 -1.0205 31.3197 -2.3803
# 6 -8.4739 -1.6877 -15.5041 -7.4136 -2.3803 51.7663
#
#
#
# Elastic Compliance Matrix: (Units=1/GPa)
#
#
# Indices 1 2 3 4 5 6 
#
# 1 0.007756 -0.002911 -0.002211 0.001819 0.000674 0.000804
# 2 -0.002911 0.008819 -0.002376 0.002447 0.000104 -0.000545
# 3 -0.002211 -0.002376 0.016144 -0.001413 0.000658 0.004224
# 4 0.001819 0.002447 -0.001413 0.025791 0.001382 0.003712
# 5 0.000674 0.000104 0.000658 0.001382 0.032232 0.001991
# 6 0.000804 -0.000545 0.004224 0.003712 0.001991 0.021320
#
#
# Mechanical properties :
#
#
# Convention : Reuss Voigt Hill
#
# Bulk Modulus (GPa) = 56.42279 73.41374 64.91827
# Shear Modulus (GPa) = 37.60409 42.47791 40.04100
#
# Velocity S-wave (km/s) = 4.15866 4.41995 4.29130
# Velocity P-wave (km/s) = 7.00062 7.73380 7.37632
#
# Compressibility (1/GPa) = 0.01772334
#
# Stress axis : x y z
#
# Youngs Moduli (GPa) = 128.93302 113.39478 61.94203
#
# Poissons Ratio (x) = 0.33005 0.13693
# Poissons Ratio (y) = 0.37527 0.14720
# Poissons Ratio (z) = 0.28503 0.26948
#
# Static dielectric constant tensor:
#      x y z
#    x 4.365850 0.022490 0.226190 
#    y 0.022490 4.130750 0.046740 
#    z 0.226190 0.046740 3.969250 
# 
# 
# High freq. dielectric constant tensor:
#      x y z
#    x 1.869010 -0.000210 -0.001110 
#    y -0.000210 1.870610 0.002050 
#    z -0.001110 0.002050 1.855140 
# 
# From -- ./inp_files/280057.got.cif
#   From: 2010.06.25/outbox.cif.g09.slc.cpg/sg2_141_cif.got.tgz:280057.got - 2010.06.27 13:26:56.
