data_PCOD8026916
_publ_section_title
;
Structure prediction by ZEFSAII (Michael W. Deem and Ramdas Pophale) SiO2 
 PCOD8026916
Probable space group: P -1
;
_chemical_formula_sum "Si O2"
_cell_formula_units_Z 16
_cell_length_a 15.337626
_cell_length_b 8.855051
_cell_length_c 14.527641
_cell_angle_alpha 50.523269
_cell_angle_beta 37.520724
_cell_angle_gamma 79.396642
_cell_volume 679.081015
_symmetry_space_group_name_H-M "P -1"
_symmetry_group_IT_number 2
_symmetry_cell_setting 'triclinic'
loop_
_space_group_symop_operation_xyz
x,y,z
-x,-y,-z
loop_
_atom_site_type_symbol
_atom_site_label
_atom_site_fract_x
_atom_site_fract_y
_atom_site_fract_z
Si Si1 0.043340 0.716958 0.286115
Si Si2 0.190108 0.129889 0.848507
Si Si3 0.577875 0.291301 0.831604
Si Si4 0.969774 0.733690 0.533404
Si Si5 0.483013 0.395191 0.343245
Si Si6 0.797832 0.548750 0.142423
Si Si7 0.266474 0.108253 0.298666
Si Si8 0.758849 0.070841 0.412961
O O1 0.809359 0.504485 0.559621
O O2 0.094033 0.873459 0.279735
O O3 0.124857 0.571288 0.273203
O O4 0.146317 0.915292 0.038393
O O5 0.355517 0.212680 0.608478
O O6 0.272699 0.392130 0.733750
O O7 0.000000 0.000000 0.000000
O O8 0.519381 0.373576 0.761595
O O9 0.482488 0.303980 0.997289
O O10 0.500000 0.000000 0.000000
O O11 0.794673 0.727235 0.689239
O O12 0.114304 0.879196 0.441733
O O13 0.701060 0.526680 0.135341
O O14 0.405356 0.213487 0.387962
O O15 0.737732 0.271991 0.319577
O O16 0.027481 0.806359 0.841496
O O17 0.265869 0.967457 0.442118
#
# Coordination Sequence:
#
# PCOD8026916 Si02
#       8
#     2   2   2   2   2   2   2   2
#     4  11  24  47  73 105 147 192 242 299 374 426
#     4  12  24  46  76 102 145 193 242 299 367 435
#     4  12  26  44  73 105 150 187 243 306 367 435
#     4  10  24  43  71 105 136 191 240 291 357 443
#     4  12  27  48  74 111 146 188 251 303 360 445
#     4  11  26  47  76 106 145 195 242 300 369 436
#     4  11  25  45  70 102 144 190 238 297 367 427
#     4  11  26  49  74 104 152 190 240 304 371 434
#
# _framework density 23.561254000000002
#
# number of rings (size 3 to 8) (size 9 to 14) (size 15 to 20)
#    0.000    0.750    3.750    2.250    8.750    2.000 
#    6.750    0.000    0.000    0.000    0.000    0.000 
#    0.000    0.000    0.000    0.000    0.000    0.000 
#
# Total GULP energy -198441.597015 kJ/mol
# GULP energy per Si atom -12402.599813 kJ/mol
# Density = 2.350763 g / cm^3
# Si number density = 23.561254 Si / 1000 Ang^3
#
#
#
# Elastic Constant Matrix: (Units=GPa)
#
#
# Indices 1 2 3 4 5 6 
#
# 1 161.8466 47.8819 35.4029 -14.9971 14.6424 -0.3028
# 2 47.8819 122.9585 35.3949 -4.2594 5.3479 -5.3939
# 3 35.4029 35.3949 69.6125 -1.8015 22.0672 -5.8664
# 4 -14.9971 -4.2594 -1.8015 34.1137 9.9648 0.3467
# 5 14.6424 5.3479 22.0672 9.9648 48.7556 0.8251
# 6 -0.3028 -5.3939 -5.8664 0.3467 0.8251 44.9304
#
#
#
# Elastic Compliance Matrix: (Units=1/GPa)
#
#
# Indices 1 2 3 4 5 6 
#
# 1 0.007817 -0.002225 -0.002215 0.003580 -0.001824 -0.000498
# 2 -0.002225 0.010255 -0.004583 -0.000442 0.001698 0.000590
# 3 -0.002215 -0.004583 0.020836 0.002080 -0.008727 0.002300
# 4 0.003580 -0.000442 0.002080 0.033517 -0.008821 0.000146
# 5 -0.001824 0.001698 -0.008727 -0.008821 0.026648 -0.001369
# 6 -0.000498 0.000590 0.002300 0.000146 -0.001369 0.022648
#
#
# Mechanical properties :
#
#
# Convention : Reuss Voigt Hill
#
# Bulk Modulus (GPa) = 47.93308 65.75299 56.84304
# Shear Modulus (GPa) = 34.07798 41.27580 37.67689
#
# Velocity S-wave (km/s) = 3.80723 4.19005 4.00322
# Velocity P-wave (km/s) = 6.30197 7.16774 6.74875
#
# Compressibility (1/GPa) = 0.02086242
#
# Stress axis : x y z
#
# Youngs Moduli (GPa) = 127.92033 97.51188 47.99389
#
# Poissons Ratio (x) = 0.21696 0.10633
# Poissons Ratio (y) = 0.28462 0.21994
# Poissons Ratio (z) = 0.28340 0.44686
#
# Static dielectric constant tensor:
#      x y z
#    x 4.684400 0.200600 0.002510 
#    y 0.200600 4.759370 0.119540 
#    z 0.002510 0.119540 4.304090 
# 
# 
# High freq. dielectric constant tensor:
#      x y z
#    x 1.955150 -0.001150 0.001450 
#    y -0.001150 1.937800 -0.002340 
#    z 0.001450 -0.002340 1.926240 
# 
# From -- ./inp_files/529389.got.cif
#   From: 2010.06.25/outbox.cif.g09.slc.cpg/sg2_265_cif.got.tgz:529389.got - 2010.06.27 13:26:56.
