data_PCOD8026437
_publ_section_title
;
Structure prediction by ZEFSAII (Michael W. Deem and Ramdas Pophale) SiO2 
 PCOD8026437
Probable space group: P -1
;
_chemical_formula_sum "Si O2"
_cell_formula_units_Z 14
_cell_length_a 8.512076
_cell_length_b 11.738873
_cell_length_c 18.501761
_cell_angle_alpha 32.943122
_cell_angle_beta 41.199461
_cell_angle_gamma 40.218198
_cell_volume 615.493611
_symmetry_space_group_name_H-M "P -1"
_symmetry_group_IT_number 2
_symmetry_cell_setting 'triclinic'
loop_
_space_group_symop_operation_xyz
x,y,z
-x,-y,-z
loop_
_atom_site_type_symbol
_atom_site_label
_atom_site_fract_x
_atom_site_fract_y
_atom_site_fract_z
Si Si1 0.505762 0.001827 0.709626
Si Si2 0.721972 0.502235 0.473409
Si Si3 0.733696 0.348170 0.198331
Si Si4 0.167741 0.259328 0.991682
Si Si5 0.779240 0.040644 0.741346
Si Si6 0.756112 0.620113 0.726805
Si Si7 0.109199 0.814695 0.000648
O O1 0.726860 0.845105 0.663081
O O2 0.372002 0.251614 0.587351
O O3 0.607331 0.021313 0.744030
O O4 0.297493 0.883929 0.846856
O O5 0.500000 0.500000 0.500000
O O6 0.771428 0.294350 0.622283
O O7 0.971959 0.468410 0.358287
O O8 0.465566 0.324718 0.286112
O O9 0.876310 0.387861 0.055160
O O10 0.685749 0.564978 0.151575
O O11 0.924333 0.119175 0.292797
O O12 0.316765 0.040509 0.107664
O O13 0.135534 0.189197 0.958475
O O14 0.737520 0.427512 0.888779
O O15 0.000000 0.000000 0.000000
#
# Coordination Sequence:
#
# PCOD8026437 Si02
#       7
#     2   2   2   2   2   2   2
#     4  11  21  41  66  96 131 168 223 266 322 388
#     4  10  24  42  64  95 132 171 229 266 313 386
#     4   9  19  37  64  98 127 166 217 257 335 383
#     4   9  19  39  62  97 130 168 207 269 331 382
#     4   9  19  39  64  87 137 169 212 273 314 385
#     4  12  23  39  70  95 129 176 215 270 324 385
#     4  12  23  39  67 100 131 163 218 275 323 391
#
# _framework density 22.745971000000001
#
# number of rings (size 3 to 8) (size 9 to 14) (size 15 to 20)
#    0.857    0.857    2.857    2.143    0.000    2.857 
#    0.000    5.714    6.286    0.000    0.000    0.000 
#    0.000    0.000    0.000    0.000    0.000    0.000 
#
# Total GULP energy -173548.271603 kJ/mol
# GULP energy per Si atom -12396.305115 kJ/mol
# Density = 2.269420 g / cm^3
# Si number density = 22.745971 Si / 1000 Ang^3
#
#
#
# Elastic Constant Matrix: (Units=GPa)
#
#
# Indices 1 2 3 4 5 6 
#
# 1 113.6201 26.8722 25.1664 -19.5784 -5.4869 4.8229
# 2 26.8722 100.3836 36.5009 -42.6177 -1.3744 3.4410
# 3 25.1664 36.5009 96.2156 -50.1384 3.2451 -11.2767
# 4 -19.5784 -42.6177 -50.1384 48.7802 -11.2148 -3.2736
# 5 -5.4869 -1.3744 3.2451 -11.2148 28.7760 -4.4809
# 6 4.8229 3.4410 -11.2767 -3.2736 -4.4809 37.9092
#
#
#
# Elastic Compliance Matrix: (Units=1/GPa)
#
#
# Indices 1 2 3 4 5 6 
#
# 1 0.009906 -0.001169 -0.001116 0.002372 0.002734 -0.000958
# 2 -0.001169 0.018498 0.006233 0.024676 0.010143 0.003653
# 3 -0.001116 0.006233 0.030876 0.041079 0.014802 0.014058
# 4 0.002372 0.024676 0.041079 0.095392 0.037658 0.022367
# 5 0.002734 0.010143 0.014802 0.037658 0.050692 0.012378
# 6 -0.000958 0.003653 0.014058 0.022367 0.012378 0.033745
#
#
# Mechanical properties :
#
#
# Convention : Reuss Voigt Hill
#
# Bulk Modulus (GPa) = 14.88642 54.14427 34.51534
# Shear Modulus (GPa) = 19.71571 37.87174 28.79372
#
# Velocity S-wave (km/s) = 2.94730 4.08485 3.56178
# Velocity P-wave (km/s) = 4.25922 6.78996 5.66765
#
# Compressibility (1/GPa) = 0.06717531
#
# Stress axis : x y z
#
# Youngs Moduli (GPa) = 100.94544 54.06014 32.38807
#
# Poissons Ratio (x) = 0.06318 0.03616
# Poissons Ratio (y) = 0.11798 -0.20187
# Poissons Ratio (z) = 0.11269 -0.33695
#
# Static dielectric constant tensor:
#      x y z
#    x 3.875840 -0.154830 -0.083330 
#    y -0.154830 4.241240 -0.468080 
#    z -0.083330 -0.468080 4.266700 
# 
# 
# High freq. dielectric constant tensor:
#      x y z
#    x 1.888340 -0.010920 -0.012940 
#    y -0.010920 1.895070 -0.027570 
#    z -0.012940 -0.027570 1.884140 
# 
# From -- ./inp_files/588800.got.cif
#   From: 2010.06.25/outbox.cif.g09.slc.cpg/sg2_295_cif.got.tgz:588800.got - 2010.06.27 13:26:56.
