data_PCOD8026809
_publ_section_title
;
Structure prediction by ZEFSAII (Michael W. Deem and Ramdas Pophale) SiO2 
 PCOD8026809
Probable space group: P -1
;
_chemical_formula_sum "Si O2"
_cell_formula_units_Z 16
_cell_length_a 11.366406
_cell_length_b 14.891274
_cell_length_c 11.311149
_cell_angle_alpha 81.027920
_cell_angle_beta 119.054986
_cell_angle_gamma 148.276893
_cell_volume 729.410475
_symmetry_space_group_name_H-M "P -1"
_symmetry_group_IT_number 2
_symmetry_cell_setting 'triclinic'
loop_
_space_group_symop_operation_xyz
x,y,z
-x,-y,-z
loop_
_atom_site_type_symbol
_atom_site_label
_atom_site_fract_x
_atom_site_fract_y
_atom_site_fract_z
Si Si1 0.323061 0.985360 0.793664
Si Si2 0.687998 0.231712 0.144447
Si Si3 0.675627 0.851163 0.569610
Si Si4 0.305844 0.306322 0.794330
Si Si5 0.190353 0.421953 0.831931
Si Si6 0.692466 0.682557 0.477589
Si Si7 0.681976 0.347182 0.329911
Si Si8 0.240257 0.703819 0.255386
O O1 0.639027 0.202248 0.836311
O O2 0.220386 0.817155 0.772140
O O3 0.401671 0.059440 0.951222
O O4 0.051781 0.882120 0.630433
O O5 0.555737 0.195743 0.207465
O O6 0.978464 0.466716 0.189146
O O7 0.590535 0.719523 0.464909
O O8 0.548383 0.765706 0.656590
O O9 0.534688 0.857089 0.445216
O O10 0.039950 0.071243 0.707172
O O11 0.162864 0.303152 0.798268
O O12 0.404836 0.390118 0.691578
O O13 0.584368 0.432224 0.975869
O O14 0.294108 0.542906 0.746417
O O15 0.870524 0.266661 0.754017
O O16 0.500000 0.500000 0.500000
O O17 0.000000 0.500000 0.500000
#
# Coordination Sequence:
#
# PCOD8026809 Si02
#       8
#     2   2   2   2   2   2   2   2
#     4  11  25  44  69 105 135 186 232 290 353 417
#     4  10  24  43  68 106 136 173 240 294 343 415
#     4  12  25  42  70 104 128 184 234 282 345 420
#     4  11  26  46  68 102 144 175 235 280 353 430
#     4  10  25  46  69 103 136 188 222 293 349 411
#     4  12  27  45  70  95 146 186 228 288 356 421
#     4  11  23  44  72  95 137 177 230 286 345 407
#     4  11  23  43  75  99 138 183 230 293 344 411
#
# _framework density 21.935523
#
# number of rings (size 3 to 8) (size 9 to 14) (size 15 to 20)
#    0.000    1.000    3.750    2.250    7.000    4.000 
#    2.250    0.000    0.000    0.000    0.000    0.000 
#    0.000    0.000    0.000    0.000    0.000    0.000 
#
# Total GULP energy -198356.356147 kJ/mol
# GULP energy per Si atom -12397.272259 kJ/mol
# Density = 2.188560 g / cm^3
# Si number density = 21.935523 Si / 1000 Ang^3
#
#
#
# Elastic Constant Matrix: (Units=GPa)
#
#
# Indices 1 2 3 4 5 6 
#
# 1 110.6771 24.5174 27.7673 -4.2481 -1.1191 10.3825
# 2 24.5174 96.5983 25.8233 -6.0586 1.2849 14.1856
# 3 27.7673 25.8233 93.9012 -22.0045 -4.9908 7.3208
# 4 -4.2481 -6.0586 -22.0045 33.0005 -3.8985 -3.7363
# 5 -1.1191 1.2849 -4.9908 -3.8985 31.3500 -4.5547
# 6 10.3825 14.1856 7.3208 -3.7363 -4.5547 35.9538
#
#
#
# Elastic Compliance Matrix: (Units=1/GPa)
#
#
# Indices 1 2 3 4 5 6 
#
# 1 0.010209 -0.001654 -0.002680 -0.001040 -0.000401 -0.001909
# 2 -0.001654 0.012076 -0.002712 -0.000447 -0.001620 -0.003986
# 3 -0.002680 -0.002712 0.014531 0.009297 0.003528 0.000298
# 4 -0.001040 -0.000447 0.009297 0.037440 0.006598 0.003310
# 5 -0.000401 -0.001620 0.003528 0.006598 0.034064 0.005038
# 6 -0.001909 -0.003986 0.000298 0.003310 0.005038 0.030859
#
#
# Mechanical properties :
#
#
# Convention : Reuss Voigt Hill
#
# Bulk Modulus (GPa) = 44.00829 50.82141 47.41485
# Shear Modulus (GPa) = 31.08570 34.93210 33.00890
#
# Velocity S-wave (km/s) = 3.76858 3.99493 3.88340
# Velocity P-wave (km/s) = 6.24839 6.67069 6.46299
#
# Compressibility (1/GPa) = 0.02272299
#
# Stress axis : x y z
#
# Youngs Moduli (GPa) = 97.95025 82.80962 68.82019
#
# Poissons Ratio (x) = 0.13699 0.18446
# Poissons Ratio (y) = 0.16204 0.18663
# Poissons Ratio (z) = 0.26253 0.22456
#
# Static dielectric constant tensor:
#      x y z
#    x 4.215500 0.065920 -0.041210 
#    y 0.065920 3.950490 -0.176180 
#    z -0.041210 -0.176180 3.939860 
# 
# 
# High freq. dielectric constant tensor:
#      x y z
#    x 1.874480 0.000760 -0.004320 
#    y 0.000760 1.860690 -0.015380 
#    z -0.004320 -0.015380 1.867510 
# 
# From -- ./inp_files/433958.got.cif
#   From: 2010.06.25/outbox.cif.g09.slc.cpg/sg2_217_cif.got.tgz:433958.got - 2010.06.27 13:26:56.
