data_PCOD8026466
_publ_section_title
;
Structure prediction by ZEFSAII (Michael W. Deem and Ramdas Pophale) SiO2 
 PCOD8026466
Probable space group: P -1
;
_chemical_formula_sum "Si O2"
_cell_formula_units_Z 16
_cell_length_a 20.967342
_cell_length_b 11.817791
_cell_length_c 11.431984
_cell_angle_alpha 148.854013
_cell_angle_beta 139.817670
_cell_angle_gamma 30.555896
_cell_volume 740.907431
_symmetry_space_group_name_H-M "P -1"
_symmetry_group_IT_number 2
_symmetry_cell_setting 'triclinic'
loop_
_space_group_symop_operation_xyz
x,y,z
-x,-y,-z
loop_
_atom_site_type_symbol
_atom_site_label
_atom_site_fract_x
_atom_site_fract_y
_atom_site_fract_z
Si Si1 0.846360 0.709629 0.287089
Si Si2 0.402446 0.232785 0.979074
Si Si3 0.592525 0.561907 0.235284
Si Si4 0.552549 0.009200 0.405093
Si Si5 0.878267 0.161269 0.318626
Si Si6 0.726748 0.144885 0.690538
Si Si7 0.947137 0.917046 0.951170
Si Si8 0.962445 0.725056 0.242545
O O1 0.732038 0.697038 0.129786
O O2 0.856588 0.772294 0.222290
O O3 0.977727 0.414356 0.246816
O O4 0.823632 0.955764 0.553267
O O5 0.481681 0.083920 0.839201
O O6 0.372966 0.533908 0.208674
O O7 0.500000 0.000000 0.000000
O O8 0.553377 0.682276 0.419183
O O9 0.736291 0.293354 0.203261
O O10 0.593904 0.782081 0.359405
O O11 0.500000 0.500000 0.000000
O O12 0.665476 0.001734 0.511937
O O13 0.917640 0.356738 0.581768
O O14 0.903073 0.002980 0.333537
O O15 0.961021 0.980785 0.161111
O O16 0.799566 0.107865 0.878868
O O17 0.000000 0.000000 0.000000
O O18 0.000000 0.500000 0.000000
#
# Coordination Sequence:
#
# PCOD8026466 Si02
#       8
#     2   2   2   2   2   2   2   2
#     4  11  25  41  68 101 132 185 224 282 350 406
#     4  11  25  44  66  96 134 179 229 287 343 413
#     4  11  24  43  68 100 137 179 231 286 346 407
#     4  10  24  42  65  99 130 176 229 280 347 403
#     4  11  26  42  68  98 136 184 225 283 339 411
#     4  11  24  43  68 100 137 170 233 291 345 415
#     4  12  22  41  70 102 139 175 224 290 347 404
#     4  11  25  45  62  96 139 178 231 271 339 412
#
# _framework density 21.595141999999999
#
# number of rings (size 3 to 8) (size 9 to 14) (size 15 to 20)
#    0.000    1.000    2.500    3.375    3.500    8.000 
#    0.000    0.000    0.000    0.000    0.000    0.000 
#    0.000    0.000    0.000    0.000    0.000    0.000 
#
# Total GULP energy -198218.075516 kJ/mol
# GULP energy per Si atom -12388.629720 kJ/mol
# Density = 2.154599 g / cm^3
# Si number density = 21.595142 Si / 1000 Ang^3
#
#
#
# Elastic Constant Matrix: (Units=GPa)
#
#
# Indices 1 2 3 4 5 6 
#
# 1 135.1683 23.2999 48.0142 10.7977 -19.4972 10.9783
# 2 23.2999 112.6807 41.8649 9.1126 -1.5371 4.5808
# 3 48.0142 41.8649 135.2255 15.1352 -20.5736 -1.8066
# 4 10.7977 9.1126 15.1352 27.2236 -2.1495 2.4448
# 5 -19.4972 -1.5371 -20.5736 -2.1495 47.1981 -0.1646
# 6 10.9783 4.5808 -1.8066 2.4448 -0.1646 31.2594
#
#
#
# Elastic Compliance Matrix: (Units=1/GPa)
#
#
# Indices 1 2 3 4 5 6 
#
# 1 0.009158 -0.000671 -0.002523 -0.001520 0.002581 -0.003131
# 2 -0.000671 0.010284 -0.002997 -0.001494 -0.001321 -0.001335
# 3 -0.002523 -0.002997 0.010123 -0.003576 0.003118 0.002206
# 4 -0.001520 -0.001494 -0.003576 0.040023 -0.000422 -0.002586
# 5 0.002581 -0.001321 0.003118 -0.000422 0.023549 -0.000376
# 6 -0.003131 -0.001335 0.002206 -0.002586 -0.000376 0.033614
#
#
# Mechanical properties :
#
#
# Convention : Reuss Voigt Hill
#
# Bulk Modulus (GPa) = 58.19802 67.71472 62.95637
# Shear Modulus (GPa) = 34.51595 39.12925 36.82260
#
# Velocity S-wave (km/s) = 4.00224 4.26131 4.13381
# Velocity P-wave (km/s) = 6.95452 7.45897 7.21116
#
# Compressibility (1/GPa) = 0.01718271
#
# Stress axis : x y z
#
# Youngs Moduli (GPa) = 109.19221 97.23804 98.78627
#
# Poissons Ratio (x) = 0.06523 0.24924
# Poissons Ratio (y) = 0.07325 0.29609
# Poissons Ratio (z) = 0.27550 0.29145
#
# Static dielectric constant tensor:
#      x y z
#    x 4.627470 -0.264170 0.975030 
#    y -0.264170 3.553490 0.130740 
#    z 0.975030 0.130740 6.088300 
# 
# 
# High freq. dielectric constant tensor:
#      x y z
#    x 1.873800 0.005960 -0.006960 
#    y 0.005960 1.825150 0.006320 
#    z -0.006960 0.006320 1.858550 
# 
# From -- ./inp_files/71198.got.cif
#   From: 2010.06.25/outbox.cif.g09.slc.cpg/sg2_36_cif.got.tgz:71198.got - 2010.06.27 13:26:56.
