data_PCOD8026856
_publ_section_title
;
Structure prediction by ZEFSAII (Michael W. Deem and Ramdas Pophale) SiO2 
 PCOD8026856
Probable space group: P -1
;
_chemical_formula_sum "Si O2"
_cell_formula_units_Z 16
_cell_length_a 16.763913
_cell_length_b 10.196624
_cell_length_c 8.568538
_cell_angle_alpha 107.309917
_cell_angle_beta 67.465792
_cell_angle_gamma 146.958698
_cell_volume 736.808641
_symmetry_space_group_name_H-M "P -1"
_symmetry_group_IT_number 2
_symmetry_cell_setting 'triclinic'
loop_
_space_group_symop_operation_xyz
x,y,z
-x,-y,-z
loop_
_atom_site_type_symbol
_atom_site_label
_atom_site_fract_x
_atom_site_fract_y
_atom_site_fract_z
Si Si1 0.490462 0.018682 0.760963
Si Si2 0.204690 0.982590 0.679898
Si Si3 0.058785 0.230439 0.026224
Si Si4 0.526501 0.542096 0.177995
Si Si5 0.061086 0.259248 0.681319
Si Si6 0.259976 0.745917 0.566189
Si Si7 0.227018 0.207011 0.454891
Si Si8 0.594534 0.324123 0.071294
O O1 0.652989 0.211965 0.626880
O O2 0.368110 0.909355 0.690723
O O3 0.436356 0.803408 0.795710
O O4 0.497226 0.142344 0.933963
O O5 0.324198 0.174789 0.794922
O O6 0.249151 0.124348 0.543206
O O7 0.201993 0.818746 0.582309
O O8 0.035530 0.798886 0.795235
O O9 0.040271 0.268611 0.881128
O O10 0.231279 0.458288 0.033023
O O11 0.000000 0.000000 0.000000
O O12 0.384399 0.430555 0.325561
O O13 0.546087 0.414147 0.183857
O O14 0.500000 0.500000 0.000000
O O15 0.117187 0.465274 0.617969
O O16 0.184094 0.297781 0.592250
O O17 0.899581 0.004345 0.647048
#
# Coordination Sequence:
#
# PCOD8026856 Si02
#       8
#     2   2   2   2   2   2   2   2
#     4  10  24  43  69  95 133 175 222 267 338 391
#     4  12  26  43  68 100 133 175 220 275 333 387
#     4  12  23  45  69  96 135 177 221 271 333 393
#     4  12  25  41  70 100 134 170 226 279 325 387
#     4  11  25  45  68  98 135 178 221 268 333 398
#     4  11  25  44  68  98 134 171 220 277 328 394
#     4  11  26  43  68  99 133 176 225 271 327 397
#     4  11  23  44  68  97 131 179 220 273 327 398
#
# _framework density 21.715274999999998
#
# number of rings (size 3 to 8) (size 9 to 14) (size 15 to 20)
#    0.000    0.750    3.750    2.625    7.000    1.000 
#    4.500    0.000    0.000    0.000    0.000    0.000 
#    0.000    0.000    0.000    0.000    0.000    0.000 
#
# Total GULP energy -198542.426050 kJ/mol
# GULP energy per Si atom -12408.901628 kJ/mol
# Density = 2.166585 g / cm^3
# Si number density = 21.715275 Si / 1000 Ang^3
#
#
#
# Elastic Constant Matrix: (Units=GPa)
#
#
# Indices 1 2 3 4 5 6 
#
# 1 76.3223 11.7888 9.6512 -2.2611 -0.9588 -6.7557
# 2 11.7888 70.1790 -7.9209 -13.8231 -3.3208 -7.8140
# 3 9.6512 -7.9209 68.1355 -17.3136 1.5298 0.5043
# 4 -2.2611 -13.8231 -17.3136 34.7372 -0.9146 -3.9050
# 5 -0.9588 -3.3208 1.5298 -0.9146 29.3063 -5.8567
# 6 -6.7557 -7.8140 0.5043 -3.9050 -5.8567 42.7451
#
#
#
# Elastic Compliance Matrix: (Units=1/GPa)
#
#
# Indices 1 2 3 4 5 6 
#
# 1 0.013971 -0.002673 -0.002636 -0.001259 0.000596 0.001717
# 2 -0.002673 0.017768 0.004853 0.009844 0.002789 0.004050
# 3 -0.002636 0.004853 0.018420 0.011087 0.000104 0.001280
# 4 -0.001259 0.009844 0.011087 0.038829 0.002786 0.005399
# 5 0.000596 0.002789 0.000104 0.002786 0.035688 0.005747
# 6 0.001717 0.004050 0.001280 0.005399 0.005747 0.025672
#
#
# Mechanical properties :
#
#
# Convention : Reuss Voigt Hill
#
# Bulk Modulus (GPa) = 20.30594 26.85279 23.57936
# Shear Modulus (GPa) = 29.81982 34.76556 32.29269
#
# Velocity S-wave (km/s) = 3.70972 4.00556 3.86047
# Velocity P-wave (km/s) = 5.26504 5.81252 5.54554
#
# Compressibility (1/GPa) = 0.04924668
#
# Stress axis : x y z
#
# Youngs Moduli (GPa) = 71.57859 56.28135 54.29006
#
# Poissons Ratio (x) = 0.15044 0.14309
# Poissons Ratio (y) = 0.19133 -0.26347
# Poissons Ratio (z) = 0.18866 -0.27313
#
# Static dielectric constant tensor:
#      x y z
#    x 4.056130 0.060170 -0.055420 
#    y 0.060170 4.056990 -0.190930 
#    z -0.055420 -0.190930 4.000480 
# 
# 
# High freq. dielectric constant tensor:
#      x y z
#    x 1.856690 -0.000300 0.006420 
#    y -0.000300 1.859130 -0.004430 
#    z 0.006420 -0.004430 1.859250 
# 
# From -- ./inp_files/206244.got.cif
#   From: 2010.06.25/outbox.cif.g09.slc.cpg/sg2_104_cif.got.tgz:206244.got - 2010.06.27 13:26:56.
