data_PCOD8026238
_publ_section_title
;
Structure prediction by ZEFSAII (Michael W. Deem and Ramdas Pophale) SiO2 
 PCOD8026238
Probable space group: P -1
;
_chemical_formula_sum "Si O2"
_cell_formula_units_Z 16
_cell_length_a 5.330581
_cell_length_b 13.994552
_cell_length_c 14.798616
_cell_angle_alpha 139.152904
_cell_angle_beta 65.952730
_cell_angle_gamma 104.829188
_cell_volume 656.839227
_symmetry_space_group_name_H-M "P -1"
_symmetry_group_IT_number 2
_symmetry_cell_setting 'triclinic'
loop_
_space_group_symop_operation_xyz
x,y,z
-x,-y,-z
loop_
_atom_site_type_symbol
_atom_site_label
_atom_site_fract_x
_atom_site_fract_y
_atom_site_fract_z
Si Si1 0.351671 0.257056 0.896034
Si Si2 0.584713 0.074463 0.299811
Si Si3 0.800147 0.918472 0.805111
Si Si4 0.736522 0.535430 0.790872
Si Si5 0.603260 0.691328 0.375447
Si Si6 0.303869 0.524705 0.631434
Si Si7 0.026334 0.661182 0.147010
Si Si8 0.560556 0.218564 0.102159
O O1 0.173459 0.234475 0.815337
O O2 0.660142 0.301603 0.865851
O O3 0.384148 0.101051 0.830274
O O4 0.179835 0.390743 0.073341
O O5 0.474822 0.142183 0.460612
O O6 0.374890 0.131551 0.291209
O O7 0.880352 0.138310 0.288950
O O8 0.697744 0.855346 0.869493
O O9 0.777490 0.095305 0.940115
O O10 0.601857 0.380869 0.717500
O O11 0.518662 0.665651 0.881632
O O12 0.979483 0.500502 0.655557
O O13 0.571492 0.584894 0.388949
O O14 0.907321 0.683182 0.282223
O O15 0.500000 0.500000 0.500000
O O16 0.297318 0.696063 0.778656
O O17 0.000000 0.500000 0.000000
#
# Coordination Sequence:
#
# PCOD8026238 Si02
#       8
#     2   2   2   2   2   2   2   2
#     4  12  26  47  78 103 143 184 241 300 354 418
#     4  12  27  46  71 104 145 188 235 293 361 426
#     4  11  25  44  70 102 145 191 239 291 356 423
#     4  11  24  44  71 104 141 189 244 293 354 429
#     4  11  28  43  71 106 144 189 238 295 360 431
#     4  11  25  43  70 103 150 190 239 294 357 421
#     4  12  26  48  77 110 138 186 240 300 355 421
#     4  10  24  40  68 102 137 192 245 295 345 426
#
# _framework density 24.359082000000001
#
# number of rings (size 3 to 8) (size 9 to 14) (size 15 to 20)
#    0.000    0.750    2.500    3.375   10.500    3.000 
#    0.000    0.000    0.000    0.000    0.000    0.000 
#    0.000    0.000    0.000    0.000    0.000    0.000 
#
# Total GULP energy -198313.209966 kJ/mol
# GULP energy per Si atom -12394.575623 kJ/mol
# Density = 2.430364 g / cm^3
# Si number density = 24.359082 Si / 1000 Ang^3
#
#
#
# Elastic Constant Matrix: (Units=GPa)
#
#
# Indices 1 2 3 4 5 6 
#
# 1 113.7412 12.8051 26.1753 -9.7197 -8.8260 13.0528
# 2 12.8051 50.1407 9.8269 -17.0439 -3.4643 10.6778
# 3 26.1753 9.8269 140.9967 -15.7574 -3.1479 15.5177
# 4 -9.7197 -17.0439 -15.7574 44.5631 12.0948 -2.9368
# 5 -8.8260 -3.4643 -3.1479 12.0948 34.0964 -9.8539
# 6 13.0528 10.6778 15.5177 -2.9368 -9.8539 29.0712
#
#
#
# Elastic Compliance Matrix: (Units=1/GPa)
#
#
# Indices 1 2 3 4 5 6 
#
# 1 0.009704 -0.001357 -0.001317 0.000613 0.001265 -0.002665
# 2 -0.001357 0.025305 0.000547 0.010043 -0.003984 -0.009313
# 3 -0.001317 0.000547 0.008057 0.002987 -0.001822 -0.004226
# 4 0.000613 0.010043 0.002987 0.030048 -0.011012 -0.006255
# 5 0.001265 -0.003984 -0.001822 -0.011012 0.036814 0.013234
# 6 -0.002665 -0.009313 -0.004226 -0.006255 0.013234 0.045125
#
#
# Mechanical properties :
#
#
# Convention : Reuss Voigt Hill
#
# Bulk Modulus (GPa) = 25.76523 44.72146 35.24335
# Shear Modulus (GPa) = 29.02857 38.61755 33.82306
#
# Velocity S-wave (km/s) = 3.45584 3.98596 3.73033
# Velocity P-wave (km/s) = 5.15014 6.29150 5.74921
#
# Compressibility (1/GPa) = 0.03881199
#
# Stress axis : x y z
#
# Youngs Moduli (GPa) = 103.04944 39.51768 124.11610
#
# Poissons Ratio (x) = 0.05362 0.16345
# Poissons Ratio (y) = 0.13982 -0.06785
# Poissons Ratio (z) = 0.13570 -0.02160
#
# Static dielectric constant tensor:
#      x y z
#    x 4.636800 0.038260 0.199300 
#    y 0.038260 4.344650 0.003130 
#    z 0.199300 0.003130 4.574430 
# 
# 
# High freq. dielectric constant tensor:
#      x y z
#    x 1.967830 0.009630 -0.001840 
#    y 0.009630 1.963790 -0.001750 
#    z -0.001840 -0.001750 1.969940 
# 
# From -- ./inp_files/100007.got.cif
#   From: 2010.06.25/outbox.cif.g09.slc.cpg/sg2_51_cif.got.tgz:100007.got - 2010.06.27 13:26:56.
