data_PCOD8026396
_publ_section_title
;
Structure prediction by ZEFSAII (Michael W. Deem and Ramdas Pophale) SiO2 
 PCOD8026396
Probable space group: P -1
;
_chemical_formula_sum "Si O2"
_cell_formula_units_Z 16
_cell_length_a 15.223940
_cell_length_b 21.736258
_cell_length_c 8.939696
_cell_angle_alpha 47.299447
_cell_angle_beta 46.253491
_cell_angle_gamma 20.242051
_cell_volume 734.259401
_symmetry_space_group_name_H-M "P -1"
_symmetry_group_IT_number 2
_symmetry_cell_setting 'triclinic'
loop_
_space_group_symop_operation_xyz
x,y,z
-x,-y,-z
loop_
_atom_site_type_symbol
_atom_site_label
_atom_site_fract_x
_atom_site_fract_y
_atom_site_fract_z
Si Si1 0.762939 0.737315 0.016050
Si Si2 0.035478 0.655665 0.310030
Si Si3 0.969460 0.154022 0.950258
Si Si4 0.238227 0.455454 0.704332
Si Si5 0.288664 0.803019 0.234324
Si Si6 0.168217 0.025804 0.599143
Si Si7 0.483187 0.678655 0.880092
Si Si8 0.568596 0.918562 0.247795
O O1 0.709658 0.671040 0.199813
O O2 0.759622 0.782371 0.108607
O O3 0.039506 0.582768 0.865930
O O4 0.530778 0.924671 0.889442
O O5 0.743711 0.797234 0.390505
O O6 0.030392 0.757591 0.113681
O O7 0.129078 0.576358 0.496551
O O8 0.218460 0.506038 0.213635
O O9 0.098665 0.089509 0.744527
O O10 0.672242 0.306338 0.026065
O O11 0.129696 0.986832 0.130177
O O12 0.513997 0.325980 0.646528
O O13 0.090284 0.844715 0.401968
O O14 0.454738 0.702476 0.052127
O O15 0.370755 0.827538 0.683711
O O16 0.308949 0.020374 0.372243
#
# Coordination Sequence:
#
# PCOD8026396 Si02
#       8
#     2   2   2   2   2   2   2   2
#     4  10  24  42  58  82 118 156 192 236 288 340
#     4  12  23  35  60  91 119 148 189 243 283 337
#     4   9  19  37  60  86 115 151 192 234 286 341
#     4  11  23  39  60  89 117 148 192 240 291 337
#     4   9  19  40  64  83 114 154 190 232 287 347
#     4   9  19  37  62  86 112 153 197 234 279 343
#     4   9  19  37  60  86 115 151 192 234 286 341
#     4  11  23  41  60  84 117 155 196 233 284 342
#
# _framework density 21.790662999999999
#
# number of rings (size 3 to 8) (size 9 to 14) (size 15 to 20)
#    0.000    2.000    0.000    4.875    0.000    8.000 
#    0.000   16.250    0.000    0.000    0.000    0.000 
#    0.000    0.000    0.000    0.000    0.000    0.000 
#
# Total GULP energy -198347.386902 kJ/mol
# GULP energy per Si atom -12396.711681 kJ/mol
# Density = 2.174107 g / cm^3
# Si number density = 21.790663 Si / 1000 Ang^3
#
#
#
# Elastic Constant Matrix: (Units=GPa)
#
#
# Indices 1 2 3 4 5 6 
#
# 1 69.2474 43.3489 20.1179 -20.8035 -1.4460 -23.7475
# 2 43.3489 87.3054 18.5298 -10.2512 1.5689 -12.4451
# 3 20.1179 18.5298 67.5202 -10.0238 -2.3675 -18.1513
# 4 -20.8035 -10.2512 -10.0238 24.9417 -5.3364 4.1390
# 5 -1.4460 1.5689 -2.3675 -5.3364 26.2955 -9.2588
# 6 -23.7475 -12.4451 -18.1513 4.1390 -9.2588 46.1037
#
#
#
# Elastic Compliance Matrix: (Units=1/GPa)
#
#
# Indices 1 2 3 4 5 6 
#
# 1 0.035245 -0.012877 0.001426 0.024945 0.013424 0.015696
# 2 -0.012877 0.017434 -0.002757 -0.005020 -0.004215 -0.003408
# 3 0.001426 -0.002757 0.018602 0.007556 0.006228 0.007887
# 4 0.024945 -0.005020 0.007556 0.064005 0.019813 0.012702
# 5 0.013424 -0.004215 0.006228 0.019813 0.049362 0.016363
# 6 0.015696 -0.003408 0.007887 0.012702 0.016363 0.034106
#
#
# Mechanical properties :
#
#
# Convention : Reuss Voigt Hill
#
# Bulk Modulus (GPa) = 23.32908 43.11847 33.22377
# Shear Modulus (GPa) = 19.12347 28.93994 24.03171
#
# Velocity S-wave (km/s) = 2.96564 3.64825 3.32451
# Velocity P-wave (km/s) = 4.73877 6.13000 5.47872
#
# Compressibility (1/GPa) = 0.04286496
#
# Stress axis : x y z
#
# Youngs Moduli (GPa) = 28.37265 57.36073 53.75671
#
# Poissons Ratio (x) = 0.73866 -0.07666
# Poissons Ratio (y) = 0.36537 0.14819
# Poissons Ratio (z) = -0.04046 0.15813
#
# Static dielectric constant tensor:
#      x y z
#    x 3.797400 0.067930 -0.146510 
#    y 0.067930 4.082080 -0.079960 
#    z -0.146510 -0.079960 3.708570 
# 
# 
# High freq. dielectric constant tensor:
#      x y z
#    x 1.851650 0.004390 -0.007590 
#    y 0.004390 1.869670 0.000420 
#    z -0.007590 0.000420 1.835650 
# 
# From -- ./inp_files/308373.got.cif
#   From: 2010.06.25/outbox.cif.g09.slc.cpg/sg2_155_cif.got.tgz:308373.got - 2010.06.27 13:26:56.
