data_PCOD8026842
_publ_section_title
;
Structure prediction by ZEFSAII (Michael W. Deem and Ramdas Pophale) SiO2 
 PCOD8026842
Probable space group: P -1
;
_chemical_formula_sum "Si O2"
_cell_formula_units_Z 16
_cell_length_a 8.761337
_cell_length_b 11.779870
_cell_length_c 17.484698
_cell_angle_alpha 49.092122
_cell_angle_beta 32.794473
_cell_angle_gamma 61.187301
_cell_volume 728.253838
_symmetry_space_group_name_H-M "P -1"
_symmetry_group_IT_number 2
_symmetry_cell_setting 'triclinic'
loop_
_space_group_symop_operation_xyz
x,y,z
-x,-y,-z
loop_
_atom_site_type_symbol
_atom_site_label
_atom_site_fract_x
_atom_site_fract_y
_atom_site_fract_z
Si Si1 0.594883 0.628313 0.200999
Si Si2 0.211661 0.665981 0.939321
Si Si3 0.642886 0.041940 0.340864
Si Si4 0.352412 0.839662 0.952726
Si Si5 0.766860 0.974742 0.948067
Si Si6 0.726784 0.422852 0.486012
Si Si7 0.622685 0.439464 0.844576
Si Si8 0.277681 0.924035 0.404629
O O1 0.376545 0.572652 0.385151
O O2 0.430590 0.576521 0.215818
O O3 0.703906 0.807385 0.083271
O O4 0.897835 0.562783 0.103791
O O5 0.320888 0.777678 0.773042
O O6 0.179858 0.765789 0.984643
O O7 0.454017 0.564427 0.896167
O O8 0.957012 0.998080 0.234280
O O9 0.500000 0.000000 0.500000
O O10 0.464007 0.944149 0.393760
O O11 0.580824 0.984445 0.768310
O O12 0.502159 0.715640 0.989743
O O13 0.151654 0.905810 0.069502
O O14 0.500000 0.000000 0.000000
O O15 0.500000 0.500000 0.500000
O O16 0.768411 0.254637 0.516271
O O17 0.038294 0.523558 0.300134
O O18 0.000000 0.000000 0.500000
#
# Coordination Sequence:
#
# PCOD8026842 Si02
#       8
#     2   2   2   2   2   2   2   2
#     4  11  24  43  69  99 134 182 224 285 338 411
#     4  10  24  43  69 103 135 179 227 284 345 408
#     4  10  25  42  68 101 137 179 231 277 343 409
#     4  11  23  44  74  97 133 179 236 272 338 411
#     4  11  23  41  72 103 130 176 232 283 334 401
#     4  12  27  44  67 105 141 181 231 286 349 403
#     4  12  25  45  68 102 140 179 223 284 352 409
#     4  11  26  45  72 101 140 186 230 288 341 412
#
# _framework density 21.970361
#
# number of rings (size 3 to 8) (size 9 to 14) (size 15 to 20)
#    0.000    1.000    2.500    3.375    5.250    4.500 
#    0.000    0.000    0.000    0.000    0.000    0.000 
#    0.000    0.000    0.000    0.000    0.000    0.000 
#
# Total GULP energy -198361.301049 kJ/mol
# GULP energy per Si atom -12397.581316 kJ/mol
# Density = 2.192036 g / cm^3
# Si number density = 21.970361 Si / 1000 Ang^3
#
#
#
# Elastic Constant Matrix: (Units=GPa)
#
#
# Indices 1 2 3 4 5 6 
#
# 1 119.1943 45.6173 51.8487 11.7696 -5.0708 -3.8671
# 2 45.6173 125.0298 49.6256 9.2789 -2.2701 -6.8786
# 3 51.8487 49.6256 108.0302 17.1713 6.2166 -7.7995
# 4 11.7696 9.2789 17.1713 30.8728 -2.9500 -8.3938
# 5 -5.0708 -2.2701 6.2166 -2.9500 44.5943 7.7171
# 6 -3.8671 -6.8786 -7.7995 -8.3938 7.7171 33.0731
#
#
#
# Elastic Compliance Matrix: (Units=1/GPa)
#
#
# Indices 1 2 3 4 5 6 
#
# 1 0.011350 -0.002340 -0.004342 -0.001287 0.001855 -0.000943
# 2 -0.002340 0.010339 -0.003612 0.000099 0.000613 0.000907
# 3 -0.004342 -0.003612 0.014091 -0.004983 -0.003241 0.001556
# 4 -0.001287 0.000099 -0.004983 0.037941 0.001691 0.007930
# 5 0.001855 0.000613 -0.003241 0.001691 0.024206 -0.005639
# 6 -0.000943 0.000907 0.001556 0.007930 -0.005639 0.034009
#
#
# Mechanical properties :
#
#
# Convention : Reuss Voigt Hill
#
# Bulk Modulus (GPa) = 65.82919 71.82639 68.82779
# Shear Modulus (GPa) = 31.72819 35.38555 33.55687
#
# Velocity S-wave (km/s) = 3.80430 4.01759 3.91240
# Velocity P-wave (km/s) = 7.02316 7.36782 7.19755
#
# Compressibility (1/GPa) = 0.01519083
#
# Stress axis : x y z
#
# Youngs Moduli (GPa) = 88.10887 96.71959 70.96800
#
# Poissons Ratio (x) = 0.22633 0.30818
# Poissons Ratio (y) = 0.20618 0.25633
# Poissons Ratio (z) = 0.38261 0.34934
#
# Static dielectric constant tensor:
#      x y z
#    x 4.082720 -0.178240 -0.055310 
#    y -0.178240 4.201230 0.120020 
#    z -0.055310 0.120020 3.940500 
# 
# 
# High freq. dielectric constant tensor:
#      x y z
#    x 1.874530 -0.003560 0.002780 
#    y -0.003560 1.872790 0.005890 
#    z 0.002780 0.005890 1.865430 
# 
# From -- ./inp_files/559505.got.cif
#   From: 2010.06.25/outbox.cif.g09.slc.cpg/sg2_280_cif.got.tgz:559505.got - 2010.06.27 13:26:56.
