data_PCOD8026495
_publ_section_title
;
Structure prediction by ZEFSAII (Michael W. Deem and Ramdas Pophale) SiO2 
 PCOD8026495
Probable space group: P -1
;
_chemical_formula_sum "Si O2"
_cell_formula_units_Z 12
_cell_length_a 13.945259
_cell_length_b 17.623687
_cell_length_c 19.928623
_cell_angle_alpha 158.836704
_cell_angle_beta 158.555635
_cell_angle_gamma 21.528337
_cell_volume 570.080265
_symmetry_space_group_name_H-M "P -1"
_symmetry_group_IT_number 2
_symmetry_cell_setting 'triclinic'
loop_
_space_group_symop_operation_xyz
x,y,z
-x,-y,-z
loop_
_atom_site_type_symbol
_atom_site_label
_atom_site_fract_x
_atom_site_fract_y
_atom_site_fract_z
Si Si1 0.769427 0.622878 0.391624
Si Si2 0.558480 0.250474 0.193959
Si Si3 0.264464 0.958170 0.723887
Si Si4 0.411043 0.783858 0.528885
Si Si5 0.967609 0.825980 0.888213
Si Si6 0.126761 0.954839 0.240477
O O1 0.427749 0.743201 0.294336
O O2 0.000000 0.500000 0.500000
O O3 0.802158 0.438295 0.202733
O O4 0.829240 0.818551 0.557041
O O5 0.502671 0.508374 0.345936
O O6 0.570310 0.233622 0.268207
O O7 0.299229 0.197150 0.952701
O O8 0.864106 0.031760 0.185896
O O9 0.915207 0.039229 0.564770
O O10 0.422628 0.820394 0.645826
O O11 0.634363 0.856076 0.695329
O O12 0.050068 0.865951 0.048804
O O13 0.000000 0.000000 0.000000
#
# Coordination Sequence:
#
# PCOD8026495 Si02
#       6
#     2   2   2   2   2   2
#     4  11  24  43  65  91 130 173 216 263 321 385
#     4  11  22  42  67  95 127 167 217 265 327 378
#     4  10  24  42  66  97 125 170 218 263 322 385
#     4  11  23  43  66  94 134 168 212 270 318 379
#     4  12  24  43  66  97 135 172 217 263 327 387
#     4  11  24  41  65  94 130 171 213 267 324 382
#
# _framework density 21.049668
#
# number of rings (size 3 to 8) (size 9 to 14) (size 15 to 20)
#    0.000    1.000    5.000    1.500    2.333    0.000 
#    3.000    1.667    0.000    0.000    0.000    0.000 
#    0.000    0.000    0.000    0.000    0.000    0.000 
#
# Total GULP energy -148823.521040 kJ/mol
# GULP energy per Si atom -12401.960087 kJ/mol
# Density = 2.100176 g / cm^3
# Si number density = 21.049668 Si / 1000 Ang^3
#
#
#
# Elastic Constant Matrix: (Units=GPa)
#
#
# Indices 1 2 3 4 5 6 
#
# 1 78.8599 22.3131 29.9841 -1.8017 4.7454 -13.3535
# 2 22.3131 79.2029 30.4600 -0.2580 5.7051 -12.8869
# 3 29.9841 30.4600 112.6341 11.0258 7.8816 -0.0700
# 4 -1.8017 -0.2580 11.0258 33.0954 -5.7018 -4.9102
# 5 4.7454 5.7051 7.8816 -5.7018 44.7047 -1.4648
# 6 -13.3535 -12.8869 -0.0700 -4.9102 -1.4648 25.4899
#
#
#
# Elastic Compliance Matrix: (Units=1/GPa)
#
#
# Indices 1 2 3 4 5 6 
#
# 1 0.016236 -0.001568 -0.004233 0.003515 -0.000054 0.008375
# 2 -0.001568 0.015935 -0.004085 0.002435 -0.000585 0.007659
# 3 -0.004233 -0.004085 0.011764 -0.005318 -0.001958 -0.005387
# 4 0.003515 0.002435 -0.005318 0.034540 0.004987 0.009998
# 5 -0.000054 -0.000585 -0.001958 0.004987 0.023496 0.001981
# 6 0.008375 0.007659 -0.005387 0.009998 0.001981 0.049516
#
#
# Mechanical properties :
#
#
# Convention : Reuss Voigt Hill
#
# Bulk Modulus (GPa) = 41.38512 48.46791 44.92652
# Shear Modulus (GPa) = 27.88441 33.18731 30.53586
#
# Velocity S-wave (km/s) = 3.64359 3.97497 3.81288
# Velocity P-wave (km/s) = 6.11591 6.64400 6.38541
#
# Compressibility (1/GPa) = 0.02416327
#
# Stress axis : x y z
#
# Youngs Moduli (GPa) = 61.59292 62.75647 85.00460
#
# Poissons Ratio (x) = 0.09839 0.35984
# Poissons Ratio (y) = 0.09657 0.34720
# Poissons Ratio (z) = 0.26073 0.25633
#
# Static dielectric constant tensor:
#      x y z
#    x 3.781400 -0.271670 -0.050750 
#    y -0.271670 3.825620 -0.053100 
#    z -0.050750 -0.053100 4.105090 
# 
# 
# High freq. dielectric constant tensor:
#      x y z
#    x 1.828330 -0.014920 -0.005730 
#    y -0.014920 1.817890 -0.002210 
#    z -0.005730 -0.002210 1.844620 
# 
# From -- ./inp_files/28036.got.cif
#   From: 2010.06.25/outbox.cif.g09.slc.cpg/sg2_15_cif.got.tgz:28036.got - 2010.06.27 13:26:56.
