data_PCOD8026488
_publ_section_title
;
Structure prediction by ZEFSAII (Michael W. Deem and Ramdas Pophale) SiO2 
 PCOD8026488
Probable space group: P -1
;
_chemical_formula_sum "Si O2"
_cell_formula_units_Z 14
_cell_length_a 7.425290
_cell_length_b 17.725816
_cell_length_c 7.024908
_cell_angle_alpha 57.722585
_cell_angle_beta 42.372073
_cell_angle_gamma 62.235211
_cell_volume 522.701507
_symmetry_space_group_name_H-M "P -1"
_symmetry_group_IT_number 2
_symmetry_cell_setting 'triclinic'
loop_
_space_group_symop_operation_xyz
x,y,z
-x,-y,-z
loop_
_atom_site_type_symbol
_atom_site_label
_atom_site_fract_x
_atom_site_fract_y
_atom_site_fract_z
Si Si1 0.436123 0.251734 0.526650
Si Si2 0.633279 0.054090 0.559051
Si Si3 0.827677 0.332898 0.845147
Si Si4 0.201209 0.482350 0.585394
Si Si5 0.836276 0.040828 0.844757
Si Si6 0.771491 0.405007 0.224104
Si Si7 0.720468 0.241267 0.690944
O O1 0.527120 0.158626 0.470251
O O2 0.465145 0.235870 0.754924
O O3 0.129800 0.282633 0.670662
O O4 0.660060 0.318509 0.191430
O O5 0.745451 0.035098 0.707353
O O6 0.878815 0.022496 0.263498
O O7 0.389452 0.994377 0.795376
O O8 0.843962 0.436810 0.637008
O O9 0.646659 0.286853 0.891879
O O10 0.448303 0.409393 0.424400
O O11 0.230821 0.511772 0.740610
O O12 0.943785 0.424369 0.873724
O O13 0.881325 0.142784 0.725383
O O14 0.896350 0.311596 0.353243
#
# Coordination Sequence:
#
# PCOD8026488 Si02
#       7
#     2   2   2   2   2   2   2
#     4  11  24  42  64  92 125 163 205 253 306 364
#     4   9  18  35  57  84 120 156 196 246 302 357
#     4  11  24  42  64  92 125 163 205 253 306 364
#     4   9  18  35  57  84 120 156 196 246 302 357
#     4   9  18  34  59  85 115 159 198 243 303 357
#     4   9  18  34  59  85 115 159 198 243 303 357
#     4  10  24  42  66  92 124 162 208 254 304 364
#
# _framework density 26.783930000000002
#
# number of rings (size 3 to 8) (size 9 to 14) (size 15 to 20)
#    0.000    2.286    0.000    1.714    0.000   11.429 
#    0.000    8.571    0.000    0.000    0.000    0.000 
#    0.000    0.000    0.000    0.000    0.000    0.000 
#
# Total GULP energy -173572.679641 kJ/mol
# GULP energy per Si atom -12398.048546 kJ/mol
# Density = 2.672297 g / cm^3
# Si number density = 26.783930 Si / 1000 Ang^3
#
#
#
# Elastic Constant Matrix: (Units=GPa)
#
#
# Indices 1 2 3 4 5 6 
#
# 1 80.5246 30.8622 33.9272 -2.8338 3.3439 -3.5098
# 2 30.8622 196.6466 97.1108 -3.3843 -19.8248 -5.0438
# 3 33.9272 97.1108 199.2265 8.2029 -25.2486 -8.4119
# 4 -2.8338 -3.3843 8.2029 36.3686 0.9878 -7.7667
# 5 3.3439 -19.8248 -25.2486 0.9878 29.7728 -0.0069
# 6 -3.5098 -5.0438 -8.4119 -7.7667 -0.0069 39.8526
#
#
#
# Elastic Compliance Matrix: (Units=1/GPa)
#
#
# Indices 1 2 3 4 5 6 
#
# 1 0.014270 -0.001506 -0.002318 0.001819 -0.004632 0.000930
# 2 -0.001506 0.007022 -0.002903 0.001208 0.002343 0.000379
# 3 -0.002318 -0.002903 0.007552 -0.002156 0.004804 0.000603
# 4 0.001819 0.001208 -0.002156 0.029494 -0.002205 0.005606
# 5 -0.004632 0.002343 0.004804 -0.002205 0.039815 0.000480
# 6 0.000930 0.000379 0.000603 0.005606 0.000480 0.026442
#
#
# Mechanical properties :
#
#
# Convention : Reuss Voigt Hill
#
# Bulk Modulus (GPa) = 64.98478 88.91091 76.94784
# Shear Modulus (GPa) = 34.92103 42.16530 38.54317
#
# Velocity S-wave (km/s) = 3.61474 3.97202 3.79758
# Velocity P-wave (km/s) = 6.46042 7.36910 6.92967
#
# Compressibility (1/GPa) = 0.01538822
#
# Stress axis : x y z
#
# Youngs Moduli (GPa) = 70.07887 142.40837 132.40960
#
# Poissons Ratio (x) = 0.21452 0.30698
# Poissons Ratio (y) = 0.10557 0.38440
# Poissons Ratio (z) = 0.16247 0.41342
#
# Static dielectric constant tensor:
#      x y z
#    x 5.045980 0.327200 -0.093140 
#    y 0.327200 5.037440 -0.075030 
#    z -0.093140 -0.075030 4.926480 
# 
# 
# High freq. dielectric constant tensor:
#      x y z
#    x 2.107410 0.030510 0.009280 
#    y 0.030510 2.095910 -0.006840 
#    z 0.009280 -0.006840 2.066260 
# 
# From -- ./inp_files/223113.got.cif
#   From: 2010.06.25/outbox.cif.g09.slc.cpg/sg2_112_cif.got.tgz:223113.got - 2010.06.27 13:26:56.
