data_PCOD8026635
_publ_section_title
;
Structure prediction by ZEFSAII (Michael W. Deem and Ramdas Pophale) SiO2 
 PCOD8026635
Probable space group: P -1
;
_chemical_formula_sum "Si O2"
_cell_formula_units_Z 14
_cell_length_a 11.872471
_cell_length_b 6.648347
_cell_length_c 7.642271
_cell_angle_alpha 83.369052
_cell_angle_beta 100.977621
_cell_angle_gamma 107.264184
_cell_volume 564.384630
_symmetry_space_group_name_H-M "P -1"
_symmetry_group_IT_number 2
_symmetry_cell_setting 'triclinic'
loop_
_space_group_symop_operation_xyz
x,y,z
-x,-y,-z
loop_
_atom_site_type_symbol
_atom_site_label
_atom_site_fract_x
_atom_site_fract_y
_atom_site_fract_z
Si Si1 0.914985 0.149133 0.034888
Si Si2 0.054830 0.138498 0.662292
Si Si3 0.289023 0.491610 0.361054
Si Si4 0.671464 0.722297 0.275553
Si Si5 0.980038 0.495051 0.730011
Si Si6 0.324253 0.188259 0.101393
Si Si7 0.473850 0.922236 0.306161
O O1 0.921463 0.291493 0.202637
O O2 0.986933 0.981250 0.147327
O O3 0.979149 0.319605 0.895341
O O4 0.782350 0.022063 0.950674
O O5 0.191914 0.147313 0.682094
O O6 0.027324 0.366600 0.600987
O O7 0.000000 0.000000 0.500000
O O8 0.352322 0.464033 0.568648
O O9 0.150466 0.477153 0.347379
O O10 0.295345 0.303816 0.252259
O O11 0.361880 0.713574 0.282359
O O12 0.592077 0.881147 0.267157
O O13 0.650408 0.648280 0.072946
O O14 0.441527 0.109327 0.172034
O O15 0.500000 0.000000 0.500000
#
# Coordination Sequence:
#
# PCOD8026635 Si02
#       7
#     2   2   2   2   2   2   2
#     4  10  24  42  72 101 142 188 238 287 357 431
#     4  11  26  44  68 106 145 188 234 296 363 425
#     4  12  27  48  76 110 144 193 241 297 362 434
#     4  11  27  47  72 109 144 185 244 304 351 431
#     4  11  25  43  71 107 144 187 237 293 359 433
#     4  11  26  49  75 108 145 191 244 296 369 422
#     4  12  26  51  76 103 144 196 242 302 364 421
#
# _framework density 24.805776999999999
#
# number of rings (size 3 to 8) (size 9 to 14) (size 15 to 20)
#    0.000    0.857    2.857    2.143   14.000    2.857 
#    5.143    0.000    0.000    0.000    0.000    0.000 
#    0.000    0.000    0.000    0.000    0.000    0.000 
#
# Total GULP energy -173477.287511 kJ/mol
# GULP energy per Si atom -12391.234822 kJ/mol
# Density = 2.474932 g / cm^3
# Si number density = 24.805777 Si / 1000 Ang^3
#
#
#
# Elastic Constant Matrix: (Units=GPa)
#
#
# Indices 1 2 3 4 5 6 
#
# 1 133.1693 47.1860 38.8360 3.8210 13.5145 -28.3325
# 2 47.1860 120.8217 36.8690 12.8982 15.3408 -20.2895
# 3 38.8360 36.8690 119.8536 -22.8931 18.3215 -15.1496
# 4 3.8210 12.8982 -22.8931 41.0822 -0.2261 9.5504
# 5 13.5145 15.3408 18.3215 -0.2261 35.7195 -5.1676
# 6 -28.3325 -20.2895 -15.1496 9.5504 -5.1676 37.7549
#
#
#
# Elastic Compliance Matrix: (Units=1/GPa)
#
#
# Indices 1 2 3 4 5 6 
#
# 1 0.010462 -0.001715 -0.002519 -0.003387 -0.000991 0.006640
# 2 -0.001715 0.011797 -0.003393 -0.006631 -0.001982 0.005098
# 3 -0.002519 -0.003393 0.012245 0.008447 -0.004033 -0.001488
# 4 -0.003387 -0.006631 0.008447 0.034127 -0.001662 -0.011576
# 5 -0.000991 -0.001982 -0.004033 -0.001662 0.031468 0.001301
# 6 0.006640 0.005098 -0.001488 -0.011576 0.001301 0.036718
#
#
# Mechanical properties :
#
#
# Convention : Reuss Voigt Hill
#
# Bulk Modulus (GPa) = 51.94291 68.84741 60.39516
# Shear Modulus (GPa) = 31.54844 39.64156 35.59500
#
# Velocity S-wave (km/s) = 3.57012 4.00193 3.79218
# Velocity P-wave (km/s) = 6.16277 7.01205 6.60108
#
# Compressibility (1/GPa) = 0.01925190
#
# Stress axis : x y z
#
# Youngs Moduli (GPa) = 95.58631 84.76580 81.66630
#
# Poissons Ratio (x) = 0.14535 0.20569
# Poissons Ratio (y) = 0.16391 0.27706
# Poissons Ratio (z) = 0.24075 0.28757
#
# Static dielectric constant tensor:
#      x y z
#    x 1.214390 0.086450 -0.291670 
#    y 0.086450 4.811670 -0.155350 
#    z -0.291670 -0.155350 5.243120 
# 
# 
# High freq. dielectric constant tensor:
#      x y z
#    x 1.977760 -0.020150 0.005450 
#    y -0.020150 1.995670 -0.008880 
#    z 0.005450 -0.008880 2.029010 
# 
# From -- ./inp_files/229650.got.cif
#   From: 2010.06.25/outbox.cif.g09.slc.cpg/sg2_115_cif.got.tgz:229650.got - 2010.06.27 13:26:56.
