data_PCOD8026807
_publ_section_title
;
Structure prediction by ZEFSAII (Michael W. Deem and Ramdas Pophale) SiO2 
 PCOD8026807
Probable space group: P -1
;
_chemical_formula_sum "Si O2"
_cell_formula_units_Z 16
_cell_length_a 12.545519
_cell_length_b 8.728148
_cell_length_c 8.975518
_cell_angle_alpha 118.607544
_cell_angle_beta 107.990964
_cell_angle_gamma 56.566674
_cell_volume 718.692133
_symmetry_space_group_name_H-M "P -1"
_symmetry_group_IT_number 2
_symmetry_cell_setting 'triclinic'
loop_
_space_group_symop_operation_xyz
x,y,z
-x,-y,-z
loop_
_atom_site_type_symbol
_atom_site_label
_atom_site_fract_x
_atom_site_fract_y
_atom_site_fract_z
Si Si1 0.307766 0.908232 0.259861
Si Si2 0.523296 0.564858 0.381792
Si Si3 0.035810 0.975462 0.176504
Si Si4 0.082402 0.282767 0.859835
Si Si5 0.282250 0.317188 0.386300
Si Si6 0.478841 0.680972 0.977549
Si Si7 0.358312 0.191386 0.033574
Si Si8 0.016864 0.651181 0.473356
O O1 0.399057 0.757420 0.353189
O O2 0.189040 0.866470 0.191926
O O3 0.262764 0.142703 0.378212
O O4 0.373024 0.877575 0.108467
O O5 0.500000 0.500000 0.500000
O O6 0.628670 0.635550 0.447407
O O7 0.573597 0.357131 0.217408
O O8 0.985265 0.175103 0.345402
O O9 0.980433 0.845590 0.167290
O O10 0.000000 0.000000 0.000000
O O11 0.232927 0.177981 0.921913
O O12 0.080542 0.278754 0.676580
O O13 0.000000 0.500000 0.000000
O O14 0.154690 0.522657 0.399593
O O15 0.345402 0.265185 0.228884
O O16 0.500000 0.500000 0.000000
O O17 0.618008 0.666380 0.004825
O O18 0.500000 0.000000 0.000000
O O19 0.000000 0.500000 0.500000
#
# Coordination Sequence:
#
# PCOD8026807 Si02
#       8
#     2   2   2   2   2   2   2   2
#     4  11  25  47  72 106 149 194 251 302 380 449
#     4  11  25  42  70 106 145 189 242 310 370 441
#     4  12  28  51  78 108 152 200 256 317 382 464
#     4  12  28  49  80 111 153 208 253 319 387 455
#     4  12  24  46  73 107 150 195 249 312 375 453
#     4  10  24  43  68 104 141 188 243 304 370 446
#     4  12  25  46  76 108 150 192 253 309 382 449
#     4  12  27  50  74 110 151 196 260 311 381 459
#
# _framework density 22.26266
#
# number of rings (size 3 to 8) (size 9 to 14) (size 15 to 20)
#    0.000    0.500    5.000    2.250    7.000    3.000 
#    0.000    0.000    0.000    0.000    0.000    0.000 
#    0.000    0.000    0.000    0.000    0.000    0.000 
#
# Total GULP energy -198235.054380 kJ/mol
# GULP energy per Si atom -12389.690899 kJ/mol
# Density = 2.221199 g / cm^3
# Si number density = 22.262660 Si / 1000 Ang^3
#
#
#
# Elastic Constant Matrix: (Units=GPa)
#
#
# Indices 1 2 3 4 5 6 
#
# 1 169.3483 45.6972 45.7807 -3.2204 21.4773 8.4252
# 2 45.6972 98.3724 45.6229 -0.3530 4.8254 2.1533
# 3 45.7807 45.6229 138.0851 1.0002 -0.3966 2.3619
# 4 -3.2204 -0.3530 1.0002 42.9397 -0.0937 1.0211
# 5 21.4773 4.8254 -0.3966 -0.0937 47.8724 -0.9846
# 6 8.4252 2.1533 2.3619 1.0211 -0.9846 54.3633
#
#
#
# Elastic Compliance Matrix: (Units=1/GPa)
#
#
# Indices 1 2 3 4 5 6 
#
# 1 0.007497 -0.002542 -0.001641 0.000598 -0.003141 -0.001058
# 2 -0.002542 0.012949 -0.003436 -0.000005 -0.000193 0.000027
# 3 -0.001641 -0.003436 0.008927 -0.000357 0.001156 0.000030
# 4 0.000598 -0.000005 -0.000357 0.023353 -0.000236 -0.000520
# 5 -0.003141 -0.000193 0.001156 -0.000236 0.022344 0.000853
# 6 -0.001058 0.000027 0.000030 -0.000520 0.000853 0.018582
#
#
# Mechanical properties :
#
#
# Convention : Reuss Voigt Hill
#
# Bulk Modulus (GPa) = 70.75318 75.55639 73.15478
# Shear Modulus (GPa) = 44.01324 46.94874 45.48099
#
# Velocity S-wave (km/s) = 4.45117 4.59721 4.52478
# Velocity P-wave (km/s) = 7.63330 7.88615 7.76076
#
# Compressibility (1/GPa) = 0.01413364
#
# Stress axis : x y z
#
# Youngs Moduli (GPa) = 133.38732 77.22617 112.02339
#
# Poissons Ratio (x) = 0.19632 0.18381
# Poissons Ratio (y) = 0.33910 0.38496
# Poissons Ratio (z) = 0.21887 0.26538
#
# Static dielectric constant tensor:
#      x y z
#    x -0.557270 5.327020 1.904060 
#    y 5.327020 -1.529170 -1.527670 
#    z 1.904060 -1.527670 2.973200 
# 
# 
# High freq. dielectric constant tensor:
#      x y z
#    x 1.896780 0.011560 -0.004780 
#    y 0.011560 1.882930 0.004750 
#    z -0.004780 0.004750 1.889540 
# 
# From -- ./inp_files/245610.got.cif
#   From: 2010.06.25/outbox.cif.g09.slc.cpg/sg2_123_cif.got.tgz:245610.got - 2010.06.27 13:26:56.
