data_PCOD8026385
_publ_section_title
;
Structure prediction by ZEFSAII (Michael W. Deem and Ramdas Pophale) SiO2 
 PCOD8026385
Probable space group: P -1
;
_chemical_formula_sum "Si O2"
_cell_formula_units_Z 16
_cell_length_a 8.183202
_cell_length_b 6.881696
_cell_length_c 19.462762
_cell_angle_alpha 82.869660
_cell_angle_beta 40.976748
_cell_angle_gamma 84.712404
_cell_volume 713.165507
_symmetry_space_group_name_H-M "P -1"
_symmetry_group_IT_number 2
_symmetry_cell_setting 'triclinic'
loop_
_space_group_symop_operation_xyz
x,y,z
-x,-y,-z
loop_
_atom_site_type_symbol
_atom_site_label
_atom_site_fract_x
_atom_site_fract_y
_atom_site_fract_z
Si Si1 0.984266 0.364474 0.113912
Si Si2 0.050459 0.691421 0.356615
Si Si3 0.413827 0.370146 0.747286
Si Si4 0.932506 0.594185 0.759110
Si Si5 0.369338 0.569911 0.467605
Si Si6 0.009316 0.937000 0.078204
Si Si7 0.597131 0.381426 0.039318
Si Si8 0.772362 0.085051 0.423918
O O1 0.707295 0.444510 0.180976
O O2 0.029325 0.456945 0.171385
O O3 0.010845 0.132678 0.114997
O O4 0.195826 0.475825 0.995358
O O5 0.324709 0.676713 0.299917
O O6 0.027072 0.599740 0.291587
O O7 0.857168 0.576728 0.472232
O O8 0.977764 0.917905 0.370870
O O9 0.438978 0.427036 0.656274
O O10 0.235530 0.182465 0.818471
O O11 0.644091 0.664208 0.834894
O O12 0.129352 0.765376 0.671871
O O13 0.500000 0.500000 0.500000
O O14 0.253290 0.788052 0.503690
O O15 0.266161 0.821465 0.015464
O O16 0.000000 0.000000 0.000000
O O17 0.500000 0.500000 0.000000
O O18 0.500000 0.000000 0.500000
#
# Coordination Sequence:
#
# PCOD8026385 Si02
#       8
#     2   2   2   2   2   2   2   2
#     4  10  24  43  69  96 136 181 228 284 339 405
#     4  11  25  41  66 100 136 176 224 279 343 408
#     4  11  26  43  69 100 140 182 224 281 346 410
#     4  10  24  41  70  97 132 178 228 279 339 403
#     4  11  23  45  68  97 133 176 230 278 341 405
#     4  11  27  42  70 103 141 183 231 278 350 414
#     4   9  22  44  66  99 133 176 231 286 336 400
#     4  11  24  38  67  97 132 172 223 279 333 402
#
# _framework density 22.435184
#
# number of rings (size 3 to 8) (size 9 to 14) (size 15 to 20)
#    0.000    1.500    1.250    1.875    7.000    6.500 
#    0.000    0.000    0.000    0.000    0.000    0.000 
#    0.000    0.000    0.000    0.000    0.000    0.000 
#
# Total GULP energy -198282.751958 kJ/mol
# GULP energy per Si atom -12392.671997 kJ/mol
# Density = 2.238412 g / cm^3
# Si number density = 22.435184 Si / 1000 Ang^3
#
#
#
# Elastic Constant Matrix: (Units=GPa)
#
#
# Indices 1 2 3 4 5 6 
#
# 1 76.1655 21.9860 29.6660 8.7799 -13.9097 -16.2568
# 2 21.9860 156.4603 41.0399 22.2417 -15.5341 -10.9378
# 3 29.6660 41.0399 132.9438 -8.1222 -24.2241 -2.0892
# 4 8.7799 22.2417 -8.1222 38.3665 -1.5511 -11.5829
# 5 -13.9097 -15.5341 -24.2241 -1.5511 46.7631 5.2000
# 6 -16.2568 -10.9378 -2.0892 -11.5829 5.2000 30.4071
#
#
#
# Elastic Compliance Matrix: (Units=1/GPa)
#
#
# Indices 1 2 3 4 5 6 
#
# 1 0.016726 -0.000511 -0.003155 -0.001860 0.002281 0.007443
# 2 -0.000511 0.007916 -0.002434 -0.004827 0.001013 0.000395
# 3 -0.003155 -0.002434 0.009869 0.004082 0.003606 -0.000946
# 4 -0.001860 -0.004827 0.004082 0.033236 -0.000076 0.010223
# 5 0.002281 0.001013 0.003606 -0.000076 0.024531 -0.002392
# 6 0.007443 0.000395 -0.000946 0.010223 -0.002392 0.041247
#
#
# Mechanical properties :
#
#
# Convention : Reuss Voigt Hill
#
# Bulk Modulus (GPa) = 44.82410 61.21705 53.02057
# Shear Modulus (GPa) = 32.64531 41.29920 36.97226
#
# Velocity S-wave (km/s) = 3.81871 4.29514 4.06391
# Velocity P-wave (km/s) = 6.28221 7.20715 6.76052
#
# Compressibility (1/GPa) = 0.02230943
#
# Stress axis : x y z
#
# Youngs Moduli (GPa) = 59.78892 126.32673 101.32780
#
# Poissons Ratio (x) = 0.06461 0.31972
# Poissons Ratio (y) = 0.03058 0.24660
# Poissons Ratio (z) = 0.18865 0.30744
#
# Static dielectric constant tensor:
#      x y z
#    x 3.911930 0.017870 -0.457120 
#    y 0.017870 4.569720 0.139000 
#    z -0.457120 0.139000 4.859350 
# 
# 
# High freq. dielectric constant tensor:
#      x y z
#    x 1.869140 -0.005500 -0.025640 
#    y -0.005500 1.885020 0.002210 
#    z -0.025640 0.002210 1.911670 
# 
# From -- ./inp_files/585680.got.cif
#   From: 2010.06.25/outbox.cif.g09.slc.cpg/sg2_293_cif.got.tgz:585680.got - 2010.06.27 13:26:56.
