data_PCOD8026430
_publ_section_title
;
Structure prediction by ZEFSAII (Michael W. Deem and Ramdas Pophale) SiO2 
 PCOD8026430
Probable space group: P -1
;
_chemical_formula_sum "Si O2"
_cell_formula_units_Z 14
_cell_length_a 13.411988
_cell_length_b 8.859297
_cell_length_c 17.843017
_cell_angle_alpha 136.028391
_cell_angle_beta 25.962396
_cell_angle_gamma 131.341884
_cell_volume 643.780108
_symmetry_space_group_name_H-M "P -1"
_symmetry_group_IT_number 2
_symmetry_cell_setting 'triclinic'
loop_
_space_group_symop_operation_xyz
x,y,z
-x,-y,-z
loop_
_atom_site_type_symbol
_atom_site_label
_atom_site_fract_x
_atom_site_fract_y
_atom_site_fract_z
Si Si1 0.464775 0.175466 0.445335
Si Si2 0.882357 0.288993 0.297593
Si Si3 0.669870 0.134090 0.014745
Si Si4 0.800639 0.264859 0.514746
Si Si5 0.277416 0.277416 0.250000
Si Si6 0.022457 0.429092 0.797593
Si Si7 0.144555 0.855246 0.945335
O O1 0.616895 0.269934 0.444967
O O2 0.274653 0.343817 0.612374
O O3 0.619985 0.119985 0.250000
O O4 0.350508 0.950720 0.470919
O O5 0.904456 0.329587 0.385709
O O6 0.996900 0.496900 0.250000
O O7 0.000599 0.069764 0.112374
O O8 0.824125 0.249256 0.885710
O O9 0.644848 0.873827 0.925236
O O10 0.412672 0.216373 0.212597
O O11 0.792347 0.192133 0.029080
O O12 0.662135 0.465836 0.712597
O O13 0.004679 0.233658 0.425237
O O14 0.993171 0.646209 0.944967
#
# Coordination Sequence:
#
# PCOD8026430 Si02
#       7
#     2   2   2   2   2   2   2
#     4  11  23  40  64  96 123 156 201 253 310 368
#     4  11  23  40  64  96 123 156 201 253 310 368
#     4  11  23  44  65  86 126 162 206 249 305 351
#     4  11  23  44  65  86 126 162 206 249 305 351
#     4  10  24  42  64  88 120 168 210 248 286 368
#     4  11  23  40  64  96 123 156 201 253 310 368
#     4  11  23  40  64  96 123 156 201 253 310 368
#
# _framework density 21.746556000000002
#
# number of rings (size 3 to 8) (size 9 to 14) (size 15 to 20)
#    0.000    1.143    2.857    4.286    8.000    0.000 
#    0.000    8.571    0.000    0.000    0.000    0.000 
#    0.000    0.000    0.000    0.000    0.000    0.000 
#
# Total GULP energy -173525.632287 kJ/mol
# GULP energy per Si atom -12394.688020 kJ/mol
# Density = 2.169706 g / cm^3
# Si number density = 21.746556 Si / 1000 Ang^3
#
#
#
# Elastic Constant Matrix: (Units=GPa)
#
#
# Indices 1 2 3 4 5 6 
#
# 1 75.8271 48.9741 27.0573 -4.4609 -10.5240 -9.4829
# 2 48.9741 75.9113 27.2202 9.0996 5.8447 -11.3091
# 3 27.0573 27.2202 99.6148 19.5720 -19.7769 -6.4647
# 4 -4.4609 9.0996 19.5720 31.2275 -3.8938 0.2029
# 5 -10.5240 5.8447 -19.7769 -3.8938 31.7972 0.2012
# 6 -9.4829 -11.3091 -6.4647 0.2029 0.2012 25.1546
#
#
#
# Elastic Compliance Matrix: (Units=1/GPa)
#
#
# Indices 1 2 3 4 5 6 
#
# 1 0.031178 -0.021967 -0.002251 0.014089 0.014675 0.001068
# 2 -0.021967 0.032172 -0.003339 -0.012555 -0.016833 0.005561
# 3 -0.002251 -0.003339 0.014758 -0.007597 0.008108 0.001440
# 4 0.014089 -0.012555 -0.007597 0.043418 0.007580 -0.002697
# 5 0.014675 -0.016833 0.008108 0.007580 0.045374 -0.000376
# 6 0.001068 0.005561 0.001440 -0.002697 -0.000376 0.043052
#
#
# Mechanical properties :
#
#
# Convention : Reuss Voigt Hill
#
# Bulk Modulus (GPa) = 43.48891 50.87292 47.18092
# Shear Modulus (GPa) = 18.33310 27.50930 22.92120
#
# Velocity S-wave (km/s) = 2.90666 3.56054 3.25008
# Velocity P-wave (km/s) = 5.59521 6.35197 5.98556
#
# Compressibility (1/GPa) = 0.02299437
#
# Stress axis : x y z
#
# Youngs Moduli (GPa) = 32.07389 31.08310 67.75837
#
# Poissons Ratio (x) = 0.68280 0.15254
# Poissons Ratio (y) = 0.70456 0.22623
# Poissons Ratio (z) = 0.07221 0.10378
#
# Static dielectric constant tensor:
#      x y z
#    x 3.919690 -0.043790 -0.271810 
#    y -0.043790 3.897800 0.273440 
#    z -0.271810 0.273440 4.100330 
# 
# 
# High freq. dielectric constant tensor:
#      x y z
#    x 1.850810 0.006130 -0.024630 
#    y 0.006130 1.847830 0.025600 
#    z -0.024630 0.025600 1.860080 
# 
# From -- ./inp_files/221940.got.cif
#   From: 2010.06.25/outbox.cif.g09.slc.cpg/sg2_111_cif.got.tgz:221940.got - 2010.06.27 13:26:56.
