data_PCOD8026140
_publ_section_title
;
Structure prediction by ZEFSAII (Michael W. Deem and Ramdas Pophale) SiO2 
 PCOD8026140
Probable space group: P -1
;
_chemical_formula_sum "Si O2"
_cell_formula_units_Z 14
_cell_length_a 27.578948
_cell_length_b 5.251981
_cell_length_c 5.170649
_cell_angle_alpha 120.644173
_cell_angle_beta 84.737392
_cell_angle_gamma 100.193306
_cell_volume 634.177120
_symmetry_space_group_name_H-M "P -1"
_symmetry_group_IT_number 2
_symmetry_cell_setting 'triclinic'
loop_
_space_group_symop_operation_xyz
x,y,z
-x,-y,-z
loop_
_atom_site_type_symbol
_atom_site_label
_atom_site_fract_x
_atom_site_fract_y
_atom_site_fract_z
Si Si1 0.980915 0.649615 0.836151
Si Si2 0.782731 0.311917 0.865489
Si Si3 0.871469 0.709110 0.863877
Si Si4 0.672071 0.287194 0.836898
Si Si5 0.635131 0.915145 0.160988
Si Si6 0.480866 0.150103 0.836424
Si Si7 0.172143 0.203920 0.565216
O O1 0.000000 0.500000 0.500000
O O2 0.921939 0.591257 0.842353
O O3 0.000000 0.500000 0.000000
O O4 0.000000 0.000000 0.000000
O O5 0.825962 0.438151 0.706970
O O6 0.800196 0.455855 0.212296
O O7 0.730438 0.396934 0.853434
O O8 0.783382 0.957562 0.653875
O O9 0.855777 0.916044 0.214390
O O10 0.872424 0.854341 0.653698
O O11 0.654658 0.099577 0.496843
O O12 0.645251 0.576880 0.012303
O O13 0.661244 0.074582 0.980242
O O14 0.577518 0.910634 0.159806
O O15 0.500000 0.000000 0.500000
O O16 0.500000 0.500000 0.000000
O O17 0.500000 0.000000 0.000000
#
# Coordination Sequence:
#
# PCOD8026140 Si02
#       7
#     2   2   2   2   2   2   2
#     4  12  28  46  73 102 139 178 226 285 353 404
#     4  10  26  41  69  94 133 179 224 271 335 406
#     4  10  26  42  70  95 135 170 231 271 335 406
#     4  12  27  44  71  98 147 178 229 278 353 404
#     4  12  26  46  69 106 141 182 226 289 340 404
#     4  12  25  45  74 102 137 183 236 282 340 404
#     4  10  24  38  68  92 131 165 232 265 334 384
#
# _framework density 22.075852000000001
#
# number of rings (size 3 to 8) (size 9 to 14) (size 15 to 20)
#    0.857    0.000    0.000    6.000   10.000    0.000 
#    0.000    0.000    0.000    0.000    0.000    0.000 
#    0.000    0.000    0.000    0.000    0.000    0.000 
#
# Total GULP energy -173467.832204 kJ/mol
# GULP energy per Si atom -12390.559443 kJ/mol
# Density = 2.202561 g / cm^3
# Si number density = 22.075852 Si / 1000 Ang^3
#
#
#
# Elastic Constant Matrix: (Units=GPa)
#
#
# Indices 1 2 3 4 5 6 
#
# 1 188.1600 21.7595 51.8483 -5.1842 10.2899 -15.2043
# 2 21.7595 114.2136 72.1802 -10.5172 -1.6268 -10.8012
# 3 51.8483 72.1802 202.7462 -10.7139 -12.3185 -20.6010
# 4 -5.1842 -10.5172 -10.7139 50.9902 -10.6992 0.7821
# 5 10.2899 -1.6268 -12.3185 -10.6992 36.7814 2.5424
# 6 -15.2043 -10.8012 -20.6010 0.7821 2.5424 44.5501
#
#
#
# Elastic Compliance Matrix: (Units=1/GPa)
#
#
# Indices 1 2 3 4 5 6 
#
# 1 0.005980 -0.000111 -0.001497 -0.000245 -0.002352 0.001460
# 2 -0.000111 0.011459 -0.003906 0.001429 -0.000419 0.000933
# 3 -0.001497 -0.003906 0.007104 0.001104 0.002832 0.001646
# 4 -0.000245 0.001429 0.001104 0.021533 0.006764 0.000009
# 5 -0.002352 -0.000419 0.002832 0.006764 0.030845 -0.001473
# 6 0.001460 0.000933 0.001646 0.000009 -0.001473 0.024016
#
#
# Mechanical properties :
#
#
# Convention : Reuss Voigt Hill
#
# Bulk Modulus (GPa) = 74.00089 88.52176 81.26133
# Shear Modulus (GPa) = 42.92947 50.41980 46.67464
#
# Velocity S-wave (km/s) = 4.41459 4.78424 4.60312
# Velocity P-wave (km/s) = 7.71873 8.40860 8.07104
#
# Compressibility (1/GPa) = 0.01351335
#
# Stress axis : x y z
#
# Youngs Moduli (GPa) = 167.22849 87.26544 140.77553
#
# Poissons Ratio (x) = 0.00969 0.21076
# Poissons Ratio (y) = 0.01858 0.54992
# Poissons Ratio (z) = 0.25037 0.34089
#
# Static dielectric constant tensor:
#      x y z
#    x 4.118490 -0.064460 -0.013060 
#    y -0.064460 4.052420 -0.025220 
#    z -0.013060 -0.025220 4.183440 
# 
# 
# High freq. dielectric constant tensor:
#      x y z
#    x 1.881220 -0.008210 -0.002030 
#    y -0.008210 1.859300 -0.004610 
#    z -0.002030 -0.004610 1.896090 
# 
# From -- ./inp_files/121927.got.cif
#   From: 2010.06.25/outbox.cif.g09.slc.cpg/sg2_61_cif.got.tgz:121927.got - 2010.06.27 13:26:56.
