data_PCOD8026039
_publ_section_title
;
Structure prediction by ZEFSAII (Michael W. Deem and Ramdas Pophale) SiO2 
 PCOD8026039
Probable space group: P -1
;
_chemical_formula_sum "Si O2"
_cell_formula_units_Z 12
_cell_length_a 10.052768
_cell_length_b 5.195537
_cell_length_c 11.438467
_cell_angle_alpha 79.822677
_cell_angle_beta 52.052659
_cell_angle_gamma 66.555720
_cell_volume 430.312669
_symmetry_space_group_name_H-M "P -1"
_symmetry_group_IT_number 2
_symmetry_cell_setting 'triclinic'
loop_
_space_group_symop_operation_xyz
x,y,z
-x,-y,-z
loop_
_atom_site_type_symbol
_atom_site_label
_atom_site_fract_x
_atom_site_fract_y
_atom_site_fract_z
Si Si1 0.838221 0.790347 0.165362
Si Si2 0.943442 0.837680 0.417544
Si Si3 0.779688 0.603631 0.976435
Si Si4 0.242306 0.537742 0.583983
Si Si5 0.549763 0.355047 0.258068
Si Si6 0.745528 0.704827 0.727652
O O1 0.845545 0.780860 0.020856
O O2 0.735994 0.582171 0.284480
O O3 0.725201 0.110403 0.239343
O O4 0.043866 0.689215 0.114785
O O5 0.835391 0.673986 0.420670
O O6 0.868881 0.866760 0.590622
O O7 0.156101 0.636250 0.317490
O O8 0.903298 0.143915 0.360897
O O9 0.604364 0.558858 0.126665
O O10 0.721509 0.773745 0.873024
O O11 0.428771 0.516704 0.421716
O O12 0.446653 0.204804 0.241981
#
# Coordination Sequence:
#
# PCOD8026039 Si02
#       6
#     2   2   2   2   2   2
#     4  11  26  47  70 108 143 201 234 301 367 443
#     4  10  24  47  78 110 141 195 246 301 364 431
#     4  11  25  47  70 105 147 195 239 296 372 439
#     4  11  25  48  79 107 146 192 249 301 359 437
#     4  11  26  44  73 109 144 186 247 306 363 423
#     4  10  23  47  74 109 142 190 245 305 359 433
#
# _framework density 27.886699
#
# number of rings (size 3 to 8) (size 9 to 14) (size 15 to 20)
#    0.000    1.333    1.667    1.500    7.000   10.000 
#    6.000    0.000    0.000    0.000    0.000    0.000 
#    0.000    0.000    0.000    0.000    0.000    0.000 
#
# Total GULP energy -148803.223547 kJ/mol
# GULP energy per Si atom -12400.268629 kJ/mol
# Density = 2.782323 g / cm^3
# Si number density = 27.886699 Si / 1000 Ang^3
#
#
#
# Elastic Constant Matrix: (Units=GPa)
#
#
# Indices 1 2 3 4 5 6 
#
# 1 47.5827 -18.3463 14.7414 -7.7153 9.5619 -17.9997
# 2 -18.3463 101.6135 5.0525 -5.3516 16.0465 2.4891
# 3 14.7414 5.0525 149.2827 -31.1171 2.7247 -10.8850
# 4 -7.7153 -5.3516 -31.1171 45.4129 -16.7025 -4.5625
# 5 9.5619 16.0465 2.7247 -16.7025 49.8076 -5.8674
# 6 -17.9997 2.4891 -10.8850 -4.5625 -5.8674 27.1569
#
#
#
# Elastic Compliance Matrix: (Units=1/GPa)
#
#
# Indices 1 2 3 4 5 6 
#
# 1 0.033929 0.006547 -0.000396 0.007172 -0.003586 0.022160
# 2 0.006547 0.011758 -0.000695 0.000548 -0.004577 0.002086
# 3 -0.000396 -0.000695 0.008607 0.007323 0.002886 0.005105
# 4 0.007172 0.000548 0.007323 0.034079 0.011337 0.015814
# 5 -0.003586 -0.004577 0.002886 0.011337 0.026694 0.006872
# 6 0.022160 0.002086 0.005105 0.015814 0.006872 0.057507
#
#
# Mechanical properties :
#
#
# Convention : Reuss Voigt Hill
#
# Bulk Modulus (GPa) = 15.33569 33.48602 24.41086
# Shear Modulus (GPa) = 27.26310 44.27756 35.77033
#
# Velocity S-wave (km/s) = 3.13011 3.98900 3.58537
# Velocity P-wave (km/s) = 4.30984 5.76629 5.09042
#
# Compressibility (1/GPa) = 0.06520735
#
# Stress axis : x y z
#
# Youngs Moduli (GPa) = 29.47331 85.04584 116.18066
#
# Poissons Ratio (x) = -0.55677 0.04598
# Poissons Ratio (y) = -0.19295 0.08069
# Poissons Ratio (z) = 0.01166 0.05907
#
# Static dielectric constant tensor:
#      x y z
#    x 4.951620 -0.366720 0.250840 
#    y -0.366720 4.706990 -0.154790 
#    z 0.250840 -0.154790 5.800240 
# 
# 
# High freq. dielectric constant tensor:
#      x y z
#    x 2.131190 -0.012580 0.012170 
#    y -0.012580 2.105020 -0.004360 
#    z 0.012170 -0.004360 2.142950 
# 
# From -- ./inp_files/79794.got.cif
#   From: 2010.06.25/outbox.cif.g09.slc.cpg/sg2_40_cif.got.tgz:79794.got - 2010.06.27 13:26:56.
