data_PCOD8026432
_publ_section_title
;
Structure prediction by ZEFSAII (Michael W. Deem and Ramdas Pophale) SiO2 
 PCOD8026432
Probable space group: P -1
;
_chemical_formula_sum "Si O2"
_cell_formula_units_Z 14
_cell_length_a 12.602192
_cell_length_b 11.015609
_cell_length_c 11.569251
_cell_angle_alpha 43.682254
_cell_angle_beta 126.883612
_cell_angle_gamma 145.531197
_cell_volume 627.746751
_symmetry_space_group_name_H-M "P -1"
_symmetry_group_IT_number 2
_symmetry_cell_setting 'triclinic'
loop_
_space_group_symop_operation_xyz
x,y,z
-x,-y,-z
loop_
_atom_site_type_symbol
_atom_site_label
_atom_site_fract_x
_atom_site_fract_y
_atom_site_fract_z
Si Si1 0.077359 0.501697 0.226688
Si Si2 0.346738 0.771988 0.417678
Si Si3 0.147057 0.243310 0.295344
Si Si4 0.536236 0.287585 0.252862
Si Si5 0.768907 0.008480 0.126696
Si Si6 0.699608 0.980939 0.353478
Si Si7 0.430802 0.561880 0.068686
O O1 0.160042 0.605925 0.336083
O O2 0.144966 0.377169 0.307742
O O3 0.853488 0.281206 0.249910
O O4 0.138551 0.716983 0.033813
O O5 0.316905 0.611552 0.616759
O O6 0.380003 0.990233 0.349004
O O7 0.518801 0.870750 0.381447
O O8 0.283542 0.457270 0.143856
O O9 0.939591 0.033274 0.247614
O O10 0.216814 0.120435 0.469308
O O11 0.423889 0.355486 0.166226
O O12 0.632445 0.387947 0.120520
O O13 0.644732 0.905114 0.234335
O O14 0.638700 0.816712 0.070206
#
# Coordination Sequence:
#
# PCOD8026432 Si02
#       7
#     2   2   2   2   2   2   2
#     4  11  24  40  66  97 125 160 204 258 317 372
#     4  11  23  44  66  88 129 165 208 256 310 357
#     4  11  24  40  66  97 125 160 204 258 317 372
#     4  10  24  42  64  90 122 170 216 252 290 376
#     4  11  24  40  66  97 125 160 204 258 317 372
#     4  11  24  40  66  97 125 160 204 258 317 372
#     4  11  23  44  66  88 129 165 208 256 310 357
#
# _framework density 22.301987
#
# number of rings (size 3 to 8) (size 9 to 14) (size 15 to 20)
#    0.000    1.143    2.857    4.286    8.000    2.286 
#    0.000    8.571    0.000    0.000    0.000    0.000 
#    0.000    0.000    0.000    0.000    0.000    0.000 
#
# Total GULP energy -173558.699910 kJ/mol
# GULP energy per Si atom -12397.049994 kJ/mol
# Density = 2.225123 g / cm^3
# Si number density = 22.301987 Si / 1000 Ang^3
#
#
#
# Elastic Constant Matrix: (Units=GPa)
#
#
# Indices 1 2 3 4 5 6 
#
# 1 32.2665 35.2470 12.4552 -1.1266 2.9152 -4.6763
# 2 35.2470 69.0281 19.8502 9.3629 -14.4891 -7.2921
# 3 12.4552 19.8502 122.0595 12.9796 -23.4106 -3.4078
# 4 -1.1266 9.3629 12.9796 33.7625 -9.3449 -5.2230
# 5 2.9152 -14.4891 -23.4106 -9.3449 33.4890 -0.7791
# 6 -4.6763 -7.2921 -3.4078 -5.2230 -0.7791 17.8519
#
#
#
# Elastic Compliance Matrix: (Units=1/GPa)
#
#
# Indices 1 2 3 4 5 6 
#
# 1 0.105133 -0.060438 -0.009580 0.013961 -0.038022 0.003449
# 2 -0.060438 0.051794 0.004276 -0.009537 0.028105 0.004578
# 3 -0.009580 0.004276 0.010588 -0.002874 0.009303 0.000824
# 4 0.013961 -0.009537 -0.002874 0.036196 0.002981 0.009933
# 5 -0.038022 0.028105 0.009303 0.002981 0.052816 0.006473
# 6 0.003449 0.004578 0.000824 0.009933 0.006473 0.062136
#
#
# Mechanical properties :
#
#
# Convention : Reuss Voigt Hill
#
# Bulk Modulus (GPa) = 27.75311 39.82875 33.79093
# Shear Modulus (GPa) = 10.81884 27.40746 19.11315
#
# Velocity S-wave (km/s) = 2.20490 3.50941 2.93066
# Velocity P-wave (km/s) = 4.35355 5.85823 5.16102
#
# Compressibility (1/GPa) = 0.03603200
#
# Stress axis : x y z
#
# Youngs Moduli (GPa) = 9.51173 19.30709 94.44991
#
# Poissons Ratio (x) = 1.16689 0.90482
# Poissons Ratio (y) = 0.57487 -0.40391
# Poissons Ratio (z) = 0.09112 -0.08257
#
# Static dielectric constant tensor:
#      x y z
#    x 3.855810 -0.147540 -0.175440 
#    y -0.147540 3.975130 0.071550 
#    z -0.175440 0.071550 4.546430 
# 
# 
# High freq. dielectric constant tensor:
#      x y z
#    x 1.862690 -0.018610 -0.003810 
#    y -0.018610 1.868520 0.005660 
#    z -0.003810 0.005660 1.906740 
# 
# From -- ./inp_files/256160.got.cif
#   From: 2010.06.25/outbox.cif.g09.slc.cpg/sg2_129_cif.got.tgz:256160.got - 2010.06.27 13:26:56.
