data_PCOD8026341
_publ_section_title
;
Structure prediction by ZEFSAII (Michael W. Deem and Ramdas Pophale) SiO2 
 PCOD8026341
Probable space group: P -1
;
_chemical_formula_sum "Si O2"
_cell_formula_units_Z 12
_cell_length_a 5.282884
_cell_length_b 5.018046
_cell_length_c 22.504265
_cell_angle_alpha 68.793027
_cell_angle_beta 114.753617
_cell_angle_gamma 90.198966
_cell_volume 497.301393
_symmetry_space_group_name_H-M "P -1"
_symmetry_group_IT_number 2
_symmetry_cell_setting 'triclinic'
loop_
_space_group_symop_operation_xyz
x,y,z
-x,-y,-z
loop_
_atom_site_type_symbol
_atom_site_label
_atom_site_fract_x
_atom_site_fract_y
_atom_site_fract_z
Si Si1 0.939131 0.425169 0.933500
Si Si2 0.702341 0.256747 0.657896
Si Si3 0.182005 0.654993 0.549221
Si Si4 0.350670 0.264071 0.887972
Si Si5 0.743250 0.853095 0.581119
Si Si6 0.965748 0.145626 0.180714
O O1 0.689668 0.234948 0.923463
O O2 0.854499 0.727708 0.863920
O O3 0.222190 0.240910 0.944424
O O4 0.000000 0.500000 0.000000
O O5 0.371605 0.394351 0.626626
O O6 0.864668 0.530777 0.645487
O O7 0.730499 0.086576 0.612368
O O8 0.813963 0.055868 0.739944
O O9 0.420259 0.820415 0.525734
O O10 0.000000 0.500000 0.500000
O O11 0.986365 0.890285 0.553356
O O12 0.209697 0.581792 0.822302
O O13 0.268028 0.019718 0.857324
#
# Coordination Sequence:
#
# PCOD8026341 Si02
#       6
#     2   2   2   2   2   2
#     4  10  24  43  67  97 130 171 217 270 325 388
#     4  10  24  44  64  97 130 175 218 271 327 391
#     4  10  24  43  67  97 130 171 217 270 325 388
#     4  10  24  41  67  92 129 170 218 267 328 387
#     4  10  24  41  67  92 129 170 218 267 328 387
#     4  10  24  44  64  97 130 175 218 271 327 391
#
# _framework density 24.130234999999999
#
# number of rings (size 3 to 8) (size 9 to 14) (size 15 to 20)
#    2.000    0.000    0.000    2.000    4.667    4.000 
#    6.000    0.000    0.000    0.000    0.000    0.000 
#    0.000    0.000    0.000    0.000    0.000    0.000 
#
# Total GULP energy -148706.303454 kJ/mol
# GULP energy per Si atom -12392.191954 kJ/mol
# Density = 2.407531 g / cm^3
# Si number density = 24.130235 Si / 1000 Ang^3
#
#
#
# Elastic Constant Matrix: (Units=GPa)
#
#
# Indices 1 2 3 4 5 6 
#
# 1 153.7452 25.0002 36.3284 4.5957 -7.0367 1.9829
# 2 25.0002 103.3692 -6.5425 6.1962 -14.4128 5.0808
# 3 36.3284 -6.5425 56.5868 21.2799 -30.8663 12.2911
# 4 4.5957 6.1962 21.2799 26.4773 10.8864 -0.7891
# 5 -7.0367 -14.4128 -30.8663 10.8864 22.4075 2.5333
# 6 1.9829 5.0808 12.2911 -0.7891 2.5333 43.2799
#
#
#
# Elastic Compliance Matrix: (Units=1/GPa)
#
#
# Indices 1 2 3 4 5 6 
#
# 1 0.006652 -0.000216 0.001529 -0.005113 0.006676 -0.001198
# 2 -0.000216 0.007517 -0.007015 0.007578 -0.008778 0.001772
# 3 0.001529 -0.007015 -0.010830 0.022909 -0.030763 0.006047
# 4 -0.005113 0.007578 0.022909 0.004324 0.033749 -0.009058
# 5 0.006676 -0.008778 -0.030763 0.033749 -0.018959 0.011186
# 6 -0.001198 0.001772 0.006047 -0.009058 0.011186 0.020415
#
#
# Mechanical properties :
#
#
# Convention : Reuss Voigt Hill
#
# Bulk Modulus (GPa) = -123.99932 47.03037 -38.48448
# Shear Modulus (GPa) = 280.33544 35.69395 158.01469
#
# Velocity S-wave (km/s) = 10.79019 3.85024 8.10100
# Velocity P-wave (km/s) = 10.18521 6.26884 8.45686
#
# Compressibility (1/GPa) = -0.00806456
#
# Stress axis : x y z
#
# Youngs Moduli (GPa) = 150.33193 133.03095 -92.34030
#
# Poissons Ratio (x) = 0.02872 0.14117
# Poissons Ratio (y) = 0.03246 -0.64776
# Poissons Ratio (z) = -0.22983 0.93321
#
# Static dielectric constant tensor:
#      x y z
#    x 4.548520 0.138250 -0.018130 
#    y 0.138250 4.419290 -0.337310 
#    z -0.018130 -0.337310 4.151950 
# 
# 
# High freq. dielectric constant tensor:
#      x y z
#    x 1.963150 0.010080 -0.000040 
#    y 0.010080 1.979500 -0.028440 
#    z -0.000040 -0.028440 1.948710 
# 
# From -- ./inp_files/9667.got.cif
#   From: 2010.06.25/outbox.cif.g09.slc.cpg/sg2_5_cif.got.tgz:9667.got - 2010.06.27 13:26:56.
