data_PCOD8026449
_publ_section_title
;
Structure prediction by ZEFSAII (Michael W. Deem and Ramdas Pophale) SiO2 
 PCOD8026449
Probable space group: P -1
;
_chemical_formula_sum "Si O2"
_cell_formula_units_Z 16
_cell_length_a 15.323596
_cell_length_b 15.822862
_cell_length_c 15.630970
_cell_angle_alpha 145.048443
_cell_angle_beta 160.753378
_cell_angle_gamma 35.585054
_cell_volume 699.928365
_symmetry_space_group_name_H-M "P -1"
_symmetry_group_IT_number 2
_symmetry_cell_setting 'triclinic'
loop_
_space_group_symop_operation_xyz
x,y,z
-x,-y,-z
loop_
_atom_site_type_symbol
_atom_site_label
_atom_site_fract_x
_atom_site_fract_y
_atom_site_fract_z
Si Si1 0.789040 0.039611 0.066936
Si Si2 0.586422 0.696326 0.422258
Si Si3 0.677074 0.368478 0.258441
Si Si4 0.210443 0.491470 0.261425
Si Si5 0.055365 0.879053 0.024977
Si Si6 0.512559 0.777429 0.604579
Si Si7 0.092247 0.995264 0.483627
Si Si8 0.857039 0.689925 0.228867
O O1 0.679040 0.213554 0.078673
O O2 0.855596 0.033706 0.225275
O O3 0.033608 0.964003 0.167366
O O4 0.568883 0.939236 0.763791
O O5 0.652617 0.521270 0.307005
O O6 0.856373 0.762814 0.732812
O O7 0.454572 0.695866 0.395534
O O8 0.365453 0.788471 0.229464
O O9 0.970474 0.346759 0.555510
O O10 0.403822 0.387883 0.080749
O O11 0.500000 0.500000 0.500000
O O12 0.242905 0.333866 0.212664
O O13 0.082992 0.631923 0.318666
O O14 0.000000 0.500000 0.000000
O O15 0.000000 0.000000 0.000000
O O16 0.259033 0.826126 0.475360
O O17 0.257758 0.130275 0.740272
O O18 0.000000 0.000000 0.500000
#
# Coordination Sequence:
#
# PCOD8026449 Si02
#       8
#     2   2   2   2   2   2   2   2
#     4  10  24  42  65  93 132 174 215 270 330 385
#     4  11  23  42  72  99 131 173 215 266 327 395
#     4  11  22  42  65  93 130 172 215 262 327 392
#     4  12  27  40  59  87 129 172 227 283 328 377
#     4  11  24  45  73 105 133 166 215 268 327 397
#     4  11  23  42  63  91 125 178 226 269 327 384
#     4  11  23  39  62  90 130 176 226 273 321 385
#     4  11  23  40  58  91 127 176 219 273 324 377
#
# _framework density 22.859482
#
# number of rings (size 3 to 8) (size 9 to 14) (size 15 to 20)
#    0.000    1.000    3.750    2.625    5.250    1.500 
#    0.000    1.250    0.000    0.000    0.000    0.000 
#    0.000    0.000    0.000    0.000    0.000    0.000 
#
# Total GULP energy -198232.052399 kJ/mol
# GULP energy per Si atom -12389.503275 kJ/mol
# Density = 2.280745 g / cm^3
# Si number density = 22.859482 Si / 1000 Ang^3
#
#
#
# Elastic Constant Matrix: (Units=GPa)
#
#
# Indices 1 2 3 4 5 6 
#
# 1 34.5124 5.8779 8.1776 0.6754 -1.4817 9.0334
# 2 5.8779 146.2074 41.5747 -0.4373 -9.2386 8.0405
# 3 8.1776 41.5747 99.8824 -4.0063 1.5143 6.8607
# 4 0.6754 -0.4373 -4.0063 44.0599 3.5423 -0.8435
# 5 -1.4817 -9.2386 1.5143 3.5423 23.0111 -7.7398
# 6 9.0334 8.0405 6.8607 -0.8435 -7.7398 31.6866
#
#
#
# Elastic Compliance Matrix: (Units=1/GPa)
#
#
# Indices 1 2 3 4 5 6 
#
# 1 0.031754 -0.000310 -0.001887 -0.000766 -0.000790 -0.008779
# 2 -0.000310 0.008043 -0.003365 -0.000500 0.003368 -0.000415
# 3 -0.001887 -0.003365 0.011794 0.001279 -0.003078 -0.001880
# 4 -0.000766 -0.000500 0.001279 0.023135 -0.003994 -0.000291
# 5 -0.000790 0.003368 -0.003078 -0.003994 0.049630 0.012054
# 6 -0.008779 -0.000415 -0.001880 -0.000291 0.012054 0.037511
#
#
# Mechanical properties :
#
#
# Convention : Reuss Voigt Hill
#
# Bulk Modulus (GPa) = 24.71077 43.54029 34.12553
# Shear Modulus (GPa) = 26.81274 34.74966 30.78120
#
# Velocity S-wave (km/s) = 3.42853 3.90313 3.67350
# Velocity P-wave (km/s) = 5.14844 6.27701 5.74053
#
# Compressibility (1/GPa) = 0.04046818
#
# Stress axis : x y z
#
# Youngs Moduli (GPa) = 31.49240 124.33073 84.78888
#
# Poissons Ratio (x) = 0.03849 0.15996
# Poissons Ratio (y) = 0.00975 0.28532
# Poissons Ratio (z) = 0.05941 0.41839
#
# Static dielectric constant tensor:
#      x y z
#    x 3.786320 -0.074400 0.326820 
#    y -0.074400 4.445840 -0.217740 
#    z 0.326820 -0.217740 3.177470 
# 
# 
# High freq. dielectric constant tensor:
#      x y z
#    x 1.863460 -0.012080 0.004540 
#    y -0.012080 1.929800 0.001950 
#    z 0.004540 0.001950 1.896810 
# 
# From -- ./inp_files/38244.got.cif
#   From: 2010.06.25/outbox.cif.g09.slc.cpg/sg2_20_cif.got.tgz:38244.got - 2010.06.27 13:26:56.
