data_PCOD8026251
_publ_section_title
;
Structure prediction by ZEFSAII (Michael W. Deem and Ramdas Pophale) SiO2 
 PCOD8026251
Probable space group: P -1
;
_chemical_formula_sum "Si O2"
_cell_formula_units_Z 14
_cell_length_a 8.876844
_cell_length_b 9.251065
_cell_length_c 10.774716
_cell_angle_alpha 74.114974
_cell_angle_beta 73.408977
_cell_angle_gamma 123.669385
_cell_volume 593.250615
_symmetry_space_group_name_H-M "P -1"
_symmetry_group_IT_number 2
_symmetry_cell_setting 'triclinic'
loop_
_space_group_symop_operation_xyz
x,y,z
-x,-y,-z
loop_
_atom_site_type_symbol
_atom_site_label
_atom_site_fract_x
_atom_site_fract_y
_atom_site_fract_z
Si Si1 0.831438 0.369654 0.457346
Si Si2 0.517490 0.665689 0.341492
Si Si3 0.187283 0.008530 0.993982
Si Si4 0.797462 0.776707 0.464948
Si Si5 0.515162 0.690327 0.942892
Si Si6 0.246647 0.005167 0.389853
Si Si7 0.911198 0.407343 0.904986
O O1 0.644919 0.370771 0.510192
O O2 0.695174 0.126585 0.560508
O O3 0.000000 0.500000 0.500000
O O4 0.932417 0.441008 0.279335
O O5 0.726505 0.739343 0.346949
O O6 0.378840 0.439041 0.365767
O O7 0.599600 0.833706 0.179325
O O8 0.120943 0.792055 0.053478
O O9 0.269403 0.111345 0.085110
O O10 0.000000 0.000000 0.000000
O O11 0.031211 0.854005 0.391465
O O12 0.812965 0.951810 0.478285
O O13 0.556178 0.776631 0.773081
O O14 0.500000 0.500000 0.000000
O O15 0.303179 0.634517 0.057127
O O16 0.000000 0.500000 0.000000
#
# Coordination Sequence:
#
# PCOD8026251 Si02
#       7
#     2   2   2   2   2   2   2
#     4  12  25  45  73  99 142 188 237 295 353 421
#     4  11  24  43  71  98 139 180 237 285 358 419
#     4  12  26  46  75 105 148 190 239 298 374 431
#     4  10  24  40  70 102 132 172 240 290 340 424
#     4  12  26  46  75 105 148 190 239 298 374 431
#     4  11  24  43  71  98 139 180 237 285 358 419
#     4  12  30  48  70 109 150 189 248 303 365 437
#
# _framework density 23.598794999999999
#
# number of rings (size 3 to 8) (size 9 to 14) (size 15 to 20)
#    0.000    0.571    1.429    5.571   12.000    0.571 
#    0.000    0.000    0.000    0.000    0.000    0.000 
#    0.000    0.000    0.000    0.000    0.000    0.000 
#
# Total GULP energy -173552.809803 kJ/mol
# GULP energy per Si atom -12396.629272 kJ/mol
# Density = 2.354508 g / cm^3
# Si number density = 23.598795 Si / 1000 Ang^3
#
#
#
# Elastic Constant Matrix: (Units=GPa)
#
#
# Indices 1 2 3 4 5 6 
#
# 1 107.3144 43.1786 9.6106 -3.3714 0.0480 -16.3880
# 2 43.1786 134.8508 30.8698 -14.4025 16.9816 -20.1684
# 3 9.6106 30.8698 134.9601 -7.8055 21.2293 -9.3076
# 4 -3.3714 -14.4025 -7.8055 40.0989 -8.2515 10.6493
# 5 0.0480 16.9816 21.2293 -8.2515 33.7792 -9.3296
# 6 -16.3880 -20.1684 -9.3076 10.6493 -9.3296 45.0608
#
#
#
# Elastic Compliance Matrix: (Units=1/GPa)
#
#
# Indices 1 2 3 4 5 6 
#
# 1 0.011189 -0.003451 -0.000233 -0.000654 0.002580 0.003165
# 2 -0.003451 0.009655 -0.001243 0.001830 -0.003144 0.001726
# 3 -0.000233 -0.001243 0.008455 0.000204 -0.004610 0.000103
# 4 -0.000654 0.001830 0.000204 0.027817 0.004353 -0.005049
# 5 0.002580 -0.003144 -0.004610 0.004353 0.036555 0.005119
# 6 0.003165 0.001726 0.000103 -0.005049 0.005119 0.026390
#
#
# Mechanical properties :
#
#
# Convention : Reuss Voigt Hill
#
# Bulk Modulus (GPa) = 51.42713 60.49371 55.96042
# Shear Modulus (GPa) = 36.65786 43.35220 40.00503
#
# Velocity S-wave (km/s) = 3.94557 4.29073 4.12177
# Velocity P-wave (km/s) = 6.52658 7.08781 6.81298
#
# Compressibility (1/GPa) = 0.01944499
#
# Stress axis : x y z
#
# Youngs Moduli (GPa) = 89.37021 103.57739 118.27944
#
# Poissons Ratio (x) = 0.35742 0.02754
# Poissons Ratio (y) = 0.30840 0.14705
# Poissons Ratio (z) = 0.02081 0.12877
#
# Static dielectric constant tensor:
#      x y z
#    x 4.284870 0.023280 0.005980 
#    y 0.023280 4.308070 -0.171920 
#    z 0.005980 -0.171920 4.301620 
# 
# 
# High freq. dielectric constant tensor:
#      x y z
#    x 1.940020 -0.005680 0.001200 
#    y -0.005680 1.944520 -0.008160 
#    z 0.001200 -0.008160 1.941710 
# 
# From -- ./inp_files/158064.got.cif
#   From: 2010.06.25/outbox.cif.g09.slc.cpg/sg2_80_cif.got.tgz:158064.got - 2010.06.27 13:26:56.
