data_PCOD8026519
_publ_section_title
;
Structure prediction by ZEFSAII (Michael W. Deem and Ramdas Pophale) SiO2 
 PCOD8026519
Probable space group: P -1
;
_chemical_formula_sum "Si O2"
_cell_formula_units_Z 12
_cell_length_a 14.244226
_cell_length_b 11.575531
_cell_length_c 9.340524
_cell_angle_alpha 44.253553
_cell_angle_beta 47.605832
_cell_angle_gamma 30.281598
_cell_volume 535.106651
_symmetry_space_group_name_H-M "P -1"
_symmetry_group_IT_number 2
_symmetry_cell_setting 'triclinic'
loop_
_space_group_symop_operation_xyz
x,y,z
-x,-y,-z
loop_
_atom_site_type_symbol
_atom_site_label
_atom_site_fract_x
_atom_site_fract_y
_atom_site_fract_z
Si Si1 0.451060 0.967731 0.366850
Si Si2 0.764604 0.576376 0.199208
Si Si3 0.777550 0.218968 0.059816
Si Si4 0.500139 0.755353 0.800557
Si Si5 0.702853 0.289015 0.406520
Si Si6 0.140359 0.205087 0.282736
O O1 0.556133 0.766615 0.311415
O O2 0.519936 0.830345 0.565948
O O3 0.515507 0.098302 0.183391
O O4 0.226995 0.160359 0.392005
O O5 0.805098 0.369541 0.250913
O O6 0.915063 0.440341 0.296438
O O7 0.770672 0.739707 0.959132
O O8 0.683575 0.183958 0.072236
O O9 0.707619 0.243980 0.270855
O O10 0.697738 0.473669 0.873634
O O11 0.000000 0.000000 0.000000
O O12 0.500000 0.500000 0.500000
O O13 0.808447 0.034004 0.602412
#
# Coordination Sequence:
#
# PCOD8026519 Si02
#       6
#     2   2   2   2   2   2
#     4  11  22  43  68  92 135 176 223 281 332 402
#     4  11  25  42  68 102 132 177 228 283 340 400
#     4  11  25  45  68 100 138 176 224 278 335 405
#     4  10  24  42  67  98 130 182 225 271 339 404
#     4  12  24  45  73 101 137 180 224 285 340 401
#     4  11  24  42  66  99 135 173 225 282 338 398
#
# _framework density 22.425436999999999
#
# number of rings (size 3 to 8) (size 9 to 14) (size 15 to 20)
#    0.000    1.000    3.333    2.000    4.667    4.000 
#    3.000    3.333    0.000    0.000    0.000    0.000 
#    0.000    0.000    0.000    0.000    0.000    0.000 
#
# Total GULP energy -148682.585391 kJ/mol
# GULP energy per Si atom -12390.215449 kJ/mol
# Density = 2.237440 g / cm^3
# Si number density = 22.425437 Si / 1000 Ang^3
#
#
#
# Elastic Constant Matrix: (Units=GPa)
#
#
# Indices 1 2 3 4 5 6 
#
# 1 111.1151 40.4641 35.3939 -22.0589 -5.9954 6.7536
# 2 40.4641 100.0422 43.8154 -13.8594 3.0203 -11.1713
# 3 35.3939 43.8154 112.4052 -35.3165 -6.4417 2.1982
# 4 -22.0589 -13.8594 -35.3165 41.2024 6.6136 -2.0407
# 5 -5.9954 3.0203 -6.4417 6.6136 37.4049 -13.2145
# 6 6.7536 -11.1713 2.1982 -2.0407 -13.2145 40.1785
#
#
#
# Elastic Compliance Matrix: (Units=1/GPa)
#
#
# Indices 1 2 3 4 5 6 
#
# 1 0.011753 -0.004201 -0.000707 0.004071 0.000405 -0.002765
# 2 -0.004201 0.014118 -0.004679 -0.001156 -0.000802 0.004565
# 3 -0.000707 -0.004679 0.014148 0.010035 0.000470 -0.001292
# 4 0.004071 -0.001156 0.010035 0.035275 -0.004163 -0.001132
# 5 0.000405 -0.000802 0.000470 -0.004163 0.031109 0.009703
# 6 -0.002765 0.004565 -0.001292 -0.001132 0.009703 0.029828
#
#
# Mechanical properties :
#
#
# Convention : Reuss Voigt Hill
#
# Bulk Modulus (GPa) = 47.97154 62.54548 55.25851
# Shear Modulus (GPa) = 30.79729 37.34978 34.07353
#
# Velocity S-wave (km/s) = 3.70985 4.08549 3.90220
# Velocity P-wave (km/s) = 6.30783 7.08562 6.70800
#
# Compressibility (1/GPa) = 0.02084569
#
# Stress axis : x y z
#
# Youngs Moduli (GPa) = 85.08576 70.83157 70.68244
#
# Poissons Ratio (x) = 0.29757 0.04995
# Poissons Ratio (y) = 0.35746 0.33070
# Poissons Ratio (z) = 0.06013 0.33140
#
# Static dielectric constant tensor:
#      x y z
#    x 4.565540 0.165090 -0.214450 
#    y 0.165090 3.817080 -0.519230 
#    z -0.214450 -0.519230 4.198650 
# 
# 
# High freq. dielectric constant tensor:
#      x y z
#    x 1.902910 -0.004870 -0.014070 
#    y -0.004870 1.858480 -0.036330 
#    z -0.014070 -0.036330 1.893850 
# 
# From -- ./inp_files/231222.got.cif
#   From: 2010.06.25/outbox.cif.g09.slc.cpg/sg2_116_cif.got.tgz:231222.got - 2010.06.27 13:26:56.
