data_PCOD8026662
_publ_section_title
;
Structure prediction by ZEFSAII (Michael W. Deem and Ramdas Pophale) SiO2 
 PCOD8026662
Probable space group: P -1
;
_chemical_formula_sum "Si O2"
_cell_formula_units_Z 14
_cell_length_a 8.352370
_cell_length_b 9.021562
_cell_length_c 14.357983
_cell_angle_alpha 68.308253
_cell_angle_beta 140.942046
_cell_angle_gamma 109.500267
_cell_volume 631.406558
_symmetry_space_group_name_H-M "P -1"
_symmetry_group_IT_number 2
_symmetry_cell_setting 'triclinic'
loop_
_space_group_symop_operation_xyz
x,y,z
-x,-y,-z
loop_
_atom_site_type_symbol
_atom_site_label
_atom_site_fract_x
_atom_site_fract_y
_atom_site_fract_z
Si Si1 0.910618 0.131387 0.859884
Si Si2 0.408667 0.418752 0.228719
Si Si3 0.921642 0.317587 0.482401
Si Si4 0.580975 0.696424 0.386396
Si Si5 0.762317 0.534980 0.057058
Si Si6 0.842099 0.708768 0.682998
Si Si7 0.197634 0.959280 0.370420
O O1 0.624725 0.173388 0.748572
O O2 0.910317 0.049256 0.779502
O O3 0.109575 0.287386 0.911134
O O4 0.000000 0.000000 0.000000
O O5 0.639013 0.325850 0.308907
O O6 0.492458 0.550969 0.313404
O O7 0.264400 0.493636 0.059880
O O8 0.234673 0.294982 0.241135
O O9 0.891962 0.210630 0.585819
O O10 0.000000 0.500000 0.500000
O O11 0.127568 0.242483 0.525582
O O12 0.607881 0.655134 0.518383
O O13 0.500000 0.500000 0.000000
O O14 0.937323 0.406628 0.209741
O O15 0.928659 0.897343 0.664123
O O16 0.500000 0.000000 0.500000
#
# Coordination Sequence:
#
# PCOD8026662 Si02
#       7
#     2   2   2   2   2   2   2
#     4  12  28  47  71 103 146 187 238 292 353 420
#     4  11  22  43  72 102 142 184 235 288 355 420
#     4  10  24  42  75 103 141 180 239 291 350 415
#     4  11  24  42  73 104 138 184 241 286 355 413
#     4  12  29  46  72 105 143 190 239 291 356 420
#     4  12  24  44  74 104 140 185 239 288 352 424
#     4  12  25  46  72 105 142 186 234 292 352 416
#
# _framework density 22.172718
#
# number of rings (size 3 to 8) (size 9 to 14) (size 15 to 20)
#    0.000    0.571    4.286    2.571   10.000    1.714 
#    0.000    1.429    0.000    0.000    0.000    0.000 
#    0.000    0.000    0.000    0.000    0.000    0.000 
#
# Total GULP energy -173484.884927 kJ/mol
# GULP energy per Si atom -12391.777495 kJ/mol
# Density = 2.212225 g / cm^3
# Si number density = 22.172718 Si / 1000 Ang^3
#
#
#
# Elastic Constant Matrix: (Units=GPa)
#
#
# Indices 1 2 3 4 5 6 
#
# 1 93.9746 47.2361 44.4871 -4.3275 7.5199 4.7850
# 2 47.2361 156.4501 67.5990 -13.1056 -2.3780 -1.3753
# 3 44.4871 67.5990 155.4953 -16.4829 -10.1855 -7.9221
# 4 -4.3275 -13.1056 -16.4829 39.9846 -11.2648 -3.2137
# 5 7.5199 -2.3780 -10.1855 -11.2648 51.6322 -0.7939
# 6 4.7850 -1.3753 -7.9221 -3.2137 -0.7939 31.4539
#
#
#
# Elastic Compliance Matrix: (Units=1/GPa)
#
#
# Indices 1 2 3 4 5 6 
#
# 1 0.014103 -0.003083 -0.003307 -0.002065 -0.003351 -0.003409
# 2 -0.003083 0.008606 -0.002623 0.001630 0.000689 0.000369
# 3 -0.003307 -0.002623 0.009273 0.003721 0.003051 0.003181
# 4 -0.002065 0.001630 0.003721 0.029353 0.007583 0.004513
# 5 -0.003351 0.000689 0.003051 0.007583 0.022185 0.002643
# 6 -0.003409 0.000369 0.003181 0.004513 0.002643 0.033656
#
#
# Mechanical properties :
#
#
# Convention : Reuss Voigt Hill
#
# Bulk Modulus (GPa) = 71.64460 80.50716 76.07588
# Shear Modulus (GPa) = 35.75165 41.05400 38.40282
#
# Velocity S-wave (km/s) = 4.01985 4.30764 4.16623
# Velocity P-wave (km/s) = 7.34355 7.81850 7.58474
#
# Compressibility (1/GPa) = 0.01395779
#
# Stress axis : x y z
#
# Youngs Moduli (GPa) = 70.90752 116.19641 107.83450
#
# Poissons Ratio (x) = 0.35826 0.35656
# Poissons Ratio (y) = 0.21862 0.28280
# Poissons Ratio (z) = 0.23446 0.30473
#
# Static dielectric constant tensor:
#      x y z
#    x 4.450820 0.062280 0.205140 
#    y 0.062280 4.207880 -0.046010 
#    z 0.205140 -0.046010 4.265920 
# 
# 
# High freq. dielectric constant tensor:
#      x y z
#    x 1.872770 -0.006450 -0.001680 
#    y -0.006450 1.871320 -0.007820 
#    z -0.001680 -0.007820 1.884390 
# 
# From -- ./inp_files/494767.got.cif
#   From: 2010.06.25/outbox.cif.g09.slc.cpg/sg2_248_cif.got.tgz:494767.got - 2010.06.27 13:26:56.
