data_PCOD8026508
_publ_section_title
;
Structure prediction by ZEFSAII (Michael W. Deem and Ramdas Pophale) SiO2 
 PCOD8026508
Probable space group: P -1
;
_chemical_formula_sum "Si O2"
_cell_formula_units_Z 16
_cell_length_a 17.192937
_cell_length_b 7.932903
_cell_length_c 5.192766
_cell_angle_alpha 110.130087
_cell_angle_beta 80.984875
_cell_angle_gamma 120.674307
_cell_volume 571.777889
_symmetry_space_group_name_H-M "P -1"
_symmetry_group_IT_number 2
_symmetry_cell_setting 'triclinic'
loop_
_space_group_symop_operation_xyz
x,y,z
-x,-y,-z
loop_
_atom_site_type_symbol
_atom_site_label
_atom_site_fract_x
_atom_site_fract_y
_atom_site_fract_z
Si Si1 0.890032 0.477398 0.032707
Si Si2 0.481365 0.590760 0.305657
Si Si3 0.295867 0.420916 0.518910
Si Si4 0.638290 0.028686 0.356464
Si Si5 0.127979 0.259292 0.235574
Si Si6 0.318562 0.735588 0.029441
Si Si7 0.205698 0.061352 0.707660
Si Si8 0.046774 0.829700 0.320677
O O1 0.917360 0.629270 0.844664
O O2 0.784351 0.330230 0.018472
O O3 0.938561 0.658580 0.334196
O O4 0.928246 0.315656 0.947956
O O5 0.500000 0.500000 0.500000
O O6 0.375386 0.519877 0.320250
O O7 0.547300 0.833859 0.397718
O O8 0.500000 0.500000 0.000000
O O9 0.331253 0.542689 0.837960
O O10 0.260121 0.182093 0.482418
O O11 0.207097 0.429667 0.468322
O O12 0.618257 0.088613 0.117812
O O13 0.729120 0.016026 0.253246
O O14 0.656650 0.200694 0.654855
O O15 0.190072 0.204420 0.987600
O O16 0.055201 0.038065 0.290733
O O17 0.107193 0.879050 0.571204
#
# Coordination Sequence:
#
# PCOD8026508 Si02
#       8
#     2   2   2   2   2   2   2   2
#     4  11  22  46  68 102 145 198 249 308 376 439
#     4  12  26  46  76 112 146 187 248 304 369 451
#     4  11  26  44  71 102 142 191 240 299 372 443
#     4  12  26  45  74 103 145 193 237 311 366 437
#     4  11  23  45  69 103 146 195 246 314 373 445
#     4  12  26  47  70 104 148 192 246 297 376 440
#     4  11  22  42  69 101 140 188 244 299 369 441
#     4  10  24  42  67 105 144 190 256 308 370 449
#
# _framework density 27.982896
#
# number of rings (size 3 to 8) (size 9 to 14) (size 15 to 20)
#    0.000    0.750    3.750    3.375    1.750    1.500 
#    4.500    1.875    0.000    0.000    0.000    0.000 
#    0.000    0.000    0.000    0.000    0.000    0.000 
#
# Total GULP energy -198217.581269 kJ/mol
# GULP energy per Si atom -12388.598829 kJ/mol
# Density = 2.791921 g / cm^3
# Si number density = 27.982896 Si / 1000 Ang^3
#
#
#
# Elastic Constant Matrix: (Units=GPa)
#
#
# Indices 1 2 3 4 5 6 
#
# 1 77.9729 36.0522 2.4585 -7.1691 0.5672 16.4648
# 2 36.0522 143.1675 22.1389 -5.9395 1.8503 15.8721
# 3 2.4585 22.1389 79.3053 2.9779 -5.5538 3.5253
# 4 -7.1691 -5.9395 2.9779 48.7472 0.9178 -1.7428
# 5 0.5672 1.8503 -5.5538 0.9178 30.1994 -7.0163
# 6 16.4648 15.8721 3.5253 -1.7428 -7.0163 60.9509
#
#
#
# Elastic Compliance Matrix: (Units=1/GPa)
#
#
# Indices 1 2 3 4 5 6 
#
# 1 0.015275 -0.003483 0.000526 0.001687 -0.000793 -0.003293
# 2 -0.003483 0.008393 -0.002286 0.000628 -0.001174 -0.001230
# 3 0.000526 -0.002286 0.013458 -0.001075 0.002625 -0.000054
# 4 0.001687 0.000628 -0.001075 0.020919 -0.000919 -0.000065
# 5 -0.000793 -0.001174 0.002625 -0.000919 0.034719 0.004338
# 6 -0.003293 -0.001230 -0.000054 -0.000065 0.004338 0.018117
#
#
# Mechanical properties :
#
#
# Convention : Reuss Voigt Hill
#
# Bulk Modulus (GPa) = 37.53667 46.86052 42.19860
# Shear Modulus (GPa) = 38.38888 43.96591 41.17740
#
# Velocity S-wave (km/s) = 3.70789 3.96810 3.84020
# Velocity P-wave (km/s) = 5.63689 6.14629 5.89710
#
# Compressibility (1/GPa) = 0.02664061
#
# Stress axis : x y z
#
# Youngs Moduli (GPa) = 65.46728 119.14849 74.30534
#
# Poissons Ratio (x) = 0.41494 -0.03910
# Poissons Ratio (y) = 0.22799 0.16987
# Poissons Ratio (z) = -0.03445 0.27239
#
# Static dielectric constant tensor:
#      x y z
#    x 6.784060 1.252870 -0.232780 
#    y 1.252870 6.067990 -0.002730 
#    z -0.232780 -0.002730 5.576000 
# 
# 
# High freq. dielectric constant tensor:
#      x y z
#    x 2.130730 0.010180 -0.004510 
#    y 0.010180 2.148110 0.007630 
#    z -0.004510 0.007630 2.138690 
# 
# From -- ./inp_files/116340.got.cif
#   From: 2010.06.25/outbox.cif.g09.slc.cpg/sg2_59_cif.got.tgz:116340.got - 2010.06.27 13:26:56.
