data_PCOD8026736
_publ_section_title
;
Structure prediction by ZEFSAII (Michael W. Deem and Ramdas Pophale) SiO2 
 PCOD8026736
Probable space group: P -1
;
_chemical_formula_sum "Si O2"
_cell_formula_units_Z 14
_cell_length_a 20.860950
_cell_length_b 6.490101
_cell_length_c 20.002309
_cell_angle_alpha 126.004961
_cell_angle_beta 18.663682
_cell_angle_gamma 134.043473
_cell_volume 592.710895
_symmetry_space_group_name_H-M "P -1"
_symmetry_group_IT_number 2
_symmetry_cell_setting 'triclinic'
loop_
_space_group_symop_operation_xyz
x,y,z
-x,-y,-z
loop_
_atom_site_type_symbol
_atom_site_label
_atom_site_fract_x
_atom_site_fract_y
_atom_site_fract_z
Si Si1 0.447336 0.837668 0.918552
Si Si2 0.864680 0.317828 0.164581
Si Si3 0.020190 0.573867 0.380347
Si Si4 0.494896 0.343073 0.614568
Si Si5 0.588337 0.360741 0.675626
Si Si6 0.705246 0.272261 0.099179
Si Si7 0.744174 0.516830 0.760693
O O1 0.532627 0.607565 0.804290
O O2 0.301292 0.760253 0.979836
O O3 0.677701 0.171567 0.752718
O O4 0.265469 0.829525 0.152376
O O5 0.638798 0.342758 0.408108
O O6 0.766721 0.964427 0.185065
O O7 0.000000 0.500000 0.000000
O O8 0.032853 0.460793 0.089464
O O9 0.096836 0.365022 0.305898
O O10 0.820350 0.393620 0.487351
O O11 0.907003 0.697595 0.569920
O O12 0.625297 0.375776 0.562494
O O13 0.474505 0.630863 0.680274
O O14 0.362617 0.036885 0.856813
O O15 0.500000 0.500000 0.000000
#
# Coordination Sequence:
#
# PCOD8026736 Si02
#       7
#     2   2   2   2   2   2   2
#     4  11  25  44  68  93 133 172 215 275 322 387
#     4  11  22  43  67  95 132 175 216 270 320 385
#     4  11  24  42  69  95 128 176 210 271 330 379
#     4  10  24  43  66  96 132 172 221 265 326 382
#     4  11  23  45  65  99 132 170 224 265 326 391
#     4  11  23  44  66  96 133 170 218 272 320 387
#     4  11  25  45  67 100 131 168 224 266 323 397
#
# _framework density 23.620284999999999
#
# number of rings (size 3 to 8) (size 9 to 14) (size 15 to 20)
#    0.000    1.143    2.857    2.571    0.000    5.143 
#    2.571    0.000    0.000    0.000    0.000    0.000 
#    0.000    0.000    0.000    0.000    0.000    0.000 
#
# Total GULP energy -173507.888931 kJ/mol
# GULP energy per Si atom -12393.420638 kJ/mol
# Density = 2.356652 g / cm^3
# Si number density = 23.620285 Si / 1000 Ang^3
#
#
#
# Elastic Constant Matrix: (Units=GPa)
#
#
# Indices 1 2 3 4 5 6 
#
# 1 85.6717 31.5552 40.7086 -7.4119 -10.1879 -2.0761
# 2 31.5552 111.5052 31.4822 2.3438 2.1355 -7.1393
# 3 40.7086 31.4822 127.2106 4.7459 12.0377 -4.9622
# 4 -7.4119 2.3438 4.7459 30.2125 4.2111 -4.4534
# 5 -10.1879 2.1355 12.0377 4.2111 54.8881 -1.8225
# 6 -2.0761 -7.1393 -4.9622 -4.4534 -1.8225 22.9994
#
#
#
# Elastic Compliance Matrix: (Units=1/GPa)
#
#
# Indices 1 2 3 4 5 6 
#
# 1 0.016043 -0.003311 -0.004824 0.004497 0.003838 0.000555
# 2 -0.003311 0.010472 -0.001347 -0.000976 -0.000571 0.002427
# 3 -0.004824 -0.001347 0.010117 -0.002167 -0.002873 0.000682
# 4 0.004497 -0.000976 -0.002167 0.035735 -0.001179 0.006461
# 5 0.003838 -0.000571 -0.002873 -0.001179 0.019703 0.000882
# 6 0.000555 0.002427 0.000682 0.006461 0.000882 0.045751
#
#
# Mechanical properties :
#
#
# Convention : Reuss Voigt Hill
#
# Bulk Modulus (GPa) = 56.59539 59.09774 57.84656
# Shear Modulus (GPa) = 30.73613 36.32942 33.53277
#
# Velocity S-wave (km/s) = 3.61121 3.92607 3.77193
# Velocity P-wave (km/s) = 6.43431 6.75472 6.59646
#
# Compressibility (1/GPa) = 0.01766928
#
# Stress axis : x y z
#
# Youngs Moduli (GPa) = 62.33279 95.49035 98.83980
#
# Poissons Ratio (x) = 0.31613 0.47679
# Poissons Ratio (y) = 0.20636 0.13315
# Poissons Ratio (z) = 0.30069 0.12864
#
# Static dielectric constant tensor:
#      x y z
#    x 4.542710 0.077620 -0.135830 
#    y 0.077620 4.137990 -0.096060 
#    z -0.135830 -0.096060 4.191350 
# 
# 
# High freq. dielectric constant tensor:
#      x y z
#    x 1.952130 0.000670 -0.003920 
#    y 0.000670 1.912300 -0.004040 
#    z -0.003920 -0.004040 1.942700 
# 
# From -- ./inp_files/10174.got.cif
#   From: 2010.06.25/outbox.cif.g09.slc.cpg/sg2_6_cif.got.tgz:10174.got - 2010.06.27 13:26:56.
