data_PCOD8026813
_publ_section_title
;
Structure prediction by ZEFSAII (Michael W. Deem and Ramdas Pophale) SiO2 
 PCOD8026813
Probable space group: P -1
;
_chemical_formula_sum "Si O2"
_cell_formula_units_Z 14
_cell_length_a 8.144083
_cell_length_b 16.504930
_cell_length_c 16.457100
_cell_angle_alpha 155.975167
_cell_angle_beta 135.189745
_cell_angle_gamma 41.098714
_cell_volume 590.183221
_symmetry_space_group_name_H-M "P -1"
_symmetry_group_IT_number 2
_symmetry_cell_setting 'triclinic'
loop_
_space_group_symop_operation_xyz
x,y,z
-x,-y,-z
loop_
_atom_site_type_symbol
_atom_site_label
_atom_site_fract_x
_atom_site_fract_y
_atom_site_fract_z
Si Si1 0.653252 0.751110 0.233346
Si Si2 0.589277 0.806196 0.528552
Si Si3 0.034826 0.261547 0.276828
Si Si4 0.850045 0.913083 0.125528
Si Si5 0.679442 0.076115 0.046823
Si Si6 0.678114 0.470017 0.128979
Si Si7 0.896643 0.140733 0.513528
O O1 0.571159 0.677422 0.222133
O O2 0.955826 0.692560 0.285189
O O3 0.529469 0.006471 0.408020
O O4 0.544121 0.621209 0.012424
O O5 0.780241 0.876746 0.713361
O O6 0.737286 0.572758 0.326003
O O7 0.398307 0.756194 0.478264
O O8 0.000000 0.500000 0.500000
O O9 0.772385 0.230650 0.166343
O O10 0.166843 0.170416 0.153742
O O11 0.743953 0.087430 0.175281
O O12 0.940442 0.012569 0.325877
O O13 0.616036 0.844523 0.002757
O O14 0.080953 0.708639 0.989261
O O15 0.000000 0.000000 0.500000
#
# Coordination Sequence:
#
# PCOD8026813 Si02
#       7
#     2   2   2   2   2   2   2
#     4  10  25  42  65  97 137 176 220 275 334 399
#     4  11  23  45  66  97 137 175 216 283 335 392
#     4  11  23  43  71 103 127 175 227 276 333 399
#     4  11  23  47  68 100 135 181 219 278 333 396
#     4  10  24  45  70  95 140 174 220 279 338 383
#     4  11  25  40  68 100 131 176 231 264 334 409
#     4  10  24  43  68  93 138 178 217 269 344 384
#
# _framework density 23.721447000000001
#
# number of rings (size 3 to 8) (size 9 to 14) (size 15 to 20)
#    0.000    1.429    1.429    2.143   12.000    2.857 
#    2.571    2.143    0.000    0.000    0.000    0.000 
#    0.000    0.000    0.000    0.000    0.000    0.000 
#
# Total GULP energy -173433.086116 kJ/mol
# GULP energy per Si atom -12388.077580 kJ/mol
# Density = 2.366746 g / cm^3
# Si number density = 23.721447 Si / 1000 Ang^3
#
#
#
# Elastic Constant Matrix: (Units=GPa)
#
#
# Indices 1 2 3 4 5 6 
#
# 1 121.1690 30.4276 76.8755 -9.7114 9.0385 -21.8801
# 2 30.4276 58.7513 28.8647 -16.9172 4.4267 -3.8941
# 3 76.8755 28.8647 129.9327 -11.8507 8.1174 -4.2276
# 4 -9.7114 -16.9172 -11.8507 40.7097 -3.8443 -3.1437
# 5 9.0385 4.4267 8.1174 -3.8443 48.3243 -14.9292
# 6 -21.8801 -3.8941 -4.2276 -3.1437 -14.9292 31.6515
#
#
#
# Elastic Compliance Matrix: (Units=1/GPa)
#
#
# Indices 1 2 3 4 5 6 
#
# 1 0.016542 -0.003424 -0.008709 0.001038 0.002154 0.010970
# 2 -0.003424 0.022163 -0.002150 0.007811 -0.000170 0.000768
# 3 -0.008709 -0.002150 0.013305 0.000285 -0.002072 -0.005457
# 4 0.001038 0.007811 0.000285 0.028918 0.003231 0.006113
# 5 0.002154 -0.000170 -0.002072 0.003231 0.025025 0.013316
# 6 0.010970 0.000768 -0.005457 0.006113 0.013316 0.045431
#
#
# Mechanical properties :
#
#
# Convention : Reuss Voigt Hill
#
# Bulk Modulus (GPa) = 42.65625 64.68762 53.67193
# Shear Modulus (GPa) = 26.62910 35.71613 31.17262
#
# Velocity S-wave (km/s) = 3.35412 3.88448 3.62900
# Velocity P-wave (km/s) = 5.74642 6.88823 6.34307
#
# Compressibility (1/GPa) = 0.02344322
#
# Stress axis : x y z
#
# Youngs Moduli (GPa) = 60.45277 45.11972 75.16186
#
# Poissons Ratio (x) = 0.15451 0.65461
# Poissons Ratio (y) = 0.20702 0.16156
# Poissons Ratio (z) = 0.52650 0.09699
#
# Static dielectric constant tensor:
#      x y z
#    x 4.632260 -0.152980 0.255520 
#    y -0.152980 4.650990 -0.686040 
#    z 0.255520 -0.686040 4.466760 
# 
# 
# High freq. dielectric constant tensor:
#      x y z
#    x 1.941270 -0.001030 0.008170 
#    y -0.001030 1.939860 -0.029080 
#    z 0.008170 -0.029080 1.935530 
# 
# From -- ./inp_files/562152.got.cif
#   From: 2010.06.25/outbox.cif.g09.slc.cpg/sg2_282_cif.got.tgz:562152.got - 2010.06.27 13:26:56.
