data_PCOD8026560
_publ_section_title
;
Structure prediction by ZEFSAII (Michael W. Deem and Ramdas Pophale) SiO2 
 PCOD8026560
Probable space group: P -1
;
_chemical_formula_sum "Si O2"
_cell_formula_units_Z 12
_cell_length_a 23.803608
_cell_length_b 15.750222
_cell_length_c 5.179062
_cell_angle_alpha 86.698621
_cell_angle_beta 76.548604
_cell_angle_gamma 19.233417
_cell_volume 536.638638
_symmetry_space_group_name_H-M "P -1"
_symmetry_group_IT_number 2
_symmetry_cell_setting 'triclinic'
loop_
_space_group_symop_operation_xyz
x,y,z
-x,-y,-z
loop_
_atom_site_type_symbol
_atom_site_label
_atom_site_fract_x
_atom_site_fract_y
_atom_site_fract_z
Si Si1 0.280760 0.479396 0.236849
Si Si2 0.562064 0.229804 0.020036
Si Si3 0.999618 0.559041 0.739476
Si Si4 0.941569 0.222219 0.087319
Si Si5 0.589406 0.465417 0.374311
Si Si6 0.283420 0.312543 0.543581
O O1 0.494951 0.226246 0.057431
O O2 0.315790 0.327660 0.253266
O O3 0.165035 0.667445 0.067413
O O4 0.144398 0.705513 0.582576
O O5 0.433348 0.452127 0.349372
O O6 0.529150 0.323953 0.770110
O O7 0.798959 0.900265 0.893727
O O8 0.000000 0.500000 0.500000
O O9 0.196621 0.342408 0.559753
O O10 0.000000 0.500000 0.000000
O O11 0.177814 0.873640 0.887052
O O12 0.879464 0.410113 0.142418
O O13 0.500000 0.500000 0.500000
O O14 0.500000 0.000000 0.500000
#
# Coordination Sequence:
#
# PCOD8026560 Si02
#       6
#     2   2   2   2   2   2
#     4  10  24  42  70  99 138 179 236 278 355 401
#     4  12  26  45  72 102 143 180 234 289 347 415
#     4  12  28  45  73 105 142 182 237 287 354 417
#     4  10  24  42  69 100 138 178 237 273 355 406
#     4  12  26  43  72 100 144 183 230 285 353 415
#     4  10  25  45  72  97 141 182 234 288 346 412
#
# _framework density 22.361418
#
# number of rings (size 3 to 8) (size 9 to 14) (size 15 to 20)
#    1.000    0.000    0.000    5.500    7.000    4.667 
#    0.000    0.000    0.000    0.000    0.000    0.000 
#    0.000    0.000    0.000    0.000    0.000    0.000 
#
# Total GULP energy -148779.727304 kJ/mol
# GULP energy per Si atom -12398.310609 kJ/mol
# Density = 2.231052 g / cm^3
# Si number density = 22.361418 Si / 1000 Ang^3
#
#
#
# Elastic Constant Matrix: (Units=GPa)
#
#
# Indices 1 2 3 4 5 6 
#
# 1 149.4744 62.4683 50.9627 -9.9189 -14.8001 -9.8901
# 2 62.4683 24.6716 1.6459 -11.7026 -45.3485 -19.4062
# 3 50.9627 1.6459 82.9735 -27.3442 -4.2643 -5.0948
# 4 -9.9189 -11.7026 -27.3442 45.9246 -16.7793 0.1425
# 5 -14.8001 -45.3485 -4.2643 -16.7793 2.7577 -4.4843
# 6 -9.8901 -19.4062 -5.0948 0.1425 -4.4843 37.2142
#
#
#
# Elastic Compliance Matrix: (Units=1/GPa)
#
#
# Indices 1 2 3 4 5 6 
#
# 1 0.011625 -0.003764 -0.005396 0.002809 0.012252 0.001853
# 2 -0.003764 0.003663 -0.002038 -0.009161 -0.022099 -0.001997
# 3 -0.005396 -0.002038 0.016526 0.004990 -0.008674 -0.001299
# 4 0.002809 -0.009161 0.004990 0.021306 -0.004720 -0.003998
# 5 0.012252 -0.022099 -0.008674 -0.004720 0.009316 -0.008315
# 6 0.001853 -0.001997 -0.001299 -0.003998 -0.008315 0.025158
#
#
# Mechanical properties :
#
#
# Convention : Reuss Voigt Hill
#
# Bulk Modulus (GPa) = 106.19020 54.14147 80.16584
# Shear Modulus (GPa) = 44.19648 26.64878 35.42263
#
# Velocity S-wave (km/s) = 4.45056 3.45589 3.98439
# Velocity P-wave (km/s) = 8.60240 6.33946 7.55613
#
# Compressibility (1/GPa) = 0.00941706
#
# Stress axis : x y z
#
# Youngs Moduli (GPa) = 86.01880 272.96547 60.51186
#
# Poissons Ratio (x) = 1.02754 0.32654
# Poissons Ratio (y) = 0.32380 0.12332
# Poissons Ratio (z) = 0.46419 0.55631
#
# Static dielectric constant tensor:
#      x y z
#    x 3.899030 0.002550 0.138100 
#    y 0.002550 4.100550 -0.176390 
#    z 0.138100 -0.176390 4.060980 
# 
# 
# High freq. dielectric constant tensor:
#      x y z
#    x 1.884810 -0.006010 -0.000860 
#    y -0.006010 1.889050 -0.004330 
#    z -0.000860 -0.004330 1.888010 
# 
# From -- ./inp_files/123866.got.cif
#   From: 2010.06.25/outbox.cif.g09.slc.cpg/sg2_62_cif.got.tgz:123866.got - 2010.06.27 13:26:56.
