data_PCOD8026003
_publ_section_title
;
Structure prediction by ZEFSAII (Michael W. Deem and Ramdas Pophale) SiO2 
 PCOD8026003
Probable space group: P -1
;
_chemical_formula_sum "Si O2"
_cell_formula_units_Z 12
_cell_length_a 8.464268
_cell_length_b 8.239545
_cell_length_c 14.410436
_cell_angle_alpha 51.667647
_cell_angle_beta 48.338959
_cell_angle_gamma 35.574268
_cell_volume 429.421346
_symmetry_space_group_name_H-M "P -1"
_symmetry_group_IT_number 2
_symmetry_cell_setting 'triclinic'
loop_
_space_group_symop_operation_xyz
x,y,z
-x,-y,-z
loop_
_atom_site_type_symbol
_atom_site_label
_atom_site_fract_x
_atom_site_fract_y
_atom_site_fract_z
Si Si1 0.205390 0.056867 0.411272
Si Si2 0.672707 0.466111 0.347571
Si Si3 0.154183 0.727481 0.353044
Si Si4 0.740734 0.509004 0.793338
Si Si5 0.857324 0.812751 0.872952
Si Si6 0.205241 0.585817 0.990658
O O1 0.910030 0.180324 0.422790
O O2 0.131653 0.119890 0.527626
O O3 0.279030 0.232608 0.280479
O O4 0.500375 0.731281 0.390702
O O5 0.446965 0.456913 0.388346
O O6 0.851134 0.462125 0.198473
O O7 0.077211 0.668657 0.306976
O O8 0.240256 0.913863 0.237514
O O9 0.883624 0.327497 0.897156
O O10 0.429636 0.612070 0.864785
O O11 0.655495 0.740705 0.969092
O O12 0.927481 0.809256 0.954611
#
# Coordination Sequence:
#
# PCOD8026003 Si02
#       6
#     2   2   2   2   2   2
#     4  12  28  47  77 107 150 190 242 299 364 433
#     4  12  24  48  73 111 142 191 247 293 359 429
#     4  12  26  45  76 108 145 190 245 303 360 432
#     4  11  24  47  69 111 149 192 237 299 375 425
#     4  11  24  47  74 109 139 196 248 297 359 424
#     4  10  23  47  71 104 151 190 246 298 358 437
#
# _framework density 27.944583999999999
#
# number of rings (size 3 to 8) (size 9 to 14) (size 15 to 20)
#    0.000    0.667    5.000    1.500    2.333    2.667 
#   12.000    2.500    0.000    0.000    0.000    0.000 
#    0.000    0.000    0.000    0.000    0.000    0.000 
#
# Total GULP energy -148701.425442 kJ/mol
# GULP energy per Si atom -12391.785453 kJ/mol
# Density = 2.788098 g / cm^3
# Si number density = 27.944584 Si / 1000 Ang^3
#
#
#
# Elastic Constant Matrix: (Units=GPa)
#
#
# Indices 1 2 3 4 5 6 
#
# 1 123.1683 31.7247 58.6593 21.3933 24.4070 1.8077
# 2 31.7247 109.5289 39.5958 -0.9542 10.6268 -13.3809
# 3 58.6593 39.5958 143.3842 -7.4639 27.4607 -5.8790
# 4 21.3933 -0.9542 -7.4639 28.5487 13.3540 9.3822
# 5 24.4070 10.6268 27.4607 13.3540 64.6413 -4.2366
# 6 1.8077 -13.3809 -5.8790 9.3822 -4.2366 27.1612
#
#
#
# Elastic Compliance Matrix: (Units=1/GPa)
#
#
# Indices 1 2 3 4 5 6 
#
# 1 0.013222 -0.001816 -0.005512 -0.011875 0.000177 0.001162
# 2 -0.001816 0.011073 -0.002192 -0.000767 0.000310 0.005415
# 3 -0.005512 -0.002192 0.011104 0.009840 -0.004466 -0.002405
# 4 -0.011875 -0.000767 0.009840 0.059150 -0.013096 -0.019932
# 5 0.000177 0.000310 -0.004466 -0.013096 0.020406 0.006881
# 6 0.001162 0.005415 -0.002405 -0.019932 0.006881 0.046845
#
#
# Mechanical properties :
#
#
# Convention : Reuss Voigt Hill
#
# Bulk Modulus (GPa) = 61.13045 70.67125 65.90085
# Shear Modulus (GPa) = 26.83930 40.47700 33.65815
#
# Velocity S-wave (km/s) = 3.10247 3.81001 3.47430
# Velocity P-wave (km/s) = 5.89549 6.68578 6.30303
#
# Compressibility (1/GPa) = 0.01635846
#
# Stress axis : x y z
#
# Youngs Moduli (GPa) = 75.62955 90.30777 90.06030
#
# Poissons Ratio (x) = 0.16398 0.49644
# Poissons Ratio (y) = 0.13732 0.19744
# Poissons Ratio (z) = 0.41690 0.19798
#
# Static dielectric constant tensor:
#      x y z
#    x 5.166630 0.254810 0.133570 
#    y 0.254810 4.876880 -0.022590 
#    z 0.133570 -0.022590 5.822890 
# 
# 
# High freq. dielectric constant tensor:
#      x y z
#    x 2.123960 0.009590 0.016530 
#    y 0.009590 2.101930 -0.008650 
#    z 0.016530 -0.008650 2.178340 
# 
# From -- ./inp_files/492220.got.cif
#   From: 2010.06.25/outbox.cif.g09.slc.cpg/sg2_247_cif.got.tgz:492220.got - 2010.06.27 13:26:56.
