data_PCOD8026063
_publ_section_title
;
Structure prediction by ZEFSAII (Michael W. Deem and Ramdas Pophale) SiO2 
 PCOD8026063
Probable space group: P -1
;
_chemical_formula_sum "Si O2"
_cell_formula_units_Z 16
_cell_length_a 8.576770
_cell_length_b 14.449609
_cell_length_c 8.120444
_cell_angle_alpha 88.596830
_cell_angle_beta 135.884808
_cell_angle_gamma 99.784469
_cell_volume 683.338654
_symmetry_space_group_name_H-M "P -1"
_symmetry_group_IT_number 2
_symmetry_cell_setting 'triclinic'
loop_
_space_group_symop_operation_xyz
x,y,z
-x,-y,-z
loop_
_atom_site_type_symbol
_atom_site_label
_atom_site_fract_x
_atom_site_fract_y
_atom_site_fract_z
Si Si1 0.664206 0.431956 0.570687
Si Si2 0.702979 0.250030 0.800362
Si Si3 0.307292 0.028228 0.955489
Si Si4 0.462430 0.366836 0.067907
Si Si5 0.709866 0.806071 0.265433
Si Si6 0.127367 0.504669 0.766947
Si Si7 0.466583 0.101252 0.409920
Si Si8 0.035996 0.164350 0.234059
O O1 0.500000 0.500000 0.500000
O O2 0.675433 0.355207 0.725476
O O3 0.923779 0.496777 0.747416
O O4 0.567163 0.377198 0.331296
O O5 0.523735 0.202777 0.807303
O O6 0.684611 0.182673 0.626861
O O7 0.953047 0.246836 0.064875
O O8 0.188711 0.089946 0.738628
O O9 0.141951 0.935887 0.905582
O O10 0.430805 0.097884 0.189201
O O11 0.500000 0.000000 0.000000
O O12 0.337263 0.261966 0.925570
O O13 0.256982 0.420645 0.895165
O O14 0.667525 0.400640 0.086082
O O15 0.910672 0.791547 0.543453
O O16 0.000000 0.500000 0.500000
O O17 0.261361 0.139399 0.334398
O O18 0.500000 0.000000 0.500000
#
# Coordination Sequence:
#
# PCOD8026063 Si02
#       8
#     2   2   2   2   2   2   2   2
#     4  11  26  47  73 106 141 187 238 297 362 426
#     4  11  25  45  68 105 141 184 240 289 349 425
#     4  12  22  44  68 102 139 185 232 283 348 411
#     4  10  23  48  69 105 137 181 239 290 361 423
#     4  11  25  42  69 101 142 181 234 292 337 428
#     4   9  22  44  74 100 134 176 233 292 359 417
#     4  11  23  44  71 101 143 184 234 290 349 416
#     4  11  24  46  69 101 141 191 230 290 352 410
#
# _framework density 23.414453000000002
#
# number of rings (size 3 to 8) (size 9 to 14) (size 15 to 20)
#    0.000    1.250    2.500    2.250    5.250    5.500 
#    4.500    0.000    0.000    0.000    0.000    0.000 
#    0.000    0.000    0.000    0.000    0.000    0.000 
#
# Total GULP energy -198238.435305 kJ/mol
# GULP energy per Si atom -12389.902207 kJ/mol
# Density = 2.336116 g / cm^3
# Si number density = 23.414453 Si / 1000 Ang^3
#
#
#
# Elastic Constant Matrix: (Units=GPa)
#
#
# Indices 1 2 3 4 5 6 
#
# 1 78.5001 29.3063 37.8539 -7.6797 -3.0871 -0.5475
# 2 29.3063 131.3898 49.5359 -26.5958 -1.0377 -1.4395
# 3 37.8539 49.5359 141.4042 -21.7608 -9.9632 -12.2208
# 4 -7.6797 -26.5958 -21.7608 49.5282 -7.4942 -5.5788
# 5 -3.0871 -1.0377 -9.9632 -7.4942 41.6749 -0.3424
# 6 -0.5475 -1.4395 -12.2208 -5.5788 -0.3424 26.4707
#
#
#
# Elastic Compliance Matrix: (Units=1/GPa)
#
#
# Indices 1 2 3 4 5 6 
#
# 1 0.015188 -0.002187 -0.003501 -0.000510 0.000129 -0.001527
# 2 -0.002187 0.009731 -0.002155 0.004022 0.000291 0.000341
# 3 -0.003501 -0.002155 0.009981 0.003696 0.002781 0.005233
# 4 -0.000510 0.004022 0.003696 0.025574 0.005605 0.007377
# 5 0.000129 0.000291 0.002781 0.005605 0.025708 0.002816
# 6 -0.001527 0.000341 0.005233 0.007377 0.002816 0.041772
#
#
# Mechanical properties :
#
#
# Convention : Reuss Voigt Hill
#
# Bulk Modulus (GPa) = 52.04187 64.96514 58.50350
# Shear Modulus (GPa) = 33.32357 39.17461 36.24909
#
# Velocity S-wave (km/s) = 3.77663 4.09479 3.93892
# Velocity P-wave (km/s) = 6.42588 7.08254 6.76218
#
# Compressibility (1/GPa) = 0.01921530
#
# Stress axis : x y z
#
# Youngs Moduli (GPa) = 65.84132 102.76206 100.19123
#
# Poissons Ratio (x) = 0.22470 0.35078
# Poissons Ratio (y) = 0.14397 0.21588
# Poissons Ratio (z) = 0.23052 0.22142
#
# Static dielectric constant tensor:
#      x y z
#    x 4.235010 0.071670 -0.047040 
#    y 0.071670 4.136060 -0.045260 
#    z -0.047040 -0.045260 4.689060 
# 
# 
# High freq. dielectric constant tensor:
#      x y z
#    x 1.915160 -0.000580 -0.006920 
#    y -0.000580 1.923820 -0.008720 
#    z -0.006920 -0.008720 1.948510 
# 
# From -- ./inp_files/207469.got.cif
#   From: 2010.06.25/outbox.cif.g09.slc.cpg/sg2_104_cif.got.tgz:207469.got - 2010.06.27 13:26:56.
