data_PCOD8026547
_publ_section_title
;
Structure prediction by ZEFSAII (Michael W. Deem and Ramdas Pophale) SiO2 
 PCOD8026547
Probable space group: P -1
;
_chemical_formula_sum "Si O2"
_cell_formula_units_Z 14
_cell_length_a 12.811957
_cell_length_b 9.449913
_cell_length_c 13.637840
_cell_angle_alpha 142.519987
_cell_angle_beta 42.930949
_cell_angle_gamma 124.252607
_cell_volume 683.661839
_symmetry_space_group_name_H-M "P -1"
_symmetry_group_IT_number 2
_symmetry_cell_setting 'triclinic'
loop_
_space_group_symop_operation_xyz
x,y,z
-x,-y,-z
loop_
_atom_site_type_symbol
_atom_site_label
_atom_site_fract_x
_atom_site_fract_y
_atom_site_fract_z
Si Si1 0.993138 0.890559 0.053546
Si Si2 0.790654 0.470293 0.002093
Si Si3 0.604685 0.832777 0.654995
Si Si4 0.885046 0.986508 0.659500
Si Si5 0.362458 0.681306 0.174240
Si Si6 0.706202 0.384557 0.221347
Si Si7 0.923437 0.277120 0.467320
O O1 0.153899 0.787200 0.930775
O O2 0.909871 0.086863 0.286775
O O3 0.881374 0.678757 0.010323
O O4 0.000000 0.000000 0.000000
O O5 0.688976 0.379880 0.933677
O O6 0.892975 0.243542 0.842327
O O7 0.711176 0.525152 0.191360
O O8 0.714240 0.911794 0.710301
O O9 0.682130 0.594950 0.429071
O O10 0.436060 0.782698 0.781832
O O11 0.589279 0.049212 0.707936
O O12 0.948380 0.799511 0.586895
O O13 0.000000 0.000000 0.500000
O O14 0.236923 0.658640 0.333509
O O15 0.500000 0.500000 0.000000
O O16 0.000000 0.500000 0.500000
#
# Coordination Sequence:
#
# PCOD8026547 Si02
#       7
#     2   2   2   2   2   2   2
#     4  12  27  43  69 101 138 175 228 283 337 402
#     4  11  23  42  71  97 126 177 227 275 338 387
#     4  10  24  42  68  95 137 175 230 265 349 389
#     4  11  21  42  70  94 127 172 225 275 322 407
#     4  11  26  45  68  99 143 178 219 284 338 407
#     4  11  24  43  69  99 134 177 223 287 326 409
#     4  12  26  43  68 103 134 178 227 278 342 398
#
# _framework density 20.477962000000002
#
# number of rings (size 3 to 8) (size 9 to 14) (size 15 to 20)
#    0.000    0.857    4.286    3.000    6.000    3.429 
#    2.571    1.429    0.000    0.000    0.000    0.000 
#    0.000    0.000    0.000    0.000    0.000    0.000 
#
# Total GULP energy -173434.887582 kJ/mol
# GULP energy per Si atom -12388.206256 kJ/mol
# Density = 2.043135 g / cm^3
# Si number density = 20.477962 Si / 1000 Ang^3
#
#
#
# Elastic Constant Matrix: (Units=GPa)
#
#
# Indices 1 2 3 4 5 6 
#
# 1 96.0279 66.1320 54.2242 -4.2630 -4.1026 -9.4062
# 2 66.1320 182.3696 43.4485 4.1818 -6.4119 -4.1915
# 3 54.2242 43.4485 101.6561 5.6962 -8.7874 -7.3822
# 4 -4.2630 4.1818 5.6962 39.1130 -5.5059 5.5276
# 5 -4.1026 -6.4119 -8.7874 -5.5059 32.8698 2.3616
# 6 -9.4062 -4.1915 -7.3822 5.5276 2.3616 37.8296
#
#
#
# Elastic Compliance Matrix: (Units=1/GPa)
#
#
# Indices 1 2 3 4 5 6 
#
# 1 0.018575 -0.004899 -0.007881 0.003357 -0.000330 0.002068
# 2 -0.004899 0.007409 -0.000469 -0.001131 0.000545 -0.000358
# 3 -0.007881 -0.000469 0.014677 -0.002780 0.002303 0.001115
# 4 0.003357 -0.001131 -0.002780 0.027662 0.004387 -0.004149
# 5 -0.000330 0.000545 0.002303 0.004387 0.031997 -0.002211
# 6 0.002068 -0.000358 0.001115 -0.004149 -0.002211 0.027871
#
#
# Mechanical properties :
#
#
# Convention : Reuss Voigt Hill
#
# Bulk Modulus (GPa) = 70.60539 78.62925 74.61732
# Shear Modulus (GPa) = 31.36577 36.37907 33.87242
#
# Velocity S-wave (km/s) = 3.91792 4.21943 4.07146
# Velocity P-wave (km/s) = 7.41757 7.88787 7.65633
#
# Compressibility (1/GPa) = 0.01416322
#
# Stress axis : x y z
#
# Youngs Moduli (GPa) = 53.83521 134.97967 68.13491
#
# Poissons Ratio (x) = 0.66132 0.53695
# Poissons Ratio (y) = 0.26376 0.03193
# Poissons Ratio (z) = 0.42426 0.06325
#
# Static dielectric constant tensor:
#      x y z
#    x 3.078630 0.071970 -0.391910 
#    y 0.071970 4.123210 0.285210 
#    z -0.391910 0.285210 3.951940 
# 
# 
# High freq. dielectric constant tensor:
#      x y z
#    x 1.794640 -0.004240 0.004690 
#    y -0.004240 1.820870 0.009430 
#    z 0.004690 0.009430 1.815030 
# 
# From -- ./inp_files/155522.got.cif
#   From: 2010.06.25/outbox.cif.g09.slc.cpg/sg2_78_cif.got.tgz:155522.got - 2010.06.27 13:26:56.
