data_PCOD8026329
_publ_section_title
;
Structure prediction by ZEFSAII (Michael W. Deem and Ramdas Pophale) SiO2 
 PCOD8026329
Probable space group: P -1
;
_chemical_formula_sum "Si O2"
_cell_formula_units_Z 16
_cell_length_a 8.453197
_cell_length_b 17.749039
_cell_length_c 12.500930
_cell_angle_alpha 135.424057
_cell_angle_beta 32.288559
_cell_angle_gamma 123.858928
_cell_volume 698.105586
_symmetry_space_group_name_H-M "P -1"
_symmetry_group_IT_number 2
_symmetry_cell_setting 'triclinic'
loop_
_space_group_symop_operation_xyz
x,y,z
-x,-y,-z
loop_
_atom_site_type_symbol
_atom_site_label
_atom_site_fract_x
_atom_site_fract_y
_atom_site_fract_z
Si Si1 0.838294 0.619614 0.230307
Si Si2 0.217830 0.697284 0.740538
Si Si3 0.815802 0.228693 0.933846
Si Si4 0.224367 0.631975 0.216583
Si Si5 0.850651 0.002840 0.778905
Si Si6 0.082143 0.073684 0.931641
Si Si7 0.839638 0.518951 0.721581
Si Si8 0.667039 0.166574 0.733237
O O1 0.481613 0.628879 0.453254
O O2 0.915190 0.700985 0.174991
O O3 0.954393 0.658215 0.315619
O O4 0.000000 0.500000 0.000000
O O5 0.955222 0.620466 0.819311
O O6 0.330784 0.721440 0.821125
O O7 0.112108 0.808393 0.849533
O O8 0.921394 0.103604 0.769149
O O9 0.606689 0.228468 0.946326
O O10 0.091653 0.592144 0.362593
O O11 0.363367 0.745611 0.257495
O O12 0.481717 0.539948 0.933149
O O13 0.035212 0.003773 0.783579
O O14 0.997178 0.897481 0.524107
O O15 0.500000 0.000000 0.000000
O O16 0.427112 0.085869 0.765493
O O17 0.000000 0.000000 0.000000
O O18 0.000000 0.500000 0.500000
#
# Coordination Sequence:
#
# PCOD8026329 Si02
#       8
#     2   2   2   2   2   2   2   2
#     4  11  24  44  68 101 135 183 227 286 343 404
#     4  11  25  45  68 104 137 176 241 282 337 415
#     4  10  25  42  73  95 141 177 227 280 350 399
#     4  10  24  41  66  97 138 173 226 273 343 401
#     4  11  25  44  71 102 136 180 229 282 345 417
#     4  11  25  44  69 103 138 183 232 281 350 410
#     4  11  23  44  67  98 138 182 221 282 343 406
#     4  11  23  46  68 102 137 181 227 288 346 412
#
# _framework density 22.919170000000001
#
# number of rings (size 3 to 8) (size 9 to 14) (size 15 to 20)
#    0.000    1.250    1.250    3.000    8.750    6.000 
#    0.000    0.000    0.000    0.000    0.000    0.000 
#    0.000    0.000    0.000    0.000    0.000    0.000 
#
# Total GULP energy -198295.449570 kJ/mol
# GULP energy per Si atom -12393.465598 kJ/mol
# Density = 2.286701 g / cm^3
# Si number density = 22.919170 Si / 1000 Ang^3
#
#
#
# Elastic Constant Matrix: (Units=GPa)
#
#
# Indices 1 2 3 4 5 6 
#
# 1 93.1405 45.1188 32.1676 -13.8405 9.3365 -4.3072
# 2 45.1188 188.5582 44.8079 -16.0993 10.6232 -33.9855
# 3 32.1676 44.8079 118.7553 -4.9306 -4.2148 -10.9335
# 4 -13.8405 -16.0993 -4.9306 35.1882 0.8300 3.0001
# 5 9.3365 10.6232 -4.2148 0.8300 33.6990 -3.6167
# 6 -4.3072 -33.9855 -10.9335 3.0001 -3.6167 45.1805
#
#
#
# Elastic Compliance Matrix: (Units=1/GPa)
#
#
# Indices 1 2 3 4 5 6 
#
# 1 0.013818 -0.002345 -0.002978 0.004182 -0.003752 -0.001745
# 2 -0.002345 0.007339 -0.001680 0.001837 -0.001420 0.004655
# 3 -0.002978 -0.001680 0.010036 -0.000696 0.002750 0.001148
# 4 0.004182 0.001837 -0.000696 0.030925 -0.002657 -0.000654
# 5 -0.003752 -0.001420 0.002750 -0.002657 0.031781 0.001960
# 6 -0.001745 0.004655 0.001148 -0.000654 0.001960 0.025947
#
#
# Mechanical properties :
#
#
# Convention : Reuss Voigt Hill
#
# Bulk Modulus (GPa) = 58.18268 71.62698 64.90483
# Shear Modulus (GPa) = 35.82162 41.37084 38.59623
#
# Velocity S-wave (km/s) = 3.95771 4.25323 4.10813
# Velocity P-wave (km/s) = 6.80630 7.44579 7.13322
#
# Compressibility (1/GPa) = 0.01718725
#
# Stress axis : x y z
#
# Youngs Moduli (GPa) = 72.37071 136.24930 99.64576
#
# Poissons Ratio (x) = 0.31946 0.29678
# Poissons Ratio (y) = 0.16969 0.16737
# Poissons Ratio (z) = 0.21555 0.22886
#
# Static dielectric constant tensor:
#      x y z
#    x 4.311930 0.038060 0.129120 
#    y 0.038060 4.546720 -0.112820 
#    z 0.129120 -0.112820 3.861840 
# 
# 
# High freq. dielectric constant tensor:
#      x y z
#    x 1.902190 -0.003580 0.003680 
#    y -0.003580 1.929630 -0.003080 
#    z 0.003680 -0.003080 1.885980 
# 
# From -- ./inp_files/218163.got.cif
#   From: 2010.06.25/outbox.cif.g09.slc.cpg/sg2_110_cif.got.tgz:218163.got - 2010.06.27 13:26:56.
