data_PCOD8026880
_publ_section_title
;
Structure prediction by ZEFSAII (Michael W. Deem and Ramdas Pophale) SiO2 
 PCOD8026880
Probable space group: P -1
;
_chemical_formula_sum "Si O2"
_cell_formula_units_Z 16
_cell_length_a 18.329255
_cell_length_b 21.001370
_cell_length_c 9.831711
_cell_angle_alpha 144.019855
_cell_angle_beta 145.235301
_cell_angle_gamma 19.892425
_cell_volume 720.993101
_symmetry_space_group_name_H-M "P -1"
_symmetry_group_IT_number 2
_symmetry_cell_setting 'triclinic'
loop_
_space_group_symop_operation_xyz
x,y,z
-x,-y,-z
loop_
_atom_site_type_symbol
_atom_site_label
_atom_site_fract_x
_atom_site_fract_y
_atom_site_fract_z
Si Si1 0.717351 0.253936 0.751335
Si Si2 0.558544 0.924418 0.810985
Si Si3 0.319174 0.170224 0.621541
Si Si4 0.622121 0.479578 0.530933
Si Si5 0.077990 0.566854 0.924841
Si Si6 0.899057 0.362802 0.212769
Si Si7 0.864645 0.117979 0.138162
Si Si8 0.474346 0.752798 0.315539
O O1 0.578192 0.325801 0.526173
O O2 0.585829 0.296040 0.750019
O O3 0.757601 0.353001 0.006786
O O4 0.968009 0.026896 0.731543
O O5 0.417693 0.912182 0.552687
O O6 0.826072 0.723026 0.861838
O O7 0.445392 0.089592 0.820157
O O8 0.500000 0.000000 0.000000
O O9 0.211353 0.361455 0.747162
O O10 0.122163 0.216632 0.393592
O O11 0.500000 0.000000 0.500000
O O12 0.500000 0.500000 0.500000
O O13 0.768246 0.304254 0.346635
O O14 0.783266 0.460774 0.800572
O O15 0.049154 0.657543 0.901769
O O16 0.738599 0.571224 0.376520
O O17 0.650940 0.186987 0.916000
O O18 0.000000 0.000000 0.000000
#
# Coordination Sequence:
#
# PCOD8026880 Si02
#       8
#     2   2   2   2   2   2   2   2
#     4  11  25  43  73 105 143 187 234 293 368 423
#     4  12  29  48  71 109 149 191 244 306 362 437
#     4  12  26  48  81 104 142 198 246 299 369 437
#     4  12  26  46  69 106 150 189 237 304 365 428
#     4  12  27  47  73 107 149 188 245 302 365 433
#     4  12  22  47  76 107 140 186 245 302 356 436
#     4  10  24  43  70 103 139 188 241 292 350 438
#     4  11  23  46  74 105 146 182 243 297 362 433
#
# _framework density 22.191614000000001
#
# number of rings (size 3 to 8) (size 9 to 14) (size 15 to 20)
#    0.000    0.500    5.000    2.250    7.000    3.000 
#    0.000    0.000    0.000    0.000    0.000    0.000 
#    0.000    0.000    0.000    0.000    0.000    0.000 
#
# Total GULP energy -198287.235488 kJ/mol
# GULP energy per Si atom -12392.952218 kJ/mol
# Density = 2.214111 g / cm^3
# Si number density = 22.191614 Si / 1000 Ang^3
#
#
#
# Elastic Constant Matrix: (Units=GPa)
#
#
# Indices 1 2 3 4 5 6 
#
# 1 84.6573 43.1580 31.3559 -3.6867 -4.4965 -1.5399
# 2 43.1580 155.9533 56.8575 -22.8529 -10.0682 1.0293
# 3 31.3559 56.8575 131.9275 -20.0815 6.0893 0.4845
# 4 -3.6867 -22.8529 -20.0815 49.8586 2.6838 -6.5445
# 5 -4.4965 -10.0682 6.0893 2.6838 36.1756 -3.8733
# 6 -1.5399 1.0293 0.4845 -6.5445 -3.8733 36.4909
#
#
#
# Elastic Compliance Matrix: (Units=1/GPa)
#
#
# Indices 1 2 3 4 5 6 
#
# 1 0.014341 -0.003245 -0.002282 -0.001339 0.001431 0.000639
# 2 -0.003245 0.008850 -0.002753 0.002629 0.002368 0.000373
# 3 -0.002282 -0.002753 0.009854 0.002698 -0.002906 0.000026
# 4 -0.001339 0.002629 0.002698 0.022811 -0.001174 0.003800
# 5 0.001431 0.002368 -0.002906 -0.001174 0.029371 0.002939
# 6 0.000639 0.000373 0.000026 0.003800 0.002939 0.028414
#
#
# Mechanical properties :
#
#
# Convention : Reuss Voigt Hill
#
# Bulk Modulus (GPa) = 60.66627 70.58677 65.62652
# Shear Modulus (GPa) = 36.84726 40.58282 38.71504
#
# Velocity S-wave (km/s) = 4.07924 4.28102 4.18135
# Velocity P-wave (km/s) = 7.04157 7.50421 7.27657
#
# Compressibility (1/GPa) = 0.01648362
#
# Stress axis : x y z
#
# Youngs Moduli (GPa) = 69.72938 113.00069 101.48494
#
# Poissons Ratio (x) = 0.36665 0.23164
# Poissons Ratio (y) = 0.22625 0.27941
# Poissons Ratio (z) = 0.15915 0.31112
#
# Static dielectric constant tensor:
#      x y z
#    x 3.718440 -0.066080 -0.016800 
#    y -0.066080 4.553010 -0.513750 
#    z -0.016800 -0.513750 4.143150 
# 
# 
# High freq. dielectric constant tensor:
#      x y z
#    x 1.859230 -0.003720 0.005570 
#    y -0.003720 1.899050 -0.017090 
#    z 0.005570 -0.017090 1.878860 
# 
# From -- ./inp_files/338204.got.cif
#   From: 2010.06.25/outbox.cif.g09.slc.cpg/sg2_170_cif.got.tgz:338204.got - 2010.06.27 13:26:56.
