data_PCOD8026352
_publ_section_title
;
Structure prediction by ZEFSAII (Michael W. Deem and Ramdas Pophale) SiO2 
 PCOD8026352
Probable space group: P -1
;
_chemical_formula_sum "Si O2"
_cell_formula_units_Z 16
_cell_length_a 6.212441
_cell_length_b 10.631351
_cell_length_c 12.049142
_cell_angle_alpha 105.027397
_cell_angle_beta 64.832177
_cell_angle_gamma 97.074563
_cell_volume 695.549319
_symmetry_space_group_name_H-M "P -1"
_symmetry_group_IT_number 2
_symmetry_cell_setting 'triclinic'
loop_
_space_group_symop_operation_xyz
x,y,z
-x,-y,-z
loop_
_atom_site_type_symbol
_atom_site_label
_atom_site_fract_x
_atom_site_fract_y
_atom_site_fract_z
Si Si1 0.692642 0.596324 0.039115
Si Si2 0.895570 0.448352 0.625288
Si Si3 0.424621 0.322814 0.272583
Si Si4 0.762556 0.961491 0.401438
Si Si5 0.662793 0.094355 0.055890
Si Si6 0.967948 0.807971 0.524682
Si Si7 0.849119 0.485191 0.205130
Si Si8 0.187924 0.125793 0.871375
O O1 0.713269 0.565950 0.158754
O O2 0.653936 0.754034 0.082396
O O3 0.500000 0.500000 0.000000
O O4 0.935097 0.583086 0.917543
O O5 0.694602 0.549925 0.730267
O O6 0.000000 0.500000 0.500000
O O7 0.828594 0.297536 0.578083
O O8 0.074270 0.430594 0.685951
O O9 0.487986 0.214516 0.143416
O O10 0.264313 0.264521 0.391603
O O11 0.678576 0.374854 0.273490
O O12 0.885245 0.879253 0.450139
O O13 0.764989 0.878255 0.270538
O O14 0.500000 0.000000 0.500000
O O15 0.919177 0.095041 0.386555
O O16 0.732817 0.014013 0.131977
O O17 0.904207 0.145415 0.955451
O O18 0.500000 0.000000 0.000000
#
# Coordination Sequence:
#
# PCOD8026352 Si02
#       8
#     2   2   2   2   2   2   2   2
#     4  11  25  44  69 101 143 193 233 293 361 427
#     4  10  24  41  68 101 142 184 231 291 354 423
#     4  11  23  44  68 102 137 183 235 290 351 429
#     4  11  24  44  72 100 139 182 233 290 353 431
#     4  11  25  41  72 102 136 183 228 297 355 424
#     4  10  24  44  68 103 137 182 232 290 356 417
#     4  11  24  42  69 100 141 184 237 293 353 430
#     4  11  25  45  69 104 138 182 239 290 361 425
#
# _framework density 23.003401
#
# number of rings (size 3 to 8) (size 9 to 14) (size 15 to 20)
#    0.000    1.250    1.250    3.000    3.500   10.000 
#    0.000    0.000    0.000    0.000    0.000    0.000 
#    0.000    0.000    0.000    0.000    0.000    0.000 
#
# Total GULP energy -198210.292408 kJ/mol
# GULP energy per Si atom -12388.143275 kJ/mol
# Density = 2.295104 g / cm^3
# Si number density = 23.003401 Si / 1000 Ang^3
#
#
#
# Elastic Constant Matrix: (Units=GPa)
#
#
# Indices 1 2 3 4 5 6 
#
# 1 86.7517 51.3363 45.3058 7.2114 -3.0904 6.1013
# 2 51.3363 129.2432 54.5332 29.9489 -17.2889 11.9612
# 3 45.3058 54.5332 118.2056 10.7799 3.1831 0.3307
# 4 7.2114 29.9489 10.7799 47.8196 -0.9830 -6.5952
# 5 -3.0904 -17.2889 3.1831 -0.9830 41.9453 3.6813
# 6 6.1013 11.9612 0.3307 -6.5952 3.6813 44.2663
#
#
#
# Elastic Compliance Matrix: (Units=1/GPa)
#
#
# Indices 1 2 3 4 5 6 
#
# 1 0.016681 -0.005313 -0.004076 0.001644 -0.000565 -0.000541
# 2 -0.005313 0.014789 -0.004206 -0.008067 0.006269 -0.004956
# 3 -0.004076 -0.004206 0.011971 0.000759 -0.003098 0.001980
# 4 0.001644 -0.008067 0.000759 0.026326 -0.003183 0.006135
# 5 -0.000565 0.006269 -0.003098 -0.003183 0.026921 -0.004306
# 6 -0.000541 -0.004956 0.001980 0.006135 -0.004306 0.025262
#
#
# Mechanical properties :
#
#
# Convention : Reuss Voigt Hill
#
# Bulk Modulus (GPa) = 61.52913 70.72791 66.12852
# Shear Modulus (GPa) = 32.35100 39.00792 35.67946
#
# Velocity S-wave (km/s) = 3.75421 4.12241 3.94261
# Velocity P-wave (km/s) = 6.75263 7.31249 7.03813
#
# Compressibility (1/GPa) = 0.01625246
#
# Stress axis : x y z
#
# Youngs Moduli (GPa) = 59.94969 67.61859 83.53599
#
# Poissons Ratio (x) = 0.35923 0.34047
# Poissons Ratio (y) = 0.31848 0.35133
# Poissons Ratio (z) = 0.24434 0.28439
#
# Static dielectric constant tensor:
#      x y z
#    x 4.399220 -0.196390 -0.165710 
#    y -0.196390 4.813880 0.307750 
#    z -0.165710 0.307750 4.317300 
# 
# 
# High freq. dielectric constant tensor:
#      x y z
#    x 1.899010 0.003400 -0.002240 
#    y 0.003400 1.925700 0.007040 
#    z -0.002240 0.007040 1.916240 
# 
# From -- ./inp_files/364960.got.cif
#   From: 2010.06.25/outbox.cif.g09.slc.cpg/sg2_183_cif.got.tgz:364960.got - 2010.06.27 13:26:56.
