data_PCOD8026945
_publ_section_title
;
Structure prediction by ZEFSAII (Michael W. Deem and Ramdas Pophale) SiO2 
 PCOD8026945
Probable space group: P -1
;
_chemical_formula_sum "Si O2"
_cell_formula_units_Z 16
_cell_length_a 14.966009
_cell_length_b 12.893277
_cell_length_c 18.335866
_cell_angle_alpha 29.309893
_cell_angle_beta 151.853360
_cell_angle_gamma 130.120566
_cell_volume 688.204930
_symmetry_space_group_name_H-M "P -1"
_symmetry_group_IT_number 2
_symmetry_cell_setting 'triclinic'
loop_
_space_group_symop_operation_xyz
x,y,z
-x,-y,-z
loop_
_atom_site_type_symbol
_atom_site_label
_atom_site_fract_x
_atom_site_fract_y
_atom_site_fract_z
Si Si1 0.683083 0.182893 0.329186
Si Si2 0.987490 0.843195 0.522090
Si Si3 0.426469 0.678005 0.121762
Si Si4 0.099143 0.662073 0.993663
Si Si5 0.673703 0.423442 0.315765
Si Si6 0.914114 0.106202 0.014132
Si Si7 0.262666 0.216666 0.945406
Si Si8 0.902412 0.445922 0.674435
O O1 0.576204 0.396048 0.184889
O O2 0.506528 0.112870 0.219606
O O3 0.774073 0.279729 0.271465
O O4 0.908328 0.945066 0.666460
O O5 0.962382 0.610790 0.668415
O O6 0.000000 0.000000 0.500000
O O7 0.764766 0.026056 0.201162
O O8 0.473690 0.563512 0.144275
O O9 0.650681 0.626778 0.352531
O O10 0.323729 0.552493 0.174357
O O11 0.155691 0.671370 0.113807
O O12 0.000000 0.500000 0.000000
O O13 0.779180 0.591305 0.269074
O O14 0.850665 0.152924 0.642518
O O15 0.932839 0.211230 0.885262
O O16 0.727443 0.030959 0.925594
O O17 0.063176 0.349376 0.779106
#
# Coordination Sequence:
#
# PCOD8026945 Si02
#       8
#     2   2   2   2   2   2   2   2
#     4  10  24  43  72 105 136 191 241 290 347 423
#     4  11  25  46  71 104 144 187 243 290 356 422
#     4  11  26  44  74 103 143 186 245 285 360 421
#     4  10  26  48  69  99 148 188 232 294 362 428
#     4  11  23  46  74 105 140 191 240 293 351 424
#     4  11  27  46  72 106 142 190 236 293 364 422
#     4  12  24  44  77 105 146 182 246 292 353 425
#     4  12  27  45  73 107 149 183 239 301 353 427
#
# _framework density 23.248888000000001
#
# number of rings (size 3 to 8) (size 9 to 14) (size 15 to 20)
#    0.000    1.000    2.500    2.250    7.000    2.500 
#    0.000    2.500    0.000    0.000    0.000    0.000 
#    0.000    0.000    0.000    0.000    0.000    0.000 
#
# Total GULP energy -198324.864007 kJ/mol
# GULP energy per Si atom -12395.304000 kJ/mol
# Density = 2.319597 g / cm^3
# Si number density = 23.248888 Si / 1000 Ang^3
#
#
#
# Elastic Constant Matrix: (Units=GPa)
#
#
# Indices 1 2 3 4 5 6 
#
# 1 149.8050 52.7358 49.2744 -6.1080 17.7797 6.7270
# 2 52.7358 174.0401 28.4854 -4.6548 12.9019 3.9445
# 3 49.2744 28.4854 72.7203 10.2093 6.5329 6.6513
# 4 -6.1080 -4.6548 10.2093 39.0449 9.4585 3.5760
# 5 17.7797 12.9019 6.5329 9.4585 36.0762 -0.5766
# 6 6.7270 3.9445 6.6513 3.5760 -0.5766 35.6453
#
#
#
# Elastic Compliance Matrix: (Units=1/GPa)
#
#
# Indices 1 2 3 4 5 6 
#
# 1 0.010022 -0.001550 -0.006284 0.004177 -0.004359 -0.001037
# 2 -0.001550 0.006643 -0.001566 0.001400 -0.001700 -0.000318
# 3 -0.006284 -0.001566 0.019528 -0.006570 0.001818 -0.001596
# 4 0.004177 0.001400 -0.006570 0.030714 -0.009469 -0.002952
# 5 -0.004359 -0.001700 0.001818 -0.009469 0.032663 0.002150
# 6 -0.001037 -0.000318 -0.001596 -0.002952 0.002150 0.028914
#
#
# Mechanical properties :
#
#
# Convention : Reuss Voigt Hill
#
# Bulk Modulus (GPa) = 57.49732 73.06186 65.27959
# Shear Modulus (GPa) = 32.66254 39.89126 36.27690
#
# Velocity S-wave (km/s) = 3.75228 4.14676 3.95444
# Velocity P-wave (km/s) = 6.59982 7.37710 6.99926
#
# Compressibility (1/GPa) = 0.01739212
#
# Stress axis : x y z
#
# Youngs Moduli (GPa) = 99.78042 150.54500 51.20935
#
# Poissons Ratio (x) = 0.23334 0.32178
# Poissons Ratio (y) = 0.15466 0.08022
# Poissons Ratio (z) = 0.62699 0.23582
#
# Static dielectric constant tensor:
#      x y z
#    x 4.367070 -0.054180 0.077370 
#    y -0.054180 4.468070 -0.245200 
#    z 0.077370 -0.245200 2.048940 
# 
# 
# High freq. dielectric constant tensor:
#      x y z
#    x 1.920990 -0.001100 0.006150 
#    y -0.001100 1.925130 0.007790 
#    z 0.006150 0.007790 1.930010 
# 
# From -- ./inp_files/306616.got.cif
#   From: 2010.06.25/outbox.cif.g09.slc.cpg/sg2_154_cif.got.tgz:306616.got - 2010.06.27 13:26:56.
