data_PCOD8026803
_publ_section_title
;
Structure prediction by ZEFSAII (Michael W. Deem and Ramdas Pophale) SiO2 
 PCOD8026803
Probable space group: P -1
;
_chemical_formula_sum "Si O2"
_cell_formula_units_Z 14
_cell_length_a 9.120465
_cell_length_b 5.120538
_cell_length_c 20.958587
_cell_angle_alpha 115.142292
_cell_angle_beta 43.445553
_cell_angle_gamma 104.665452
_cell_volume 606.907857
_symmetry_space_group_name_H-M "P -1"
_symmetry_group_IT_number 2
_symmetry_cell_setting 'triclinic'
loop_
_space_group_symop_operation_xyz
x,y,z
-x,-y,-z
loop_
_atom_site_type_symbol
_atom_site_label
_atom_site_fract_x
_atom_site_fract_y
_atom_site_fract_z
Si Si1 0.419218 0.852682 0.447003
Si Si2 0.319184 0.326139 0.840669
Si Si3 0.358907 0.290114 0.060434
Si Si4 0.928337 0.709763 0.963466
Si Si5 0.537965 0.787429 0.654544
Si Si6 0.242542 0.465979 0.255104
Si Si7 0.928866 0.898012 0.623333
O O1 0.541415 0.534075 0.361695
O O2 0.172799 0.787987 0.523048
O O3 0.500000 0.000000 0.500000
O O4 0.463855 0.065244 0.398284
O O5 0.529480 0.494474 0.778962
O O6 0.123041 0.458446 0.872919
O O7 0.372610 0.984420 0.772678
O O8 0.260434 0.379838 0.939369
O O9 0.157852 0.228693 0.073658
O O10 0.262075 0.418706 0.169230
O O11 0.500000 0.500000 0.000000
O O12 0.500000 0.000000 0.000000
O O13 0.000000 0.000000 0.000000
O O14 0.777934 0.763557 0.604920
O O15 0.141625 0.200574 0.294014
O O16 0.087598 0.756587 0.342341
#
# Coordination Sequence:
#
# PCOD8026803 Si02
#       7
#     2   2   2   2   2   2   2
#     4  12  26  47  70 105 142 174 223 297 356 415
#     4  10  24  43  68 104 135 185 239 287 342 407
#     4  12  25  44  69  98 141 188 233 280 351 402
#     4  11  25  43  69 100 145 185 237 289 339 412
#     4  11  24  44  76  97 136 186 232 279 349 425
#     4  11  23  43  71 100 138 182 234 286 336 415
#     4  11  24  45  72 101 134 180 237 279 342 422
#
# _framework density 23.067753
#
# number of rings (size 3 to 8) (size 9 to 14) (size 15 to 20)
#    0.000    0.857    1.429    5.571   10.000    1.143 
#    2.571    0.000    0.000    0.000    0.000    0.000 
#    0.000    0.000    0.000    0.000    0.000    0.000 
#
# Total GULP energy -173661.440242 kJ/mol
# GULP energy per Si atom -12404.388589 kJ/mol
# Density = 2.301525 g / cm^3
# Si number density = 23.067753 Si / 1000 Ang^3
#
#
#
# Elastic Constant Matrix: (Units=GPa)
#
#
# Indices 1 2 3 4 5 6 
#
# 1 139.6156 41.0873 35.8816 26.4457 11.3336 -14.3483
# 2 41.0873 102.1056 18.5117 14.3916 -4.4810 -13.5071
# 3 35.8816 18.5117 84.4825 19.1742 -6.5755 -7.4022
# 4 26.4457 14.3916 19.1742 39.2533 -5.3022 14.5631
# 5 11.3336 -4.4810 -6.5755 -5.3022 41.5253 1.1538
# 6 -14.3483 -13.5071 -7.4022 14.5631 1.1538 34.1615
#
#
#
# Elastic Compliance Matrix: (Units=1/GPa)
#
#
# Indices 1 2 3 4 5 6 
#
# 1 0.011233 -0.002054 -0.001903 -0.009408 -0.005003 0.007673
# 2 -0.002054 0.012221 0.000008 -0.005252 0.001038 0.006175
# 3 -0.001903 0.000008 0.015115 -0.008041 0.001724 0.005849
# 4 -0.009408 -0.005252 -0.008041 0.049548 0.007864 -0.029158
# 5 -0.005003 0.001038 0.001724 0.007864 0.026992 -0.005581
# 6 0.007673 0.006175 0.005849 -0.029158 -0.005581 0.048823
#
#
# Mechanical properties :
#
#
# Convention : Reuss Voigt Hill
#
# Bulk Modulus (GPa) = 32.60216 57.46276 45.03246
# Shear Modulus (GPa) = 27.46476 38.36957 32.91717
#
# Velocity S-wave (km/s) = 3.45427 4.08283 3.78163
# Velocity P-wave (km/s) = 5.48390 6.86954 6.21545
#
# Compressibility (1/GPa) = 0.03067282
#
# Stress axis : x y z
#
# Youngs Moduli (GPa) = 89.02685 81.82366 66.16006
#
# Poissons Ratio (x) = 0.16803 0.12588
# Poissons Ratio (y) = 0.18282 -0.00054
# Poissons Ratio (z) = 0.16938 -0.00067
#
# Static dielectric constant tensor:
#      x y z
#    x 4.367260 -0.260520 0.113660 
#    y -0.260520 4.569670 0.167490 
#    z 0.113660 0.167490 4.473970 
# 
# 
# High freq. dielectric constant tensor:
#      x y z
#    x 1.909920 -0.014680 0.003800 
#    y -0.014680 1.919360 0.005480 
#    z 0.003800 0.005480 1.918200 
# 
# From -- ./inp_files/358071.got.cif
#   From: 2010.06.25/outbox.cif.g09.slc.cpg/sg2_180_cif.got.tgz:358071.got - 2010.06.27 13:26:56.
