data_PCOD8026533
_publ_section_title
;
Structure prediction by ZEFSAII (Michael W. Deem and Ramdas Pophale) SiO2 
 PCOD8026533
Probable space group: P -1
;
_chemical_formula_sum "Si O2"
_cell_formula_units_Z 16
_cell_length_a 15.441644
_cell_length_b 9.550711
_cell_length_c 8.803482
_cell_angle_alpha 112.113258
_cell_angle_beta 38.621979
_cell_angle_gamma 99.515338
_cell_volume 731.919200
_symmetry_space_group_name_H-M "P -1"
_symmetry_group_IT_number 2
_symmetry_cell_setting 'triclinic'
loop_
_space_group_symop_operation_xyz
x,y,z
-x,-y,-z
loop_
_atom_site_type_symbol
_atom_site_label
_atom_site_fract_x
_atom_site_fract_y
_atom_site_fract_z
Si Si1 0.306007 0.682261 0.585890
Si Si2 0.258227 0.175704 0.590981
Si Si3 0.534997 0.080206 0.636457
Si Si4 0.749919 0.882328 0.774504
Si Si5 0.979891 0.182097 0.128101
Si Si6 0.997078 0.675458 0.526971
Si Si7 0.239957 0.777832 0.060994
Si Si8 0.539286 0.610709 0.617960
O O1 0.434780 0.754773 0.380411
O O2 0.372997 0.497217 0.414607
O O3 0.172558 0.718746 0.672269
O O4 0.255655 0.745303 0.847413
O O5 0.259142 0.161432 0.404539
O O6 0.358474 0.288396 0.552998
O O7 0.319812 0.012428 0.521808
O O8 0.098455 0.243503 0.894598
O O9 0.500000 0.000000 0.500000
O O10 0.407289 0.094203 0.934253
O O11 0.851465 0.740849 0.663804
O O12 0.811260 0.037600 0.768981
O O13 0.998850 0.213119 0.291018
O O14 0.000000 0.000000 0.000000
O O15 0.128790 0.684253 0.240999
O O16 0.000000 0.500000 0.500000
O O17 0.390812 0.721567 0.920853
O O18 0.500000 0.500000 0.500000
#
# Coordination Sequence:
#
# PCOD8026533 Si02
#       8
#     2   2   2   2   2   2   2   2
#     4  11  24  42  72 102 138 184 228 289 345 414
#     4  12  25  44  74 101 137 183 237 284 346 420
#     4  12  22  43  72 106 136 179 237 281 344 414
#     4  12  25  45  72 102 140 184 232 288 351 423
#     4  12  25  46  72 101 139 185 240 284 343 422
#     4  12  30  45  70 106 142 185 233 298 354 412
#     4  11  23  47  69  98 146 180 231 282 357 419
#     4  10  24  42  68 101 134 182 224 285 351 411
#
# _framework density 21.860337000000001
#
# number of rings (size 3 to 8) (size 9 to 14) (size 15 to 20)
#    0.000    0.500    3.750    4.500    7.000    0.500 
#    0.000    1.250    0.000    0.000    0.000    0.000 
#    0.000    0.000    0.000    0.000    0.000    0.000 
#
# Total GULP energy -198470.731808 kJ/mol
# GULP energy per Si atom -12404.420738 kJ/mol
# Density = 2.181058 g / cm^3
# Si number density = 21.860337 Si / 1000 Ang^3
#
#
#
# Elastic Constant Matrix: (Units=GPa)
#
#
# Indices 1 2 3 4 5 6 
#
# 1 117.3952 13.5846 34.6192 3.6126 1.8173 -16.8599
# 2 13.5846 118.4391 19.9035 -5.3062 -9.8238 -6.1414
# 3 34.6192 19.9035 68.2709 -16.7830 -7.0970 -3.2902
# 4 3.6126 -5.3062 -16.7830 42.2580 -1.2443 -9.8118
# 5 1.8173 -9.8238 -7.0970 -1.2443 45.4923 2.7528
# 6 -16.8599 -6.1414 -3.2902 -9.8118 2.7528 38.5632
#
#
#
# Elastic Compliance Matrix: (Units=1/GPa)
#
#
# Indices 1 2 3 4 5 6 
#
# 1 0.011002 -0.000301 -0.006136 -0.002608 -0.001757 0.003700
# 2 -0.000301 0.009053 -0.002106 0.000647 0.001585 0.001182
# 3 -0.006136 -0.002106 0.020924 0.008849 0.003249 0.000787
# 4 -0.002608 0.000647 0.008849 0.029166 0.001999 0.006996
# 5 -0.001757 0.001585 0.003249 0.001999 0.023039 -0.001375
# 6 0.003700 0.001182 0.000787 0.006996 -0.001375 0.029683
#
#
# Mechanical properties :
#
#
# Convention : Reuss Voigt Hill
#
# Bulk Modulus (GPa) = 41.85499 48.92441 45.38970
# Shear Modulus (GPa) = 33.80274 40.99589 37.39932
#
# Velocity S-wave (km/s) = 3.93657 4.33523 4.14071
# Velocity P-wave (km/s) = 6.31271 6.89116 6.60826
#
# Compressibility (1/GPa) = 0.02389201
#
# Stress axis : x y z
#
# Youngs Moduli (GPa) = 90.89635 110.45677 47.79214
#
# Poissons Ratio (x) = 0.03329 0.29327
# Poissons Ratio (y) = 0.02739 0.10064
# Poissons Ratio (z) = 0.55777 0.23259
#
# Static dielectric constant tensor:
#      x y z
#    x 4.096690 -0.269970 -0.239810 
#    y -0.269970 4.356460 0.060380 
#    z -0.239810 0.060380 3.867750 
# 
# 
# High freq. dielectric constant tensor:
#      x y z
#    x 1.868270 -0.005870 -0.014080 
#    y -0.005870 1.871320 -0.008160 
#    z -0.014080 -0.008160 1.859870 
# 
# From -- ./inp_files/217112.got.cif
#   From: 2010.06.25/outbox.cif.g09.slc.cpg/sg2_109_cif.got.tgz:217112.got - 2010.06.27 13:26:56.
