data_PCOD8026773
_publ_section_title
;
Structure prediction by ZEFSAII (Michael W. Deem and Ramdas Pophale) SiO2 
 PCOD8026773
Probable space group: P -1
;
_chemical_formula_sum "Si O2"
_cell_formula_units_Z 14
_cell_length_a 15.310225
_cell_length_b 24.241631
_cell_length_c 7.092750
_cell_angle_alpha 52.742718
_cell_angle_beta 128.878180
_cell_angle_gamma 161.397650
_cell_volume 653.137906
_symmetry_space_group_name_H-M "P -1"
_symmetry_group_IT_number 2
_symmetry_cell_setting 'triclinic'
loop_
_space_group_symop_operation_xyz
x,y,z
-x,-y,-z
loop_
_atom_site_type_symbol
_atom_site_label
_atom_site_fract_x
_atom_site_fract_y
_atom_site_fract_z
Si Si1 0.624266 0.548068 0.266620
Si Si2 0.437543 0.239295 0.609562
Si Si3 0.222062 0.686889 0.961039
Si Si4 0.810430 0.207196 0.012640
Si Si5 0.864519 0.745221 0.526823
Si Si6 0.999716 0.967152 0.272385
Si Si7 0.014091 0.365147 0.554721
O O1 0.729726 0.670461 0.288753
O O2 0.374001 0.368926 0.409342
O O3 0.897291 0.655397 0.384580
O O4 0.500000 0.500000 0.000000
O O5 0.718019 0.433380 0.513074
O O6 0.307956 0.198389 0.708670
O O7 0.227411 0.131200 0.375051
O O8 0.494348 0.190382 0.841159
O O9 0.146820 0.701358 0.987528
O O10 0.245986 0.745785 0.679171
O O11 0.000000 0.500000 0.000000
O O12 0.003983 0.254606 0.250002
O O13 0.918736 0.295826 0.777635
O O14 0.500000 0.000000 0.000000
O O15 0.080332 0.931226 0.439761
O O16 0.000000 0.000000 0.000000
#
# Coordination Sequence:
#
# PCOD8026773 Si02
#       7
#     2   2   2   2   2   2   2
#     4  11  22  39  70  99 127 173 218 279 335 388
#     4  10  24  43  67  95 138 173 224 269 332 399
#     4  10  24  45  68  99 136 178 227 272 328 406
#     4  12  26  44  69 101 136 176 225 278 336 397
#     4  11  24  41  68 101 133 166 228 277 330 399
#     4  11  25  42  67 101 134 176 217 278 334 398
#     4  11  23  44  71  95 132 179 222 273 334 397
#
# _framework density 21.434982000000002
#
# number of rings (size 3 to 8) (size 9 to 14) (size 15 to 20)
#    0.000    1.143    4.286    0.857    2.000    7.429 
#    2.571    0.000    0.000    0.000    0.000    0.000 
#    0.000    0.000    0.000    0.000    0.000    0.000 
#
# Total GULP energy -173443.756216 kJ/mol
# GULP energy per Si atom -12388.839730 kJ/mol
# Density = 2.138619 g / cm^3
# Si number density = 21.434982 Si / 1000 Ang^3
#
#
#
# Elastic Constant Matrix: (Units=GPa)
#
#
# Indices 1 2 3 4 5 6 
#
# 1 126.5483 34.0092 79.5972 -15.7600 -6.0770 -6.7541
# 2 34.0092 77.4627 44.9999 -9.9567 -14.6145 0.4076
# 3 79.5972 44.9999 184.0188 1.1521 -16.9662 1.4227
# 4 -15.7600 -9.9567 1.1521 24.2603 -1.2958 5.1366
# 5 -6.0770 -14.6145 -16.9662 -1.2958 38.8453 5.9291
# 6 -6.7541 0.4076 1.4227 5.1366 5.9291 28.0455
#
#
#
# Elastic Compliance Matrix: (Units=1/GPa)
#
#
# Indices 1 2 3 4 5 6 
#
# 1 0.012600 -0.001828 -0.005164 0.007148 -0.001076 0.002241
# 2 -0.001828 0.017430 -0.002969 0.007052 0.005673 -0.003034
# 3 -0.005164 -0.002969 0.008604 -0.004633 0.001858 -0.001181
# 4 0.007148 0.007052 -0.004633 0.051030 0.004747 -0.008496
# 5 -0.001076 0.005673 0.001858 0.004747 0.029841 -0.007614
# 6 0.002241 -0.003034 -0.001181 -0.008496 -0.007614 0.039466
#
#
# Mechanical properties :
#
#
# Convention : Reuss Voigt Hill
#
# Bulk Modulus (GPa) = 53.44644 78.36029 65.90336
# Shear Modulus (GPa) = 27.00813 33.52512 30.26663
#
# Velocity S-wave (km/s) = 3.55350 3.95908 3.76176
# Velocity P-wave (km/s) = 6.46721 7.58523 7.04842
#
# Compressibility (1/GPa) = 0.01871032
#
# Stress axis : x y z
#
# Youngs Moduli (GPa) = 79.36648 57.37394 116.22948
#
# Poissons Ratio (x) = 0.10486 0.60025
# Poissons Ratio (y) = 0.14505 0.34512
# Poissons Ratio (z) = 0.40988 0.17036
#
# Static dielectric constant tensor:
#      x y z
#    x 2.853550 -0.716800 -0.396250 
#    y -0.716800 3.330910 -0.178200 
#    z -0.396250 -0.178200 3.867960 
# 
# 
# High freq. dielectric constant tensor:
#      x y z
#    x 1.855740 -0.008210 0.003250 
#    y -0.008210 1.822010 0.010840 
#    z 0.003250 0.010840 1.859850 
# 
# From -- ./inp_files/101021.got.cif
#   From: 2010.06.25/outbox.cif.g09.slc.cpg/sg2_51_cif.got.tgz:101021.got - 2010.06.27 13:26:56.
