data_PCOD8026500
_publ_section_title
;
Structure prediction by ZEFSAII (Michael W. Deem and Ramdas Pophale) SiO2 
 PCOD8026500
Probable space group: P -1
;
_chemical_formula_sum "Si O2"
_cell_formula_units_Z 16
_cell_length_a 15.457958
_cell_length_b 8.518027
_cell_length_c 9.338734
_cell_angle_alpha 75.372340
_cell_angle_beta 107.276817
_cell_angle_gamma 141.977286
_cell_volume 722.892810
_symmetry_space_group_name_H-M "P -1"
_symmetry_group_IT_number 2
_symmetry_cell_setting 'triclinic'
loop_
_space_group_symop_operation_xyz
x,y,z
-x,-y,-z
loop_
_atom_site_type_symbol
_atom_site_label
_atom_site_fract_x
_atom_site_fract_y
_atom_site_fract_z
Si Si1 0.859428 0.274298 0.893451
Si Si2 0.870581 0.236912 0.577465
Si Si3 0.357931 0.235575 0.920664
Si Si4 0.245272 0.529300 0.272842
Si Si5 0.449559 0.758831 0.087081
Si Si6 0.962369 0.018071 0.632761
Si Si7 0.262582 0.439328 0.806767
Si Si8 0.652806 0.207577 0.457757
O O1 0.900093 0.280530 0.751380
O O2 0.778562 0.332581 0.846921
O O3 0.000000 0.500000 0.000000
O O4 0.757591 0.994620 0.971924
O O5 0.863352 0.041384 0.563725
O O6 0.721909 0.123870 0.492526
O O7 0.000000 0.500000 0.500000
O O8 0.412265 0.167537 0.859505
O O9 0.287027 0.290253 0.790301
O O10 0.500000 0.500000 0.000000
O O11 0.394915 0.678957 0.242546
O O12 0.248589 0.553219 0.440518
O O13 0.119888 0.227707 0.254520
O O14 0.314612 0.512402 0.980305
O O15 0.500000 0.000000 0.000000
O O16 0.098749 0.257551 0.740167
O O17 0.000000 0.000000 0.500000
O O18 0.357654 0.708099 0.714158
O O19 0.500000 0.000000 0.500000
#
# Coordination Sequence:
#
# PCOD8026500 Si02
#       8
#     2   2   2   2   2   2   2   2
#     4  11  24  44  69 100 137 179 230 282 350 421
#     4  11  25  45  73 100 137 185 230 293 351 408
#     4  10  24  42  66  98 142 179 222 284 350 413
#     4  11  24  42  68  99 137 175 224 293 339 403
#     4  11  23  43  67 101 136 175 229 283 343 418
#     4  12  24  46  67 102 143 174 233 292 344 412
#     4  11  24  43  69  95 137 185 224 281 350 411
#     4  11  24  46  69 100 139 185 232 280 348 421
#
# _framework density 22.133296999999999
#
# number of rings (size 3 to 8) (size 9 to 14) (size 15 to 20)
#    0.000    1.000    3.750    2.250   10.500    0.500 
#    6.750    1.250    0.000    0.000    0.000    0.000 
#    0.000    0.000    0.000    0.000    0.000    0.000 
#
# Total GULP energy -198337.839652 kJ/mol
# GULP energy per Si atom -12396.114978 kJ/mol
# Density = 2.208292 g / cm^3
# Si number density = 22.133297 Si / 1000 Ang^3
#
#
#
# Elastic Constant Matrix: (Units=GPa)
#
#
# Indices 1 2 3 4 5 6 
#
# 1 174.0268 32.5725 40.3881 -15.9400 8.0676 -7.4861
# 2 32.5725 110.1670 12.6279 -22.4027 4.9810 4.7384
# 3 40.3881 12.6279 72.6549 -11.1948 0.7896 -3.0441
# 4 -15.9400 -22.4027 -11.1948 33.5925 -0.0478 0.3663
# 5 8.0676 4.9810 0.7896 -0.0478 37.7211 -6.2410
# 6 -7.4861 4.7384 -3.0441 0.3663 -6.2410 38.2485
#
#
#
# Elastic Compliance Matrix: (Units=1/GPa)
#
#
# Indices 1 2 3 4 5 6 
#
# 1 0.007013 -0.001434 -0.003403 0.001224 -0.001057 0.001095
# 2 -0.001434 0.011019 -0.000162 0.006633 -0.001461 -0.001961
# 3 -0.003403 -0.000162 0.016276 0.003694 0.000529 0.000700
# 4 0.001224 0.006633 0.003694 0.036012 -0.001310 -0.000847
# 5 -0.001057 -0.001461 0.000529 -0.001310 0.027668 0.004543
# 6 0.001095 -0.001961 0.000700 -0.000847 0.004543 0.027407
#
#
# Mechanical properties :
#
#
# Convention : Reuss Voigt Hill
#
# Bulk Modulus (GPa) = 41.13596 58.66951 49.90274
# Shear Modulus (GPa) = 34.84404 39.99643 37.42024
#
# Velocity S-wave (km/s) = 3.97203 4.25558 4.11624
# Velocity P-wave (km/s) = 6.29777 7.12120 6.72210
#
# Compressibility (1/GPa) = 0.02430963
#
# Stress axis : x y z
#
# Youngs Moduli (GPa) = 142.60113 90.75289 61.43843
#
# Poissons Ratio (x) = 0.13012 0.20908
# Poissons Ratio (y) = 0.20446 0.00997
# Poissons Ratio (z) = 0.48528 0.01473
#
# Static dielectric constant tensor:
#      x y z
#    x 4.640470 -0.171680 0.161060 
#    y -0.171680 4.041670 -0.010380 
#    z 0.161060 -0.010380 4.002820 
# 
# 
# High freq. dielectric constant tensor:
#      x y z
#    x 1.886890 -0.002570 0.002770 
#    y -0.002570 1.876710 -0.012430 
#    z 0.002770 -0.012430 1.857480 
# 
# From -- ./inp_files/297969.got.cif
#   From: 2010.06.25/outbox.cif.g09.slc.cpg/sg2_149_cif.got.tgz:297969.got - 2010.06.27 13:26:56.
