data_PCOD8026031
_publ_section_title
;
Structure prediction by ZEFSAII (Michael W. Deem and Ramdas Pophale) SiO2 
 PCOD8026031
Probable space group: P -1
;
_chemical_formula_sum "Si O2"
_cell_formula_units_Z 16
_cell_length_a 11.502422
_cell_length_b 12.612173
_cell_length_c 14.748434
_cell_angle_alpha 19.198295
_cell_angle_beta 101.936499
_cell_angle_gamma 103.300162
_cell_volume 684.336022
_symmetry_space_group_name_H-M "P -1"
_symmetry_group_IT_number 2
_symmetry_cell_setting 'triclinic'
loop_
_space_group_symop_operation_xyz
x,y,z
-x,-y,-z
loop_
_atom_site_type_symbol
_atom_site_label
_atom_site_fract_x
_atom_site_fract_y
_atom_site_fract_z
Si Si1 0.498281 0.511049 0.632698
Si Si2 0.247448 0.697712 0.687710
Si Si3 0.011300 0.432688 0.295497
Si Si4 0.715105 0.546489 0.915813
Si Si5 0.356375 0.840200 0.197661
Si Si6 0.495575 0.681686 0.692869
Si Si7 0.923579 0.243730 0.132868
Si Si8 0.075060 0.706124 0.269433
O O1 0.434587 0.766894 0.356640
O O2 0.613291 0.397929 0.688502
O O3 0.543212 0.694246 0.586180
O O4 0.398729 0.207363 0.879271
O O5 0.131158 0.616619 0.673232
O O6 0.355030 0.566090 0.754797
O O7 0.261225 0.075197 0.413548
O O8 0.242447 0.488575 0.947009
O O9 0.077897 0.502899 0.342864
O O10 0.059579 0.098724 0.541768
O O11 0.036115 0.720966 0.993774
O O12 0.574332 0.442230 0.955611
O O13 0.786500 0.316626 0.050846
O O14 0.215889 0.804282 0.233297
O O15 0.500000 0.000000 0.500000
O O16 0.000000 0.500000 0.000000
O O17 0.000000 0.500000 0.500000
O O18 0.000000 0.000000 0.000000
#
# Coordination Sequence:
#
# PCOD8026031 Si02
#       8
#     2   2   2   2   2   2   2   2
#     4  10  23  47  74 100 137 187 229 299 341 422
#     4  11  22  40  62  92 137 176 223 262 338 420
#     4  12  25  42  67 100 129 186 222 277 353 409
#     4  11  23  40  62  94 137 176 219 276 327 409
#     4  10  24  47  73 103 136 181 243 281 361 403
#     4  10  25  43  68 103 138 179 231 284 354 408
#     4  12  22  42  66  97 137 178 228 269 338 423
#     4  12  28  48  72 106 142 176 238 303 355 422
#
# _framework density 23.380324999999999
#
# number of rings (size 3 to 8) (size 9 to 14) (size 15 to 20)
#    0.000    1.000    2.500    3.000    5.250    4.000 
#    4.500    0.000    0.000    0.000    0.000    0.000 
#    0.000    0.000    0.000    0.000    0.000    0.000 
#
# Total GULP energy -198264.537817 kJ/mol
# GULP energy per Si atom -12391.533614 kJ/mol
# Density = 2.332711 g / cm^3
# Si number density = 23.380325 Si / 1000 Ang^3
#
#
#
# Elastic Constant Matrix: (Units=GPa)
#
#
# Indices 1 2 3 4 5 6 
#
# 1 144.3216 0.4310 29.6890 5.7066 25.2126 -1.2516
# 2 0.4310 112.8506 11.7618 6.2228 4.0444 -8.6473
# 3 29.6890 11.7618 78.5638 18.7325 13.3488 0.9367
# 4 5.7066 6.2228 18.7325 29.5901 -4.6677 1.4899
# 5 25.2126 4.0444 13.3488 -4.6677 35.7357 9.8262
# 6 -1.2516 -8.6473 0.9367 1.4899 9.8262 32.2130
#
#
#
# Elastic Compliance Matrix: (Units=1/GPa)
#
#
# Indices 1 2 3 4 5 6 
#
# 1 0.008504 0.000680 -0.001860 -0.001731 -0.006316 0.002574
# 2 0.000680 0.009412 -0.000760 -0.002196 -0.002493 0.003437
# 3 -0.001860 -0.000760 0.017583 -0.011858 -0.007262 0.001976
# 4 -0.001731 -0.002196 -0.011858 0.044554 0.013504 -0.006492
# 5 -0.006316 -0.002493 -0.007262 0.013504 0.041002 -0.013835
# 6 0.002574 0.003437 0.001976 -0.006492 -0.013835 0.036529
#
#
# Mechanical properties :
#
#
# Convention : Reuss Voigt Hill
#
# Bulk Modulus (GPa) = 31.62675 46.61105 39.11890
# Shear Modulus (GPa) = 29.06930 39.09803 34.08366
#
# Velocity S-wave (km/s) = 3.52990 4.09377 3.82225
# Velocity P-wave (km/s) = 5.49273 6.50573 6.02057
#
# Compressibility (1/GPa) = 0.03161881
#
# Stress axis : x y z
#
# Youngs Moduli (GPa) = 117.59584 106.25084 56.87383
#
# Poissons Ratio (x) = -0.07230 0.10579
# Poissons Ratio (y) = -0.08002 0.04322
# Poissons Ratio (z) = 0.21875 0.08074
#
# Static dielectric constant tensor:
#      x y z
#    x 5.156130 -0.109590 0.230800 
#    y -0.109590 4.305710 0.235990 
#    z 0.230800 0.235990 4.494970 
# 
# 
# High freq. dielectric constant tensor:
#      x y z
#    x 1.939040 -0.003290 0.019940 
#    y -0.003290 1.918940 0.013160 
#    z 0.019940 0.013160 1.923030 
# 
# From -- ./inp_files/519468.got.cif
#   From: 2010.06.25/outbox.cif.g09.slc.cpg/sg2_260_cif.got.tgz:519468.got - 2010.06.27 13:26:56.
