data_PCOD8026024
_publ_section_title
;
Structure prediction by ZEFSAII (Michael W. Deem and Ramdas Pophale) SiO2 
 PCOD8026024
Probable space group: P -1
;
_chemical_formula_sum "Si O2"
_cell_formula_units_Z 12
_cell_length_a 9.829289
_cell_length_b 4.853241
_cell_length_c 9.549009
_cell_angle_alpha 69.440204
_cell_angle_beta 69.166271
_cell_angle_gamma 73.841828
_cell_volume 392.452615
_symmetry_space_group_name_H-M "P -1"
_symmetry_group_IT_number 2
_symmetry_cell_setting 'triclinic'
loop_
_space_group_symop_operation_xyz
x,y,z
-x,-y,-z
loop_
_atom_site_type_symbol
_atom_site_label
_atom_site_fract_x
_atom_site_fract_y
_atom_site_fract_z
Si Si1 0.311651 0.620657 0.444192
Si Si2 0.492870 0.041881 0.206741
Si Si3 0.991240 0.169509 0.744025
Si Si4 0.139995 0.232314 0.404100
Si Si5 0.725360 0.263400 0.242501
Si Si6 0.739932 0.796842 0.953937
O O1 0.472674 0.709737 0.332208
O O2 0.276257 0.330900 0.427657
O O3 0.274763 0.607131 0.623884
O O4 0.206164 0.915484 0.365136
O O5 0.559164 0.208294 0.280876
O O6 0.340200 0.240324 0.162843
O O7 0.616078 0.016160 0.046557
O O8 0.925811 0.523992 0.738990
O O9 0.007158 0.186312 0.564856
O O10 0.884516 0.947904 0.869170
O O11 0.155205 0.045856 0.765854
O O12 0.781906 0.483392 0.072313
#
# Coordination Sequence:
#
# PCOD8026024 Si02
#       6
#     2   2   2   2   2   2
#     4  11  25  48  81 107 147 190 252 303 358 436
#     4  11  26  47  69 110 142 205 239 299 368 441
#     4  10  23  47  72 111 141 195 243 306 362 436
#     4  10  24  47  78 111 142 195 246 301 365 432
#     4  11  26  43  73 112 145 189 246 311 363 428
#     4  11  25  48  73 102 155 193 244 296 377 440
#
# _framework density 30.576941000000001
#
# number of rings (size 3 to 8) (size 9 to 14) (size 15 to 20)
#    0.000    1.333    1.667    1.500    7.000    8.667 
#    6.000    0.000    0.000    0.000    0.000    0.000 
#    0.000    0.000    0.000    0.000    0.000    0.000 
#
# Total GULP energy -148723.855670 kJ/mol
# GULP energy per Si atom -12393.654639 kJ/mol
# Density = 3.050735 g / cm^3
# Si number density = 30.576941 Si / 1000 Ang^3
#
#
#
# Elastic Constant Matrix: (Units=GPa)
#
#
# Indices 1 2 3 4 5 6 
#
# 1 184.5135 26.8392 21.0895 -29.1809 -30.7071 -19.0979
# 2 26.8392 45.9929 -25.5362 -17.2735 -2.9714 -4.1010
# 3 21.0895 -25.5362 199.4061 -18.1917 -14.7952 15.7606
# 4 -29.1809 -17.2735 -18.1917 41.0852 8.5552 17.9755
# 5 -30.7071 -2.9714 -14.7952 8.5552 72.5958 -14.1129
# 6 -19.0979 -4.1010 15.7606 17.9755 -14.1129 48.5838
#
#
#
# Elastic Compliance Matrix: (Units=1/GPa)
#
#
# Indices 1 2 3 4 5 6 
#
# 1 0.007173 -0.004190 -0.001299 0.000483 0.003251 0.003653
# 2 -0.004190 0.034300 0.007070 0.019105 -0.002921 -0.008963
# 3 -0.001299 0.007070 0.007119 0.007662 -0.000737 -0.005272
# 4 0.000483 0.019105 0.007662 0.046126 -0.006718 -0.019701
# 5 0.003251 -0.002921 -0.000737 -0.006718 0.017384 0.008806
# 6 0.003653 -0.008963 -0.005272 -0.019701 0.008806 0.032820
#
#
# Mechanical properties :
#
#
# Convention : Reuss Voigt Hill
#
# Bulk Modulus (GPa) = 19.32140 52.74419 36.03279
# Shear Modulus (GPa) = 31.44453 59.62095 45.53274
#
# Velocity S-wave (km/s) = 3.21031 4.42052 3.86310
# Velocity P-wave (km/s) = 4.48041 6.58345 5.63098
#
# Compressibility (1/GPa) = 0.05175609
#
# Stress axis : x y z
#
# Youngs Moduli (GPa) = 139.41011 29.15410 140.47516
#
# Poissons Ratio (x) = 0.12215 0.18242
# Poissons Ratio (y) = 0.58409 -0.99320
# Poissons Ratio (z) = 0.18104 -0.20613
#
# Static dielectric constant tensor:
#      x y z
#    x 6.062200 -0.497360 -0.151430 
#    y -0.497360 5.743060 0.093310 
#    z -0.151430 0.093310 6.295150 
# 
# 
# High freq. dielectric constant tensor:
#      x y z
#    x 2.275400 -0.010910 -0.026550 
#    y -0.010910 2.246920 -0.000060 
#    z -0.026550 -0.000060 2.281010 
# 
# From -- ./inp_files/372840.got.cif
#   From: 2010.06.25/outbox.cif.g09.slc.cpg/sg2_187_cif.got.tgz:372840.got - 2010.06.27 13:26:56.
