data_PCOD8026034
_publ_section_title
;
Structure prediction by ZEFSAII (Michael W. Deem and Ramdas Pophale) SiO2 
 PCOD8026034
Probable space group: P -1
;
_chemical_formula_sum "Si O2"
_cell_formula_units_Z 16
_cell_length_a 22.549465
_cell_length_b 7.186502
_cell_length_c 17.659444
_cell_angle_alpha 52.517435
_cell_angle_beta 157.391077
_cell_angle_gamma 138.424339
_cell_volume 691.270657
_symmetry_space_group_name_H-M "P -1"
_symmetry_group_IT_number 2
_symmetry_cell_setting 'triclinic'
loop_
_space_group_symop_operation_xyz
x,y,z
-x,-y,-z
loop_
_atom_site_type_symbol
_atom_site_label
_atom_site_fract_x
_atom_site_fract_y
_atom_site_fract_z
Si Si1 0.854065 0.229486 0.105477
Si Si2 0.791001 0.832240 0.258608
Si Si3 0.751969 0.675955 0.669281
Si Si4 0.807428 0.949604 0.860280
Si Si5 0.408819 0.652943 0.304774
Si Si6 0.467128 0.692483 0.023224
Si Si7 0.241908 0.623890 0.387185
Si Si8 0.609324 0.730689 0.834771
O O1 0.081083 0.495259 0.295540
O O2 0.804314 0.084065 0.164702
O O3 0.711828 0.316652 0.906752
O O4 0.804710 0.998220 0.039026
O O5 0.645546 0.736625 0.179845
O O6 0.722962 0.550895 0.193105
O O7 0.000000 0.000000 0.500000
O O8 0.630551 0.811568 0.500031
O O9 0.636153 0.347970 0.657649
O O10 0.761620 0.620132 0.604973
O O11 0.972755 0.920574 0.896271
O O12 0.791382 0.205556 0.755800
O O13 0.711459 0.710322 0.739923
O O14 0.663044 0.734843 0.811045
O O15 0.462970 0.568057 0.132179
O O16 0.500000 0.000000 0.000000
O O17 0.450751 0.805387 0.633490
#
# Coordination Sequence:
#
# PCOD8026034 Si02
#       8
#     2   2   2   2   2   2   2   2
#     4  11  24  42  66  92 132 167 217 274 331 399
#     4  10  23  47  74 103 135 175 227 290 352 413
#     4  11  23  39  58  84 131 173 215 262 314 379
#     4  12  23  38  61  91 131 173 216 265 313 387
#     4  11  25  38  57  92 128 172 214 267 320 377
#     4  10  24  46  73 100 139 176 224 291 351 409
#     4  12  23  39  63  91 127 180 215 257 320 398
#     4  11  24  40  66  95 125 171 224 263 328 406
#
# _framework density 23.145783000000002
#
# number of rings (size 3 to 8) (size 9 to 14) (size 15 to 20)
#    0.000    1.000    3.750    2.625    5.250    0.500 
#    0.000    1.250    0.000    0.000    0.000    0.000 
#    0.000    0.000    0.000    0.000    0.000    0.000 
#
# Total GULP energy -198229.428798 kJ/mol
# GULP energy per Si atom -12389.339300 kJ/mol
# Density = 2.309310 g / cm^3
# Si number density = 23.145783 Si / 1000 Ang^3
#
#
#
# Elastic Constant Matrix: (Units=GPa)
#
#
# Indices 1 2 3 4 5 6 
#
# 1 67.5683 33.0376 20.7442 1.9907 12.0758 15.7537
# 2 33.0376 95.1564 33.2558 -9.9546 12.6718 25.0908
# 3 20.7442 33.2558 153.1437 10.2710 17.2227 9.2162
# 4 1.9907 -9.9546 10.2710 41.1516 -0.7796 -2.8097
# 5 12.0758 12.6718 17.2227 -0.7796 32.1845 2.1406
# 6 15.7537 25.0908 9.2162 -2.8097 2.1406 33.8210
#
#
#
# Elastic Compliance Matrix: (Units=1/GPa)
#
#
# Indices 1 2 3 4 5 6 
#
# 1 0.019475 -0.004781 -0.000579 -0.002405 -0.004823 -0.005261
# 2 -0.004781 0.015981 -0.002288 0.004038 -0.002610 -0.008505
# 3 -0.000579 -0.002288 0.007618 -0.002493 -0.003011 -0.000125
# 4 -0.002405 0.004038 -0.002493 0.026100 0.001219 0.000895
# 5 -0.004823 -0.002610 -0.003011 0.001219 0.035358 0.002867
# 6 -0.005261 -0.008505 -0.000125 0.000895 0.002867 0.038254
#
#
# Mechanical properties :
#
#
# Convention : Reuss Voigt Hill
#
# Bulk Modulus (GPa) = 36.00102 54.43818 45.21960
# Shear Modulus (GPa) = 29.87866 36.68680 33.28273
#
# Velocity S-wave (km/s) = 3.59679 3.98556 3.79616
# Velocity P-wave (km/s) = 5.73036 6.68957 6.22846
#
# Compressibility (1/GPa) = 0.02777699
#
# Stress axis : x y z
#
# Youngs Moduli (GPa) = 51.34825 62.57323 131.26000
#
# Poissons Ratio (x) = 0.29917 0.07606
# Poissons Ratio (y) = 0.24550 0.30035
# Poissons Ratio (z) = 0.02976 0.14318
#
# Static dielectric constant tensor:
#      x y z
#    x 3.844440 -0.207610 0.137650 
#    y -0.207610 4.148150 0.271040 
#    z 0.137650 0.271040 4.219530 
# 
# 
# High freq. dielectric constant tensor:
#      x y z
#    x 1.920760 0.002340 -0.001920 
#    y 0.002340 1.900760 0.014580 
#    z -0.001920 0.014580 1.930210 
# 
# From -- ./inp_files/529620.got.cif
#   From: 2010.06.25/outbox.cif.g09.slc.cpg/sg2_265_cif.got.tgz:529620.got - 2010.06.27 13:26:56.
