data_PCOD8026219
_publ_section_title
;
Structure prediction by ZEFSAII (Michael W. Deem and Ramdas Pophale) SiO2 
 PCOD8026219
Probable space group: P -1
;
_chemical_formula_sum "Si O2"
_cell_formula_units_Z 14
_cell_length_a 8.557652
_cell_length_b 11.264647
_cell_length_c 18.244843
_cell_angle_alpha 149.814327
_cell_angle_beta 52.713983
_cell_angle_gamma 135.981574
_cell_volume 613.877428
_symmetry_space_group_name_H-M "P -1"
_symmetry_group_IT_number 2
_symmetry_cell_setting 'triclinic'
loop_
_space_group_symop_operation_xyz
x,y,z
-x,-y,-z
loop_
_atom_site_type_symbol
_atom_site_label
_atom_site_fract_x
_atom_site_fract_y
_atom_site_fract_z
Si Si1 0.328483 0.571435 0.127526
Si Si2 0.965955 0.512681 0.429748
Si Si3 0.828490 0.759390 0.869685
Si Si4 0.516535 0.876914 0.675575
Si Si5 0.485284 0.021097 0.920955
Si Si6 0.985530 0.976501 0.580828
Si Si7 0.153471 0.583452 0.875132
O O1 0.313667 0.500063 0.178337
O O2 0.079584 0.421730 0.081422
O O3 0.423379 0.891001 0.277482
O O4 0.500000 0.500000 0.000000
O O5 0.701120 0.393779 0.430253
O O6 0.079859 0.799455 0.504034
O O7 0.000000 0.500000 0.500000
O O8 0.047076 0.311508 0.266750
O O9 0.653093 0.842199 0.930317
O O10 0.000000 0.000000 0.000000
O O11 0.722683 0.818484 0.593240
O O12 0.478591 0.008970 0.829863
O O13 0.348065 0.712718 0.825631
O O14 0.743852 0.215385 0.976430
O O15 0.000000 0.000000 0.500000
O O16 0.110530 0.280343 0.740166
#
# Coordination Sequence:
#
# PCOD8026219 Si02
#       7
#     2   2   2   2   2   2   2
#     4  11  20  38  67 104 140 177 234 299 361 422
#     4  12  27  46  72 108 145 188 244 305 359 435
#     4  12  22  44  71  97 141 188 236 296 363 420
#     4  11  23  43  68  98 135 196 237 289 366 430
#     4  11  22  42  70 102 139 180 244 301 351 422
#     4  11  25  47  71  95 149 196 239 285 370 453
#     4  10  24  40  66 104 135 184 237 294 350 422
#
# _framework density 22.805855999999999
#
# number of rings (size 3 to 8) (size 9 to 14) (size 15 to 20)
#    0.000    0.857    4.286    3.000    0.000    6.857 
#    2.571    2.143    0.000    0.000    0.000    0.000 
#    0.000    0.000    0.000    0.000    0.000    0.000 
#
# Total GULP energy -173450.634205 kJ/mol
# GULP energy per Si atom -12389.331015 kJ/mol
# Density = 2.275395 g / cm^3
# Si number density = 22.805856 Si / 1000 Ang^3
#
#
#
# Elastic Constant Matrix: (Units=GPa)
#
#
# Indices 1 2 3 4 5 6 
#
# 1 81.6926 38.7508 42.6826 3.3787 3.5386 -3.3165
# 2 38.7508 107.6033 45.3484 5.1046 11.7626 -5.4571
# 3 42.6826 45.3484 97.0767 -8.4600 3.2167 -1.5631
# 4 3.3787 5.1046 -8.4600 36.7251 0.0116 2.3750
# 5 3.5386 11.7626 3.2167 0.0116 34.5678 -2.3068
# 6 -3.3165 -5.4571 -1.5631 2.3750 -2.3068 52.0274
#
#
#
# Elastic Compliance Matrix: (Units=1/GPa)
#
#
# Indices 1 2 3 4 5 6 
#
# 1 0.017241 -0.003450 -0.006183 -0.002574 0.000030 0.000670
# 2 -0.003450 0.013079 -0.004689 -0.002642 -0.003595 0.000972
# 3 -0.006183 -0.004689 0.015599 0.004853 0.000735 -0.000606
# 4 -0.002574 -0.002642 0.004853 0.029054 0.000595 -0.001595
# 5 0.000030 -0.003595 0.000735 0.000595 0.030144 0.000956
# 6 0.000670 0.000972 -0.000606 -0.001595 0.000956 0.019462
#
#
# Mechanical properties :
#
#
# Convention : Reuss Voigt Hill
#
# Bulk Modulus (GPa) = 57.88644 59.99291 58.93968
# Shear Modulus (GPa) = 31.45017 35.30344 33.37680
#
# Velocity S-wave (km/s) = 3.71757 3.93873 3.82975
# Velocity P-wave (km/s) = 6.62303 6.85914 6.74212
#
# Compressibility (1/GPa) = 0.01727520
#
# Stress axis : x y z
#
# Youngs Moduli (GPa) = 58.00291 76.45557 64.10778
#
# Poissons Ratio (x) = 0.26378 0.39639
# Poissons Ratio (y) = 0.20012 0.30057
# Poissons Ratio (z) = 0.35864 0.35846
#
# Static dielectric constant tensor:
#      x y z
#    x 4.260180 -0.031420 -0.221320 
#    y -0.031420 4.537230 0.097430 
#    z -0.221320 0.097430 4.016040 
# 
# 
# High freq. dielectric constant tensor:
#      x y z
#    x 1.896050 -0.006690 -0.014910 
#    y -0.006690 1.921820 0.010660 
#    z -0.014910 0.010660 1.883510 
# 
# From -- ./inp_files/176435.got.cif
#   From: 2010.06.25/outbox.cif.g09.slc.cpg/sg2_89_cif.got.tgz:176435.got - 2010.06.27 13:26:56.
