data_PCOD8026714
_publ_section_title
;
Structure prediction by ZEFSAII (Michael W. Deem and Ramdas Pophale) SiO2 
 PCOD8026714
Probable space group: P -1
;
_chemical_formula_sum "Si O2"
_cell_formula_units_Z 16
_cell_length_a 15.627541
_cell_length_b 12.046535
_cell_length_c 9.735521
_cell_angle_alpha 95.174886
_cell_angle_beta 77.521587
_cell_angle_gamma 153.302112
_cell_volume 781.588113
_symmetry_space_group_name_H-M "P -1"
_symmetry_group_IT_number 2
_symmetry_cell_setting 'triclinic'
loop_
_space_group_symop_operation_xyz
x,y,z
-x,-y,-z
loop_
_atom_site_type_symbol
_atom_site_label
_atom_site_fract_x
_atom_site_fract_y
_atom_site_fract_z
Si Si1 0.443441 0.679211 0.831268
Si Si2 0.841700 0.878675 0.859949
Si Si3 0.869914 0.094728 0.351417
Si Si4 0.578240 0.941461 0.345731
Si Si5 0.693311 0.474528 0.830135
Si Si6 0.709512 0.338700 0.342612
Si Si7 0.136292 0.892232 0.326918
Si Si8 0.743057 0.757922 0.176535
O O1 0.306592 0.600202 0.775828
O O2 0.431353 0.533407 0.779534
O O3 0.677154 0.974947 0.760400
O O4 0.367627 0.616191 0.002590
O O5 0.717430 0.633945 0.809868
O O6 0.859767 0.995168 0.756576
O O7 0.736624 0.801464 0.028665
O O8 0.057961 0.084735 0.850895
O O9 0.780803 0.112730 0.343622
O O10 0.728301 0.839811 0.300840
O O11 0.858208 0.060728 0.513334
O O12 0.097879 0.350322 0.249435
O O13 0.484405 0.774725 0.228281
O O14 0.417726 0.752747 0.501574
O O15 0.631480 0.127801 0.306838
O O16 0.939477 0.594044 0.336661
#
# Coordination Sequence:
#
# PCOD8026714 Si02
#       8
#     2   2   2   2   2   2   2   2
#     4  11  24  42  66  99 131 171 208 261 325 384
#     4   9  20  38  64  95 134 171 199 260 326 378
#     4  11  24  40  65 100 125 168 219 263 311 380
#     4  11  25  45  68  90 128 175 214 266 324 376
#     4  10  24  43  65  97 134 166 209 265 321 383
#     4  11  25  46  65  92 132 167 218 270 317 377
#     4  12  24  39  66  99 126 170 217 261 316 378
#     4   9  20  39  63  93 138 167 201 260 323 384
#
# _framework density 20.471139000000001
#
# number of rings (size 3 to 8) (size 9 to 14) (size 15 to 20)
#    0.000    1.500    3.750    0.750    3.500    6.500 
#    0.000    1.250    0.000    0.000    0.000    0.000 
#    0.000    0.000    0.000    0.000    0.000    0.000 
#
# Total GULP energy -198438.623002 kJ/mol
# GULP energy per Si atom -12402.413938 kJ/mol
# Density = 2.042455 g / cm^3
# Si number density = 20.471139 Si / 1000 Ang^3
#
#
#
# Elastic Constant Matrix: (Units=GPa)
#
#
# Indices 1 2 3 4 5 6 
#
# 1 57.8059 16.8748 52.9416 0.5390 1.1743 -3.6368
# 2 16.8748 95.9937 60.5163 4.4363 -3.0683 -4.2425
# 3 52.9416 60.5163 109.3721 7.5445 29.2733 9.0007
# 4 0.5390 4.4363 7.5445 29.4259 3.8640 -6.7071
# 5 1.1743 -3.0683 29.2733 3.8640 13.9014 -14.4981
# 6 -3.6368 -4.2425 9.0007 -6.7071 -14.4981 17.3646
#
#
#
# Elastic Compliance Matrix: (Units=1/GPa)
#
#
# Indices 1 2 3 4 5 6 
#
# 1 0.017341 -0.004913 0.000941 -0.000607 -0.019966 -0.014961
# 2 -0.004913 0.009256 0.001924 -0.002762 -0.013107 -0.011775
# 3 0.000941 0.001924 -0.000699 0.001669 0.023990 0.021704
# 4 -0.000607 -0.002762 0.001669 0.036202 -0.009983 0.003981
# 5 -0.019966 -0.013107 0.023990 -0.009983 -0.013189 -0.034686
# 6 -0.014961 -0.011775 0.021704 0.003981 -0.034686 0.012906
#
#
# Mechanical properties :
#
#
# Convention : Reuss Voigt Hill
#
# Bulk Modulus (GPa) = 45.86514 58.20413 52.03464
# Shear Modulus (GPa) = 68.32495 20.99430 44.65962
#
# Velocity S-wave (km/s) = 5.78348 3.20590 4.67582
# Velocity P-wave (km/s) = 8.18851 6.49598 7.39085
#
# Compressibility (1/GPa) = 0.02180305
#
# Stress axis : x y z
#
# Youngs Moduli (GPa) = 57.66550 108.03517 -1429.93348
#
# Poissons Ratio (x) = 0.53081 1.34609
# Poissons Ratio (y) = 0.28333 2.75159
# Poissons Ratio (z) = -0.05428 -0.20789
#
# Static dielectric constant tensor:
#      x y z
#    x 3.579820 0.126980 0.011550 
#    y 0.126980 3.911900 0.020060 
#    z 0.011550 0.020060 3.762890 
# 
# 
# High freq. dielectric constant tensor:
#      x y z
#    x 1.793960 0.015270 0.005820 
#    y 0.015270 1.808200 0.000860 
#    z 0.005820 0.000860 1.804990 
# 
# From -- ./inp_files/272940.got.cif
#   From: 2010.06.25/outbox.cif.g09.slc.cpg/sg2_137_cif.got.tgz:272940.got - 2010.06.27 13:26:56.
