data_PCOD8026827
_publ_section_title
;
Structure prediction by ZEFSAII (Michael W. Deem and Ramdas Pophale) SiO2 
 PCOD8026827
Probable space group: P -1
;
_chemical_formula_sum "Si O2"
_cell_formula_units_Z 16
_cell_length_a 19.090197
_cell_length_b 9.701721
_cell_length_c 8.928081
_cell_angle_alpha 110.455303
_cell_angle_beta 141.855960
_cell_angle_gamma 49.631284
_cell_volume 731.810821
_symmetry_space_group_name_H-M "P -1"
_symmetry_group_IT_number 2
_symmetry_cell_setting 'triclinic'
loop_
_space_group_symop_operation_xyz
x,y,z
-x,-y,-z
loop_
_atom_site_type_symbol
_atom_site_label
_atom_site_fract_x
_atom_site_fract_y
_atom_site_fract_z
Si Si1 0.263920 0.637550 0.128919
Si Si2 0.034665 0.074908 0.446391
Si Si3 0.490194 0.855101 0.243172
Si Si4 0.411221 0.606076 0.088882
Si Si5 0.027323 0.391868 0.657218
Si Si6 0.745016 0.517987 0.388020
Si Si7 0.318522 0.274390 0.187587
Si Si8 0.252884 0.713954 0.475695
O O1 0.388981 0.620721 0.237519
O O2 0.327054 0.419940 0.168246
O O3 0.233471 0.741405 0.275653
O O4 0.111119 0.768242 0.833273
O O5 0.095124 0.175573 0.654568
O O6 0.157584 0.915341 0.476305
O O7 0.000000 0.000000 0.500000
O O8 0.387736 0.795377 0.071189
O O9 0.598247 0.741657 0.238965
O O10 0.599828 0.782093 0.540218
O O11 0.394283 0.081611 0.142216
O O12 0.573021 0.412614 0.237696
O O13 0.286062 0.604026 0.808084
O O14 0.000000 0.500000 0.500000
O O15 0.872859 0.510121 0.530892
O O16 0.145213 0.377411 0.955342
O O17 0.793721 0.411144 0.592349
#
# Coordination Sequence:
#
# PCOD8026827 Si02
#       8
#     2   2   2   2   2   2   2   2
#     4  12  23  46  66 100 138 171 224 286 331 392
#     4  12  25  44  68  98 131 179 230 276 334 396
#     4  10  24  43  68  99 131 177 226 267 337 404
#     4  11  22  41  72  97 133 174 222 284 331 384
#     4  12  25  44  66  92 139 180 218 274 336 393
#     4  11  22  43  69 100 130 176 224 277 329 393
#     4  11  24  43  64  96 139 175 215 270 338 397
#     4  11  23  40  69 101 130 173 227 280 333 386
#
# _framework density 21.863572999999999
#
# number of rings (size 3 to 8) (size 9 to 14) (size 15 to 20)
#    0.000    0.750    6.250    2.250    5.250    0.500 
#    2.250    1.250    0.000    0.000    0.000    0.000 
#    0.000    0.000    0.000    0.000    0.000    0.000 
#
# Total GULP energy -198360.519429 kJ/mol
# GULP energy per Si atom -12397.532464 kJ/mol
# Density = 2.181381 g / cm^3
# Si number density = 21.863573 Si / 1000 Ang^3
#
#
#
# Elastic Constant Matrix: (Units=GPa)
#
#
# Indices 1 2 3 4 5 6 
#
# 1 141.9162 46.1303 5.4029 -7.2129 13.2850 -9.0828
# 2 46.1303 120.3648 8.5850 -3.9614 3.7397 -10.5361
# 3 5.4029 8.5850 63.2383 -7.0702 3.1167 9.2819
# 4 -7.2129 -3.9614 -7.0702 30.9123 3.8404 -0.5617
# 5 13.2850 3.7397 3.1167 3.8404 32.5472 1.2207
# 6 -9.0828 -10.5361 9.2819 -0.5617 1.2207 34.0628
#
#
#
# Elastic Compliance Matrix: (Units=1/GPa)
#
#
# Indices 1 2 3 4 5 6 
#
# 1 0.008536 -0.002949 -0.000162 0.002031 -0.003428 0.001564
# 2 -0.002949 0.009777 -0.001435 0.000274 0.000087 0.002630
# 3 -0.000162 -0.001435 0.017280 0.003848 -0.001687 -0.005072
# 4 0.002031 0.000274 0.003848 0.034403 -0.005301 0.000335
# 5 -0.003428 0.000087 -0.001687 -0.005301 0.032964 -0.001696
# 6 0.001564 0.002630 -0.005072 0.000335 -0.001696 0.032037
#
#
# Mechanical properties :
#
#
# Convention : Reuss Voigt Hill
#
# Bulk Modulus (GPa) = 37.73791 49.52843 43.63317
# Shear Modulus (GPa) = 32.69607 37.19788 34.94698
#
# Velocity S-wave (km/s) = 3.87131 4.12923 4.00235
# Velocity P-wave (km/s) = 6.10580 6.74067 6.43108
#
# Compressibility (1/GPa) = 0.02649856
#
# Stress axis : x y z
#
# Youngs Moduli (GPa) = 117.15727 102.27720 57.87143
#
# Poissons Ratio (x) = 0.30166 0.00940
# Poissons Ratio (y) = 0.34555 0.08305
# Poissons Ratio (z) = 0.01903 0.14678
#
# Static dielectric constant tensor:
#      x y z
#    x 4.236890 -0.035730 -0.003880 
#    y -0.035730 4.191060 -0.106490 
#    z -0.003880 -0.106490 3.948770 
# 
# 
# High freq. dielectric constant tensor:
#      x y z
#    x 1.861770 -0.009710 0.002740 
#    y -0.009710 1.860570 -0.003650 
#    z 0.002740 -0.003650 1.862580 
# 
# From -- ./inp_files/329226.got.cif
#   From: 2010.06.25/outbox.cif.g09.slc.cpg/sg2_165_cif.got.tgz:329226.got - 2010.06.27 13:26:56.
