data_PCOD8026112
_publ_section_title
;
Structure prediction by ZEFSAII (Michael W. Deem and Ramdas Pophale) SiO2 
 PCOD8026112
Probable space group: P -1
;
_chemical_formula_sum "Si O2"
_cell_formula_units_Z 14
_cell_length_a 6.434149
_cell_length_b 19.664628
_cell_length_c 6.138031
_cell_angle_alpha 110.260540
_cell_angle_beta 102.586342
_cell_angle_gamma 57.018887
_cell_volume 610.729415
_symmetry_space_group_name_H-M "P -1"
_symmetry_group_IT_number 2
_symmetry_cell_setting 'triclinic'
loop_
_space_group_symop_operation_xyz
x,y,z
-x,-y,-z
loop_
_atom_site_type_symbol
_atom_site_label
_atom_site_fract_x
_atom_site_fract_y
_atom_site_fract_z
Si Si1 0.490263 0.826493 0.268984
Si Si2 0.289380 0.595627 0.032850
Si Si3 0.094643 0.929761 0.625960
Si Si4 0.001199 0.704173 0.468638
Si Si5 0.615298 0.297480 0.155610
Si Si6 0.896097 0.596100 0.641286
Si Si7 0.661770 0.019254 0.894405
O O1 0.300158 0.846049 0.453157
O O2 0.481360 0.905683 0.232068
O O3 0.769173 0.776480 0.365489
O O4 0.424126 0.776490 0.023856
O O5 0.226356 0.642435 0.298338
O O6 0.500000 0.500000 0.000000
O O7 0.396728 0.641836 0.968018
O O8 0.041918 0.602402 0.888205
O O9 0.207125 0.949737 0.878629
O O10 0.000000 0.000000 0.500000
O O11 0.850819 0.936231 0.696491
O O12 0.119124 0.743710 0.703777
O O13 0.921800 0.644542 0.498706
O O14 0.394120 0.358121 0.331009
O O15 0.000000 0.500000 0.500000
O O16 0.500000 0.000000 0.000000
#
# Coordination Sequence:
#
# PCOD8026112 Si02
#       7
#     2   2   2   2   2   2   2
#     4  11  25  47  71 101 144 180 225 293 351 407
#     4  11  24  43  68 101 137 189 240 282 351 415
#     4   9  22  47  70 102 138 178 222 273 354 420
#     4  11  26  45  66 104 139 180 239 284 353 406
#     4  11  26  45  66 103 141 178 239 289 345 411
#     4  11  24  43  69  99 140 187 238 289 342 419
#     4  10  23  49  74 104 135 178 232 273 342 434
#
# _framework density 22.923406
#
# number of rings (size 3 to 8) (size 9 to 14) (size 15 to 20)
#    0.000    1.429    1.429    1.714    6.000    5.714 
#   20.571    0.000    0.000    0.000    0.000    0.000 
#    0.000    0.000    0.000    0.000    0.000    0.000 
#
# Total GULP energy -173464.476142 kJ/mol
# GULP energy per Si atom -12390.319724 kJ/mol
# Density = 2.287123 g / cm^3
# Si number density = 22.923406 Si / 1000 Ang^3
#
#
#
# Elastic Constant Matrix: (Units=GPa)
#
#
# Indices 1 2 3 4 5 6 
#
# 1 147.7189 63.5124 53.1834 -0.8752 -31.5770 -0.9526
# 2 63.5124 124.5182 53.6143 -6.3908 -6.0211 -14.4083
# 3 53.1834 53.6143 107.9996 1.5659 -24.5019 -8.1839
# 4 -0.8752 -6.3908 1.5659 45.7414 -7.3091 -3.5724
# 5 -31.5770 -6.0211 -24.5019 -7.3091 52.9355 4.2566
# 6 -0.9526 -14.4083 -8.1839 -3.5724 4.2566 34.2338
#
#
#
# Elastic Compliance Matrix: (Units=1/GPa)
#
#
# Indices 1 2 3 4 5 6 
#
# 1 0.010515 -0.004575 -0.001960 0.000231 0.005095 -0.002711
# 2 -0.004575 0.012798 -0.004565 0.001664 -0.003541 0.004782
# 3 -0.001960 -0.004565 0.013565 -0.000371 0.004485 0.000670
# 4 0.000231 0.001664 -0.000371 0.022810 0.003095 0.002614
# 5 0.005095 -0.003541 0.004485 0.003095 0.024270 -0.002971
# 6 -0.002711 0.004782 0.000670 0.002614 -0.002971 0.031950
#
#
# Mechanical properties :
#
#
# Convention : Reuss Voigt Hill
#
# Bulk Modulus (GPa) = 68.13442 80.09522 74.11482
# Shear Modulus (GPa) = 34.96475 40.57723 37.77099
#
# Velocity S-wave (km/s) = 3.90973 4.21185 4.06360
# Velocity P-wave (km/s) = 7.08297 7.65957 7.37691
#
# Compressibility (1/GPa) = 0.01467687
#
# Stress axis : x y z
#
# Youngs Moduli (GPa) = 95.09952 78.13843 73.72160
#
# Poissons Ratio (x) = 0.35749 0.14448
# Poissons Ratio (y) = 0.43509 0.33658
# Poissons Ratio (z) = 0.18638 0.35674
#
# Static dielectric constant tensor:
#      x y z
#    x 4.015560 -0.260150 -0.163190 
#    y -0.260150 4.141130 0.002310 
#    z -0.163190 0.002310 4.535890 
# 
# 
# High freq. dielectric constant tensor:
#      x y z
#    x 1.914640 -0.011310 -0.009840 
#    y -0.011310 1.905030 -0.010370 
#    z -0.009840 -0.010370 1.924100 
# 
# From -- ./inp_files/7933.got.cif
#   From: 2010.06.25/outbox.cif.g09.slc.cpg/sg2_4_cif.got.tgz:7933.got - 2010.06.27 13:26:56.
