data_PCOD8026687
_publ_section_title
;
Structure prediction by ZEFSAII (Michael W. Deem and Ramdas Pophale) SiO2 
 PCOD8026687
Probable space group: P -1
;
_chemical_formula_sum "Si O2"
_cell_formula_units_Z 16
_cell_length_a 8.148361
_cell_length_b 17.976216
_cell_length_c 11.492187
_cell_angle_alpha 132.125958
_cell_angle_beta 115.311169
_cell_angle_gamma 103.236541
_cell_volume 721.163699
_symmetry_space_group_name_H-M "P -1"
_symmetry_group_IT_number 2
_symmetry_cell_setting 'triclinic'
loop_
_space_group_symop_operation_xyz
x,y,z
-x,-y,-z
loop_
_atom_site_type_symbol
_atom_site_label
_atom_site_fract_x
_atom_site_fract_y
_atom_site_fract_z
Si Si1 0.231702 0.493360 0.836273
Si Si2 0.229535 0.387325 0.954699
Si Si3 0.630898 0.046180 0.463632
Si Si4 0.784915 0.242080 0.246055
Si Si5 0.792641 0.033114 0.901618
Si Si6 0.363735 0.185659 0.189842
Si Si7 0.681394 0.515138 0.663033
Si Si8 0.250407 0.712533 0.959276
O O1 0.143223 0.437587 0.887006
O O2 0.266858 0.623898 0.952614
O O3 0.004102 0.345162 0.526695
O O4 0.547309 0.587043 0.015301
O O5 0.964824 0.205553 0.720338
O O6 0.383980 0.491937 0.228645
O O7 0.500000 0.000000 0.500000
O O8 0.472297 0.065132 0.364922
O O9 0.548667 0.899474 0.239394
O O10 0.812265 0.138455 0.103415
O O11 0.466484 0.140904 0.085776
O O12 0.851598 0.346139 0.267381
O O13 0.083178 0.134139 0.021062
O O14 0.712239 0.897220 0.799084
O O15 0.629900 0.374554 0.479767
O O16 0.500000 0.500000 0.500000
O O17 0.010821 0.680999 0.913398
#
# Coordination Sequence:
#
# PCOD8026687 Si02
#       8
#     2   2   2   2   2   2   2   2
#     4  11  24  44  66 103 134 180 228 280 346 409
#     4  11  26  43  70  92 140 182 222 283 348 404
#     4  11  23  43  64  95 137 182 217 282 336 406
#     4  11  22  43  71 100 139 173 232 289 331 408
#     4  10  24  43  64 103 138 175 232 275 343 418
#     4  11  23  40  71  99 130 183 221 285 351 393
#     4  12  24  42  69  99 126 175 233 284 336 405
#     4  11  24  41  67 100 132 174 230 277 339 402
#
# _framework density 22.186364999999999
#
# number of rings (size 3 to 8) (size 9 to 14) (size 15 to 20)
#    0.000    1.000    2.500    4.500    1.750    3.000 
#    0.000    5.000    0.000    0.000    0.000    0.000 
#    0.000    0.000    0.000    0.000    0.000    0.000 
#
# Total GULP energy -198222.895317 kJ/mol
# GULP energy per Si atom -12388.930957 kJ/mol
# Density = 2.213587 g / cm^3
# Si number density = 22.186365 Si / 1000 Ang^3
#
#
#
# Elastic Constant Matrix: (Units=GPa)
#
#
# Indices 1 2 3 4 5 6 
#
# 1 114.4700 28.2968 29.4169 0.9682 19.2953 4.6797
# 2 28.2968 155.2120 51.3415 -14.8134 -4.0123 2.7296
# 3 29.4169 51.3415 74.2152 -6.0751 3.1311 -1.6596
# 4 0.9682 -14.8134 -6.0751 41.1291 9.8688 -1.1738
# 5 19.2953 -4.0123 3.1311 9.8688 20.5904 0.5452
# 6 4.6797 2.7296 -1.6596 -1.1738 0.5452 38.7850
#
#
#
# Elastic Compliance Matrix: (Units=1/GPa)
#
#
# Indices 1 2 3 4 5 6 
#
# 1 0.011866 -0.001207 -0.003284 0.001538 -0.011558 -0.001278
# 2 -0.001207 0.008753 -0.005582 0.001636 0.002920 -0.000701
# 3 -0.003284 -0.005582 0.018842 0.001263 -0.001525 0.001655
# 4 0.001538 0.001636 0.001263 0.028698 -0.015091 0.000834
# 5 -0.011558 0.002920 -0.001525 -0.015091 0.067439 -0.000281
# 6 -0.001278 -0.000701 0.001655 0.000834 -0.000281 0.026087
#
#
# Mechanical properties :
#
#
# Convention : Reuss Voigt Hill
#
# Bulk Modulus (GPa) = 51.76901 62.44530 57.10715
# Shear Modulus (GPa) = 26.55788 35.75704 31.15746
#
# Velocity S-wave (km/s) = 3.46357 4.01891 3.75153
# Velocity P-wave (km/s) = 6.27531 7.05283 6.67540
#
# Compressibility (1/GPa) = 0.01931658
#
# Stress axis : x y z
#
# Youngs Moduli (GPa) = 84.27772 114.24462 53.07236
#
# Poissons Ratio (x) = 0.13785 0.17426
# Poissons Ratio (y) = 0.10169 0.29625
# Poissons Ratio (z) = 0.27673 0.63772
#
# Static dielectric constant tensor:
#      x y z
#    x 4.001480 0.130990 0.221320 
#    y 0.130990 4.308780 -0.082850 
#    z 0.221320 -0.082850 4.101190 
# 
# 
# High freq. dielectric constant tensor:
#      x y z
#    x 1.872100 0.004620 0.013620 
#    y 0.004620 1.893930 0.001200 
#    z 0.013620 0.001200 1.862180 
# 
# From -- ./inp_files/402254.got.cif
#   From: 2010.06.25/outbox.cif.g09.slc.cpg/sg2_202_cif.got.tgz:402254.got - 2010.06.27 13:26:56.
