data_PCOD8026154
_publ_section_title
;
Structure prediction by ZEFSAII (Michael W. Deem and Ramdas Pophale) SiO2 
 PCOD8026154
Probable space group: P -1
;
_chemical_formula_sum "Si O2"
_cell_formula_units_Z 16
_cell_length_a 14.908217
_cell_length_b 9.527270
_cell_length_c 11.239848
_cell_angle_alpha 77.567841
_cell_angle_beta 98.378427
_cell_angle_gamma 150.493697
_cell_volume 764.959609
_symmetry_space_group_name_H-M "P -1"
_symmetry_group_IT_number 2
_symmetry_cell_setting 'triclinic'
loop_
_space_group_symop_operation_xyz
x,y,z
-x,-y,-z
loop_
_atom_site_type_symbol
_atom_site_label
_atom_site_fract_x
_atom_site_fract_y
_atom_site_fract_z
Si Si1 0.755505 0.897399 0.937153
Si Si2 0.157715 0.447237 0.910816
Si Si3 0.262633 0.410131 0.139622
Si Si4 0.077336 0.207915 0.373818
Si Si5 0.476460 0.710028 0.795095
Si Si6 0.613941 0.982322 0.200829
Si Si7 0.741608 0.846131 0.222712
Si Si8 0.415343 0.865242 0.380667
O O1 0.956294 0.186251 0.861377
O O2 0.668961 0.635883 0.909904
O O3 0.614302 0.831589 0.896849
O O4 0.787025 0.925975 0.077979
O O5 0.297904 0.541133 0.846994
O O6 0.228588 0.708196 0.889769
O O7 0.124675 0.319462 0.053203
O O8 0.179918 0.256846 0.281515
O O9 0.437611 0.753754 0.124539
O O10 0.216749 0.515348 0.403164
O O11 0.000000 0.000000 0.500000
O O12 0.914758 0.063965 0.301131
O O13 0.400488 0.482917 0.731659
O O14 0.602562 0.998979 0.700255
O O15 0.656913 0.875634 0.250138
O O16 0.568565 0.985306 0.319610
O O17 0.500000 0.000000 0.500000
#
# Coordination Sequence:
#
# PCOD8026154 Si02
#       8
#     2   2   2   2   2   2   2   2
#     4  12  23  38  67 105 140 175 220 264 338 408
#     4  11  22  39  64  95 141 175 213 266 336 395
#     4  11  20  43  63  98 132 180 217 266 333 410
#     4  11  25  43  69  95 130 177 226 279 331 388
#     4  11  23  41  69  98 138 178 215 273 333 396
#     4  10  24  39  66  98 133 170 216 279 334 393
#     4  12  22  42  65 100 139 168 221 273 332 399
#     4  10  24  49  68  90 130 181 229 270 337 394
#
# _framework density 20.916136000000002
#
# number of rings (size 3 to 8) (size 9 to 14) (size 15 to 20)
#    0.000    1.000    3.750    3.375    1.750    3.500 
#    2.250    2.500    0.000    0.000    0.000    0.000 
#    0.000    0.000    0.000    0.000    0.000    0.000 
#
# Total GULP energy -198296.448907 kJ/mol
# GULP energy per Si atom -12393.528057 kJ/mol
# Density = 2.086853 g / cm^3
# Si number density = 20.916136 Si / 1000 Ang^3
#
#
#
# Elastic Constant Matrix: (Units=GPa)
#
#
# Indices 1 2 3 4 5 6 
#
# 1 113.0009 56.0100 40.7835 2.7971 8.0699 -10.5383
# 2 56.0100 140.1490 64.3826 -4.7886 10.9446 -6.6350
# 3 40.7835 64.3826 116.4999 2.5703 2.3067 -10.8553
# 4 2.7971 -4.7886 2.5703 39.6325 -3.0588 5.8658
# 5 8.0699 10.9446 2.3067 -3.0588 18.9029 3.5036
# 6 -10.5383 -6.6350 -10.8553 5.8658 3.5036 40.4131
#
#
#
# Elastic Compliance Matrix: (Units=1/GPa)
#
#
# Indices 1 2 3 4 5 6 
#
# 1 0.011800 -0.003541 -0.001824 -0.001796 -0.003532 0.002572
# 2 -0.003541 0.011166 -0.004915 0.001651 -0.004030 -0.000301
# 3 -0.001824 -0.004915 0.012131 -0.001437 0.001532 0.002052
# 4 -0.001796 0.001651 -0.001437 0.026784 0.005233 -0.004924
# 5 -0.003532 -0.004030 0.001532 0.005233 0.058704 -0.007020
# 6 0.002572 -0.000301 0.002052 -0.004924 -0.007020 0.027240
#
#
# Mechanical properties :
#
#
# Convention : Reuss Voigt Hill
#
# Bulk Modulus (GPa) = 68.80328 76.88910 72.84619
# Shear Modulus (GPa) = 28.86293 33.68794 31.27544
#
# Velocity S-wave (km/s) = 3.71878 4.01761 3.87108
# Velocity P-wave (km/s) = 7.16975 7.63950 7.40835
#
# Compressibility (1/GPa) = 0.01453419
#
# Stress axis : x y z
#
# Youngs Moduli (GPa) = 84.74690 89.56101 82.43042
#
# Poissons Ratio (x) = 0.31717 0.15039
# Poissons Ratio (y) = 0.30012 0.40519
# Poissons Ratio (z) = 0.15462 0.44024
#
# Static dielectric constant tensor:
#      x y z
#    x 3.927120 -0.060190 0.064040 
#    y -0.060190 4.185430 -0.048300 
#    z 0.064040 -0.048300 3.686220 
# 
# 
# High freq. dielectric constant tensor:
#      x y z
#    x 1.817430 -0.000580 0.004860 
#    y -0.000580 1.840520 0.004790 
#    z 0.004860 0.004790 1.797250 
# 
# From -- ./inp_files/307222.got.cif
#   From: 2010.06.25/outbox.cif.g09.slc.cpg/sg2_154_cif.got.tgz:307222.got - 2010.06.27 13:26:56.
