data_PCOD8026134
_publ_section_title
;
Structure prediction by ZEFSAII (Michael W. Deem and Ramdas Pophale) SiO2 
 PCOD8026134
Probable space group: P -1
;
_chemical_formula_sum "Si O2"
_cell_formula_units_Z 12
_cell_length_a 14.230831
_cell_length_b 12.692663
_cell_length_c 6.752234
_cell_angle_alpha 124.743291
_cell_angle_beta 116.204850
_cell_angle_gamma 30.558539
_cell_volume 505.992273
_symmetry_space_group_name_H-M "P -1"
_symmetry_group_IT_number 2
_symmetry_cell_setting 'triclinic'
loop_
_space_group_symop_operation_xyz
x,y,z
-x,-y,-z
loop_
_atom_site_type_symbol
_atom_site_label
_atom_site_fract_x
_atom_site_fract_y
_atom_site_fract_z
Si Si1 0.713077 0.259413 0.381056
Si Si2 0.982771 0.840704 0.472176
Si Si3 0.594853 0.767184 0.358038
Si Si4 0.740928 0.031322 0.817848
Si Si5 0.179930 0.306608 0.239926
Si Si6 0.167448 0.432204 0.974466
O O1 0.500000 0.500000 0.500000
O O2 0.823580 0.278449 0.458780
O O3 0.817847 0.084556 0.472364
O O4 0.720422 0.173157 0.091983
O O5 0.022547 0.673551 0.204422
O O6 0.914736 0.875563 0.667995
O O7 0.756475 0.624975 0.519306
O O8 0.500000 0.000000 0.500000
O O9 0.448823 0.801358 0.309608
O O10 0.680268 0.644779 0.091123
O O11 0.750543 0.894809 0.816038
O O12 0.258456 0.244720 0.020826
O O13 0.953672 0.531397 0.255953
#
# Coordination Sequence:
#
# PCOD8026134 Si02
#       6
#     2   2   2   2   2   2
#     4  11  25  49  72  98 134 178 229 286 344 403
#     4  11  26  44  72 102 133 178 231 281 342 401
#     4  10  24  38  61  99 137 178 224 270 329 401
#     4  11  24  44  67 101 137 172 227 284 331 407
#     4  10  24  39  68  96 138 179 223 264 339 402
#     4  11  23  42  67  96 140 182 220 276 335 405
#
# _framework density 23.715776999999999
#
# number of rings (size 3 to 8) (size 9 to 14) (size 15 to 20)
#    0.000    1.333    1.667    2.000   11.667    6.000 
#    0.000    0.000    0.000    0.000    0.000    0.000 
#    0.000    0.000    0.000    0.000    0.000    0.000 
#
# Total GULP energy -148708.880520 kJ/mol
# GULP energy per Si atom -12392.406710 kJ/mol
# Density = 2.366180 g / cm^3
# Si number density = 23.715777 Si / 1000 Ang^3
#
#
#
# Elastic Constant Matrix: (Units=GPa)
#
#
# Indices 1 2 3 4 5 6 
#
# 1 121.4833 54.7135 45.8730 -9.5273 -0.6436 -32.1373
# 2 54.7135 99.8140 54.6441 -0.1720 -5.5869 -26.1260
# 3 45.8730 54.6441 116.9127 3.7750 -1.7265 -22.0494
# 4 -9.5273 -0.1720 3.7750 39.2419 -9.0929 1.4002
# 5 -0.6436 -5.5869 -1.7265 -9.0929 32.0332 2.9515
# 6 -32.1373 -26.1260 -22.0494 1.4002 2.9515 40.2754
#
#
#
# Elastic Compliance Matrix: (Units=1/GPa)
#
#
# Indices 1 2 3 4 5 6 
#
# 1 0.012799 -0.004342 -0.001911 0.002970 -0.000338 0.006272
# 2 -0.004342 0.016440 -0.005146 -0.000159 0.002067 0.004237
# 3 -0.001911 -0.005146 0.012117 -0.001955 -0.001014 0.001914
# 4 0.002970 -0.000159 -0.001955 0.028254 0.007981 -0.000371
# 5 -0.000338 0.002067 -0.001014 0.007981 0.033990 -0.002252
# 6 0.006272 0.004237 0.001914 -0.000371 -0.002252 0.033807
#
#
# Mechanical properties :
#
#
# Convention : Reuss Voigt Hill
#
# Bulk Modulus (GPa) = 53.87989 72.07457 62.97723
# Shear Modulus (GPa) = 30.04991 34.50872 32.27932
#
# Velocity S-wave (km/s) = 3.56348 3.81871 3.69330
# Velocity P-wave (km/s) = 6.30075 7.06402 6.69327
#
# Compressibility (1/GPa) = 0.01855980
#
# Stress axis : x y z
#
# Youngs Moduli (GPa) = 78.13229 60.82677 82.52800
#
# Poissons Ratio (x) = 0.26411 0.15767
# Poissons Ratio (y) = 0.33925 0.42466
# Poissons Ratio (z) = 0.14927 0.31299
#
# Static dielectric constant tensor:
#      x y z
#    x 4.416730 -0.392540 0.059360 
#    y -0.392540 4.609520 -0.663910 
#    z 0.059360 -0.663910 4.880710 
# 
# 
# High freq. dielectric constant tensor:
#      x y z
#    x 1.943330 -0.021750 -0.002210 
#    y -0.021750 1.935950 -0.016760 
#    z -0.002210 -0.016760 1.945600 
# 
# From -- ./inp_files/97370.got.cif
#   From: 2010.06.25/outbox.cif.g09.slc.cpg/sg2_49_cif.got.tgz:97370.got - 2010.06.27 13:26:56.
