data_PCOD8026213
_publ_section_title
;
Structure prediction by ZEFSAII (Michael W. Deem and Ramdas Pophale) SiO2 
 PCOD8026213
Probable space group: P -1
;
_chemical_formula_sum "Si O2"
_cell_formula_units_Z 14
_cell_length_a 5.934784
_cell_length_b 5.061321
_cell_length_c 18.317324
_cell_angle_alpha 94.811796
_cell_angle_beta 101.521340
_cell_angle_gamma 89.331220
_cell_volume 537.219024
_symmetry_space_group_name_H-M "P -1"
_symmetry_group_IT_number 2
_symmetry_cell_setting 'triclinic'
loop_
_space_group_symop_operation_xyz
x,y,z
-x,-y,-z
loop_
_atom_site_type_symbol
_atom_site_label
_atom_site_fract_x
_atom_site_fract_y
_atom_site_fract_z
Si Si1 0.233905 0.618543 0.317193
Si Si2 0.084136 0.520253 0.587689
Si Si3 0.507171 0.241269 0.215748
Si Si4 0.722876 0.888343 0.048612
Si Si5 0.861633 0.635077 0.183920
Si Si6 0.362502 0.034288 0.648729
Si Si7 0.119802 0.310489 0.083770
O O1 0.389024 0.428302 0.273217
O O2 0.391753 0.860278 0.364607
O O3 0.134267 0.433213 0.372058
O O4 0.023690 0.754450 0.260776
O O5 0.171228 0.237525 0.615316
O O6 0.000000 0.500000 0.500000
O O7 0.283747 0.743010 0.609892
O O8 0.734535 0.379373 0.201602
O O9 0.330323 0.172791 0.138811
O O10 0.600942 0.979251 0.259990
O O11 0.681968 0.819565 0.131163
O O12 0.796968 0.639590 0.993975
O O13 0.913799 0.108294 0.064331
O O14 0.500000 0.000000 0.000000
O O15 0.039736 0.571277 0.127170
#
# Coordination Sequence:
#
# PCOD8026213 Si02
#       7
#     2   2   2   2   2   2   2
#     4  11  25  46  77 105 150 191 252 304 375 434
#     4  12  29  50  78 114 155 195 244 302 371 448
#     4  11  24  45  71 107 137 195 251 309 364 444
#     4  11  24  41  61  98 140 192 243 307 367 439
#     4  11  23  44  69  99 140 191 243 309 366 440
#     4  12  25  50  74 114 148 197 248 300 369 444
#     4  10  24  40  65  97 138 188 246 302 378 425
#
# _framework density 26.060137000000001
#
# number of rings (size 3 to 8) (size 9 to 14) (size 15 to 20)
#    0.000    0.857    2.857    2.571    2.000   12.571 
#    0.000    0.000    0.000    0.000    0.000    0.000 
#    0.000    0.000    0.000    0.000    0.000    0.000 
#
# Total GULP energy -173488.332650 kJ/mol
# GULP energy per Si atom -12392.023761 kJ/mol
# Density = 2.600082 g / cm^3
# Si number density = 26.060137 Si / 1000 Ang^3
#
#
#
# Elastic Constant Matrix: (Units=GPa)
#
#
# Indices 1 2 3 4 5 6 
#
# 1 102.6345 22.5444 54.8633 -7.0894 14.9566 31.3681
# 2 22.5444 81.7175 32.4331 -16.0798 11.4831 25.6714
# 3 54.8633 32.4331 192.4944 -16.5246 12.9561 21.7202
# 4 -7.0894 -16.0798 -16.5246 40.6107 0.8399 13.7418
# 5 14.9566 11.4831 12.9561 0.8399 44.0767 3.8484
# 6 31.3681 25.6714 21.7202 13.7418 3.8484 36.5934
#
#
#
# Elastic Compliance Matrix: (Units=1/GPa)
#
#
# Indices 1 2 3 4 5 6 
#
# 1 0.018189 0.006275 -0.002219 0.012597 -0.005400 -0.022839
# 2 0.006275 0.025202 -0.000381 0.021251 -0.006356 -0.030145
# 3 -0.002219 -0.000381 0.006527 0.003071 -0.000883 -0.002764
# 4 0.012597 0.021251 0.003071 0.052338 -0.007661 -0.046377
# 5 -0.005400 -0.006356 -0.000883 -0.007661 0.025727 0.009784
# 6 -0.022839 -0.030145 -0.002764 -0.046377 0.009784 0.086080
#
#
# Mechanical properties :
#
#
# Convention : Reuss Voigt Hill
#
# Bulk Modulus (GPa) = 17.46228 66.28089 41.87159
# Shear Modulus (GPa) = 22.14320 42.05653 32.09987
#
# Velocity S-wave (km/s) = 2.91812 4.02160 3.51345
# Velocity P-wave (km/s) = 4.25079 6.85955 5.70625
#
# Compressibility (1/GPa) = 0.05726628
#
# Stress axis : x y z
#
# Youngs Moduli (GPa) = 54.97963 39.67938 153.21548
#
# Poissons Ratio (x) = -0.24900 0.34005
# Poissons Ratio (y) = -0.34501 0.05843
# Poissons Ratio (z) = 0.12202 0.01513
#
# Static dielectric constant tensor:
#      x y z
#    x 4.815900 0.006340 -0.189830 
#    y 0.006340 4.398020 -0.109890 
#    z -0.189830 -0.109890 5.359670 
# 
# 
# High freq. dielectric constant tensor:
#      x y z
#    x 2.063550 -0.000910 0.012440 
#    y -0.000910 2.021620 -0.010770 
#    z 0.012440 -0.010770 2.056680 
# 
# From -- ./inp_files/102912.got.cif
#   From: 2010.06.25/outbox.cif.g09.slc.cpg/sg2_52_cif.got.tgz:102912.got - 2010.06.27 13:26:56.
