data_PCOD8026281
_publ_section_title
;
Structure prediction by ZEFSAII (Michael W. Deem and Ramdas Pophale) SiO2 
 PCOD8026281
Probable space group: P -1
;
_chemical_formula_sum "Si O2"
_cell_formula_units_Z 16
_cell_length_a 22.936915
_cell_length_b 7.584858
_cell_length_c 17.013002
_cell_angle_alpha 70.524600
_cell_angle_beta 162.609953
_cell_angle_gamma 117.219365
_cell_volume 725.065329
_symmetry_space_group_name_H-M "P -1"
_symmetry_group_IT_number 2
_symmetry_cell_setting 'triclinic'
loop_
_space_group_symop_operation_xyz
x,y,z
-x,-y,-z
loop_
_atom_site_type_symbol
_atom_site_label
_atom_site_fract_x
_atom_site_fract_y
_atom_site_fract_z
Si Si1 0.764734 0.862640 0.679170
Si Si2 0.320993 0.285988 0.143895
Si Si3 0.821912 0.026472 0.563335
Si Si4 0.222151 0.552741 0.231556
Si Si5 0.776041 0.974242 0.090373
Si Si6 0.724636 0.755855 0.329813
Si Si7 0.574244 0.274473 0.189842
Si Si8 0.305380 0.674609 0.148111
O O1 0.717384 0.953397 0.525461
O O2 0.737870 0.635617 0.660386
O O3 0.565420 0.832428 0.485690
O O4 0.000000 0.000000 0.000000
O O5 0.528354 0.256878 0.449937
O O6 0.311479 0.503418 0.120050
O O7 0.314178 0.238254 0.048977
O O8 0.083692 0.095273 0.899286
O O9 0.703076 0.834422 0.376740
O O10 0.774798 0.218729 0.449837
O O11 0.171460 0.560126 0.072837
O O12 0.000000 0.500000 0.000000
O O13 0.040210 0.072639 0.434426
O O14 0.783206 0.179670 0.026563
O O15 0.625546 0.896028 0.986082
O O16 0.692899 0.518903 0.336211
O O17 0.524846 0.742024 0.021803
#
# Coordination Sequence:
#
# PCOD8026281 Si02
#       8
#     2   2   2   2   2   2   2   2
#     4  11  23  40  63  93 131 176 216 272 325 391
#     4  10  24  41  62  94 129 171 218 276 319 395
#     4  11  22  43  68  94 133 178 222 268 339 398
#     4  11  26  40  64  91 132 174 222 275 331 387
#     4  11  24  40  71  95 133 174 223 271 339 397
#     4  10  25  42  67 101 138 168 224 283 333 408
#     4  11  23  44  69 100 132 177 220 279 343 396
#     4  11  23  44  60  92 132 172 218 272 323 392
#
# _framework density 22.066977000000001
#
# number of rings (size 3 to 8) (size 9 to 14) (size 15 to 20)
#    0.000    1.250    1.250    4.500    8.750    1.500 
#    0.000    0.000    0.000    8.250    0.000    0.000 
#    0.000    0.000    0.000    0.000    0.000    0.000 
#
# Total GULP energy -198214.325977 kJ/mol
# GULP energy per Si atom -12388.395374 kJ/mol
# Density = 2.201675 g / cm^3
# Si number density = 22.066977 Si / 1000 Ang^3
#
#
#
# Elastic Constant Matrix: (Units=GPa)
#
#
# Indices 1 2 3 4 5 6 
#
# 1 101.7508 43.2163 49.0958 1.9564 0.9025 -8.2318
# 2 43.2163 93.9880 33.7430 -4.5248 -14.8947 -3.6602
# 3 49.0958 33.7430 99.1231 -2.8046 0.4300 0.7443
# 4 1.9564 -4.5248 -2.8046 27.8870 -2.4906 1.1373
# 5 0.9025 -14.8947 0.4300 -2.4906 33.8832 2.6528
# 6 -8.2318 -3.6602 0.7443 1.1373 2.6528 21.8391
#
#
#
# Elastic Compliance Matrix: (Units=1/GPa)
#
#
# Indices 1 2 3 4 5 6 
#
# 1 0.015601 -0.005501 -0.005971 -0.003129 -0.003438 0.005742
# 2 -0.005501 0.015319 -0.002425 0.003289 0.007190 -0.000468
# 3 -0.005971 -0.002425 0.013940 0.001490 -0.000730 -0.003121
# 4 -0.003129 0.003289 0.001490 0.037293 0.004499 -0.003168
# 5 -0.003438 0.007190 -0.000730 0.004499 0.033447 -0.004363
# 6 0.005742 -0.000468 -0.003121 -0.003168 -0.004363 0.048677
#
#
# Mechanical properties :
#
#
# Convention : Reuss Voigt Hill
#
# Bulk Modulus (GPa) = 58.59659 60.77468 59.68564
# Shear Modulus (GPa) = 25.28317 27.97565 26.62941
#
# Velocity S-wave (km/s) = 3.38856 3.56443 3.47760
# Velocity P-wave (km/s) = 6.47467 6.67390 6.57504
#
# Compressibility (1/GPa) = 0.01706584
#
# Stress axis : x y z
#
# Youngs Moduli (GPa) = 64.09891 65.27732 71.73550
#
# Poissons Ratio (x) = 0.35912 0.42834
# Poissons Ratio (y) = 0.35264 0.17393
# Poissons Ratio (z) = 0.38274 0.15827
#
# Static dielectric constant tensor:
#      x y z
#    x 4.638630 -1.583240 2.738720 
#    y -1.583240 6.809260 -5.373030 
#    z 2.738720 -5.373030 13.617300 
# 
# 
# High freq. dielectric constant tensor:
#      x y z
#    x 1.860300 -0.004470 0.009690 
#    y -0.004470 1.863140 0.005180 
#    z 0.009690 0.005180 1.888340 
# 
# From -- ./inp_files/349978.got.cif
#   From: 2010.06.25/outbox.cif.g09.slc.cpg/sg2_175_cif.got.tgz:349978.got - 2010.06.27 13:26:56.
