data_PCOD8026126
_publ_section_title
;
Structure prediction by ZEFSAII (Michael W. Deem and Ramdas Pophale) SiO2 
 PCOD8026126
Probable space group: P -1
;
_chemical_formula_sum "Si O2"
_cell_formula_units_Z 16
_cell_length_a 26.951021
_cell_length_b 14.042178
_cell_length_c 8.084010
_cell_angle_alpha 125.070552
_cell_angle_beta 138.489609
_cell_angle_gamma 22.547044
_cell_volume 690.158163
_symmetry_space_group_name_H-M "P -1"
_symmetry_group_IT_number 2
_symmetry_cell_setting 'triclinic'
loop_
_space_group_symop_operation_xyz
x,y,z
-x,-y,-z
loop_
_atom_site_type_symbol
_atom_site_label
_atom_site_fract_x
_atom_site_fract_y
_atom_site_fract_z
Si Si1 0.481591 0.969589 0.744563
Si Si2 0.839231 0.449874 0.641585
Si Si3 0.117175 0.610242 0.953840
Si Si4 0.645143 0.321523 0.820470
Si Si5 0.665880 0.452904 0.278712
Si Si6 0.972861 0.850878 0.514388
Si Si7 0.861628 0.155754 0.968286
Si Si8 0.484584 0.718520 0.416298
O O1 0.406608 0.943149 0.538500
O O2 0.353902 0.226592 0.567885
O O3 0.672653 0.688523 0.852218
O O4 0.500000 0.000000 0.000000
O O5 0.806404 0.359122 0.506461
O O6 0.980217 0.275048 0.670197
O O7 0.908889 0.410856 0.950459
O O8 0.005145 0.717298 0.621505
O O9 0.039641 0.856059 0.012672
O O10 0.500000 0.500000 0.500000
O O11 0.835478 0.093393 0.986872
O O12 0.661241 0.179171 0.824328
O O13 0.575480 0.531556 0.963685
O O14 0.509338 0.708034 0.271174
O O15 0.775605 0.184102 0.350543
O O16 0.121885 0.742137 0.803206
O O17 0.679959 0.405971 0.659212
#
# Coordination Sequence:
#
# PCOD8026126 Si02
#       8
#     2   2   2   2   2   2   2   2
#     4  12  24  39  60  90 129 166 202 249 307 368
#     4  12  23  35  60  97 124 160 197 249 314 367
#     4  12  22  37  61  93 127 154 199 262 311 361
#     4  10  24  37  59  91 123 162 200 253 306 365
#     4  12  21  38  65  94 124 153 207 254 315 363
#     4  12  20  37  63  97 125 151 194 269 317 354
#     4  11  18  38  61  90 121 150 203 257 311 356
#     4  11  22  39  60  89 125 164 201 244 305 368
#
# _framework density 23.18309
#
# number of rings (size 3 to 8) (size 9 to 14) (size 15 to 20)
#    0.000    0.500    7.500    2.250    1.750    0.000 
#    0.000    0.000    0.000    3.750    0.000    0.000 
#    0.000    0.000    0.000    0.000    0.000    0.000 
#
# Total GULP energy -198231.856506 kJ/mol
# GULP energy per Si atom -12389.491032 kJ/mol
# Density = 2.313032 g / cm^3
# Si number density = 23.183090 Si / 1000 Ang^3
#
#
#
# Elastic Constant Matrix: (Units=GPa)
#
#
# Indices 1 2 3 4 5 6 
#
# 1 89.7163 28.6913 42.1804 20.2191 -28.8206 -19.7076
# 2 28.6913 99.5735 14.4535 5.6149 -15.8220 -9.5510
# 3 42.1804 14.4535 78.3293 17.3190 -24.0448 -9.6043
# 4 20.2191 5.6149 17.3190 37.8206 4.7671 -11.5823
# 5 -28.8206 -15.8220 -24.0448 4.7671 55.1435 1.7289
# 6 -19.7076 -9.5510 -9.6043 -11.5823 1.7289 26.6588
#
#
#
# Elastic Compliance Matrix: (Units=1/GPa)
#
#
# Indices 1 2 3 4 5 6 
#
# 1 0.020536 -0.002647 -0.005729 -0.006186 0.007729 0.008980
# 2 -0.002647 0.011269 0.000148 0.000068 0.001844 0.002044
# 3 -0.005729 0.000148 0.019036 -0.006601 0.005938 -0.000577
# 4 -0.006186 0.000068 -0.006601 0.036956 -0.009593 0.009751
# 5 0.007729 0.001844 0.005938 -0.009593 0.026038 0.002657
# 6 0.008980 0.002044 -0.000577 0.009751 0.002657 0.048738
#
#
# Mechanical properties :
#
#
# Convention : Reuss Voigt Hill
#
# Bulk Modulus (GPa) = 29.08286 48.69660 38.88973
# Shear Modulus (GPa) = 26.24801 36.07752 31.16277
#
# Velocity S-wave (km/s) = 3.36848 3.94915 3.67031
# Velocity P-wave (km/s) = 5.26317 6.46879 5.89687
#
# Compressibility (1/GPa) = 0.03438452
#
# Stress axis : x y z
#
# Youngs Moduli (GPa) = 48.69559 88.73548 52.53293
#
# Poissons Ratio (x) = 0.23492 0.30094
# Poissons Ratio (y) = 0.12892 -0.00777
# Poissons Ratio (z) = 0.27896 -0.01312
#
# Static dielectric constant tensor:
#      x y z
#    x 5.046960 -0.070600 -0.491770 
#    y -0.070600 4.173490 0.179890 
#    z -0.491770 0.179890 4.355680 
# 
# 
# High freq. dielectric constant tensor:
#      x y z
#    x 1.911500 -0.022170 -0.045430 
#    y -0.022170 1.895190 -0.001630 
#    z -0.045430 -0.001630 1.910160 
# 
# From -- ./inp_files/358881.got.cif
#   From: 2010.06.25/outbox.cif.g09.slc.cpg/sg2_180_cif.got.tgz:358881.got - 2010.06.27 13:26:56.
