data_PCOD8026461
_publ_section_title
;
Structure prediction by ZEFSAII (Michael W. Deem and Ramdas Pophale) SiO2 
 PCOD8026461
Probable space group: P -1
;
_chemical_formula_sum "Si O2"
_cell_formula_units_Z 16
_cell_length_a 14.719064
_cell_length_b 12.058204
_cell_length_c 9.386608
_cell_angle_alpha 33.816290
_cell_angle_beta 105.616753
_cell_angle_gamma 124.282771
_cell_volume 690.815238
_symmetry_space_group_name_H-M "P -1"
_symmetry_group_IT_number 2
_symmetry_cell_setting 'triclinic'
loop_
_space_group_symop_operation_xyz
x,y,z
-x,-y,-z
loop_
_atom_site_type_symbol
_atom_site_label
_atom_site_fract_x
_atom_site_fract_y
_atom_site_fract_z
Si Si1 0.378087 0.866524 0.327689
Si Si2 0.742476 0.988199 0.686829
Si Si3 0.560350 0.457621 0.692285
Si Si4 0.533302 0.435316 0.226155
Si Si5 0.204778 0.797364 0.800382
Si Si6 0.022066 0.284676 0.127655
Si Si7 0.246003 0.550688 0.322124
Si Si8 0.010856 0.898562 0.376845
O O1 0.279576 0.835947 0.423816
O O2 0.444033 0.771359 0.540306
O O3 0.309877 0.708022 0.324899
O O4 0.485298 0.160621 0.018948
O O5 0.703176 0.963598 0.525595
O O6 0.880855 0.093559 0.642162
O O7 0.662936 0.711544 0.026164
O O8 0.500000 0.500000 0.500000
O O9 0.571716 0.634529 0.634176
O O10 0.694185 0.573483 0.575198
O O11 0.500000 0.500000 0.000000
O O12 0.115073 0.813582 0.839797
O O13 0.269514 0.740659 0.000935
O O14 0.124638 0.592226 0.854211
O O15 0.036382 0.200966 0.376787
O O16 0.048057 0.182250 0.107381
O O17 0.104376 0.308261 0.551866
#
# Coordination Sequence:
#
# PCOD8026461 Si02
#       8
#     2   2   2   2   2   2   2   2
#     4  11  26  46  65  94 141 173 218 280 328 395
#     4  10  24  42  65  97 140 170 218 271 331 397
#     4  11  25  46  70  97 130 169 225 283 330 385
#     4  11  27  44  69  98 129 180 226 269 334 389
#     4   9  19  35  64  96 125 176 216 265 327 385
#     4   8  16  34  57  93 137 162 218 272 311 378
#     4  11  23  40  69  97 128 174 224 271 339 385
#     4   9  19  37  62  99 132 172 215 271 328 400
#
# _framework density 23.161041999999998
#
# number of rings (size 3 to 8) (size 9 to 14) (size 15 to 20)
#    0.000    2.000    1.250    1.125    5.250    5.500 
#    0.000    0.625    0.000    0.000    0.000    0.000 
#    0.000    0.000    0.000    0.000    0.000    0.000 
#
# Total GULP energy -198219.212172 kJ/mol
# GULP energy per Si atom -12388.700761 kJ/mol
# Density = 2.310833 g / cm^3
# Si number density = 23.161042 Si / 1000 Ang^3
#
#
#
# Elastic Constant Matrix: (Units=GPa)
#
#
# Indices 1 2 3 4 5 6 
#
# 1 192.1604 44.9917 34.8842 13.2225 21.9850 -16.9582
# 2 44.9917 55.4784 4.7804 10.7638 7.9612 -10.2515
# 3 34.8842 4.7804 73.5440 13.0358 23.0040 -3.4665
# 4 13.2225 10.7638 13.0358 30.8723 -1.6881 8.9024
# 5 21.9850 7.9612 23.0040 -1.6881 35.6708 4.8197
# 6 -16.9582 -10.2515 -3.4665 8.9024 4.8197 32.8232
#
#
#
# Elastic Compliance Matrix: (Units=1/GPa)
#
#
# Indices 1 2 3 4 5 6 
#
# 1 0.007296 -0.004402 -0.001792 -0.001897 -0.002873 0.003142
# 2 -0.004402 0.027663 0.006677 -0.014758 -0.010163 0.012566
# 3 -0.001792 0.006677 0.022397 -0.014833 -0.016886 0.010028
# 4 -0.001897 -0.014758 -0.014833 0.052722 0.019816 -0.024365
# 5 -0.002873 -0.010163 -0.016886 0.019816 0.046419 -0.018633
# 6 0.003142 0.012566 0.010028 -0.024365 -0.018633 0.046418
#
#
# Mechanical properties :
#
#
# Convention : Reuss Voigt Hill
#
# Bulk Modulus (GPa) = 17.14566 54.49950 35.82258
# Shear Modulus (GPa) = 22.58463 35.64167 29.11315
#
# Velocity S-wave (km/s) = 3.12607 3.92709 3.54925
# Velocity P-wave (km/s) = 4.52201 6.64413 5.68300
#
# Compressibility (1/GPa) = 0.05832381
#
# Stress axis : x y z
#
# Youngs Moduli (GPa) = 137.05287 36.14885 44.64917
#
# Poissons Ratio (x) = 0.15912 0.08000
# Poissons Ratio (y) = 0.60329 -0.29813
# Poissons Ratio (z) = 0.24555 -0.24137
#
# Static dielectric constant tensor:
#      x y z
#    x 4.188440 -0.101180 0.048940 
#    y -0.101180 4.162680 -0.532060 
#    z 0.048940 -0.532060 4.902510 
# 
# 
# High freq. dielectric constant tensor:
#      x y z
#    x 1.928300 0.001470 0.006590 
#    y 0.001470 1.900090 -0.012760 
#    z 0.006590 -0.012760 1.916630 
# 
# From -- ./inp_files/306308.got.cif
#   From: 2010.06.25/outbox.cif.g09.slc.cpg/sg2_154_cif.got.tgz:306308.got - 2010.06.27 13:26:56.
