data_PCOD8026280
_publ_section_title
;
Structure prediction by ZEFSAII (Michael W. Deem and Ramdas Pophale) SiO2 
 PCOD8026280
Probable space group: P -1
;
_chemical_formula_sum "Si O2"
_cell_formula_units_Z 16
_cell_length_a 11.589510
_cell_length_b 8.774966
_cell_length_c 15.074079
_cell_angle_alpha 124.404575
_cell_angle_beta 53.709622
_cell_angle_gamma 139.213995
_cell_volume 787.021075
_symmetry_space_group_name_H-M "P -1"
_symmetry_group_IT_number 2
_symmetry_cell_setting 'triclinic'
loop_
_space_group_symop_operation_xyz
x,y,z
-x,-y,-z
loop_
_atom_site_type_symbol
_atom_site_label
_atom_site_fract_x
_atom_site_fract_y
_atom_site_fract_z
Si Si1 0.922675 0.328689 0.241383
Si Si2 0.426639 0.416711 0.646733
Si Si3 0.661472 0.630260 0.783964
Si Si4 0.040633 0.372931 0.008561
Si Si5 0.445105 0.755522 0.609841
Si Si6 0.945433 0.976614 0.215992
Si Si7 0.450797 0.783072 0.008541
Si Si8 0.664093 0.258085 0.758623
O O1 0.755430 0.322716 0.344849
O O2 0.115224 0.572528 0.269514
O O3 0.883456 0.095038 0.221767
O O4 0.920240 0.311320 0.130535
O O5 0.568939 0.572550 0.711880
O O6 0.428534 0.595518 0.642869
O O7 0.487947 0.283226 0.524001
O O8 0.219230 0.222915 0.711969
O O9 0.601328 0.747664 0.913971
O O10 0.605265 0.393640 0.778180
O O11 0.883096 0.823381 0.733871
O O12 0.984636 0.130994 0.914017
O O13 0.255830 0.538869 0.988318
O O14 0.000000 0.500000 0.000000
O O15 0.600339 0.033005 0.655170
O O16 0.449214 0.840208 0.130501
O O17 0.500000 0.000000 0.000000
#
# Coordination Sequence:
#
# PCOD8026280 Si02
#       8
#     2   2   2   2   2   2   2   2
#     4  10  24  41  62  94 127 166 209 260 318 375
#     4  11  25  45  63  97 121 169 218 261 320 371
#     4  11  23  41  64  92 129 165 209 262 315 377
#     4  11  22  37  60  94 132 165 208 255 312 381
#     4  11  25  43  69  87 129 167 214 267 312 383
#     4  11  23  41  64  92 129 165 209 262 315 377
#     4  11  22  37  60  94 132 165 208 255 312 381
#     4  10  24  41  62  94 127 166 209 260 318 375
#
# _framework density 20.329823999999999
#
# number of rings (size 3 to 8) (size 9 to 14) (size 15 to 20)
#    0.000    1.250    1.250    3.750    3.500    6.000 
#    0.000    5.000    0.000    0.000    0.000    0.000 
#    0.000    0.000    0.000    0.000    0.000    0.000 
#
# Total GULP energy -198500.747135 kJ/mol
# GULP energy per Si atom -12406.296696 kJ/mol
# Density = 2.028355 g / cm^3
# Si number density = 20.329824 Si / 1000 Ang^3
#
#
#
# Elastic Constant Matrix: (Units=GPa)
#
#
# Indices 1 2 3 4 5 6 
#
# 1 78.6355 10.1149 19.5226 8.3917 -17.0562 7.9596
# 2 10.1149 81.6821 22.8525 14.1945 -8.5374 6.7416
# 3 19.5226 22.8525 88.1289 15.9919 -18.8755 12.6033
# 4 8.3917 14.1945 15.9919 25.3934 -7.3580 -6.3701
# 5 -17.0562 -8.5374 -18.8755 -7.3580 27.9608 6.4128
# 6 7.9596 6.7416 12.6033 -6.3701 6.4128 30.6432
#
#
#
# Elastic Compliance Matrix: (Units=1/GPa)
#
#
# Indices 1 2 3 4 5 6 
#
# 1 0.016191 0.000446 0.000647 -0.004796 0.010992 -0.007867
# 2 0.000446 0.014640 -0.000995 -0.008116 0.003144 -0.005272
# 3 0.000647 -0.000995 0.017566 -0.010213 0.011969 -0.011802
# 4 -0.004796 -0.008116 -0.010213 0.056220 -0.001935 0.019324
# 5 0.010992 0.003144 0.011969 -0.001935 0.055709 -0.020530
# 6 -0.007867 -0.005272 -0.011802 0.019324 -0.020530 0.049005
#
#
# Mechanical properties :
#
#
# Convention : Reuss Voigt Hill
#
# Bulk Modulus (GPa) = 20.57903 39.26962 29.92432
# Shear Modulus (GPa) = 22.18948 29.86324 26.02636
#
# Velocity S-wave (km/s) = 3.30733 3.83683 3.58188
# Velocity P-wave (km/s) = 4.97284 6.24392 5.64428
#
# Compressibility (1/GPa) = 0.04859316
#
# Stress axis : x y z
#
# Youngs Moduli (GPa) = 61.76188 68.30682 56.92797
#
# Poissons Ratio (x) = -0.03043 -0.03686
# Poissons Ratio (y) = -0.02752 0.05664
# Poissons Ratio (z) = -0.03999 0.06796
#
# Static dielectric constant tensor:
#      x y z
#    x 3.755330 -0.016550 -0.011480 
#    y -0.016550 3.749610 0.011320 
#    z -0.011480 0.011320 3.662030 
# 
# 
# High freq. dielectric constant tensor:
#      x y z
#    x 1.809910 -0.000620 -0.003250 
#    y -0.000620 1.809580 0.003190 
#    z -0.003250 0.003190 1.789860 
# 
# From -- ./inp_files/258579.got.cif
#   From: 2010.06.25/outbox.cif.g09.slc.cpg/sg2_130_cif.got.tgz:258579.got - 2010.06.27 13:26:56.
