data_PCOD8026943
_publ_section_title
;
Structure prediction by ZEFSAII (Michael W. Deem and Ramdas Pophale) SiO2 
 PCOD8026943
Probable space group: P -1
;
_chemical_formula_sum "Si O2"
_cell_formula_units_Z 16
_cell_length_a 11.912229
_cell_length_b 14.672063
_cell_length_c 9.836260
_cell_angle_alpha 71.783368
_cell_angle_beta 62.481606
_cell_angle_gamma 29.550737
_cell_volume 736.103077
_symmetry_space_group_name_H-M "P -1"
_symmetry_group_IT_number 2
_symmetry_cell_setting 'triclinic'
loop_
_space_group_symop_operation_xyz
x,y,z
-x,-y,-z
loop_
_atom_site_type_symbol
_atom_site_label
_atom_site_fract_x
_atom_site_fract_y
_atom_site_fract_z
Si Si1 0.117372 0.984417 0.602741
Si Si2 0.161423 0.104801 0.756401
Si Si3 0.922828 0.403833 0.557835
Si Si4 0.698714 0.707446 0.723229
Si Si5 0.100680 0.715846 0.902782
Si Si6 0.228472 0.413086 0.962437
Si Si7 0.506353 0.428577 0.399306
Si Si8 0.767078 0.045209 0.733100
O O1 0.351511 0.761417 0.556177
O O2 0.135551 0.042025 0.433670
O O3 0.130763 0.033285 0.711031
O O4 0.861092 0.091039 0.699115
O O5 0.104063 0.241111 0.646669
O O6 0.439284 0.930578 0.739681
O O7 0.971120 0.215034 0.934823
O O8 0.733650 0.602609 0.639220
O O9 0.771803 0.415930 0.565906
O O10 0.085443 0.353383 0.378096
O O11 0.699024 0.657854 0.891576
O O12 0.143498 0.576908 0.918678
O O13 0.354877 0.607749 0.784091
O O14 0.883381 0.890626 0.840342
O O15 0.468574 0.235891 0.817229
O O16 0.000000 0.500000 0.000000
O O17 0.500000 0.500000 0.500000
#
# Coordination Sequence:
#
# PCOD8026943 Si02
#       8
#     2   2   2   2   2   2   2   2
#     4  10  24  43  72 103 139 190 221 294 354 408
#     4  12  24  46  71 105 140 181 234 288 356 414
#     4  11  26  44  72 102 142 191 233 286 348 417
#     4  11  25  49  67 102 145 186 239 281 347 429
#     4  11  26  45  70 105 138 181 231 289 353 412
#     4  12  27  45  72  99 140 187 231 290 350 418
#     4  11  25  45  73 107 143 181 241 289 347 418
#     4  10  24  46  66 102 145 174 236 282 344 426
#
# _framework density 21.736086
#
# number of rings (size 3 to 8) (size 9 to 14) (size 15 to 20)
#    0.000    1.000    3.750    1.125   10.500    4.000 
#    2.250    0.000    0.000    0.000    0.000    0.000 
#    0.000    0.000    0.000    0.000    0.000    0.000 
#
# Total GULP energy -198489.038257 kJ/mol
# GULP energy per Si atom -12405.564891 kJ/mol
# Density = 2.168661 g / cm^3
# Si number density = 21.736086 Si / 1000 Ang^3
#
#
#
# Elastic Constant Matrix: (Units=GPa)
#
#
# Indices 1 2 3 4 5 6 
#
# 1 111.6390 43.1675 35.9572 7.7448 -11.8062 -12.2129
# 2 43.1675 110.2219 39.0574 -0.6641 -10.8573 2.9144
# 3 35.9572 39.0574 100.2359 -3.0880 -14.3080 3.8468
# 4 7.7448 -0.6641 -3.0880 35.3098 -3.7090 -7.9197
# 5 -11.8062 -10.8573 -14.3080 -3.7090 30.7651 3.8191
# 6 -12.2129 2.9144 3.8468 -7.9197 3.8191 35.7721
#
#
#
# Elastic Compliance Matrix: (Units=1/GPa)
#
#
# Indices 1 2 3 4 5 6 
#
# 1 0.012041 -0.003680 -0.002932 -0.001903 0.001211 0.004175
# 2 -0.003680 0.011775 -0.002937 0.000507 0.001683 -0.001967
# 3 -0.002932 -0.002937 0.012928 0.001670 0.004331 -0.002245
# 4 -0.001903 0.000507 0.001670 0.030472 0.003212 0.005533
# 5 0.001211 0.001683 0.004331 0.003212 0.036382 -0.003362
# 6 0.004175 -0.001967 -0.002245 0.005533 -0.003362 0.031366
#
#
# Mechanical properties :
#
#
# Convention : Reuss Voigt Hill
#
# Bulk Modulus (GPa) = 56.66247 62.05122 59.35685
# Shear Modulus (GPa) = 31.26086 33.96371 32.61228
#
# Velocity S-wave (km/s) = 3.79648 3.95720 3.87767
# Velocity P-wave (km/s) = 6.73369 7.03482 6.88591
#
# Compressibility (1/GPa) = 0.01764837
#
# Stress axis : x y z
#
# Youngs Moduli (GPa) = 83.04689 84.92379 77.34917
#
# Poissons Ratio (x) = 0.31248 0.22677
# Poissons Ratio (y) = 0.30558 0.22717
# Poissons Ratio (z) = 0.24348 0.24942
#
# Static dielectric constant tensor:
#      x y z
#    x 3.712540 0.003290 -0.102310 
#    y 0.003290 4.139810 -0.063830 
#    z -0.102310 -0.063830 4.113560 
# 
# 
# High freq. dielectric constant tensor:
#      x y z
#    x 1.842290 0.001190 -0.004860 
#    y 0.001190 1.871830 -0.002230 
#    z -0.004860 -0.002230 1.866600 
# 
# From -- ./inp_files/272872.got.cif
#   From: 2010.06.25/outbox.cif.g09.slc.cpg/sg2_137_cif.got.tgz:272872.got - 2010.06.27 13:26:56.
