data_PCOD8026774
_publ_section_title
;
Structure prediction by ZEFSAII (Michael W. Deem and Ramdas Pophale) SiO2 
 PCOD8026774
Probable space group: P -1
;
_chemical_formula_sum "Si O2"
_cell_formula_units_Z 16
_cell_length_a 4.978291
_cell_length_b 8.853523
_cell_length_c 16.897809
_cell_angle_alpha 109.814245
_cell_angle_beta 80.752322
_cell_angle_gamma 92.731383
_cell_volume 691.558948
_symmetry_space_group_name_H-M "P -1"
_symmetry_group_IT_number 2
_symmetry_cell_setting 'triclinic'
loop_
_space_group_symop_operation_xyz
x,y,z
-x,-y,-z
loop_
_atom_site_type_symbol
_atom_site_label
_atom_site_fract_x
_atom_site_fract_y
_atom_site_fract_z
Si Si1 0.683223 0.990947 0.219100
Si Si2 0.813172 0.361421 0.447007
Si Si3 0.758680 0.389867 0.022732
Si Si4 0.105359 0.707344 0.316893
Si Si5 0.397796 0.674828 0.142106
Si Si6 0.446058 0.406352 0.610613
Si Si7 0.140804 0.052297 0.329326
Si Si8 0.733044 0.081925 0.054478
O O1 0.451421 0.089008 0.296550
O O2 0.684119 0.065977 0.146460
O O3 0.974178 0.005010 0.249801
O O4 0.614640 0.801250 0.187490
O O5 0.562829 0.320063 0.510462
O O6 0.678067 0.419826 0.380218
O O7 0.000000 0.500000 0.500000
O O8 0.003779 0.205883 0.403277
O O9 0.513575 0.499210 0.085482
O O10 0.798203 0.270322 0.072338
O O11 0.701342 0.268491 0.929934
O O12 0.000000 0.500000 0.000000
O O13 0.153810 0.656895 0.214064
O O14 0.301780 0.591662 0.339607
O O15 0.792927 0.688985 0.352558
O O16 0.154856 0.898402 0.360216
O O17 0.500000 0.000000 0.000000
O O18 0.000000 0.000000 0.000000
#
# Coordination Sequence:
#
# PCOD8026774 Si02
#       8
#     2   2   2   2   2   2   2   2
#     4  11  24  46  69 103 139 186 238 296 346 422
#     4  11  26  50  73 101 148 181 224 290 354 429
#     4  11  25  42  69 101 137 196 235 294 359 414
#     4  11  24  45  70 104 134 180 234 291 340 415
#     4  10  24  43  67  95 144 177 235 291 354 407
#     4  11  25  45  73 101 137 182 224 286 346 419
#     4  11  27  44  75 103 140 186 232 289 362 412
#     4  12  25  44  71  99 142 189 243 291 349 421
#
# _framework density 23.136133000000001
#
# number of rings (size 3 to 8) (size 9 to 14) (size 15 to 20)
#    0.000    1.000    2.500    3.000   12.250    3.000 
#    0.000    0.000    0.000    0.000    0.000    0.000 
#    0.000    0.000    0.000    0.000    0.000    0.000 
#
# Total GULP energy -198268.957039 kJ/mol
# GULP energy per Si atom -12391.809815 kJ/mol
# Density = 2.308347 g / cm^3
# Si number density = 23.136133 Si / 1000 Ang^3
#
#
#
# Elastic Constant Matrix: (Units=GPa)
#
#
# Indices 1 2 3 4 5 6 
#
# 1 93.0693 18.9891 16.0521 -7.7306 -13.3723 -4.0754
# 2 18.9891 98.7691 48.2913 -7.3511 -17.5374 -3.4861
# 3 16.0521 48.2913 99.4873 -4.2095 -28.9085 -3.7265
# 4 -7.7306 -7.3511 -4.2095 41.7643 1.9060 -4.6059
# 5 -13.3723 -17.5374 -28.9085 1.9060 49.8870 -4.9750
# 6 -4.0754 -3.4861 -3.7265 -4.6059 -4.9750 38.6845
#
#
#
# Elastic Compliance Matrix: (Units=1/GPa)
#
#
# Indices 1 2 3 4 5 6 
#
# 1 0.011689 -0.001446 -0.000303 0.001942 0.002537 0.001629
# 2 -0.001446 0.013663 -0.006028 0.001576 0.000943 0.000807
# 3 -0.000303 -0.006028 0.015047 0.000289 0.006684 0.001768
# 4 0.001942 0.001576 0.000289 0.024959 0.000631 0.003427
# 5 0.002537 0.000943 0.006684 0.000631 0.025338 0.004330
# 6 0.001629 0.000807 0.001768 0.003427 0.004330 0.027230
#
#
# Mechanical properties :
#
#
# Convention : Reuss Voigt Hill
#
# Bulk Modulus (GPa) = 40.25076 50.88786 45.56931
# Shear Modulus (GPa) = 35.26996 39.93337 37.60167
#
# Velocity S-wave (km/s) = 3.90866 4.15904 4.03579
# Velocity P-wave (km/s) = 6.14860 6.71612 6.43862
#
# Compressibility (1/GPa) = 0.02484425
#
# Stress axis : x y z
#
# Youngs Moduli (GPa) = 85.54758 73.19000 66.45715
#
# Poissons Ratio (x) = 0.10586 0.02017
# Poissons Ratio (y) = 0.12374 0.40060
# Poissons Ratio (z) = 0.02596 0.44118
#
# Static dielectric constant tensor:
#      x y z
#    x 4.320030 -0.178960 -0.137460 
#    y -0.178960 4.308670 -0.209930 
#    z -0.137460 -0.209930 4.314780 
# 
# 
# High freq. dielectric constant tensor:
#      x y z
#    x 1.926390 -0.011370 -0.016790 
#    y -0.011370 1.914450 -0.014680 
#    z -0.016790 -0.014680 1.912680 
# 
# From -- ./inp_files/480740.got.cif
#   From: 2010.06.25/outbox.cif.g09.slc.cpg/sg2_241_cif.got.tgz:480740.got - 2010.06.27 13:26:56.
