data_PCOD8026991
_publ_section_title
;
Structure prediction by ZEFSAII (Michael W. Deem and Ramdas Pophale) SiO2 
 PCOD8026991
Probable space group: P -1
;
_chemical_formula_sum "Si O2"
_cell_formula_units_Z 12
_cell_length_a 10.604014
_cell_length_b 10.442155
_cell_length_c 8.946186
_cell_angle_alpha 86.268571
_cell_angle_beta 55.571414
_cell_angle_gamma 44.847084
_cell_volume 470.526695
_symmetry_space_group_name_H-M "P -1"
_symmetry_group_IT_number 2
_symmetry_cell_setting 'triclinic'
loop_
_space_group_symop_operation_xyz
x,y,z
-x,-y,-z
loop_
_atom_site_type_symbol
_atom_site_label
_atom_site_fract_x
_atom_site_fract_y
_atom_site_fract_z
Si Si1 0.201731 0.068317 0.099674
Si Si2 0.106962 0.850651 0.214634
Si Si3 0.290552 0.490376 0.688282
Si Si4 0.570423 0.483255 0.708349
Si Si5 0.762545 0.752338 0.693567
Si Si6 0.406801 0.949759 0.463703
O O1 0.089933 0.014937 0.257629
O O2 0.183447 0.216972 0.188562
O O3 0.502720 0.838115 0.863056
O O4 0.993007 0.251718 0.094533
O O5 0.206564 0.702045 0.302855
O O6 0.307622 0.709136 0.951950
O O7 0.829387 0.983713 0.327486
O O8 0.516000 0.397285 0.648305
O O9 0.329036 0.480143 0.481737
O O10 0.323102 0.317629 0.716364
O O11 0.000000 0.500000 0.500000
O O12 0.704551 0.915857 0.621977
O O13 0.500000 0.000000 0.500000
#
# Coordination Sequence:
#
# PCOD8026991 Si02
#       6
#     2   2   2   2   2   2
#     4  11  26  46  79 107 145 197 245 303 365 445
#     4  11  25  45  75 109 143 196 256 294 364 442
#     4  11  24  45  70 108 148 188 244 306 374 430
#     4  10  24  43  76 109 143 189 248 314 356 437
#     4  11  27  50  74 108 153 194 243 302 373 439
#     4  12  28  45  71 107 151 193 240 308 370 433
#
# _framework density 25.503333999999999
#
# number of rings (size 3 to 8) (size 9 to 14) (size 15 to 20)
#    0.000    1.000    0.000    5.000   11.667    4.000 
#    0.000    0.000    0.000    0.000    0.000    0.000 
#    0.000    0.000    0.000    0.000    0.000    0.000 
#
# Total GULP energy -148663.600074 kJ/mol
# GULP energy per Si atom -12388.633339 kJ/mol
# Density = 2.544529 g / cm^3
# Si number density = 25.503334 Si / 1000 Ang^3
#
#
#
# Elastic Constant Matrix: (Units=GPa)
#
#
# Indices 1 2 3 4 5 6 
#
# 1 122.9973 34.4856 53.8262 14.7249 -35.1539 7.4672
# 2 34.4856 149.8138 25.5341 25.2018 -2.9243 7.8006
# 3 53.8262 25.5341 88.8662 11.7516 -8.5373 -7.8295
# 4 14.7249 25.2018 11.7516 29.6024 -2.0077 -3.8729
# 5 -35.1539 -2.9243 -8.5373 -2.0077 39.5806 2.1427
# 6 7.4672 7.8006 -7.8295 -3.8729 2.1427 37.0672
#
#
#
# Elastic Compliance Matrix: (Units=1/GPa)
#
#
# Indices 1 2 3 4 5 6 
#
# 1 0.016815 -0.001180 -0.008615 -0.003850 0.013125 -0.006120
# 2 -0.001180 0.008325 -0.001120 -0.006425 -0.000872 -0.002372
# 3 -0.008615 -0.001120 0.017012 -0.001068 -0.004428 0.005709
# 4 -0.003850 -0.006425 -0.001068 0.042276 -0.002329 0.006454
# 5 0.013125 -0.000872 -0.004428 -0.002329 0.036094 -0.005726
# 6 -0.006120 -0.002372 0.005709 0.006454 -0.005726 0.030921
#
#
# Mechanical properties :
#
#
# Convention : Reuss Voigt Hill
#
# Bulk Modulus (GPa) = 49.21027 65.48545 57.34786
# Shear Modulus (GPa) = 27.77060 37.77214 32.77137
#
# Velocity S-wave (km/s) = 3.30343 3.85264 3.58856
# Velocity P-wave (km/s) = 5.82131 6.74710 6.30123
#
# Compressibility (1/GPa) = 0.02032096
#
# Stress axis : x y z
#
# Youngs Moduli (GPa) = 59.47158 120.12303 58.78348
#
# Poissons Ratio (x) = 0.14172 0.50641
# Poissons Ratio (y) = 0.07016 0.06587
# Poissons Ratio (z) = 0.51234 0.13460
#
# Static dielectric constant tensor:
#      x y z
#    x 4.683700 -0.052530 -0.263500 
#    y -0.052530 4.321990 0.352650 
#    z -0.263500 0.352650 4.562930 
# 
# 
# High freq. dielectric constant tensor:
#      x y z
#    x 2.038190 -0.004480 -0.009690 
#    y -0.004480 2.022390 0.024920 
#    z -0.009690 0.024920 2.005400 
# 
# From -- ./inp_files/253457.got.cif
#   From: 2010.06.25/outbox.cif.g09.slc.cpg/sg2_127_cif.got.tgz:253457.got - 2010.06.27 13:26:56.
