data_PCOD8026248
_publ_section_title
;
Structure prediction by ZEFSAII (Michael W. Deem and Ramdas Pophale) SiO2 
 PCOD8026248
Probable space group: P -1
;
_chemical_formula_sum "Si O2"
_cell_formula_units_Z 12
_cell_length_a 5.366929
_cell_length_b 16.106260
_cell_length_c 9.802739
_cell_angle_alpha 45.198612
_cell_angle_beta 75.182172
_cell_angle_gamma 89.144462
_cell_volume 564.127245
_symmetry_space_group_name_H-M "P -1"
_symmetry_group_IT_number 2
_symmetry_cell_setting 'triclinic'
loop_
_space_group_symop_operation_xyz
x,y,z
-x,-y,-z
loop_
_atom_site_type_symbol
_atom_site_label
_atom_site_fract_x
_atom_site_fract_y
_atom_site_fract_z
Si Si1 0.272112 0.582599 0.817743
Si Si2 0.369770 0.341681 0.097960
Si Si3 0.209696 0.999464 0.091364
Si Si4 0.988558 0.360107 0.653727
Si Si5 0.961601 0.263062 0.485904
Si Si6 0.634422 0.748575 0.088807
O O1 0.382283 0.669170 0.830882
O O2 0.280015 0.670741 0.583300
O O3 0.438842 0.482885 0.874888
O O4 0.000000 0.500000 0.000000
O O5 0.122023 0.302558 0.279433
O O6 0.335528 0.255538 0.073204
O O7 0.114785 0.880489 0.333492
O O8 0.229196 0.115032 0.048273
O O9 0.500000 0.000000 0.000000
O O10 0.000000 0.000000 0.000000
O O11 0.099746 0.319873 0.541504
O O12 0.679866 0.286451 0.792338
O O13 0.000000 0.500000 0.500000
O O14 0.187640 0.333618 0.772124
#
# Coordination Sequence:
#
# PCOD8026248 Si02
#       6
#     2   2   2   2   2   2
#     4   9  21  41  65  98 142 177 223 280 354 414
#     4  10  24  40  70 100 140 176 231 289 353 404
#     4  12  25  49  70  98 141 188 232 289 342 412
#     4  12  27  43  71 104 141 179 233 287 350 416
#     4  11  24  42  72  96 136 185 236 270 356 408
#     4  12  26  47  68 104 141 180 231 294 343 407
#
# _framework density 21.271799000000001
#
# number of rings (size 3 to 8) (size 9 to 14) (size 15 to 20)
#    0.000    1.000    3.333    1.500   16.333    0.667 
#    0.000    0.833    0.000    0.000    0.000    0.000 
#    0.000    0.000    0.000    0.000    0.000    0.000 
#
# Total GULP energy -148659.571014 kJ/mol
# GULP energy per Si atom -12388.297585 kJ/mol
# Density = 2.122338 g / cm^3
# Si number density = 21.271799 Si / 1000 Ang^3
#
#
#
# Elastic Constant Matrix: (Units=GPa)
#
#
# Indices 1 2 3 4 5 6 
#
# 1 109.2571 18.8319 32.1868 -1.6543 9.4182 18.0590
# 2 18.8319 163.1150 49.6862 -1.2333 0.4599 18.0447
# 3 32.1868 49.6862 121.9313 -16.4913 16.9005 3.2511
# 4 -1.6543 -1.2333 -16.4913 45.2094 -2.3863 2.4321
# 5 9.4182 0.4599 16.9005 -2.3863 25.7168 1.1065
# 6 18.0590 18.0447 3.2511 2.4321 1.1065 34.2180
#
#
#
# Elastic Compliance Matrix: (Units=1/GPa)
#
#
# Indices 1 2 3 4 5 6 
#
# 1 0.010974 0.000124 -0.002550 -0.000341 -0.002140 -0.005522
# 2 0.000124 0.007557 -0.003408 -0.000717 0.002154 -0.003746
# 3 -0.002550 -0.003408 0.011579 0.003594 -0.006367 0.001993
# 4 -0.000341 -0.000717 0.003594 0.023477 0.000017 -0.001452
# 5 -0.002140 0.002154 -0.006367 0.000017 0.043851 -0.000821
# 6 -0.005522 -0.003746 0.001993 -0.001452 -0.000821 0.034054
#
#
# Mechanical properties :
#
#
# Convention : Reuss Voigt Hill
#
# Bulk Modulus (GPa) = 54.22185 66.19037 60.20611
# Shear Modulus (GPa) = 33.48784 40.60207 37.04496
#
# Velocity S-wave (km/s) = 3.97203 4.37364 4.17766
# Velocity P-wave (km/s) = 6.82505 7.52921 7.18576
#
# Compressibility (1/GPa) = 0.01844275
#
# Stress axis : x y z
#
# Youngs Moduli (GPa) = 91.12052 132.32280 86.36668
#
# Poissons Ratio (x) = -0.01640 0.22022
# Poissons Ratio (y) = -0.01130 0.29433
# Poissons Ratio (z) = 0.23234 0.45094
#
# Static dielectric constant tensor:
#      x y z
#    x 4.609400 -0.644730 1.226360 
#    y -0.644730 3.742220 0.069550 
#    z 1.226360 0.069550 3.596810 
# 
# 
# High freq. dielectric constant tensor:
#      x y z
#    x 1.851890 0.012130 0.013320 
#    y 0.012130 1.832620 -0.003490 
#    z 0.013320 -0.003490 1.830170 
# 
# From -- ./inp_files/18506.got.cif
#   From: 2010.06.25/outbox.cif.g09.slc.cpg/sg2_10_cif.got.tgz:18506.got - 2010.06.27 13:26:56.
