data_PCOD8026836
_publ_section_title
;
Structure prediction by ZEFSAII (Michael W. Deem and Ramdas Pophale) SiO2 
 PCOD8026836
Probable space group: P -1
;
_chemical_formula_sum "Si O2"
_cell_formula_units_Z 14
_cell_length_a 15.147205
_cell_length_b 12.170351
_cell_length_c 9.303165
_cell_angle_alpha 55.297549
_cell_angle_beta 46.084093
_cell_angle_gamma 30.033710
_cell_volume 616.026714
_symmetry_space_group_name_H-M "P -1"
_symmetry_group_IT_number 2
_symmetry_cell_setting 'triclinic'
loop_
_space_group_symop_operation_xyz
x,y,z
-x,-y,-z
loop_
_atom_site_type_symbol
_atom_site_label
_atom_site_fract_x
_atom_site_fract_y
_atom_site_fract_z
Si Si1 0.777096 0.419702 0.466058
Si Si2 0.521522 0.421630 0.873036
Si Si3 0.102399 0.579125 0.385908
Si Si4 0.667404 0.776060 0.149455
Si Si5 0.739704 0.734073 0.781139
Si Si6 0.062987 0.799378 0.035348
Si Si7 0.849150 0.908817 0.902197
O O1 0.617807 0.436230 0.630610
O O2 0.786377 0.425003 0.623370
O O3 0.700693 0.623421 0.330390
O O4 0.997014 0.190851 0.326999
O O5 0.654120 0.171185 0.913830
O O6 0.500000 0.500000 0.000000
O O7 0.304939 0.573806 0.936826
O O8 0.281264 0.353711 0.258932
O O9 0.968304 0.783698 0.275003
O O10 0.964034 0.597827 0.615598
O O11 0.428222 0.007299 0.240064
O O12 0.736172 0.671873 0.989835
O O13 0.784495 0.808603 0.043632
O O14 0.974112 0.831010 0.961692
O O15 0.000000 0.000000 0.000000
#
# Coordination Sequence:
#
# PCOD8026836 Si02
#       7
#     2   2   2   2   2   2   2
#     4  12  26  45  73 105 144 184 235 293 356 418
#     4  12  26  50  72 104 143 186 240 293 350 422
#     4  11  23  43  68 102 141 182 233 286 354 414
#     4  11  25  45  71 108 141 182 236 292 356 416
#     4  10  24  43  69 101 146 183 227 291 354 425
#     4  12  26  45  74 102 140 187 240 291 348 421
#     4  12  26  48  74 102 148 188 233 294 357 418
#
# _framework density 22.726286000000002
#
# number of rings (size 3 to 8) (size 9 to 14) (size 15 to 20)
#    0.000    0.571    4.286    2.571    6.000    2.286 
#    0.000    0.000    0.000    0.000    0.000    0.000 
#    0.000    0.000    0.000    0.000    0.000    0.000 
#
# Total GULP energy -173532.839811 kJ/mol
# GULP energy per Si atom -12395.202844 kJ/mol
# Density = 2.267456 g / cm^3
# Si number density = 22.726286 Si / 1000 Ang^3
#
#
#
# Elastic Constant Matrix: (Units=GPa)
#
#
# Indices 1 2 3 4 5 6 
#
# 1 100.2975 34.3047 35.6676 8.5026 23.6365 -15.4978
# 2 34.3047 131.8818 53.4033 -1.9206 7.9970 -3.0063
# 3 35.6676 53.4033 128.9494 -3.6355 3.0139 4.0010
# 4 8.5026 -1.9206 -3.6355 29.0090 2.1739 1.9848
# 5 23.6365 7.9970 3.0139 2.1739 39.6908 6.0621
# 6 -15.4978 -3.0063 4.0010 1.9848 6.0621 33.7560
#
#
#
# Elastic Compliance Matrix: (Units=1/GPa)
#
#
# Indices 1 2 3 4 5 6 
#
# 1 0.016496 -0.001890 -0.004001 -0.005372 -0.010381 0.010059
# 2 -0.001890 0.009508 -0.003392 0.000776 -0.000644 0.000451
# 3 -0.004001 -0.003392 0.010391 0.002317 0.002761 -0.004003
# 4 -0.005372 0.000776 0.002317 0.036616 0.001643 -0.005120
# 5 -0.010381 -0.000644 0.002761 0.001643 0.032911 -0.011158
# 6 0.010059 0.000451 -0.004003 -0.005120 -0.011158 0.037062
#
#
# Mechanical properties :
#
#
# Convention : Reuss Voigt Hill
#
# Bulk Modulus (GPa) = 56.08726 67.54221 61.81473
# Shear Modulus (GPa) = 29.85182 36.34137 33.09660
#
# Velocity S-wave (km/s) = 3.62821 4.00320 3.82031
# Velocity P-wave (km/s) = 6.50268 7.15205 6.83508
#
# Compressibility (1/GPa) = 0.01782936
#
# Stress axis : x y z
#
# Youngs Moduli (GPa) = 60.62131 105.17009 96.23327
#
# Poissons Ratio (x) = 0.19879 0.38502
# Poissons Ratio (y) = 0.11459 0.32643
# Poissons Ratio (z) = 0.24254 0.35674
#
# Static dielectric constant tensor:
#      x y z
#    x 4.506220 0.337270 0.087230 
#    y 0.337270 4.373610 0.086220 
#    z 0.087230 0.086220 4.329750 
# 
# 
# High freq. dielectric constant tensor:
#      x y z
#    x 1.904760 0.009020 -0.001960 
#    y 0.009020 1.901220 0.003500 
#    z -0.001960 0.003500 1.913030 
# 
# From -- ./inp_files/189690.got.cif
#   From: 2010.06.25/outbox.cif.g09.slc.cpg/sg2_95_cif.got.tgz:189690.got - 2010.06.27 13:26:56.
