data_PCOD8026000
_publ_section_title
;
Structure prediction by ZEFSAII (Michael W. Deem and Ramdas Pophale) SiO2 
 PCOD8026000
Probable space group: P -1
;
_chemical_formula_sum "Si O2"
_cell_formula_units_Z 14
_cell_length_a 12.386841
_cell_length_b 7.794745
_cell_length_c 13.403878
_cell_angle_alpha 94.734220
_cell_angle_beta 36.588112
_cell_angle_gamma 68.839430
_cell_volume 534.104786
_symmetry_space_group_name_H-M "P -1"
_symmetry_group_IT_number 2
_symmetry_cell_setting 'triclinic'
loop_
_space_group_symop_operation_xyz
x,y,z
-x,-y,-z
loop_
_atom_site_type_symbol
_atom_site_label
_atom_site_fract_x
_atom_site_fract_y
_atom_site_fract_z
Si Si1 0.805037 0.300545 0.288379
Si Si2 0.887142 0.397236 0.743523
Si Si3 0.509281 0.178161 0.791475
Si Si4 0.201092 0.188696 0.856974
Si Si5 0.778969 0.795484 0.731232
Si Si6 0.055218 0.925188 0.627292
Si Si7 0.749241 0.702681 0.379752
O O1 0.500000 0.500000 0.500000
O O2 0.838381 0.453494 0.335089
O O3 0.925711 0.078656 0.265027
O O4 0.980390 0.199560 0.052659
O O5 0.888611 0.519765 0.647838
O O6 0.861887 0.207116 0.739300
O O7 0.146733 0.232913 0.613386
O O8 0.640551 0.637158 0.996530
O O9 0.304804 0.220237 0.876791
O O10 0.731393 0.890296 0.655459
O O11 0.650603 0.239079 0.634766
O O12 0.117197 0.368699 0.834522
O O13 0.435150 0.920978 0.618014
O O14 0.969327 0.799523 0.644523
O O15 0.500000 0.000000 0.000000
#
# Coordination Sequence:
#
# PCOD8026000 Si02
#       7
#     2   2   2   2   2   2   2
#     4  12  26  42  67 103 146 184 229 288 345 416
#     4  11  24  45  71 101 139 185 223 288 350 401
#     4  11  23  43  73 101 136 181 231 289 340 411
#     4  11  24  44  71 102 137 185 234 282 351 412
#     4  10  23  47  71 100 141 180 228 288 344 405
#     4  12  25  45  68 109 136 178 240 274 349 421
#     4  11  23  45  71  96 139 186 228 288 351 405
#
# _framework density 26.212083
#
# number of rings (size 3 to 8) (size 9 to 14) (size 15 to 20)
#    0.000    0.857    4.286    2.571    4.000    4.571 
#    0.000    0.000    0.000    0.000    0.000    0.000 
#    0.000    0.000    0.000    0.000    0.000    0.000 
#
# Total GULP energy -173558.202121 kJ/mol
# GULP energy per Si atom -12397.014437 kJ/mol
# Density = 2.615242 g / cm^3
# Si number density = 26.212083 Si / 1000 Ang^3
#
#
#
# Elastic Constant Matrix: (Units=GPa)
#
#
# Indices 1 2 3 4 5 6 
#
# 1 85.1610 40.7014 26.5932 -14.6005 -0.9301 -20.6361
# 2 40.7014 180.3202 48.0039 -11.3593 -2.9203 -16.0826
# 3 26.5932 48.0039 154.0092 -32.1904 -16.2386 -19.8791
# 4 -14.6005 -11.3593 -32.1904 45.8861 -10.4307 8.4632
# 5 -0.9301 -2.9203 -16.2386 -10.4307 34.4079 -3.7807
# 6 -20.6361 -16.0826 -19.8791 8.4632 -3.7807 47.5846
#
#
#
# Elastic Compliance Matrix: (Units=1/GPa)
#
#
# Indices 1 2 3 4 5 6 
#
# 1 0.014870 -0.002610 -0.000230 0.003376 0.001645 0.005001
# 2 -0.002610 0.006587 -0.001715 -0.000588 -0.000450 0.000447
# 3 -0.000230 -0.001715 0.009680 0.007392 0.006944 0.002602
# 4 0.003376 -0.000588 0.007392 0.030854 0.012871 -0.000111
# 5 0.001645 -0.000450 0.006944 0.012871 0.036697 0.004089
# 6 0.005001 0.000447 0.002602 -0.000111 0.004089 0.024767
#
#
# Mechanical properties :
#
#
# Convention : Reuss Voigt Hill
#
# Bulk Modulus (GPa) = 45.39646 72.23193 58.81420
# Shear Modulus (GPa) = 35.73803 45.85519 40.79661
#
# Velocity S-wave (km/s) = 3.69645 4.18711 3.94941
# Velocity P-wave (km/s) = 5.96447 7.14090 6.57903
#
# Compressibility (1/GPa) = 0.02202815
#
# Stress axis : x y z
#
# Youngs Moduli (GPa) = 67.24883 151.81626 103.30239
#
# Poissons Ratio (x) = 0.39624 0.02371
# Poissons Ratio (y) = 0.17552 0.17717
# Poissons Ratio (z) = 0.01544 0.26037
#
# Static dielectric constant tensor:
#      x y z
#    x 4.295280 -0.169710 0.106600 
#    y -0.169710 5.159540 -0.024240 
#    z 0.106600 -0.024240 5.182710 
# 
# 
# High freq. dielectric constant tensor:
#      x y z
#    x 2.030790 -0.012470 0.015340 
#    y -0.012470 2.070660 0.004830 
#    z 0.015340 0.004830 2.093460 
# 
# From -- ./inp_files/528449.got.cif
#   From: 2010.06.25/outbox.cif.g09.slc.cpg/sg2_265_cif.got.tgz:528449.got - 2010.06.27 13:26:56.
