data_PCOD8026014
_publ_section_title
;
Structure prediction by ZEFSAII (Michael W. Deem and Ramdas Pophale) SiO2 
 PCOD8026014
Probable space group: P -1
;
_chemical_formula_sum "Si O2"
_cell_formula_units_Z 16
_cell_length_a 9.368044
_cell_length_b 5.120943
_cell_length_c 26.587271
_cell_angle_alpha 93.902598
_cell_angle_beta 147.622002
_cell_angle_gamma 89.157909
_cell_volume 679.248973
_symmetry_space_group_name_H-M "P -1"
_symmetry_group_IT_number 2
_symmetry_cell_setting 'triclinic'
loop_
_space_group_symop_operation_xyz
x,y,z
-x,-y,-z
loop_
_atom_site_type_symbol
_atom_site_label
_atom_site_fract_x
_atom_site_fract_y
_atom_site_fract_z
Si Si1 0.045666 0.101403 0.421925
Si Si2 0.595183 0.772417 0.322672
Si Si3 0.347153 0.625287 0.746018
Si Si4 0.310537 0.489861 0.842924
Si Si5 0.256219 0.446041 0.287364
Si Si6 0.387666 0.612384 0.519348
Si Si7 0.813926 0.901751 0.837517
Si Si8 0.577300 0.025547 0.965859
O O1 0.207109 0.373834 0.488634
O O2 0.866973 0.151032 0.318860
O O3 0.237858 0.870505 0.465142
O O4 0.824715 0.015581 0.399248
O O5 0.733846 0.554340 0.328970
O O6 0.484414 0.674079 0.342381
O O7 0.335837 0.839007 0.214122
O O8 0.307803 0.449509 0.781736
O O9 0.654866 0.740323 0.832587
O O10 0.420163 0.791773 0.886065
O O11 0.015411 0.428108 0.776591
O O12 0.503241 0.301420 0.925153
O O13 0.374162 0.301893 0.369005
O O14 0.187996 0.253417 0.217957
O O15 0.500000 0.500000 0.500000
O O16 0.106736 0.985470 0.946155
O O17 0.500000 0.000000 0.000000
#
# Coordination Sequence:
#
# PCOD8026014 Si02
#       8
#     2   2   2   2   2   2   2   2
#     4  11  24  47  71  99 144 184 227 289 349 410
#     4  10  23  47  72 100 144 191 228 290 350 421
#     4  10  24  47  72 105 143 187 231 290 356 413
#     4  12  28  44  76 104 138 188 236 292 353 416
#     4  11  26  44  71 103 140 187 238 284 359 419
#     4  12  27  45  71 108 144 183 235 295 344 415
#     4  10  24  45  71 100 146 184 232 292 355 418
#     4  12  26  46  71 105 145 182 238 291 349 419
#
# _framework density 23.555427000000002
#
# number of rings (size 3 to 8) (size 9 to 14) (size 15 to 20)
#    0.000    1.000    2.500    2.250    8.750    2.000 
#    0.000    0.000    0.000    0.000    0.000    0.000 
#    0.000    0.000    0.000    0.000    0.000    0.000 
#
# Total GULP energy -198338.742800 kJ/mol
# GULP energy per Si atom -12396.171425 kJ/mol
# Density = 2.350181 g / cm^3
# Si number density = 23.555427 Si / 1000 Ang^3
#
#
#
# Elastic Constant Matrix: (Units=GPa)
#
#
# Indices 1 2 3 4 5 6 
#
# 1 106.5921 26.5566 43.4186 -9.4125 -2.4276 11.1067
# 2 26.5566 95.4385 29.7994 -17.1926 7.1179 6.5228
# 3 43.4186 29.7994 118.0239 -22.5415 12.2578 4.1351
# 4 -9.4125 -17.1926 -22.5415 47.4095 1.4874 5.9665
# 5 -2.4276 7.1179 12.2578 1.4874 30.9180 -5.9585
# 6 11.1067 6.5228 4.1351 5.9665 -5.9585 26.7493
#
#
#
# Elastic Compliance Matrix: (Units=1/GPa)
#
#
# Indices 1 2 3 4 5 6 
#
# 1 0.011912 -0.001999 -0.003984 0.000094 0.002326 -0.003346
# 2 -0.001999 0.012687 -0.001152 0.004249 -0.003563 -0.003827
# 3 -0.003984 -0.001152 0.011786 0.004836 -0.005370 -0.002162
# 4 0.000094 0.004249 0.004836 0.026268 -0.005885 -0.008993
# 5 0.002326 -0.003563 -0.005370 -0.005885 0.037774 0.010460
# 6 -0.003346 -0.003827 -0.002162 -0.008993 0.010460 0.044377
#
#
# Mechanical properties :
#
#
# Convention : Reuss Voigt Hill
#
# Bulk Modulus (GPa) = 45.21674 57.73375 51.47525
# Shear Modulus (GPa) = 30.03981 35.70069 32.87025
#
# Velocity S-wave (km/s) = 3.57498 3.89730 3.73962
# Velocity P-wave (km/s) = 6.02314 6.69439 6.36762
#
# Compressibility (1/GPa) = 0.02211570
#
# Stress axis : x y z
#
# Youngs Moduli (GPa) = 83.94758 78.82311 84.84357
#
# Poissons Ratio (x) = 0.15753 0.33801
# Poissons Ratio (y) = 0.16777 0.09776
# Poissons Ratio (z) = 0.33445 0.09082
#
# Static dielectric constant tensor:
#      x y z
#    x 4.259640 0.186550 0.260350 
#    y 0.186550 4.366500 0.023640 
#    z 0.260350 0.023640 4.364680 
# 
# 
# High freq. dielectric constant tensor:
#      x y z
#    x 1.928310 0.013420 0.018940 
#    y 0.013420 1.934790 -0.011010 
#    z 0.018940 -0.011010 1.938180 
# 
# From -- ./inp_files/616347.got.cif
#   From: 2010.06.25/outbox.cif.g09.slc.cpg/sg2_309_cif.got.tgz:616347.got - 2010.06.27 13:26:56.
