data_PCOD8026833
_publ_section_title
;
Structure prediction by ZEFSAII (Michael W. Deem and Ramdas Pophale) SiO2 
 PCOD8026833
Probable space group: P -1
;
_chemical_formula_sum "Si O2"
_cell_formula_units_Z 16
_cell_length_a 15.965991
_cell_length_b 5.320845
_cell_length_c 12.379441
_cell_angle_alpha 72.361492
_cell_angle_beta 140.293844
_cell_angle_gamma 101.097568
_cell_volume 638.843267
_symmetry_space_group_name_H-M "P -1"
_symmetry_group_IT_number 2
_symmetry_cell_setting 'triclinic'
loop_
_space_group_symop_operation_xyz
x,y,z
-x,-y,-z
loop_
_atom_site_type_symbol
_atom_site_label
_atom_site_fract_x
_atom_site_fract_y
_atom_site_fract_z
Si Si1 0.802208 0.801054 0.001367
Si Si2 0.561276 0.652905 0.429985
Si Si3 0.100851 0.834545 0.299183
Si Si4 0.328340 0.912975 0.361992
Si Si5 0.864849 0.550881 0.420587
Si Si6 0.373509 0.690187 0.867842
Si Si7 0.250581 0.138682 0.563977
Si Si8 0.310738 0.754993 0.029919
O O1 0.703266 0.914981 0.797016
O O2 0.776186 0.975833 0.061468
O O3 0.951731 0.839490 0.109850
O O4 0.780429 0.493401 0.038775
O O5 0.581924 0.359069 0.545350
O O6 0.662400 0.636937 0.429627
O O7 0.585514 0.309031 0.764189
O O8 0.593041 0.907339 0.501367
O O9 0.192646 0.818185 0.287322
O O10 0.132461 0.590955 0.441751
O O11 0.135668 0.089865 0.370276
O O12 0.756340 0.472505 0.239537
O O13 0.819227 0.835691 0.388819
O O14 0.000000 0.500000 0.500000
O O15 0.358782 0.894732 0.726636
O O16 0.500000 0.500000 0.000000
O O17 0.382698 0.813745 0.980605
#
# Coordination Sequence:
#
# PCOD8026833 Si02
#       8
#     2   2   2   2   2   2   2   2
#     4  12  28  46  70 104 144 181 237 297 356 411
#     4  11  24  46  74 100 142 179 241 283 356 423
#     4  10  24  43  69 101 141 182 236 286 350 429
#     4  11  24  47  75 101 132 191 236 294 351 419
#     4  11  23  41  69 102 146 184 235 289 364 423
#     4  11  27  43  71 103 144 190 240 287 356 434
#     4  10  24  44  72 104 136 192 229 294 351 432
#     4  12  29  45  69 106 144 185 228 300 351 423
#
# _framework density 25.045266000000002
#
# number of rings (size 3 to 8) (size 9 to 14) (size 15 to 20)
#    0.000    1.000    1.250    3.375   12.250    5.000 
#    0.000    3.125    0.000    0.000    0.000    0.000 
#    0.000    0.000    0.000    0.000    0.000    0.000 
#
# Total GULP energy -198314.286308 kJ/mol
# GULP energy per Si atom -12394.642894 kJ/mol
# Density = 2.498826 g / cm^3
# Si number density = 25.045266 Si / 1000 Ang^3
#
#
#
# Elastic Constant Matrix: (Units=GPa)
#
#
# Indices 1 2 3 4 5 6 
#
# 1 36.0669 18.8538 -3.6227 1.8216 6.8521 -0.3129
# 2 18.8538 115.3841 18.0126 1.3415 13.6425 -7.6833
# 3 -3.6227 18.0126 90.6082 10.8221 14.2477 3.7476
# 4 1.8216 1.3415 10.8221 28.5774 2.9832 2.8138
# 5 6.8521 13.6425 14.2477 2.9832 44.6669 2.9474
# 6 -0.3129 -7.6833 3.7476 2.8138 2.9474 45.7961
#
#
#
# Elastic Compliance Matrix: (Units=1/GPa)
#
#
# Indices 1 2 3 4 5 6 
#
# 1 0.031681 -0.005205 0.003272 -0.002535 -0.004111 -0.000504
# 2 -0.005205 0.010180 -0.002105 0.000651 -0.001810 0.001921
# 3 0.003272 -0.002105 0.012715 -0.004468 -0.003559 -0.000868
# 4 -0.002535 0.000651 -0.004468 0.037068 -0.000743 -0.001772
# 5 -0.004111 -0.001810 -0.003559 -0.000743 0.024862 -0.001595
# 6 -0.000504 0.001921 -0.000868 -0.001772 -0.001595 0.022437
#
#
# Mechanical properties :
#
#
# Convention : Reuss Voigt Hill
#
# Bulk Modulus (GPa) = 21.50584 34.28298 27.89441
# Shear Modulus (GPa) = 30.76571 37.72912 34.24742
#
# Velocity S-wave (km/s) = 3.50866 3.88550 3.70188
# Velocity P-wave (km/s) = 5.00197 5.81787 5.42528
#
# Compressibility (1/GPa) = 0.04649900
#
# Stress axis : x y z
#
# Youngs Moduli (GPa) = 31.56499 98.23060 78.64800
#
# Poissons Ratio (x) = 0.51133 -0.25730
# Poissons Ratio (y) = 0.16431 0.16552
# Poissons Ratio (z) = -0.10327 0.20673
#
# Static dielectric constant tensor:
#      x y z
#    x 5.016390 -0.202360 -0.217650 
#    y -0.202360 4.614860 -0.034680 
#    z -0.217650 -0.034680 4.335400 
# 
# 
# High freq. dielectric constant tensor:
#      x y z
#    x 2.016070 -0.005640 -0.003160 
#    y -0.005640 1.999670 0.000130 
#    z -0.003160 0.000130 2.003140 
# 
# From -- ./inp_files/85377.got.cif
#   From: 2010.06.25/outbox.cif.g09.slc.cpg/sg2_43_cif.got.tgz:85377.got - 2010.06.27 13:26:56.
