data_PCOD8026346
_publ_section_title
;
Structure prediction by ZEFSAII (Michael W. Deem and Ramdas Pophale) SiO2 
 PCOD8026346
Probable space group: P -1
;
_chemical_formula_sum "Si O2"
_cell_formula_units_Z 16
_cell_length_a 5.428989
_cell_length_b 18.338771
_cell_length_c 8.671284
_cell_angle_alpha 84.081240
_cell_angle_beta 86.357905
_cell_angle_gamma 49.804637
_cell_volume 655.926044
_symmetry_space_group_name_H-M "P -1"
_symmetry_group_IT_number 2
_symmetry_cell_setting 'triclinic'
loop_
_space_group_symop_operation_xyz
x,y,z
-x,-y,-z
loop_
_atom_site_type_symbol
_atom_site_label
_atom_site_fract_x
_atom_site_fract_y
_atom_site_fract_z
Si Si1 0.604117 0.117577 0.662284
Si Si2 0.949580 0.189055 0.511242
Si Si3 0.921365 0.223991 0.149404
Si Si4 0.261716 0.639000 0.356389
Si Si5 0.926923 0.445749 0.405224
Si Si6 0.227615 0.260182 0.905890
Si Si7 0.833345 0.967585 0.919815
Si Si8 0.759851 0.605458 0.919197
O O1 0.848927 0.122790 0.553746
O O2 0.520852 0.183132 0.800320
O O3 0.771387 0.011604 0.740645
O O4 0.709486 0.851496 0.421278
O O5 0.983919 0.199371 0.329726
O O6 0.675012 0.294818 0.575019
O O7 0.619590 0.336905 0.105832
O O8 0.902603 0.148136 0.082433
O O9 0.226318 0.206073 0.064649
O O10 0.569532 0.529436 0.337808
O O11 0.029423 0.636492 0.479850
O O12 0.104957 0.683674 0.188221
O O13 0.000000 0.500000 0.500000
O O14 0.136750 0.390936 0.257135
O O15 0.246900 0.337052 0.953340
O O16 0.500000 0.000000 0.000000
O O17 0.000000 0.000000 0.000000
O O18 0.000000 0.500000 0.000000
#
# Coordination Sequence:
#
# PCOD8026346 Si02
#       8
#     2   2   2   2   2   2   2   2
#     4  11  26  48  77 110 151 198 252 306 383 454
#     4  11  27  45  76 111 152 195 250 310 379 449
#     4  12  28  46  75 110 150 196 252 318 381 451
#     4  10  24  41  67  97 140 196 248 305 372 454
#     4  11  23  41  66  97 140 196 250 308 377 442
#     4  11  25  43  71 100 144 193 246 308 374 446
#     4  12  26  49  81 117 152 199 252 315 383 456
#     4  12  27  42  70 108 150 194 256 318 377 449
#
# _framework density 24.392990999999999
#
# number of rings (size 3 to 8) (size 9 to 14) (size 15 to 20)
#    0.000    0.750    1.250    4.500   15.750    5.000 
#    0.000    0.000    0.000    0.000    0.000    0.000 
#    0.000    0.000    0.000    0.000    0.000    0.000 
#
# Total GULP energy -198251.492519 kJ/mol
# GULP energy per Si atom -12390.718282 kJ/mol
# Density = 2.433747 g / cm^3
# Si number density = 24.392991 Si / 1000 Ang^3
#
#
#
# Elastic Constant Matrix: (Units=GPa)
#
#
# Indices 1 2 3 4 5 6 
#
# 1 96.5029 1.5155 20.3688 -9.0004 -8.2996 3.3726
# 2 1.5155 75.9895 -5.4757 -22.8466 0.4568 -11.4452
# 3 20.3688 -5.4757 120.3724 -12.3913 -13.1534 -14.5818
# 4 -9.0004 -22.8466 -12.3913 37.9771 13.3042 -8.4686
# 5 -8.2996 0.4568 -13.1534 13.3042 31.4383 -3.1532
# 6 3.3726 -11.4452 -14.5818 -8.4686 -3.1532 20.2354
#
#
#
# Elastic Compliance Matrix: (Units=1/GPa)
#
#
# Indices 1 2 3 4 5 6 
#
# 1 0.011112 -0.001010 -0.002218 -0.000144 0.001698 -0.003817
# 2 -0.001010 0.026472 0.007220 0.026979 -0.005968 0.030704
# 3 -0.002218 0.007220 0.012628 0.011539 0.001578 0.018628
# 4 -0.000144 0.026979 0.011539 0.062955 -0.017508 0.047217
# 5 0.001698 -0.005968 0.001578 -0.017508 0.040051 -0.003607
# 6 -0.003817 0.030704 0.018628 0.047217 -0.003607 0.100043
#
#
# Mechanical properties :
#
#
# Convention : Reuss Voigt Hill
#
# Bulk Modulus (GPa) = 17.18316 36.18689 26.68503
# Shear Modulus (GPa) = 18.89101 36.36058 27.62579
#
# Velocity S-wave (km/s) = 2.78590 3.86504 3.36896
# Velocity P-wave (km/s) = 4.17228 5.89790 5.10848
#
# Compressibility (1/GPa) = 0.05819650
#
# Stress axis : x y z
#
# Youngs Moduli (GPa) = 89.98929 37.77604 79.18801
#
# Poissons Ratio (x) = 0.03814 0.17563
# Poissons Ratio (y) = 0.09086 -0.57171
# Poissons Ratio (z) = 0.19959 -0.27273
#
# Static dielectric constant tensor:
#      x y z
#    x 4.319820 -0.003960 -0.016180 
#    y -0.003960 5.205450 -0.106030 
#    z -0.016180 -0.106030 4.818750 
# 
# 
# High freq. dielectric constant tensor:
#      x y z
#    x 1.959110 0.001460 0.000870 
#    y 0.001460 1.978640 -0.006360 
#    z 0.000870 -0.006360 1.989180 
# 
# From -- ./inp_files/138942.got.cif
#   From: 2010.06.25/outbox.cif.g09.slc.cpg/sg2_70_cif.got.tgz:138942.got - 2010.06.27 13:26:56.
