data_PCOD8026922
_publ_section_title
;
Structure prediction by ZEFSAII (Michael W. Deem and Ramdas Pophale) SiO2 
 PCOD8026922
Probable space group: P -1
;
_chemical_formula_sum "Si O2"
_cell_formula_units_Z 12
_cell_length_a 5.317327
_cell_length_b 10.116830
_cell_length_c 16.157892
_cell_angle_alpha 134.328331
_cell_angle_beta 63.651234
_cell_angle_gamma 96.722456
_cell_volume 531.311086
_symmetry_space_group_name_H-M "P -1"
_symmetry_group_IT_number 2
_symmetry_cell_setting 'triclinic'
loop_
_space_group_symop_operation_xyz
x,y,z
-x,-y,-z
loop_
_atom_site_type_symbol
_atom_site_label
_atom_site_fract_x
_atom_site_fract_y
_atom_site_fract_z
Si Si1 0.289725 0.831896 0.402591
Si Si2 0.089243 0.518951 0.247743
Si Si3 0.747004 0.871042 0.849394
Si Si4 0.514723 0.841671 0.535336
Si Si5 0.770461 0.588913 0.000792
Si Si6 0.351062 0.962457 0.788774
O O1 0.344396 0.626722 0.257027
O O2 0.287637 0.786940 0.482262
O O3 0.536202 0.929170 0.379265
O O4 0.000000 0.000000 0.500000
O O5 0.153179 0.345377 0.226490
O O6 0.053181 0.452053 0.130643
O O7 0.824378 0.690129 0.399255
O O8 0.599364 0.871680 0.781531
O O9 0.021634 0.957284 0.853575
O O10 0.500000 0.000000 0.000000
O O11 0.447644 0.826635 0.634562
O O12 0.500000 0.500000 0.000000
O O13 0.000000 0.500000 0.000000
O O14 0.646415 0.819298 0.131440
#
# Coordination Sequence:
#
# PCOD8026922 Si02
#       6
#     2   2   2   2   2   2
#     4   9  21  41  68 101 146 181 228 289 371 419
#     4  11  26  44  74 100 148 189 239 292 364 426
#     4  12  28  50  73 101 148 198 241 292 354 428
#     4  10  24  43  71 107 142 183 238 304 368 416
#     4  12  28  45  75 110 142 186 242 296 360 426
#     4  12  28  48  75 105 147 185 248 298 351 432
#
# _framework density 22.585639
#
# number of rings (size 3 to 8) (size 9 to 14) (size 15 to 20)
#    0.000    1.000    1.667    2.500   16.333    1.333 
#    0.000    0.000    0.000    0.000    0.000    0.000 
#    0.000    0.000    0.000    0.000    0.000    0.000 
#
# Total GULP energy -148663.518560 kJ/mol
# GULP energy per Si atom -12388.626547 kJ/mol
# Density = 2.253423 g / cm^3
# Si number density = 22.585639 Si / 1000 Ang^3
#
#
#
# Elastic Constant Matrix: (Units=GPa)
#
#
# Indices 1 2 3 4 5 6 
#
# 1 150.6108 66.0928 28.6073 0.8626 18.0338 -19.1644
# 2 66.0928 129.2171 45.5337 12.8883 3.9793 -26.4083
# 3 28.6073 45.5337 121.8329 -4.9425 11.7268 -17.3594
# 4 0.8626 12.8883 -4.9425 39.1907 -3.8485 9.0477
# 5 18.0338 3.9793 11.7268 -3.8485 31.6738 -15.5603
# 6 -19.1644 -26.4083 -17.3594 9.0477 -15.5603 47.6681
#
#
#
# Elastic Compliance Matrix: (Units=1/GPa)
#
#
# Indices 1 2 3 4 5 6 
#
# 1 0.009249 -0.004866 0.000055 0.001099 -0.004921 -0.000772
# 2 -0.004866 0.013320 -0.003581 -0.005814 0.005100 0.006887
# 3 0.000055 -0.003581 0.009939 0.002073 -0.002844 0.000336
# 4 0.001099 -0.005814 0.002073 0.029399 -0.000984 -0.007926
# 5 -0.004921 0.005100 -0.002844 -0.000984 0.041286 0.013475
# 6 -0.000772 0.006887 0.000336 -0.007926 0.013475 0.030509
#
#
# Mechanical properties :
#
#
# Convention : Reuss Voigt Hill
#
# Bulk Modulus (GPa) = 63.59565 75.79204 69.69385
# Shear Modulus (GPa) = 32.10726 41.13500 36.62113
#
# Velocity S-wave (km/s) = 3.77447 4.27229 4.03107
# Velocity P-wave (km/s) = 6.87126 7.61361 7.25194
#
# Compressibility (1/GPa) = 0.01572434
#
# Stress axis : x y z
#
# Youngs Moduli (GPa) = 108.11676 75.07404 100.61217
#
# Poissons Ratio (x) = 0.36532 -0.00554
# Poissons Ratio (y) = 0.52611 0.36030
# Poissons Ratio (z) = -0.00595 0.26885
#
# Static dielectric constant tensor:
#      x y z
#    x 4.763440 0.638760 0.659000 
#    y 0.638760 4.576090 0.233540 
#    z 0.659000 0.233540 4.263020 
# 
# 
# High freq. dielectric constant tensor:
#      x y z
#    x 1.904900 -0.009340 0.018740 
#    y -0.009340 1.890180 0.004920 
#    z 0.018740 0.004920 1.897420 
# 
# From -- ./inp_files/38155.got.cif
#   From: 2010.06.25/outbox.cif.g09.slc.cpg/sg2_20_cif.got.tgz:38155.got - 2010.06.27 13:26:56.
