data_PCOD8026100
_publ_section_title
;
Structure prediction by ZEFSAII (Michael W. Deem and Ramdas Pophale) SiO2 
 PCOD8026100
Probable space group: P -1
;
_chemical_formula_sum "Si O2"
_cell_formula_units_Z 14
_cell_length_a 21.981455
_cell_length_b 20.422289
_cell_length_c 8.875595
_cell_angle_alpha 29.537738
_cell_angle_beta 32.127001
_cell_angle_gamma 18.491904
_cell_volume 616.947617
_symmetry_space_group_name_H-M "P -1"
_symmetry_group_IT_number 2
_symmetry_cell_setting 'triclinic'
loop_
_space_group_symop_operation_xyz
x,y,z
-x,-y,-z
loop_
_atom_site_type_symbol
_atom_site_label
_atom_site_fract_x
_atom_site_fract_y
_atom_site_fract_z
Si Si1 0.705728 0.013105 0.672342
Si Si2 0.053325 0.505686 0.216191
Si Si3 0.466980 0.289024 0.337768
Si Si4 0.808043 0.089128 0.878138
Si Si5 0.026965 0.667714 0.451188
Si Si6 0.524032 0.966791 0.694784
Si Si7 0.913164 0.937233 0.631704
O O1 0.894100 0.789662 0.632795
O O2 0.765249 0.086664 0.500585
O O3 0.526355 0.214775 0.536202
O O4 0.653701 0.944793 0.035122
O O5 0.284014 0.291532 0.144381
O O6 0.000000 0.500000 0.500000
O O7 0.955055 0.499181 0.313346
O O8 0.983760 0.720024 0.915197
O O9 0.238557 0.526742 0.331862
O O10 0.537386 0.099358 0.471073
O O11 0.592267 0.292323 0.995951
O O12 0.796221 0.085294 0.730691
O O13 0.904214 0.138186 0.624080
O O14 0.937672 0.846879 0.153258
O O15 0.500000 0.000000 0.500000
#
# Coordination Sequence:
#
# PCOD8026100 Si02
#       7
#     2   2   2   2   2   2   2
#     4  11  25  43  65 103 139 172 222 281 338 400
#     4  12  22  41  70 102 129 178 222 275 335 397
#     4  11  23  43  67  97 136 181 217 277 332 409
#     4  10  23  49  66  98 133 178 227 281 330 403
#     4  11  24  43  73  96 138 176 225 275 340 396
#     4  12  24  40  67 102 141 170 226 280 336 395
#     4  11  24  43  71  96 138 173 225 284 338 393
#
# _framework density 22.692364000000001
#
# number of rings (size 3 to 8) (size 9 to 14) (size 15 to 20)
#    0.000    0.857    4.286    3.857    2.000    3.429 
#    2.571    2.857    0.000    0.000    0.000    0.000 
#    0.000    0.000    0.000    0.000    0.000    0.000 
#
# Total GULP energy -173616.274965 kJ/mol
# GULP energy per Si atom -12401.162498 kJ/mol
# Density = 2.264071 g / cm^3
# Si number density = 22.692364 Si / 1000 Ang^3
#
#
#
# Elastic Constant Matrix: (Units=GPa)
#
#
# Indices 1 2 3 4 5 6 
#
# 1 171.7345 25.7618 53.1981 20.7420 4.1140 -19.1780
# 2 25.7618 107.5944 26.8941 31.2604 1.1489 -22.2658
# 3 53.1981 26.8941 112.9845 37.4254 -9.6822 3.0508
# 4 20.7420 31.2604 37.4254 39.4275 7.9419 -2.1687
# 5 4.1140 1.1489 -9.6822 7.9419 36.2781 6.0005
# 6 -19.1780 -22.2658 3.0508 -2.1687 6.0005 32.2838
#
#
#
# Elastic Compliance Matrix: (Units=1/GPa)
#
#
# Indices 1 2 3 4 5 6 
#
# 1 0.007797 0.000229 -0.004479 0.000950 -0.003268 0.005884
# 2 0.000229 0.014364 -0.000114 -0.010964 0.000359 0.009250
# 3 -0.004479 -0.000114 0.017571 -0.016667 0.010072 -0.007392
# 4 0.000950 -0.010964 -0.016667 0.052640 -0.015909 0.001071
# 5 -0.003268 0.000359 0.010072 -0.015909 0.035810 -0.010371
# 6 0.005884 0.009250 -0.007392 0.001071 -0.010371 0.043549
#
#
# Mechanical properties :
#
#
# Convention : Reuss Voigt Hill
#
# Bulk Modulus (GPa) = 32.25574 67.11347 49.68461
# Shear Modulus (GPa) = 26.20641 40.69517 33.45079
#
# Velocity S-wave (km/s) = 3.40200 4.23938 3.84356
# Velocity P-wave (km/s) = 5.44763 7.32139 6.45288
#
# Compressibility (1/GPa) = 0.03100223
#
# Stress axis : x y z
#
# Youngs Moduli (GPa) = 128.25830 69.61962 56.91351
#
# Poissons Ratio (x) = -0.01597 0.25494
# Poissons Ratio (y) = -0.02942 0.00651
# Poissons Ratio (z) = 0.57453 0.00796
#
# Static dielectric constant tensor:
#      x y z
#    x 4.445470 -0.201300 -0.009700 
#    y -0.201300 4.066080 0.316430 
#    z -0.009700 0.316430 4.156640 
# 
# 
# High freq. dielectric constant tensor:
#      x y z
#    x 1.914470 -0.012570 0.004620 
#    y -0.012570 1.890480 0.024940 
#    z 0.004620 0.024940 1.892380 
# 
# From -- ./inp_files/349652.got.cif
#   From: 2010.06.25/outbox.cif.g09.slc.cpg/sg2_175_cif.got.tgz:349652.got - 2010.06.27 13:26:56.
