data_PCOD8026344
_publ_section_title
;
Structure prediction by ZEFSAII (Michael W. Deem and Ramdas Pophale) SiO2 
 PCOD8026344
Probable space group: P -1
;
_chemical_formula_sum "Si O2"
_cell_formula_units_Z 16
_cell_length_a 17.488839
_cell_length_b 7.440848
_cell_length_c 10.512041
_cell_angle_alpha 84.656059
_cell_angle_beta 145.402974
_cell_angle_gamma 111.197547
_cell_volume 667.949841
_symmetry_space_group_name_H-M "P -1"
_symmetry_group_IT_number 2
_symmetry_cell_setting 'triclinic'
loop_
_space_group_symop_operation_xyz
x,y,z
-x,-y,-z
loop_
_atom_site_type_symbol
_atom_site_label
_atom_site_fract_x
_atom_site_fract_y
_atom_site_fract_z
Si Si1 0.318451 0.010165 0.624371
Si Si2 0.213516 0.574485 0.143987
Si Si3 0.979273 0.862692 0.181742
Si Si4 0.365968 0.751752 0.085887
Si Si5 0.015536 0.277607 0.265759
Si Si6 0.676739 0.376597 0.430597
Si Si7 0.658191 0.866138 0.064371
Si Si8 0.124572 0.313592 0.683200
O O1 0.319256 0.793868 0.645194
O O2 0.150405 0.963056 0.347397
O O3 0.454422 0.169946 0.705924
O O4 0.352279 0.109475 0.802410
O O5 0.146432 0.324312 0.066114
O O6 0.067762 0.608349 0.918366
O O7 0.344565 0.688748 0.208804
O O8 0.290048 0.665078 0.377600
O O9 0.981840 0.768608 0.330867
O O10 0.931372 0.039507 0.116783
O O11 0.322181 0.931880 0.996176
O O12 0.255414 0.554789 0.859611
O O13 0.196703 0.394583 0.461210
O O14 0.011728 0.288446 0.413173
O O15 0.502738 0.341305 0.186684
O O16 0.801315 0.833308 0.229065
#
# Coordination Sequence:
#
# PCOD8026344 Si02
#       8
#     2   2   2   2   2   2   2   2
#     4  11  22  42  68 100 133 159 219 274 323 388
#     4  11  26  47  64  94 136 175 225 261 313 397
#     4  11  25  41  68 104 131 166 219 273 324 394
#     4  10  24  41  67  96 132 179 209 267 333 376
#     4  12  23  40  71  94 133 176 209 272 334 374
#     4  11  25  45  68  95 132 179 219 266 320 389
#     4  11  23  43  68 100 135 161 219 275 323 392
#     4  11  24  41  68 104 130 166 218 268 336 386
#
# _framework density 23.953896
#
# number of rings (size 3 to 8) (size 9 to 14) (size 15 to 20)
#    0.000    1.000    2.500    4.500    3.500    4.500 
#    0.000    2.500    0.000    0.000    0.000    0.000 
#    0.000    0.000    0.000    0.000    0.000    0.000 
#
# Total GULP energy -198491.311429 kJ/mol
# GULP energy per Si atom -12405.706964 kJ/mol
# Density = 2.389938 g / cm^3
# Si number density = 23.953896 Si / 1000 Ang^3
#
#
#
# Elastic Constant Matrix: (Units=GPa)
#
#
# Indices 1 2 3 4 5 6 
#
# 1 74.8633 20.4237 27.9300 7.4395 12.5698 8.4261
# 2 20.4237 95.9250 8.7674 28.0915 -1.6322 2.2628
# 3 27.9300 8.7674 68.0080 4.8363 3.6984 6.3492
# 4 7.4395 28.0915 4.8363 27.4872 6.2246 2.6237
# 5 12.5698 -1.6322 3.6984 6.2246 18.1324 8.6266
# 6 8.4261 2.2628 6.3492 2.6237 8.6266 32.6764
#
#
#
# Elastic Compliance Matrix: (Units=1/GPa)
#
#
# Indices 1 2 3 4 5 6 
#
# 1 0.019111 -0.004893 -0.006766 0.004127 -0.013735 0.000020
# 2 -0.004893 0.017208 0.000641 -0.018959 0.012146 -0.001739
# 3 -0.006766 0.000641 0.017622 -0.002401 0.003095 -0.002348
# 4 0.004127 -0.018959 -0.002401 0.060741 -0.026246 0.002767
# 5 -0.013735 0.012146 0.003095 -0.026246 0.082504 -0.017575
# 6 0.000020 -0.001739 -0.002348 0.002767 -0.017575 0.035592
#
#
# Mechanical properties :
#
#
# Convention : Reuss Voigt Hill
#
# Bulk Modulus (GPa) = 31.34397 39.22648 35.28523
# Shear Modulus (GPa) = 18.83599 27.77089 23.30344
#
# Velocity S-wave (km/s) = 2.80722 3.40861 3.12243
# Velocity P-wave (km/s) = 4.86013 5.64827 5.26896
#
# Compressibility (1/GPa) = 0.03190406
#
# Stress axis : x y z
#
# Youngs Moduli (GPa) = 52.32687 58.11281 56.74759
#
# Poissons Ratio (x) = 0.28437 0.38396
# Poissons Ratio (y) = 0.25606 -0.03639
# Poissons Ratio (z) = 0.35405 -0.03727
#
# Static dielectric constant tensor:
#      x y z
#    x 4.418620 0.047900 0.028920 
#    y 0.047900 4.319770 0.321670 
#    z 0.028920 0.321670 4.145970 
# 
# 
# High freq. dielectric constant tensor:
#      x y z
#    x 1.957040 0.003610 -0.000200 
#    y 0.003610 1.956290 0.022980 
#    z -0.000200 0.022980 1.934220 
# 
# From -- ./inp_files/328957.got.cif
#   From: 2010.06.25/outbox.cif.g09.slc.cpg/sg2_165_cif.got.tgz:328957.got - 2010.06.27 13:26:56.
