data_PCOD8026265
_publ_section_title
;
Structure prediction by ZEFSAII (Michael W. Deem and Ramdas Pophale) SiO2 
 PCOD8026265
Probable space group: P -1
;
_chemical_formula_sum "Si O2"
_cell_formula_units_Z 12
_cell_length_a 12.093453
_cell_length_b 10.387813
_cell_length_c 9.253287
_cell_angle_alpha 96.393453
_cell_angle_beta 85.957051
_cell_angle_gamma 156.416346
_cell_volume 460.727820
_symmetry_space_group_name_H-M "P -1"
_symmetry_group_IT_number 2
_symmetry_cell_setting 'triclinic'
loop_
_space_group_symop_operation_xyz
x,y,z
-x,-y,-z
loop_
_atom_site_type_symbol
_atom_site_label
_atom_site_fract_x
_atom_site_fract_y
_atom_site_fract_z
Si Si1 0.738123 0.858022 0.006316
Si Si2 0.126911 0.780887 0.769983
Si Si3 0.455097 0.236617 0.324763
Si Si4 0.006654 0.177412 0.473063
Si Si5 0.565630 0.064985 0.833384
Si Si6 0.077821 0.121059 0.780590
O O1 0.966870 0.042654 0.120459
O O2 0.685822 0.942425 0.091403
O O3 0.500000 0.500000 0.000000
O O4 0.866643 0.006323 0.849291
O O5 0.099419 0.826031 0.626625
O O6 0.829480 0.436291 0.822774
O O7 0.302413 0.837455 0.737673
O O8 0.608839 0.483477 0.211302
O O9 0.679590 0.459205 0.460823
O O10 0.187080 0.023101 0.390151
O O11 0.366691 0.005785 0.237340
O O12 0.991427 0.016069 0.385633
O O13 0.500000 0.000000 0.000000
#
# Coordination Sequence:
#
# PCOD8026265 Si02
#       6
#     2   2   2   2   2   2
#     4  10  24  40  74  99 133 181 222 284 348 390
#     4  11  26  46  70  99 140 173 234 275 331 409
#     4  12  26  44  70 100 140 182 227 273 341 406
#     4  11  26  44  71 100 137 185 224 278 339 395
#     4  12  27  46  71 100 135 180 224 285 336 397
#     4  10  24  42  66 104 137 173 228 285 335 403
#
# _framework density 26.045746000000001
#
# number of rings (size 3 to 8) (size 9 to 14) (size 15 to 20)
#    0.000    1.000    0.000    4.500   16.333    4.000 
#    0.000    0.000    0.000    0.000    0.000    0.000 
#    0.000    0.000    0.000    0.000    0.000    0.000 
#
# Total GULP energy -148798.945143 kJ/mol
# GULP energy per Si atom -12399.912095 kJ/mol
# Density = 2.598647 g / cm^3
# Si number density = 26.045746 Si / 1000 Ang^3
#
#
#
# Elastic Constant Matrix: (Units=GPa)
#
#
# Indices 1 2 3 4 5 6 
#
# 1 102.5833 8.1554 39.3504 -13.5890 -17.1039 -4.4217
# 2 8.1554 123.3678 37.4621 -14.7596 -11.7355 -5.6255
# 3 39.3504 37.4621 156.3995 -23.5769 -19.5264 -16.0203
# 4 -13.5890 -14.7596 -23.5769 43.3527 -7.3053 -2.1827
# 5 -17.1039 -11.7355 -19.5264 -7.3053 43.2467 -2.3522
# 6 -4.4217 -5.6255 -16.0203 -2.1827 -2.3522 37.5781
#
#
#
# Elastic Compliance Matrix: (Units=1/GPa)
#
#
# Indices 1 2 3 4 5 6 
#
# 1 0.011738 0.000742 -0.001847 0.003783 0.004715 0.001220
# 2 0.000742 0.009181 -0.001462 0.003080 0.002710 0.001187
# 3 -0.001847 -0.001462 0.008751 0.004513 0.003793 0.003794
# 4 0.003783 0.003080 0.004513 0.029642 0.009657 0.005156
# 5 0.004715 0.002710 0.003793 0.009657 0.029338 0.004975
# 6 0.001220 0.001187 0.003794 0.005156 0.004975 0.029161
#
#
# Mechanical properties :
#
#
# Convention : Reuss Voigt Hill
#
# Bulk Modulus (GPa) = 40.75663 61.36516 51.06090
# Shear Modulus (GPa) = 38.13226 44.66102 41.39664
#
# Velocity S-wave (km/s) = 3.83044 4.14540 3.99103
# Velocity P-wave (km/s) = 5.93676 6.82086 6.39411
#
# Compressibility (1/GPa) = 0.02453588
#
# Stress axis : x y z
#
# Youngs Moduli (GPa) = 85.19683 108.92110 114.27063
#
# Poissons Ratio (x) = -0.08078 0.21105
# Poissons Ratio (y) = -0.06319 0.16701
# Poissons Ratio (z) = 0.15735 0.15920
#
# Static dielectric constant tensor:
#      x y z
#    x 5.618410 0.111360 0.910960 
#    y 0.111360 4.492580 0.102250 
#    z 0.910960 0.102250 6.090150 
# 
# 
# High freq. dielectric constant tensor:
#      x y z
#    x 2.073810 0.006930 0.020580 
#    y 0.006930 2.035000 -0.004830 
#    z 0.020580 -0.004830 2.076870 
# 
# From -- ./inp_files/18441.got.cif
#   From: 2010.06.25/outbox.cif.g09.slc.cpg/sg2_10_cif.got.tgz:18441.got - 2010.06.27 13:26:56.
