data_PCOD8026147
_publ_section_title
;
Structure prediction by ZEFSAII (Michael W. Deem and Ramdas Pophale) SiO2 
 PCOD8026147
Probable space group: P -1
;
_chemical_formula_sum "Si O2"
_cell_formula_units_Z 14
_cell_length_a 8.137706
_cell_length_b 11.671166
_cell_length_c 11.374129
_cell_angle_alpha 49.978215
_cell_angle_beta 80.148863
_cell_angle_gamma 52.818699
_cell_volume 615.790602
_symmetry_space_group_name_H-M "P -1"
_symmetry_group_IT_number 2
_symmetry_cell_setting 'triclinic'
loop_
_space_group_symop_operation_xyz
x,y,z
-x,-y,-z
loop_
_atom_site_type_symbol
_atom_site_label
_atom_site_fract_x
_atom_site_fract_y
_atom_site_fract_z
Si Si1 0.436011 0.074682 0.199813
Si Si2 0.841955 0.706045 0.114125
Si Si3 0.833961 0.388893 0.396490
Si Si4 0.278981 0.045290 0.457734
Si Si5 0.063928 0.291599 0.651347
Si Si6 0.642244 0.333134 0.259003
Si Si7 0.252720 0.487834 0.051472
O O1 0.385411 0.273843 0.117351
O O2 0.294974 0.039638 0.317547
O O3 0.694272 0.890539 0.307002
O O4 0.364882 0.094826 0.058634
O O5 0.749022 0.609113 0.249061
O O6 0.943099 0.745460 0.183867
O O7 0.020050 0.572263 0.077076
O O8 0.658628 0.381748 0.360183
O O9 0.882822 0.311267 0.578186
O O10 0.066880 0.258505 0.385841
O O11 0.254186 0.892309 0.609963
O O12 0.500000 0.000000 0.500000
O O13 0.000000 0.500000 0.500000
O O14 0.390758 0.476194 0.151507
O O15 0.784454 0.360776 0.140817
#
# Coordination Sequence:
#
# PCOD8026147 Si02
#       7
#     2   2   2   2   2   2   2
#     4  12  21  40  69  96 123 169 215 262 314 376
#     4  11  22  41  66  95 128 172 217 252 315 388
#     4  11  20  39  61  96 132 169 208 263 316 374
#     4  12  21  36  66  97 127 162 214 264 315 375
#     4  10  24  39  64  96 130 168 216 262 310 379
#     4  11  23  36  62 100 133 161 207 269 322 368
#     4  11  22  40  67  97 130 165 208 270 317 374
#
# _framework density 22.734998999999998
#
# number of rings (size 3 to 8) (size 9 to 14) (size 15 to 20)
#    0.000    0.857    5.714    2.143    2.000    0.000 
#    0.000    0.714    0.000    8.571    0.000    0.000 
#    0.000    0.000    0.000    0.000    0.000    0.000 
#
# Total GULP energy -173479.205350 kJ/mol
# GULP energy per Si atom -12391.371811 kJ/mol
# Density = 2.268325 g / cm^3
# Si number density = 22.734999 Si / 1000 Ang^3
#
#
#
# Elastic Constant Matrix: (Units=GPa)
#
#
# Indices 1 2 3 4 5 6 
#
# 1 67.8719 10.9742 39.6922 3.1831 14.7420 24.9473
# 2 10.9742 63.2888 27.5150 7.6177 1.1489 13.5809
# 3 39.6922 27.5150 142.2156 15.0954 11.6992 22.1437
# 4 3.1831 7.6177 15.0954 37.1884 15.8421 14.5491
# 5 14.7420 1.1489 11.6992 15.8421 53.2414 13.1567
# 6 24.9473 13.5809 22.1437 14.5491 13.1567 28.9463
#
#
#
# Elastic Compliance Matrix: (Units=1/GPa)
#
#
# Indices 1 2 3 4 5 6 
#
# 1 0.025903 0.001305 -0.004703 0.009774 -0.003472 -0.022673
# 2 0.001305 0.018606 -0.002774 -0.000349 0.002048 -0.008488
# 3 -0.004703 -0.002774 0.009218 -0.002701 0.000252 -0.000453
# 4 0.009774 -0.000349 -0.002701 0.039483 -0.008358 -0.022240
# 5 -0.003472 0.002048 0.000252 -0.008358 0.023250 -0.004528
# 6 -0.022673 -0.008488 -0.000453 -0.022240 -0.004528 0.071653
#
#
# Mechanical properties :
#
#
# Convention : Reuss Voigt Hill
#
# Bulk Modulus (GPa) = 24.16492 47.74880 35.95686
# Shear Modulus (GPa) = 23.33707 36.88820 30.11264
#
# Velocity S-wave (km/s) = 3.20735 4.03243 3.64332
# Velocity P-wave (km/s) = 4.93641 6.53671 5.79210
#
# Compressibility (1/GPa) = 0.04138231
#
# Stress axis : x y z
#
# Youngs Moduli (GPa) = 38.60582 53.74477 108.48909
#
# Poissons Ratio (x) = -0.07015 0.51028
# Poissons Ratio (y) = -0.05039 0.30095
# Poissons Ratio (z) = 0.18158 0.14909
#
# Static dielectric constant tensor:
#      x y z
#    x 3.967940 0.331210 0.407740 
#    y 0.331210 4.019410 0.368440 
#    z 0.407740 0.368440 4.752480 
# 
# 
# High freq. dielectric constant tensor:
#      x y z
#    x 1.869810 0.017910 0.034440 
#    y 0.017910 1.875570 0.009050 
#    z 0.034440 0.009050 1.922240 
# 
# From -- ./inp_files/174194.got.cif
#   From: 2010.06.25/outbox.cif.g09.slc.cpg/sg2_88_cif.got.tgz:174194.got - 2010.06.27 13:26:56.
