data_PCOD8026784
_publ_section_title
;
Structure prediction by ZEFSAII (Michael W. Deem and Ramdas Pophale) SiO2 
 PCOD8026784
Probable space group: P -1
;
_chemical_formula_sum "Si O2"
_cell_formula_units_Z 14
_cell_length_a 20.970262
_cell_length_b 14.617042
_cell_length_c 11.520757
_cell_angle_alpha 38.928246
_cell_angle_beta 156.382314
_cell_angle_gamma 153.437413
_cell_volume 615.369101
_symmetry_space_group_name_H-M "P -1"
_symmetry_group_IT_number 2
_symmetry_cell_setting 'triclinic'
loop_
_space_group_symop_operation_xyz
x,y,z
-x,-y,-z
loop_
_atom_site_type_symbol
_atom_site_label
_atom_site_fract_x
_atom_site_fract_y
_atom_site_fract_z
Si Si1 0.376408 0.722222 0.647895
Si Si2 0.016262 0.006240 0.756721
Si Si3 0.768973 0.438406 0.187299
Si Si4 0.375218 0.347618 0.190063
Si Si5 0.798621 0.638588 0.451898
Si Si6 0.133845 0.811664 0.030861
Si Si7 0.450323 0.298469 0.601947
O O1 0.360858 0.713283 0.769171
O O2 0.319149 0.528682 0.684763
O O3 0.182333 0.696962 0.293569
O O4 0.632042 0.942065 0.832566
O O5 0.074994 0.138209 0.610173
O O6 0.789496 0.912498 0.534892
O O7 0.228177 0.150768 0.054938
O O8 0.970119 0.808791 0.836905
O O9 0.000000 0.500000 0.500000
O O10 0.779924 0.620914 0.049043
O O11 0.638263 0.326783 0.957006
O O12 0.599704 0.557350 0.290480
O O13 0.449714 0.278646 0.481352
O O14 0.999863 0.685963 0.811619
O O15 0.500000 0.500000 0.500000
#
# Coordination Sequence:
#
# PCOD8026784 Si02
#       7
#     2   2   2   2   2   2   2
#     4  11  24  44  65 103 144 177 231 284 354 407
#     4  12  22  43  72 100 138 180 238 286 341 416
#     4  11  24  43  67  92 139 183 225 283 345 407
#     4  11  23  43  72 103 134 178 236 286 342 412
#     4  12  23  44  75 102 139 179 236 289 345 409
#     4  11  24  39  68 105 139 181 223 290 351 414
#     4  10  24  43  67  99 132 183 237 276 341 416
#
# _framework density 22.750572999999999
#
# number of rings (size 3 to 8) (size 9 to 14) (size 15 to 20)
#    0.000    0.857    2.857    5.143    6.000    0.000 
#    0.000    0.714    0.000    0.000    0.000    0.000 
#    0.000    0.000    0.000    0.000    0.000    0.000 
#
# Total GULP energy -173522.057804 kJ/mol
# GULP energy per Si atom -12394.432700 kJ/mol
# Density = 2.269879 g / cm^3
# Si number density = 22.750573 Si / 1000 Ang^3
#
#
#
# Elastic Constant Matrix: (Units=GPa)
#
#
# Indices 1 2 3 4 5 6 
#
# 1 111.6410 26.6277 53.0586 -5.2008 -20.0719 23.9639
# 2 26.6277 48.7376 19.3347 8.0288 3.3233 8.5417
# 3 53.0586 19.3347 134.8704 1.8091 -26.7013 13.5437
# 4 -5.2008 8.0288 1.8091 31.8419 -4.0007 -0.6726
# 5 -20.0719 3.3233 -26.7013 -4.0007 48.0568 0.3162
# 6 23.9639 8.5417 13.5437 -0.6726 0.3162 31.7270
#
#
#
# Elastic Compliance Matrix: (Units=1/GPa)
#
#
# Indices 1 2 3 4 5 6 
#
# 1 0.014980 -0.006694 -0.003102 0.004824 0.005451 -0.008141
# 2 -0.006694 0.027237 -0.002340 -0.008699 -0.006694 -0.001396
# 3 -0.003102 -0.002340 0.009979 0.000044 0.004423 -0.001330
# 4 0.004824 -0.008699 0.000044 0.035070 0.005564 -0.000632
# 5 0.005451 -0.006694 0.004423 0.005564 0.026498 -0.004350
# 6 -0.008141 -0.001396 -0.001330 -0.000632 -0.004350 0.038641
#
#
# Mechanical properties :
#
#
# Convention : Reuss Voigt Hill
#
# Bulk Modulus (GPa) = 35.80851 54.81011 45.30931
# Shear Modulus (GPa) = 26.88402 35.40700 31.14551
#
# Velocity S-wave (km/s) = 3.44129 3.94929 3.70401
# Velocity P-wave (km/s) = 5.61817 6.70373 6.18481
#
# Compressibility (1/GPa) = 0.02792632
#
# Stress axis : x y z
#
# Youngs Moduli (GPa) = 66.75537 36.71421 100.21203
#
# Poissons Ratio (x) = 0.24575 0.31082
# Poissons Ratio (y) = 0.44683 0.23448
# Poissons Ratio (z) = 0.20705 0.08591
#
# Static dielectric constant tensor:
#      x y z
#    x 4.682860 0.281400 -0.522500 
#    y 0.281400 3.865220 -0.014510 
#    z -0.522500 -0.014510 4.469400 
# 
# 
# High freq. dielectric constant tensor:
#      x y z
#    x 1.901720 0.013090 -0.026400 
#    y 0.013090 1.878300 0.010790 
#    z -0.026400 0.010790 1.910230 
# 
# From -- ./inp_files/187134.got.cif
#   From: 2010.06.25/outbox.cif.g09.slc.cpg/sg2_94_cif.got.tgz:187134.got - 2010.06.27 13:26:56.
