data_PCOD8026354
_publ_section_title
;
Structure prediction by ZEFSAII (Michael W. Deem and Ramdas Pophale) SiO2 
 PCOD8026354
Probable space group: P -1
;
_chemical_formula_sum "Si O2"
_cell_formula_units_Z 16
_cell_length_a 11.679117
_cell_length_b 5.214446
_cell_length_c 13.668170
_cell_angle_alpha 115.631032
_cell_angle_beta 86.982426
_cell_angle_gamma 109.043663
_cell_volume 705.575162
_symmetry_space_group_name_H-M "P -1"
_symmetry_group_IT_number 2
_symmetry_cell_setting 'triclinic'
loop_
_space_group_symop_operation_xyz
x,y,z
-x,-y,-z
loop_
_atom_site_type_symbol
_atom_site_label
_atom_site_fract_x
_atom_site_fract_y
_atom_site_fract_z
Si Si1 0.633057 0.852620 0.250336
Si Si2 0.576374 0.338602 0.030686
Si Si3 0.918824 0.835903 0.887423
Si Si4 0.764001 0.198373 0.866431
Si Si5 0.893449 0.123220 0.280262
Si Si6 0.562997 0.874763 0.674695
Si Si7 0.109693 0.241828 0.587837
Si Si8 0.365582 0.236363 0.548625
O O1 0.607314 0.505581 0.162504
O O2 0.657510 0.944966 0.378889
O O3 0.759293 0.044494 0.222242
O O4 0.516817 0.943361 0.242287
O O5 0.500000 0.500000 0.000000
O O6 0.696328 0.356406 0.968802
O O7 0.500000 0.000000 0.000000
O O8 0.858928 0.476963 0.849840
O O9 0.004802 0.892388 0.800119
O O10 0.821746 0.001074 0.897577
O O11 0.000000 0.000000 0.000000
O O12 0.679360 0.956001 0.753398
O O13 0.927761 0.462058 0.373172
O O14 0.884684 0.868999 0.320145
O O15 0.484725 0.522894 0.615699
O O16 0.607418 0.960937 0.574074
O O17 0.242054 0.308265 0.540865
O O18 0.000000 0.000000 0.500000
#
# Coordination Sequence:
#
# PCOD8026354 Si02
#       8
#     2   2   2   2   2   2   2   2
#     4  11  23  44  69 100 141 186 239 291 362 436
#     4  12  25  43  72 106 146 183 235 300 359 432
#     4  12  28  50  73 104 145 188 242 298 367 428
#     4  12  27  47  75 110 141 192 238 304 361 434
#     4  11  25  45  73  98 136 189 237 292 360 414
#     4  11  23  44  68 104 147 184 240 289 370 431
#     4  11  24  45  68 105 137 188 244 294 349 426
#     4  10  24  41  68 103 147 191 229 297 360 429
#
# _framework density 22.676534
#
# number of rings (size 3 to 8) (size 9 to 14) (size 15 to 20)
#    0.000    0.750    2.500    4.125    5.250    2.000 
#    0.000    0.000    0.000    0.000    0.000    0.000 
#    0.000    0.000    0.000    0.000    0.000    0.000 
#
# Total GULP energy -198345.021661 kJ/mol
# GULP energy per Si atom -12396.563854 kJ/mol
# Density = 2.262492 g / cm^3
# Si number density = 22.676534 Si / 1000 Ang^3
#
#
#
# Elastic Constant Matrix: (Units=GPa)
#
#
# Indices 1 2 3 4 5 6 
#
# 1 113.8895 24.7958 50.0391 5.1065 9.9228 5.6914
# 2 24.7958 94.5979 21.2740 11.3120 6.6415 0.7419
# 3 50.0391 21.2740 115.1346 16.5346 6.7737 5.9232
# 4 5.1065 11.3120 16.5346 37.2652 4.7187 -1.2182
# 5 9.9228 6.6415 6.7737 4.7187 45.7573 0.2915
# 6 5.6914 0.7419 5.9232 -1.2182 0.2915 38.0314
#
#
#
# Elastic Compliance Matrix: (Units=1/GPa)
#
#
# Indices 1 2 3 4 5 6 
#
# 1 0.011367 -0.001972 -0.004616 0.001265 -0.001620 -0.000891
# 2 -0.001972 0.011672 -0.000856 -0.002781 -0.000854 0.000118
# 3 -0.004616 -0.000856 0.011531 -0.004247 -0.000136 -0.001223
# 4 0.001265 -0.002781 -0.004247 0.029732 -0.002318 0.001496
# 5 -0.001620 -0.000854 -0.000136 -0.002318 0.022589 0.000033
# 6 -0.000891 0.000118 -0.001223 0.001496 0.000033 0.026663
#
#
# Mechanical properties :
#
#
# Convention : Reuss Voigt Hill
#
# Bulk Modulus (GPa) = 50.81075 57.31551 54.06313
# Shear Modulus (GPa) = 37.03618 39.37832 38.20725
#
# Velocity S-wave (km/s) = 4.04572 4.17168 4.10918
# Velocity P-wave (km/s) = 6.65426 6.96664 6.81224
#
# Compressibility (1/GPa) = 0.01968087
#
# Stress axis : x y z
#
# Youngs Moduli (GPa) = 87.97386 85.67495 86.72394
#
# Poissons Ratio (x) = 0.16894 0.40036
# Poissons Ratio (y) = 0.17347 0.07425
# Poissons Ratio (z) = 0.40613 0.07335
#
# Static dielectric constant tensor:
#      x y z
#    x 4.565870 0.189140 -0.075210 
#    y 0.189140 4.113720 -0.108330 
#    z -0.075210 -0.108330 4.122820 
# 
# 
# High freq. dielectric constant tensor:
#      x y z
#    x 1.912350 0.012120 -0.004080 
#    y 0.012120 1.890150 0.003480 
#    z -0.004080 0.003480 1.900850 
# 
# From -- ./inp_files/511250.got.cif
#   From: 2010.06.25/outbox.cif.g09.slc.cpg/sg2_256_cif.got.tgz:511250.got - 2010.06.27 13:26:56.
