data_PCOD8026395
_publ_section_title
;
Structure prediction by ZEFSAII (Michael W. Deem and Ramdas Pophale) SiO2 
 PCOD8026395
Probable space group: P -1
;
_chemical_formula_sum "Si O2"
_cell_formula_units_Z 16
_cell_length_a 9.366265
_cell_length_b 20.854164
_cell_length_c 14.757936
_cell_angle_alpha 19.321137
_cell_angle_beta 86.709065
_cell_angle_gamma 75.183465
_cell_volume 754.372990
_symmetry_space_group_name_H-M "P -1"
_symmetry_group_IT_number 2
_symmetry_cell_setting 'triclinic'
loop_
_space_group_symop_operation_xyz
x,y,z
-x,-y,-z
loop_
_atom_site_type_symbol
_atom_site_label
_atom_site_fract_x
_atom_site_fract_y
_atom_site_fract_z
Si Si1 0.708293 0.141220 0.131984
Si Si2 0.581203 0.643209 0.485661
Si Si3 0.402058 0.306644 0.791352
Si Si4 0.917016 0.030558 0.659256
Si Si5 0.261441 0.028608 0.109544
Si Si6 0.957751 0.453023 0.793757
Si Si7 0.061477 0.737714 0.313912
Si Si8 0.991144 0.686554 0.817255
O O1 0.884411 0.090104 0.143063
O O2 0.783227 0.936645 0.481455
O O3 0.601847 0.403499 0.835903
O O4 0.586434 0.135418 0.069926
O O5 0.551089 0.666457 0.347741
O O6 0.755015 0.626134 0.529779
O O7 0.407930 0.874135 0.232731
O O8 0.266719 0.573085 0.488465
O O9 0.310688 0.172591 0.975877
O O10 0.765149 0.133441 0.605771
O O11 0.871996 0.251065 0.301285
O O12 0.925749 0.819959 0.886278
O O13 0.067726 0.230295 0.803776
O O14 0.050116 0.585081 0.597071
O O15 0.950168 0.430577 0.930999
O O16 0.000000 0.000000 0.000000
O O17 0.000000 0.500000 0.000000
#
# Coordination Sequence:
#
# PCOD8026395 Si02
#       8
#     2   2   2   2   2   2   2   2
#     4   9  23  43  67  92 134 179 218 280 328 396
#     4  11  24  39  69  98 137 178 222 273 339 401
#     4  12  23  44  65 102 142 174 221 275 345 395
#     4   9  22  44  69  93 130 180 223 272 326 394
#     4  12  24  41  66 103 134 173 225 273 343 394
#     4  11  22  45  67  96 133 182 223 273 334 404
#     4  12  26  40  70 102 138 177 222 283 337 401
#     4  10  24  41  74  96 127 179 232 269 331 398
#
# _framework density 21.209665999999999
#
# number of rings (size 3 to 8) (size 9 to 14) (size 15 to 20)
#    0.750    0.500    2.500    3.750    3.500    1.000 
#    0.000    1.250    0.000    0.000    0.000    0.000 
#    0.000    0.000    0.000    0.000    0.000    0.000 
#
# Total GULP energy -198307.616379 kJ/mol
# GULP energy per Si atom -12394.226024 kJ/mol
# Density = 2.116139 g / cm^3
# Si number density = 21.209666 Si / 1000 Ang^3
#
#
#
# Elastic Constant Matrix: (Units=GPa)
#
#
# Indices 1 2 3 4 5 6 
#
# 1 76.8277 34.8469 20.3241 -2.6954 -14.5146 3.6910
# 2 34.8469 89.7741 22.4204 3.2228 -6.6969 -12.8482
# 3 20.3241 22.4204 77.8509 -0.6145 -24.3868 -2.0659
# 4 -2.6954 3.2228 -0.6145 36.0279 1.5664 -0.5061
# 5 -14.5146 -6.6969 -24.3868 1.5664 42.5481 3.2276
# 6 3.6910 -12.8482 -2.0659 -0.5061 3.2276 40.8935
#
#
#
# Elastic Compliance Matrix: (Units=1/GPa)
#
#
# Indices 1 2 3 4 5 6 
#
# 1 0.017538 -0.006792 -0.001341 0.001648 0.004396 -0.004111
# 2 -0.006792 0.015237 -0.003130 -0.001760 -0.002056 0.005383
# 3 -0.001341 -0.003130 0.016816 0.000077 0.008738 -0.000702
# 4 0.001648 -0.001760 0.000077 0.028064 -0.000682 -0.000297
# 5 0.004396 -0.002056 0.008738 -0.000682 0.029938 -0.002973
# 6 -0.004111 0.005383 -0.000702 -0.000297 -0.002973 0.026712
#
#
# Mechanical properties :
#
#
# Convention : Reuss Voigt Hill
#
# Bulk Modulus (GPa) = 36.95019 44.40394 40.67706
# Shear Modulus (GPa) = 30.14726 35.01800 32.58263
#
# Velocity S-wave (km/s) = 3.77423 4.06771 3.92371
# Velocity P-wave (km/s) = 6.03757 6.56070 6.30456
#
# Compressibility (1/GPa) = 0.02706346
#
# Stress axis : x y z
#
# Youngs Moduli (GPa) = 57.02064 65.62814 59.46709
#
# Poissons Ratio (x) = 0.44575 0.07977
# Poissons Ratio (y) = 0.38728 0.18615
# Poissons Ratio (z) = 0.07649 0.20543
#
# Static dielectric constant tensor:
#      x y z
#    x 3.895970 0.038850 -0.155180 
#    y 0.038850 3.811690 0.021190 
#    z -0.155180 0.021190 3.923020 
# 
# 
# High freq. dielectric constant tensor:
#      x y z
#    x 1.830810 0.007710 -0.014670 
#    y 0.007710 1.818750 -0.005260 
#    z -0.014670 -0.005260 1.828610 
# 
# From -- ./inp_files/507813.got.cif
#   From: 2010.06.25/outbox.cif.g09.slc.cpg/sg2_254_cif.got.tgz:507813.got - 2010.06.27 13:26:56.
