data_PCOD8026470
_publ_section_title
;
Structure prediction by ZEFSAII (Michael W. Deem and Ramdas Pophale) SiO2 
 PCOD8026470
Probable space group: P -1
;
_chemical_formula_sum "Si O2"
_cell_formula_units_Z 16
_cell_length_a 5.123059
_cell_length_b 8.932701
_cell_length_c 18.937086
_cell_angle_alpha 75.950020
_cell_angle_beta 83.324257
_cell_angle_gamma 52.721619
_cell_volume 668.404661
_symmetry_space_group_name_H-M "P -1"
_symmetry_group_IT_number 2
_symmetry_cell_setting 'triclinic'
loop_
_space_group_symop_operation_xyz
x,y,z
-x,-y,-z
loop_
_atom_site_type_symbol
_atom_site_label
_atom_site_fract_x
_atom_site_fract_y
_atom_site_fract_z
Si Si1 0.468828 0.708868 0.781865
Si Si2 0.998879 0.801952 0.989044
Si Si3 0.290680 0.035703 0.241840
Si Si4 0.516479 0.845517 0.111497
Si Si5 0.434276 0.302807 0.624831
Si Si6 0.383607 0.488994 0.916128
Si Si7 0.684987 0.533924 0.647559
Si Si8 0.615368 0.133777 0.488736
O O1 0.673953 0.794401 0.767124
O O2 0.541101 0.587022 0.865106
O O3 0.577546 0.567371 0.728406
O O4 0.082136 0.879428 0.771101
O O5 0.031616 0.652556 0.945810
O O6 0.848699 0.004585 0.930394
O O7 0.773583 0.852735 0.057474
O O8 0.378668 0.681745 0.015091
O O9 0.519020 0.902837 0.184684
O O10 0.408590 0.905312 0.322446
O O11 0.650731 0.623189 0.132864
O O12 0.636489 0.382548 0.632564
O O13 0.445891 0.278887 0.543157
O O14 0.060337 0.453758 0.641593
O O15 0.470526 0.739717 0.592589
O O16 0.500000 0.000000 0.500000
O O17 0.000000 0.000000 0.500000
#
# Coordination Sequence:
#
# PCOD8026470 Si02
#       8
#     2   2   2   2   2   2   2   2
#     4  12  27  46  69 100 140 182 232 288 351 417
#     4  10  24  42  66 100 134 174 234 288 356 420
#     4  12  27  46  69 100 140 182 232 288 351 417
#     4  11  24  42  69  96 136 178 234 286 358 419
#     4  12  25  45  72 104 141 185 236 285 344 414
#     4  11  24  42  69  96 136 178 234 286 358 419
#     4  12  25  45  72 104 141 185 236 285 344 414
#     4  12  24  44  72 106 146 186 230 286 348 408
#
# _framework density 23.937595999999999
#
# number of rings (size 3 to 8) (size 9 to 14) (size 15 to 20)
#    0.000    0.500    1.250    6.750    5.250    4.000 
#    0.000    0.000    0.000    0.000    0.000    0.000 
#    0.000    0.000    0.000    0.000    0.000    0.000 
#
# Total GULP energy -198408.366510 kJ/mol
# GULP energy per Si atom -12400.522907 kJ/mol
# Density = 2.388311 g / cm^3
# Si number density = 23.937596 Si / 1000 Ang^3
#
#
#
# Elastic Constant Matrix: (Units=GPa)
#
#
# Indices 1 2 3 4 5 6 
#
# 1 75.8751 14.4037 3.7822 -1.8377 -6.4309 2.3890
# 2 14.4037 103.0321 16.8350 15.2872 0.4583 5.5053
# 3 3.7822 16.8350 93.6764 18.6836 -0.9757 -1.1848
# 4 -1.8377 15.2872 18.6836 56.1887 -5.4122 -0.9316
# 5 -6.4309 0.4583 -0.9757 -5.4122 20.6719 0.0755
# 6 2.3890 5.5053 -1.1848 -0.9316 0.0755 51.8847
#
#
#
# Elastic Compliance Matrix: (Units=1/GPa)
#
#
# Indices 1 2 3 4 5 6 
#
# 1 0.014071 -0.002136 -0.000469 0.001657 0.004838 -0.000409
# 2 -0.002136 0.010691 -0.001325 -0.002718 -0.001671 -0.001113
# 3 -0.000469 -0.001325 0.011643 -0.003569 -0.000503 0.000365
# 4 0.001657 -0.002718 -0.003569 0.020337 0.005730 0.000487
# 5 0.004838 -0.001671 -0.000503 0.005730 0.051393 -0.000029
# 6 -0.000409 -0.001113 0.000365 0.000487 -0.000029 0.019428
#
#
# Mechanical properties :
#
#
# Convention : Reuss Voigt Hill
#
# Bulk Modulus (GPa) = 35.03158 38.06947 36.55052
# Shear Modulus (GPa) = 34.49726 41.58660 38.04193
#
# Velocity S-wave (km/s) = 3.80034 4.17261 3.99082
# Velocity P-wave (km/s) = 5.82436 6.25718 6.04465
#
# Compressibility (1/GPa) = 0.02854568
#
# Stress axis : x y z
#
# Youngs Moduli (GPa) = 71.06572 93.53821 85.88675
#
# Poissons Ratio (x) = 0.19979 0.04032
# Poissons Ratio (y) = 0.15179 0.11376
# Poissons Ratio (z) = 0.03336 0.12389
#
# Static dielectric constant tensor:
#      x y z
#    x 4.011250 -0.025330 0.220620 
#    y -0.025330 4.536190 -0.735940 
#    z 0.220620 -0.735940 0.387190 
# 
# 
# High freq. dielectric constant tensor:
#      x y z
#    x 1.937010 -0.003420 0.000130 
#    y -0.003420 1.972890 0.007590 
#    z 0.000130 0.007590 1.960430 
# 
# From -- ./inp_files/548026.got.cif
#   From: 2010.06.25/outbox.cif.g09.slc.cpg/sg2_275_cif.got.tgz:548026.got - 2010.06.27 13:26:56.
