data_PCOD8026630
_publ_section_title
;
Structure prediction by ZEFSAII (Michael W. Deem and Ramdas Pophale) SiO2 
 PCOD8026630
Probable space group: P -1
;
_chemical_formula_sum "Si O2"
_cell_formula_units_Z 16
_cell_length_a 14.655102
_cell_length_b 9.531529
_cell_length_c 8.790524
_cell_angle_alpha 67.837394
_cell_angle_beta 141.528995
_cell_angle_gamma 98.635855
_cell_volume 684.632784
_symmetry_space_group_name_H-M "P -1"
_symmetry_group_IT_number 2
_symmetry_cell_setting 'triclinic'
loop_
_space_group_symop_operation_xyz
x,y,z
-x,-y,-z
loop_
_atom_site_type_symbol
_atom_site_label
_atom_site_fract_x
_atom_site_fract_y
_atom_site_fract_z
Si Si1 0.212805 0.225776 0.053393
Si Si2 0.933675 0.275000 0.067259
Si Si3 0.263758 0.948380 0.037528
Si Si4 0.654677 0.610500 0.081173
Si Si5 0.589228 0.310851 0.024014
Si Si6 0.222071 0.022331 0.619341
Si Si7 0.054279 0.529426 0.289866
Si Si8 0.418782 0.178459 0.618940
O O1 0.274030 0.245690 0.295008
O O2 0.326197 0.254598 0.060804
O O3 0.051851 0.352921 0.777258
O O4 0.203039 0.049884 0.069298
O O5 0.786925 0.215006 0.949289
O O6 0.969371 0.398006 0.183290
O O7 0.071830 0.118054 0.298899
O O8 0.905440 0.363218 0.834489
O O9 0.195992 0.046471 0.757149
O O10 0.445802 0.914403 0.274487
O O11 0.498292 0.681961 0.933849
O O12 0.789044 0.562025 0.396882
O O13 0.648964 0.465356 0.024768
O O14 0.480021 0.308790 0.737118
O O15 0.736724 0.163900 0.281312
O O16 0.368506 0.076003 0.728112
#
# Coordination Sequence:
#
# PCOD8026630 Si02
#       8
#     2   2   2   2   2   2   2   2
#     4  12  25  42  70 100 138 181 224 286 340 402
#     4  11  25  45  70 103 134 183 233 275 341 408
#     4  11  25  41  72 105 134 177 234 283 327 415
#     4  11  25  44  67 102 140 175 233 279 344 402
#     4  10  24  42  71  98 133 186 223 285 336 409
#     4  11  22  45  71  96 140 183 229 272 345 406
#     4  11  26  45  69  96 145 181 217 289 349 401
#     4  11  23  44  69  99 140 179 228 276 346 399
#
# _framework density 23.370194000000001
#
# number of rings (size 3 to 8) (size 9 to 14) (size 15 to 20)
#    0.000    1.000    1.250    5.625    7.000    4.000 
#    0.000    0.000    0.000    0.000    0.000    0.000 
#    0.000    0.000    0.000    0.000    0.000    0.000 
#
# Total GULP energy -198385.461611 kJ/mol
# GULP energy per Si atom -12399.091351 kJ/mol
# Density = 2.331700 g / cm^3
# Si number density = 23.370194 Si / 1000 Ang^3
#
#
#
# Elastic Constant Matrix: (Units=GPa)
#
#
# Indices 1 2 3 4 5 6 
#
# 1 80.4378 33.8740 5.1963 1.7540 -1.5267 5.4249
# 2 33.8740 115.3810 23.4077 7.4534 -6.5912 -9.0292
# 3 5.1963 23.4077 48.9489 -2.0158 -18.6078 8.7685
# 4 1.7540 7.4534 -2.0158 28.1601 -4.6177 2.0961
# 5 -1.5267 -6.5912 -18.6078 -4.6177 36.0631 -3.0443
# 6 5.4249 -9.0292 8.7685 2.0961 -3.0443 43.4446
#
#
#
# Elastic Compliance Matrix: (Units=1/GPa)
#
#
# Indices 1 2 3 4 5 6 
#
# 1 0.014585 -0.004864 0.001502 0.000776 0.000337 -0.003149
# 2 -0.004864 0.012000 -0.006834 -0.003974 -0.001663 0.004556
# 3 0.001502 -0.006834 0.030793 0.006906 0.014987 -0.007106
# 4 0.000776 -0.003974 0.006906 0.038509 0.007493 -0.003650
# 5 0.000337 -0.001663 0.014987 0.007493 0.036027 -0.001250
# 6 -0.003149 0.004556 -0.007106 -0.003650 -0.001250 0.025881
#
#
# Mechanical properties :
#
#
# Convention : Reuss Voigt Hill
#
# Bulk Modulus (GPa) = 27.03778 41.08041 34.05909
# Shear Modulus (GPa) = 26.24469 33.68622 29.96545
#
# Velocity S-wave (km/s) = 3.35475 3.80072 3.58468
# Velocity P-wave (km/s) = 5.15755 6.07264 5.63370
#
# Compressibility (1/GPa) = 0.03698529
#
# Stress axis : x y z
#
# Youngs Moduli (GPa) = 68.56306 83.33636 32.47510
#
# Poissons Ratio (x) = 0.40534 -0.04877
# Poissons Ratio (y) = 0.33349 0.22193
# Poissons Ratio (z) = -0.10297 0.56952
#
# Static dielectric constant tensor:
#      x y z
#    x 4.245090 0.012090 0.013800 
#    y 0.012090 4.276420 0.018100 
#    z 0.013800 0.018100 3.969860 
# 
# 
# High freq. dielectric constant tensor:
#      x y z
#    x 1.931600 -0.002690 0.003610 
#    y -0.002690 1.928720 -0.002260 
#    z 0.003610 -0.002260 1.909960 
# 
# From -- ./inp_files/244987.got.cif
#   From: 2010.06.25/outbox.cif.g09.slc.cpg/sg2_123_cif.got.tgz:244987.got - 2010.06.27 13:26:56.
