data_PCOD8026577
_publ_section_title
;
Structure prediction by ZEFSAII (Michael W. Deem and Ramdas Pophale) SiO2 
 PCOD8026577
Probable space group: P -1
;
_chemical_formula_sum "Si O2"
_cell_formula_units_Z 16
_cell_length_a 15.079699
_cell_length_b 8.344725
_cell_length_c 15.096134
_cell_angle_alpha 133.084164
_cell_angle_beta 141.535494
_cell_angle_gamma 74.310282
_cell_volume 701.771398
_symmetry_space_group_name_H-M "P -1"
_symmetry_group_IT_number 2
_symmetry_cell_setting 'triclinic'
loop_
_space_group_symop_operation_xyz
x,y,z
-x,-y,-z
loop_
_atom_site_type_symbol
_atom_site_label
_atom_site_fract_x
_atom_site_fract_y
_atom_site_fract_z
Si Si1 0.715244 0.386417 0.492688
Si Si2 0.830706 0.841575 0.629876
Si Si3 0.235590 0.350775 0.994910
Si Si4 0.949658 0.584313 0.282880
Si Si5 0.001310 0.757718 0.575198
Si Si6 0.455427 0.093982 0.586006
Si Si7 0.799314 0.697044 0.853351
Si Si8 0.621002 0.986751 0.828330
O O1 0.702888 0.586839 0.495804
O O2 0.773476 0.499900 0.680968
O O3 0.858281 0.350072 0.549950
O O4 0.514803 0.111184 0.231476
O O5 0.743965 0.000765 0.603143
O O6 0.860129 0.751710 0.524309
O O7 0.005621 0.029427 0.895198
O O8 0.093338 0.339492 0.814855
O O9 0.190159 0.048262 0.850602
O O10 0.424857 0.577215 0.188671
O O11 0.222304 0.436846 0.117045
O O12 0.956048 0.757814 0.436370
O O13 0.804512 0.277862 0.086681
O O14 0.000000 0.500000 0.500000
O O15 0.495988 0.963376 0.645399
O O16 0.500000 0.000000 0.500000
O O17 0.658337 0.765028 0.756581
#
# Coordination Sequence:
#
# PCOD8026577 Si02
#       8
#     2   2   2   2   2   2   2   2
#     4  12  23  39  70  98 135 182 229 271 357 402
#     4  11  24  41  70 101 133 185 231 275 352 407
#     4  10  24  42  69  96 138 179 225 282 353 394
#     4  11  24  44  65  99 136 180 225 291 333 403
#     4  11  22  47  69  95 136 183 236 291 328 402
#     4  11  24  43  66 105 146 173 223 290 345 418
#     4  11  22  41  66  99 139 175 230 282 336 427
#     4  11  24  42  64 100 136 178 227 281 344 408
#
# _framework density 22.799447000000001
#
# number of rings (size 3 to 8) (size 9 to 14) (size 15 to 20)
#    0.000    1.000    2.500    4.125    7.000    0.500 
#    2.250    2.500    0.000    0.000    0.000    0.000 
#    0.000    0.000    0.000    0.000    0.000    0.000 
#
# Total GULP energy -198297.192694 kJ/mol
# GULP energy per Si atom -12393.574543 kJ/mol
# Density = 2.274755 g / cm^3
# Si number density = 22.799447 Si / 1000 Ang^3
#
#
#
# Elastic Constant Matrix: (Units=GPa)
#
#
# Indices 1 2 3 4 5 6 
#
# 1 135.0157 35.9379 47.2497 -4.9922 2.0860 -0.6683
# 2 35.9379 93.2207 27.7376 -10.2540 13.8100 4.2183
# 3 47.2497 27.7376 63.6868 1.1692 16.9063 -2.9083
# 4 -4.9922 -10.2540 1.1692 37.7655 6.3043 7.6584
# 5 2.0860 13.8100 16.9063 6.3043 49.7772 -5.0533
# 6 -0.6683 4.2183 -2.9083 7.6584 -5.0533 41.1354
#
#
#
# Elastic Compliance Matrix: (Units=1/GPa)
#
#
# Indices 1 2 3 4 5 6 
#
# 1 0.010651 -0.002156 -0.007686 0.000597 0.002694 0.000071
# 2 -0.002156 0.013838 -0.003755 0.004766 -0.003384 -0.003023
# 3 -0.007686 -0.003755 0.024923 -0.002010 -0.006687 0.001575
# 4 0.000597 0.004766 -0.002010 0.030174 -0.005184 -0.006876
# 5 0.002694 -0.003384 -0.006687 -0.005184 0.024235 0.003860
# 6 0.000071 -0.003023 0.001575 -0.006876 0.003860 0.026487
#
#
# Mechanical properties :
#
#
# Convention : Reuss Voigt Hill
#
# Bulk Modulus (GPa) = 45.00583 57.08594 51.04589
# Shear Modulus (GPa) = 30.32012 37.80215 34.06114
#
# Velocity S-wave (km/s) = 3.65068 4.07631 3.86935
# Velocity P-wave (km/s) = 6.12803 6.87370 6.51154
#
# Compressibility (1/GPa) = 0.02221934
#
# Stress axis : x y z
#
# Youngs Moduli (GPa) = 93.88894 72.26530 40.12331
#
# Poissons Ratio (x) = 0.15579 0.30838
# Poissons Ratio (y) = 0.20240 0.15065
# Poissons Ratio (z) = 0.72162 0.27133
#
# Static dielectric constant tensor:
#      x y z
#    x 4.109510 0.302380 0.103450 
#    y 0.302380 4.180840 0.153080 
#    z 0.103450 0.153080 4.291960 
# 
# 
# High freq. dielectric constant tensor:
#      x y z
#    x 1.888090 0.023000 0.010100 
#    y 0.023000 1.912750 0.003020 
#    z 0.010100 0.003020 1.900440 
# 
# From -- ./inp_files/529382.got.cif
#   From: 2010.06.25/outbox.cif.g09.slc.cpg/sg2_265_cif.got.tgz:529382.got - 2010.06.27 13:26:56.
