data_PCOD8026210
_publ_section_title
;
Structure prediction by ZEFSAII (Michael W. Deem and Ramdas Pophale) SiO2 
 PCOD8026210
Probable space group: P -1
;
_chemical_formula_sum "Si O2"
_cell_formula_units_Z 16
_cell_length_a 10.602427
_cell_length_b 20.358274
_cell_length_c 11.478381
_cell_angle_alpha 150.657032
_cell_angle_beta 39.037803
_cell_angle_gamma 137.468183
_cell_volume 750.179098
_symmetry_space_group_name_H-M "P -1"
_symmetry_group_IT_number 2
_symmetry_cell_setting 'triclinic'
loop_
_space_group_symop_operation_xyz
x,y,z
-x,-y,-z
loop_
_atom_site_type_symbol
_atom_site_label
_atom_site_fract_x
_atom_site_fract_y
_atom_site_fract_z
Si Si1 0.215727 0.409465 0.498434
Si Si2 0.940742 0.139414 0.221181
Si Si3 0.085356 0.494208 0.299638
Si Si4 0.362435 0.692651 0.259237
Si Si5 0.633650 0.528130 0.273708
Si Si6 0.820315 0.081117 0.957718
Si Si7 0.233934 0.218493 0.775813
Si Si8 0.567475 0.808674 0.646745
O O1 0.091412 0.507193 0.670586
O O2 0.446784 0.441223 0.342458
O O3 0.193850 0.426610 0.680905
O O4 0.140576 0.253321 0.273828
O O5 0.753338 0.182566 0.495689
O O6 0.871553 0.137749 0.135955
O O7 0.000000 0.000000 0.000000
O O8 0.000000 0.500000 0.500000
O O9 0.270044 0.623439 0.341890
O O10 0.165301 0.357386 0.007540
O O11 0.604593 0.750033 0.183919
O O12 0.298635 0.573150 0.025393
O O13 0.573991 0.658705 0.455751
O O14 0.664137 0.165967 0.140249
O O15 0.036204 0.103596 0.769439
O O16 0.717919 0.921017 0.789722
O O17 0.351696 0.165813 0.503338
#
# Coordination Sequence:
#
# PCOD8026210 Si02
#       8
#     2   2   2   2   2   2   2   2
#     4  10  24  40  65  94 134 171 214 269 327 394
#     4  11  23  44  66  90 128 177 215 267 335 388
#     4  11  22  36  64  99 130 171 214 268 333 378
#     4  11  23  39  67  98 128 165 224 275 316 400
#     4  11  22  43  63  98 131 169 217 271 329 384
#     4  11  24  43  65  96 136 172 221 274 319 391
#     4  12  22  40  66 100 131 167 224 271 327 383
#     4  11  24  42  69  94 133 178 218 269 329 389
#
# _framework density 21.328239
#
# number of rings (size 3 to 8) (size 9 to 14) (size 15 to 20)
#    0.000    1.000    2.500    5.250    1.750    2.000 
#    2.250    2.500    0.000    0.000    0.000    0.000 
#    0.000    0.000    0.000    0.000    0.000    0.000 
#
# Total GULP energy -198375.377256 kJ/mol
# GULP energy per Si atom -12398.461079 kJ/mol
# Density = 2.127969 g / cm^3
# Si number density = 21.328239 Si / 1000 Ang^3
#
#
#
# Elastic Constant Matrix: (Units=GPa)
#
#
# Indices 1 2 3 4 5 6 
#
# 1 128.0804 51.6738 42.7167 8.6565 9.3478 10.4156
# 2 51.6738 90.3641 46.6386 3.5531 -2.9467 15.5907
# 3 42.7167 46.6386 113.1579 16.5868 1.1501 -0.2297
# 4 8.6565 3.5531 16.5868 40.2482 -3.9268 -3.9117
# 5 9.3478 -2.9467 1.1501 -3.9268 39.3047 4.0798
# 6 10.4156 15.5907 -0.2297 -3.9117 4.0798 34.8538
#
#
#
# Elastic Compliance Matrix: (Units=1/GPa)
#
#
# Indices 1 2 3 4 5 6 
#
# 1 0.010875 -0.005263 -0.001680 -0.001546 -0.003011 -0.000728
# 2 -0.005263 0.018355 -0.005867 0.001615 0.003680 -0.006926
# 3 -0.001680 -0.005867 0.012508 -0.004105 -0.001115 0.002879
# 4 -0.001546 0.001615 -0.004105 0.027262 0.003082 0.002411
# 5 -0.003011 0.003680 -0.001115 0.003082 0.027147 -0.003585
# 6 -0.000728 -0.006926 0.002879 0.002411 -0.003585 0.032716
#
#
# Mechanical properties :
#
#
# Convention : Reuss Voigt Hill
#
# Bulk Modulus (GPa) = 62.04107 68.18452 65.11279
# Shear Modulus (GPa) = 31.27796 35.58623 33.43209
#
# Velocity S-wave (km/s) = 3.83365 4.08916 3.96347
# Velocity P-wave (km/s) = 6.98195 7.37113 7.17918
#
# Compressibility (1/GPa) = 0.01611835
#
# Stress axis : x y z
#
# Youngs Moduli (GPa) = 91.95522 54.47976 79.94750
#
# Poissons Ratio (x) = 0.28675 0.13432
# Poissons Ratio (y) = 0.48400 0.46902
# Poissons Ratio (z) = 0.15449 0.31961
#
# Static dielectric constant tensor:
#      x y z
#    x 4.072120 0.184650 0.103100 
#    y 0.184650 3.856400 -0.050440 
#    z 0.103100 -0.050440 3.980510 
# 
# 
# High freq. dielectric constant tensor:
#      x y z
#    x 1.842570 0.018410 0.002620 
#    y 0.018410 1.825900 -0.000060 
#    z 0.002620 -0.000060 1.846080 
# 
# From -- ./inp_files/438706.got.cif
#   From: 2010.06.25/outbox.cif.g09.slc.cpg/sg2_220_cif.got.tgz:438706.got - 2010.06.27 13:26:56.
