data_PCOD8026749
_publ_section_title
;
Structure prediction by ZEFSAII (Michael W. Deem and Ramdas Pophale) SiO2 
 PCOD8026749
Probable space group: P -1
;
_chemical_formula_sum "Si O2"
_cell_formula_units_Z 16
_cell_length_a 19.205735
_cell_length_b 12.463335
_cell_length_c 8.980809
_cell_angle_alpha 46.797335
_cell_angle_beta 74.158061
_cell_angle_gamma 36.036076
_cell_volume 697.112680
_symmetry_space_group_name_H-M "P -1"
_symmetry_group_IT_number 2
_symmetry_cell_setting 'triclinic'
loop_
_space_group_symop_operation_xyz
x,y,z
-x,-y,-z
loop_
_atom_site_type_symbol
_atom_site_label
_atom_site_fract_x
_atom_site_fract_y
_atom_site_fract_z
Si Si1 0.315409 0.330192 0.809215
Si Si2 0.040045 0.846583 0.275935
Si Si3 0.655852 0.035725 0.746635
Si Si4 0.745333 0.438492 0.068225
Si Si5 0.510351 0.339739 0.041456
Si Si6 0.348294 0.736757 0.222027
Si Si7 0.743365 0.760470 0.653651
Si Si8 0.973595 0.708358 0.260267
O O1 0.218663 0.551545 0.507414
O O2 0.261469 0.539033 0.771121
O O3 0.500000 0.000000 0.000000
O O4 0.274457 0.235163 0.960450
O O5 0.017830 0.716803 0.374249
O O6 0.924326 0.097830 0.237936
O O7 0.000000 0.000000 0.000000
O O8 0.464293 0.389957 0.517473
O O9 0.713751 0.074695 0.768364
O O10 0.720100 0.919915 0.649875
O O11 0.646785 0.474859 0.037429
O O12 0.682055 0.708210 0.783135
O O13 0.648485 0.984372 0.352568
O O14 0.500000 0.500000 0.000000
O O15 0.550982 0.319980 0.870337
O O16 0.205118 0.936350 0.018519
O O17 0.924324 0.431741 0.810802
O O18 0.000000 0.500000 0.500000
#
# Coordination Sequence:
#
# PCOD8026749 Si02
#       8
#     2   2   2   2   2   2   2   2
#     4  11  26  46  72 102 145 190 240 287 362 427
#     4  12  27  47  71 106 143 187 242 295 356 428
#     4  10  24  43  66  99 142 183 243 290 348 434
#     4  11  26  45  72 100 146 189 232 300 354 430
#     4  12  23  43  71 106 142 181 243 289 357 425
#     4  11  23  43  68 101 141 190 236 292 360 420
#     4  11  24  43  66 106 141 186 239 293 358 422
#     4  12  25  43  72 102 147 182 236 301 357 414
#
# _framework density 22.951812
#
# number of rings (size 3 to 8) (size 9 to 14) (size 15 to 20)
#    0.000    0.750    3.750    3.000    3.500    1.500 
#    0.000    0.000    0.000    0.000    0.000    0.000 
#    0.000    0.000    0.000    0.000    0.000    0.000 
#
# Total GULP energy -198383.959937 kJ/mol
# GULP energy per Si atom -12398.997496 kJ/mol
# Density = 2.289957 g / cm^3
# Si number density = 22.951812 Si / 1000 Ang^3
#
#
#
# Elastic Constant Matrix: (Units=GPa)
#
#
# Indices 1 2 3 4 5 6 
#
# 1 116.5684 40.4479 41.9610 -1.9861 9.0482 11.8699
# 2 40.4479 133.7316 28.5665 -7.0268 16.2720 18.4146
# 3 41.9610 28.5665 133.4934 -0.8838 23.6501 0.4571
# 4 -1.9861 -7.0268 -0.8838 31.2090 -3.7060 0.2780
# 5 9.0482 16.2720 23.6501 -3.7060 38.2046 -4.4869
# 6 11.8699 18.4146 0.4571 0.2780 -4.4869 43.2130
#
#
#
# Elastic Compliance Matrix: (Units=1/GPa)
#
#
# Indices 1 2 3 4 5 6 
#
# 1 0.010600 -0.002341 -0.002828 0.000087 0.000025 -0.001882
# 2 -0.002341 0.009313 -0.000652 0.001572 -0.003287 -0.003670
# 3 -0.002828 -0.000652 0.009376 -0.000643 -0.004865 0.000454
# 4 0.000087 0.001572 -0.000643 0.032722 0.002811 -0.000606
# 5 0.000025 -0.003287 -0.004865 0.002811 0.031404 0.004688
# 6 -0.001882 -0.003670 0.000454 -0.000606 0.004688 0.025708
#
#
# Mechanical properties :
#
#
# Convention : Reuss Voigt Hill
#
# Bulk Modulus (GPa) = 56.66882 67.30490 61.98686
# Shear Modulus (GPa) = 36.59029 40.71317 38.65173
#
# Velocity S-wave (km/s) = 3.99710 4.21628 4.10816
# Velocity P-wave (km/s) = 6.78575 7.28635 7.04050
#
# Compressibility (1/GPa) = 0.01764639
#
# Stress axis : x y z
#
# Youngs Moduli (GPa) = 94.33624 107.37799 106.65903
#
# Poissons Ratio (x) = 0.25140 0.30167
# Poissons Ratio (y) = 0.22087 0.06950
# Poissons Ratio (z) = 0.26682 0.06997
#
# Static dielectric constant tensor:
#      x y z
#    x 4.951630 0.891710 0.313190 
#    y 0.891710 5.020720 0.484860 
#    z 0.313190 0.484860 4.570460 
# 
# 
# High freq. dielectric constant tensor:
#      x y z
#    x 1.902150 0.017220 -0.008640 
#    y 0.017220 1.909040 -0.001000 
#    z -0.008640 -0.001000 1.912670 
# 
# From -- ./inp_files/332889.got.cif
#   From: 2010.06.25/outbox.cif.g09.slc.cpg/sg2_167_cif.got.tgz:332889.got - 2010.06.27 13:26:56.
