data_PCOD8026733
_publ_section_title
;
Structure prediction by ZEFSAII (Michael W. Deem and Ramdas Pophale) SiO2 
 PCOD8026733
Probable space group: P -1
;
_chemical_formula_sum "Si O2"
_cell_formula_units_Z 14
_cell_length_a 19.003123
_cell_length_b 11.609562
_cell_length_c 13.883071
_cell_angle_alpha 44.695745
_cell_angle_beta 145.458112
_cell_angle_gamma 159.160264
_cell_volume 590.835025
_symmetry_space_group_name_H-M "P -1"
_symmetry_group_IT_number 2
_symmetry_cell_setting 'triclinic'
loop_
_space_group_symop_operation_xyz
x,y,z
-x,-y,-z
loop_
_atom_site_type_symbol
_atom_site_label
_atom_site_fract_x
_atom_site_fract_y
_atom_site_fract_z
Si Si1 0.528513 0.798818 0.754387
Si Si2 0.773153 0.156358 0.006670
Si Si3 0.243819 0.184686 0.701343
Si Si4 0.742891 0.982149 0.522177
Si Si5 0.905899 0.529281 0.093470
Si Si6 0.861741 0.408494 0.526716
Si Si7 0.379512 0.477361 0.244757
O O1 0.419309 0.495195 0.785583
O O2 0.326524 0.705533 0.547226
O O3 0.804072 0.136039 0.817038
O O4 0.542088 0.844546 0.858719
O O5 0.706964 0.209415 0.985918
O O6 0.864686 0.093826 0.196223
O O7 0.000000 0.500000 0.000000
O O8 0.404254 0.310405 0.715710
O O9 0.000000 0.000000 0.500000
O O10 0.689454 0.080837 0.467595
O O11 0.000812 0.303302 0.560369
O O12 0.497910 0.676212 0.360170
O O13 0.780039 0.870949 0.702578
O O14 0.916255 0.433778 0.259201
O O15 0.811961 0.604921 0.963088
#
# Coordination Sequence:
#
# PCOD8026733 Si02
#       7
#     2   2   2   2   2   2   2
#     4  11  24  42  68  98 133 172 217 267 323 386
#     4  10  24  43  67  97 131 169 215 267 323 384
#     4  12  26  45  69  96 131 173 218 269 324 387
#     4  10  24  43  66  93 130 172 215 268 323 384
#     4  11  24  43  68  98 132 171 217 270 323 383
#     4  11  23  42  68  97 129 170 220 267 321 381
#     4  11  25  44  65  94 132 172 216 265 325 386
#
# _framework density 23.695278999999999
#
# number of rings (size 3 to 8) (size 9 to 14) (size 15 to 20)
#    0.000    1.143    0.000    5.143    0.000   18.286 
#    0.000    0.000    0.000    0.000    0.000    0.000 
#    0.000    0.000    0.000    0.000    0.000    0.000 
#
# Total GULP energy -173588.036948 kJ/mol
# GULP energy per Si atom -12399.145496 kJ/mol
# Density = 2.364135 g / cm^3
# Si number density = 23.695279 Si / 1000 Ang^3
#
#
#
# Elastic Constant Matrix: (Units=GPa)
#
#
# Indices 1 2 3 4 5 6 
#
# 1 102.7657 34.2230 40.0841 -11.3250 9.5397 1.4117
# 2 34.2230 121.5136 38.1496 -29.0978 -4.9354 -3.7373
# 3 40.0841 38.1496 122.6623 -30.9247 15.2438 16.6337
# 4 -11.3250 -29.0978 -30.9247 40.7172 -5.1478 -5.2991
# 5 9.5397 -4.9354 15.2438 -5.1478 47.1763 4.8369
# 6 1.4117 -3.7373 16.6337 -5.2991 4.8369 31.0000
#
#
#
# Elastic Compliance Matrix: (Units=1/GPa)
#
#
# Indices 1 2 3 4 5 6 
#
# 1 0.011920 -0.002658 -0.003265 -0.001172 -0.001862 0.000979
# 2 -0.002658 0.011356 -0.001703 0.006834 0.002698 0.003151
# 3 -0.003265 -0.001703 0.012322 0.006263 -0.002279 -0.005242
# 4 -0.001172 0.006834 0.006263 0.034573 0.002388 0.003054
# 5 -0.001862 0.002698 -0.002279 0.002388 0.023011 -0.001550
# 6 0.000979 0.003151 -0.005242 0.003054 -0.001550 0.036170
#
#
# Mechanical properties :
#
#
# Convention : Reuss Voigt Hill
#
# Bulk Modulus (GPa) = 49.15236 63.53946 56.34591
# Shear Modulus (GPa) = 33.02779 39.41102 36.21940
#
# Velocity S-wave (km/s) = 3.73749 4.08271 3.91391
# Velocity P-wave (km/s) = 6.27803 7.00701 6.65251
#
# Compressibility (1/GPa) = 0.02034490
#
# Stress axis : x y z
#
# Youngs Moduli (GPa) = 83.89275 88.06135 81.15374
#
# Poissons Ratio (x) = 0.23408 0.26501
# Poissons Ratio (y) = 0.22300 0.13820
# Poissons Ratio (z) = 0.27395 0.14996
#
# Static dielectric constant tensor:
#      x y z
#    x 4.499500 -0.421460 -0.351510 
#    y -0.421460 4.435310 -0.149630 
#    z -0.351510 -0.149630 4.326830 
# 
# 
# High freq. dielectric constant tensor:
#      x y z
#    x 1.942380 -0.018770 -0.009570 
#    y -0.018770 1.948350 -0.010050 
#    z -0.009570 -0.010050 1.936620 
# 
# From -- ./inp_files/185161.got.cif
#   From: 2010.06.25/outbox.cif.g09.slc.cpg/sg2_93_cif.got.tgz:185161.got - 2010.06.27 13:26:56.
