data_PCOD8026410
_publ_section_title
;
Structure prediction by ZEFSAII (Michael W. Deem and Ramdas Pophale) SiO2 
 PCOD8026410
Probable space group: P -1
;
_chemical_formula_sum "Si O2"
_cell_formula_units_Z 16
_cell_length_a 14.597279
_cell_length_b 9.246080
_cell_length_c 8.397363
_cell_angle_alpha 78.560499
_cell_angle_beta 65.258841
_cell_angle_gamma 120.381308
_cell_volume 756.697599
_symmetry_space_group_name_H-M "P -1"
_symmetry_group_IT_number 2
_symmetry_cell_setting 'triclinic'
loop_
_space_group_symop_operation_xyz
x,y,z
-x,-y,-z
loop_
_atom_site_type_symbol
_atom_site_label
_atom_site_fract_x
_atom_site_fract_y
_atom_site_fract_z
Si Si1 0.997172 0.874760 0.667636
Si Si2 0.518853 0.118104 0.695563
Si Si3 0.302206 0.385606 0.048524
Si Si4 0.726389 0.525636 0.601686
Si Si5 0.985217 0.314375 0.568321
Si Si6 0.485621 0.199890 0.354699
Si Si7 0.730744 0.943562 0.005773
Si Si8 0.244026 0.154618 0.646084
O O1 0.847229 0.717601 0.882214
O O2 0.041147 0.765895 0.574950
O O3 0.095991 0.004800 0.711240
O O4 0.000000 0.000000 0.500000
O O5 0.639232 0.296658 0.677348
O O6 0.539519 0.194003 0.485060
O O7 0.379076 0.036837 0.889951
O O8 0.522247 0.943167 0.733934
O O9 0.319773 0.443671 0.207060
O O10 0.410427 0.576883 0.825708
O O11 0.322996 0.228851 0.045578
O O12 0.881303 0.629721 0.469529
O O13 0.700697 0.625248 0.463854
O O14 0.000000 0.500000 0.500000
O O15 0.863764 0.154985 0.806767
O O16 0.338801 0.128861 0.493525
O O17 0.764586 0.886595 0.153081
#
# Coordination Sequence:
#
# PCOD8026410 Si02
#       8
#     2   2   2   2   2   2   2   2
#     4  11  21  44  62  93 128 160 203 261 307 369
#     4  10  24  43  59  92 131 162 211 252 318 370
#     4  11  22  40  64  94 121 165 207 254 313 359
#     4  11  23  41  64  96 124 165 207 259 310 371
#     4  11  25  42  63  92 131 163 203 259 315 371
#     4  10  24  42  62  90 129 167 203 266 304 371
#     4  11  23  41  67  94 122 169 207 259 309 371
#     4  11  22  41  68  93 124 162 216 253 310 368
#
# _framework density 21.144511000000001
#
# number of rings (size 3 to 8) (size 9 to 14) (size 15 to 20)
#    0.000    1.250    3.750    1.500    5.250    8.500 
#    0.000    0.625    0.000    0.000    0.000    0.000 
#    0.000    0.000    0.000    0.000    0.000    0.000 
#
# Total GULP energy -198446.919014 kJ/mol
# GULP energy per Si atom -12402.932438 kJ/mol
# Density = 2.109639 g / cm^3
# Si number density = 21.144511 Si / 1000 Ang^3
#
#
#
# Elastic Constant Matrix: (Units=GPa)
#
#
# Indices 1 2 3 4 5 6 
#
# 1 51.7314 34.0137 21.5715 -5.2172 -3.8192 -7.1400
# 2 34.0137 147.0527 44.9225 -0.2164 -6.6502 -15.1177
# 3 21.5715 44.9225 116.8452 -9.8249 -11.7450 -9.7947
# 4 -5.2172 -0.2164 -9.8249 31.2138 -6.8286 -4.4234
# 5 -3.8192 -6.6502 -11.7450 -6.8286 21.9412 -4.5705
# 6 -7.1400 -15.1177 -9.7947 -4.4234 -4.5705 45.1374
#
#
#
# Elastic Compliance Matrix: (Units=1/GPa)
#
#
# Indices 1 2 3 4 5 6 
#
# 1 0.024222 -0.004621 -0.001659 0.004764 0.003992 0.002795
# 2 -0.004621 0.008804 -0.002434 -0.001125 0.000552 0.001635
# 3 -0.001659 -0.002434 0.011158 0.005129 0.007076 0.002563
# 4 0.004764 -0.001125 0.005129 0.039129 0.016877 0.007033
# 5 0.003992 0.000552 0.007076 0.016877 0.057526 0.009831
# 6 0.002795 0.001635 0.002563 0.007033 0.009831 0.025385
#
#
# Mechanical properties :
#
#
# Convention : Reuss Voigt Hill
#
# Bulk Modulus (GPa) = 37.37476 57.40497 47.38987
# Shear Modulus (GPa) = 25.96466 33.99993 29.98230
#
# Velocity S-wave (km/s) = 3.50803 4.01431 3.76968
# Velocity P-wave (km/s) = 5.84146 6.97811 6.43493
#
# Compressibility (1/GPa) = 0.02675603
#
# Stress axis : x y z
#
# Youngs Moduli (GPa) = 41.28559 113.58493 89.62412
#
# Poissons Ratio (x) = 0.52486 0.14869
# Poissons Ratio (y) = 0.19077 0.21812
# Poissons Ratio (z) = 0.06849 0.27644
#
# Static dielectric constant tensor:
#      x y z
#    x 3.785470 0.045030 -0.088960 
#    y 0.045030 4.698480 0.339800 
#    z -0.088960 0.339800 4.015710 
# 
# 
# High freq. dielectric constant tensor:
#      x y z
#    x 1.820170 -0.004680 -0.013320 
#    y -0.004680 1.843670 0.000790 
#    z -0.013320 0.000790 1.834680 
# 
# From -- ./inp_files/190835.got.cif
#   From: 2010.06.25/outbox.cif.g09.slc.cpg/sg2_96_cif.got.tgz:190835.got - 2010.06.27 13:26:56.
