data_PCOD8026152
_publ_section_title
;
Structure prediction by ZEFSAII (Michael W. Deem and Ramdas Pophale) SiO2 
 PCOD8026152
Probable space group: P -1
;
_chemical_formula_sum "Si O2"
_cell_formula_units_Z 14
_cell_length_a 25.244143
_cell_length_b 16.183599
_cell_length_c 8.114098
_cell_angle_alpha 33.889913
_cell_angle_beta 136.182554
_cell_angle_gamma 157.951507
_cell_volume 675.501115
_symmetry_space_group_name_H-M "P -1"
_symmetry_group_IT_number 2
_symmetry_cell_setting 'triclinic'
loop_
_space_group_symop_operation_xyz
x,y,z
-x,-y,-z
loop_
_atom_site_type_symbol
_atom_site_label
_atom_site_fract_x
_atom_site_fract_y
_atom_site_fract_z
Si Si1 0.647260 0.164018 0.112899
Si Si2 0.757796 0.647550 0.132908
Si Si3 0.174446 0.024862 0.521240
Si Si4 0.652750 0.427286 0.925478
Si Si5 0.477776 0.302201 0.203236
Si Si6 0.644253 0.951247 0.015447
Si Si7 0.852763 0.510094 0.694035
O O1 0.706644 0.372952 0.039042
O O2 0.623719 0.962291 0.469040
O O3 0.768518 0.345405 0.946894
O O4 0.500000 0.000000 0.000000
O O5 0.670790 0.417424 0.175003
O O6 0.638182 0.495655 0.249920
O O7 0.867724 0.710641 0.356220
O O8 0.836461 0.922635 0.776431
O O9 0.283239 0.066150 0.696037
O O10 0.243160 0.262838 0.402504
O O11 0.015445 0.714926 0.738152
O O12 0.484228 0.199519 0.903515
O O13 0.500000 0.500000 0.000000
O O14 0.412116 0.194661 0.048313
O O15 0.766496 0.281028 0.734738
#
# Coordination Sequence:
#
# PCOD8026152 Si02
#       7
#     2   2   2   2   2   2   2
#     4  12  23  38  64  95 125 161 208 263 305 367
#     4   9  21  40  65  88 122 165 208 252 302 373
#     4  10  24  39  66  94 126 170 206 251 312 376
#     4   9  21  39  65  91 124 159 218 244 309 361
#     4  11  25  40  65  96 122 161 214 265 311 363
#     4  11  22  41  66  89 126 167 212 258 303 371
#     4  12  23  40  65  95 131 164 205 256 316 369
#
# _framework density 20.725352999999998
#
# number of rings (size 3 to 8) (size 9 to 14) (size 15 to 20)
#    0.857    0.571    2.857    2.143    4.000    2.857 
#    0.000    0.714    0.000    0.000    0.000    0.000 
#    0.000    0.000    0.000    0.000    0.000    0.000 
#
# Total GULP energy -173481.866116 kJ/mol
# GULP energy per Si atom -12391.561865 kJ/mol
# Density = 2.067818 g / cm^3
# Si number density = 20.725353 Si / 1000 Ang^3
#
#
#
# Elastic Constant Matrix: (Units=GPa)
#
#
# Indices 1 2 3 4 5 6 
#
# 1 93.1669 28.4452 40.2294 -6.1778 7.4976 -2.1269
# 2 28.4452 85.0942 26.5228 -17.4357 2.1351 14.1071
# 3 40.2294 26.5228 115.4834 -2.8450 5.1761 6.1868
# 4 -6.1778 -17.4357 -2.8450 33.3923 3.0945 1.7308
# 5 7.4976 2.1351 5.1761 3.0945 35.2346 -8.0105
# 6 -2.1269 14.1071 6.1868 1.7308 -8.0105 24.7487
#
#
#
# Elastic Compliance Matrix: (Units=1/GPa)
#
#
# Indices 1 2 3 4 5 6 
#
# 1 0.013921 -0.004030 -0.004092 0.000017 -0.001179 0.004134
# 2 -0.004030 0.017502 -0.001611 0.009178 -0.003426 -0.011671
# 3 -0.004092 -0.001611 0.010622 -0.000466 -0.001099 -0.002412
# 4 0.000017 0.009178 -0.000466 0.035731 -0.005786 -0.009485
# 5 -0.001179 -0.003426 -0.001099 -0.005786 0.032474 0.013042
# 6 0.004134 -0.011671 -0.002412 -0.009485 0.013042 0.052902
#
#
# Mechanical properties :
#
#
# Convention : Reuss Voigt Hill
#
# Bulk Modulus (GPa) = 44.28923 53.79326 49.04124
# Shear Modulus (GPa) = 26.29569 31.91161 29.10365
#
# Velocity S-wave (km/s) = 3.56584 3.92821 3.75140
# Velocity P-wave (km/s) = 6.19432 6.82540 6.51750
#
# Compressibility (1/GPa) = 0.02257885
#
# Stress axis : x y z
#
# Youngs Moduli (GPa) = 71.83225 57.13479 94.14646
#
# Poissons Ratio (x) = 0.23027 0.38526
# Poissons Ratio (y) = 0.28951 0.15165
# Poissons Ratio (z) = 0.29395 0.09203
#
# Static dielectric constant tensor:
#      x y z
#    x 3.765300 -0.031800 0.168570 
#    y -0.031800 3.543170 -0.058000 
#    z 0.168570 -0.058000 3.721140 
# 
# 
# High freq. dielectric constant tensor:
#      x y z
#    x 1.803890 0.004780 0.013210 
#    y 0.004780 1.792490 -0.003550 
#    z 0.013210 -0.003550 1.812640 
# 
# From -- ./inp_files/357584.got.cif
#   From: 2010.06.25/outbox.cif.g09.slc.cpg/sg2_179_cif.got.tgz:357584.got - 2010.06.27 13:26:56.
