data_PCOD8026626
_publ_section_title
;
Structure prediction by ZEFSAII (Michael W. Deem and Ramdas Pophale) SiO2 
 PCOD8026626
Probable space group: P -1
;
_chemical_formula_sum "Si O2"
_cell_formula_units_Z 12
_cell_length_a 4.815229
_cell_length_b 18.638597
_cell_length_c 15.181683
_cell_angle_alpha 157.156514
_cell_angle_beta 106.998497
_cell_angle_gamma 85.434175
_cell_volume 434.736967
_symmetry_space_group_name_H-M "P -1"
_symmetry_group_IT_number 2
_symmetry_cell_setting 'triclinic'
loop_
_space_group_symop_operation_xyz
x,y,z
-x,-y,-z
loop_
_atom_site_type_symbol
_atom_site_label
_atom_site_fract_x
_atom_site_fract_y
_atom_site_fract_z
Si Si1 0.283905 0.078359 0.188407
Si Si2 0.300699 0.680065 0.787925
Si Si3 0.279208 0.906085 0.507604
Si Si4 0.814316 0.561822 0.758365
Si Si5 0.811108 0.799499 0.495553
Si Si6 0.702637 0.677956 0.065658
O O1 0.614778 0.303733 0.448997
O O2 0.121546 0.094908 0.283170
O O3 0.000000 0.000000 0.000000
O O4 0.409889 0.909703 0.016780
O O5 0.179109 0.653719 0.849655
O O6 0.000000 0.500000 0.500000
O O7 0.617144 0.646009 0.774813
O O8 0.588748 0.864445 0.487379
O O9 0.170766 0.896096 0.589046
O O10 0.965468 0.716865 0.211531
O O11 0.386305 0.133932 0.731096
O O12 0.874990 0.663396 0.975285
O O13 0.644210 0.543402 0.198532
#
# Coordination Sequence:
#
# PCOD8026626 Si02
#       6
#     2   2   2   2   2   2
#     4  11  25  44  68  97 130 176 218 266 324 384
#     4  12  25  44  67  93 134 172 215 270 321 378
#     4  11  24  44  68  98 131 171 215 266 325 384
#     4  11  26  45  65 100 132 169 217 268 321 386
#     4  11  25  44  65  98 134 169 216 270 319 383
#     4  10  24  42  71  97 131 172 215 264 325 388
#
# _framework density 27.602900000000002
#
# number of rings (size 3 to 8) (size 9 to 14) (size 15 to 20)
#    0.000    1.000    1.667    3.500    0.000   12.667 
#    0.000    0.000    0.000    0.000    0.000    0.000 
#    0.000    0.000    0.000    0.000    0.000    0.000 
#
# Total GULP energy -148944.536202 kJ/mol
# GULP energy per Si atom -12412.044684 kJ/mol
# Density = 2.754007 g / cm^3
# Si number density = 27.602900 Si / 1000 Ang^3
#
#
#
# Elastic Constant Matrix: (Units=GPa)
#
#
# Indices 1 2 3 4 5 6 
#
# 1 63.7279 -6.7888 -2.7268 12.8391 5.9855 6.6344
# 2 -6.7888 101.5233 31.4040 7.2308 -1.5480 -3.0534
# 3 -2.7268 31.4040 130.8969 30.5838 -11.0316 -16.1772
# 4 12.8391 7.2308 30.5838 64.7561 -2.3405 2.6649
# 5 5.9855 -1.5480 -11.0316 -2.3405 27.3281 0.5104
# 6 6.6344 -3.0534 -16.1772 2.6649 0.5104 15.9693
#
#
#
# Elastic Compliance Matrix: (Units=1/GPa)
#
#
# Indices 1 2 3 4 5 6 
#
# 1 0.017563 0.001249 -0.000324 -0.003340 -0.004068 -0.006699
# 2 0.001249 0.010740 -0.002729 -0.000137 -0.000756 -0.001182
# 3 -0.000324 -0.002729 0.011316 -0.005325 0.003807 0.011844
# 4 -0.003340 -0.000137 -0.005325 0.018944 0.000331 -0.007205
# 5 -0.004068 -0.000756 0.003807 0.000331 0.038929 0.004103
# 6 -0.006699 -0.001182 0.011844 -0.007205 0.004103 0.078246
#
#
# Mechanical properties :
#
#
# Convention : Reuss Voigt Hill
#
# Bulk Modulus (GPa) = 27.76815 37.76945 32.76880
# Shear Modulus (GPa) = 26.13010 39.89465 33.01237
#
# Velocity S-wave (km/s) = 3.08009 3.80584 3.46204
# Velocity P-wave (km/s) = 4.76771 5.74678 5.27998
#
# Compressibility (1/GPa) = 0.03601249
#
# Stress axis : x y z
#
# Youngs Moduli (GPa) = 56.93717 93.10847 88.36775
#
# Poissons Ratio (x) = -0.11630 0.02864
# Poissons Ratio (y) = -0.07112 0.24112
# Poissons Ratio (z) = 0.01845 0.25405
#
# Static dielectric constant tensor:
#      x y z
#    x 4.666970 0.047290 -0.197970 
#    y 0.047290 5.370370 -0.049280 
#    z -0.197970 -0.049280 5.535030 
# 
# 
# High freq. dielectric constant tensor:
#      x y z
#    x 2.102100 -0.008300 0.002580 
#    y -0.008300 2.131020 -0.003010 
#    z 0.002580 -0.003010 2.137750 
# 
# From -- ./inp_files/478384.got.cif
#   From: 2010.06.25/outbox.cif.g09.slc.cpg/sg2_240_cif.got.tgz:478384.got - 2010.06.27 13:26:56.
