data_PCOD8026708
_publ_section_title
;
Structure prediction by ZEFSAII (Michael W. Deem and Ramdas Pophale) SiO2 
 PCOD8026708
Probable space group: P -1
;
_chemical_formula_sum "Si O2"
_cell_formula_units_Z 16
_cell_length_a 27.344849
_cell_length_b 18.249656
_cell_length_c 5.100668
_cell_angle_alpha 105.522612
_cell_angle_beta 112.936516
_cell_angle_gamma 18.784592
_cell_volume 709.408124
_symmetry_space_group_name_H-M "P -1"
_symmetry_group_IT_number 2
_symmetry_cell_setting 'triclinic'
loop_
_space_group_symop_operation_xyz
x,y,z
-x,-y,-z
loop_
_atom_site_type_symbol
_atom_site_label
_atom_site_fract_x
_atom_site_fract_y
_atom_site_fract_z
Si Si1 0.642137 0.471970 0.302351
Si Si2 0.110290 0.082039 0.283616
Si Si3 0.638189 0.998797 0.254438
Si Si4 0.699903 0.549083 0.304769
Si Si5 0.035683 0.025441 0.260411
Si Si6 0.172427 0.312003 0.149012
Si Si7 0.912791 0.397893 0.680240
Si Si8 0.566745 0.265456 0.378662
O O1 0.638287 0.570345 0.411281
O O2 0.516311 0.612012 0.393671
O O3 0.827356 0.183327 0.433939
O O4 0.581560 0.527863 0.945008
O O5 0.107864 0.994208 0.198074
O O6 0.985510 0.287542 0.435859
O O7 0.302398 0.845280 0.507847
O O8 0.058403 0.181738 0.984940
O O9 0.667646 0.049088 0.353944
O O10 0.685744 0.905770 0.554444
O O11 0.443641 0.242088 0.015533
O O12 0.761009 0.792602 0.103767
O O13 0.753450 0.557305 0.548648
O O14 0.862793 0.288025 0.273371
O O15 0.000000 0.000000 0.000000
O O16 0.146866 0.435730 0.250887
O O17 0.000000 0.500000 0.000000
#
# Coordination Sequence:
#
# PCOD8026708 Si02
#       8
#     2   2   2   2   2   2   2   2
#     4  11  23  40  66  93 126 169 212 264 312 371
#     4  11  24  42  66  93 129 171 209 262 318 371
#     4  11  23  40  65  92 125 167 206 257 314 371
#     4  10  24  43  65  94 130 169 211 257 317 377
#     4  11  23  42  68  94 128 169 215 260 312 377
#     4  12  24  41  66  94 125 163 211 259 311 377
#     4  11  24  42  65  94 129 168 211 260 316 376
#     4  11  23  42  64  94 131 166 213 261 317 374
#
# _framework density 22.554015
#
# number of rings (size 3 to 8) (size 9 to 14) (size 15 to 20)
#    0.000    1.000    0.000    7.500    0.000    9.000 
#    0.000    0.000    0.000    0.000    0.000    0.000 
#    0.000    0.000    0.000    0.000    0.000    0.000 
#
# Total GULP energy -198464.762546 kJ/mol
# GULP energy per Si atom -12404.047659 kJ/mol
# Density = 2.250268 g / cm^3
# Si number density = 22.554015 Si / 1000 Ang^3
#
#
#
# Elastic Constant Matrix: (Units=GPa)
#
#
# Indices 1 2 3 4 5 6 
#
# 1 117.9983 43.5137 41.7668 -8.2071 18.2988 12.4989
# 2 43.5137 59.6622 22.7112 -13.1052 15.0571 14.0700
# 3 41.7668 22.7112 92.7011 -21.0109 -4.5027 14.5292
# 4 -8.2071 -13.1052 -21.0109 44.8056 1.5740 -2.4257
# 5 18.2988 15.0571 -4.5027 1.5740 40.0356 -0.6325
# 6 12.4989 14.0700 14.5292 -2.4257 -0.6325 39.2811
#
#
#
# Elastic Compliance Matrix: (Units=1/GPa)
#
#
# Indices 1 2 3 4 5 6 
#
# 1 0.013351 -0.007341 -0.004814 -0.001826 -0.003811 -0.000012
# 2 -0.007341 0.027404 -0.001370 0.005925 -0.007444 -0.006727
# 3 -0.004814 -0.001370 0.015256 0.005551 0.004162 -0.003210
# 4 -0.001826 0.005925 0.005551 0.026276 -0.001834 -0.002002
# 5 -0.003811 -0.007444 0.004162 -0.001834 0.030102 0.002711
# 6 -0.000012 -0.006727 -0.003210 -0.002002 0.002711 0.028978
#
#
# Mechanical properties :
#
#
# Convention : Reuss Voigt Hill
#
# Bulk Modulus (GPa) = 34.53144 54.03832 44.28488
# Shear Modulus (GPa) = 28.07857 35.64913 31.86385
#
# Velocity S-wave (km/s) = 3.53221 3.98000 3.76277
# Velocity P-wave (km/s) = 5.65501 6.71804 6.20932
#
# Compressibility (1/GPa) = 0.02895912
#
# Stress axis : x y z
#
# Youngs Moduli (GPa) = 74.89977 36.49163 65.55001
#
# Poissons Ratio (x) = 0.26790 0.31555
# Poissons Ratio (y) = 0.54987 0.08982
# Poissons Ratio (z) = 0.36056 0.05001
#
# Static dielectric constant tensor:
#      x y z
#    x 3.575190 -0.463390 -0.018520 
#    y -0.463390 3.598970 -0.215160 
#    z -0.018520 -0.215160 4.266890 
# 
# 
# High freq. dielectric constant tensor:
#      x y z
#    x 1.898370 0.000580 0.002510 
#    y 0.000580 1.888750 -0.006600 
#    z 0.002510 -0.006600 1.901130 
# 
# From -- ./inp_files/127444.got.cif
#   From: 2010.06.25/outbox.cif.g09.slc.cpg/sg2_64_cif.got.tgz:127444.got - 2010.06.27 13:26:56.
