data_PCOD8026477
_publ_section_title
;
Structure prediction by ZEFSAII (Michael W. Deem and Ramdas Pophale) SiO2 
 PCOD8026477
Probable space group: P -1
;
_chemical_formula_sum "Si O2"
_cell_formula_units_Z 12
_cell_length_a 16.043917
_cell_length_b 5.286120
_cell_length_c 16.284207
_cell_angle_alpha 59.926383
_cell_angle_beta 154.010703
_cell_angle_gamma 118.622460
_cell_volume 522.226726
_symmetry_space_group_name_H-M "P -1"
_symmetry_group_IT_number 2
_symmetry_cell_setting 'triclinic'
loop_
_space_group_symop_operation_xyz
x,y,z
-x,-y,-z
loop_
_atom_site_type_symbol
_atom_site_label
_atom_site_fract_x
_atom_site_fract_y
_atom_site_fract_z
Si Si1 0.484685 0.084013 0.848284
Si Si2 0.213456 0.520248 0.027093
Si Si3 0.847732 0.175504 0.484499
Si Si4 0.761036 0.782598 0.239344
Si Si5 0.622328 0.739882 0.622385
Si Si6 0.027202 0.956612 0.213491
O O1 0.614126 0.386131 0.898825
O O2 0.334518 0.080207 0.789842
O O3 0.346772 0.037891 0.654320
O O4 0.623807 0.823414 0.032093
O O5 0.297961 0.413134 0.203206
O O6 0.103199 0.805498 0.902743
O O7 0.081718 0.259207 0.912421
O O8 0.790433 0.446924 0.335323
O O9 0.031741 0.048101 0.624099
O O10 0.897583 0.240839 0.613319
O O11 0.500000 0.500000 0.500000
O O12 0.797740 0.869226 0.703312
O O13 0.500000 0.000000 0.500000
#
# Coordination Sequence:
#
# PCOD8026477 Si02
#       6
#     2   2   2   2   2   2
#     4  11  24  42  70 100 143 189 245 292 360 418
#     4  12  27  47  73 106 147 187 237 294 360 427
#     4  11  24  42  70 100 143 189 245 292 360 418
#     4  10  24  42  66 102 142 186 248 298 354 412
#     4  12  26  48  78 108 142 186 240 291 359 431
#     4  12  27  47  73 106 147 187 237 294 360 427
#
# _framework density 22.978524
#
# number of rings (size 3 to 8) (size 9 to 14) (size 15 to 20)
#    0.000    0.667    1.667    5.000    7.000    5.333 
#    0.000    0.000    0.000    0.000    0.000    0.000 
#    0.000    0.000    0.000    0.000    0.000    0.000 
#
# Total GULP energy -148744.082502 kJ/mol
# GULP energy per Si atom -12395.340209 kJ/mol
# Density = 2.292622 g / cm^3
# Si number density = 22.978524 Si / 1000 Ang^3
#
#
#
# Elastic Constant Matrix: (Units=GPa)
#
#
# Indices 1 2 3 4 5 6 
#
# 1 104.9411 53.7930 79.3507 0.0685 -15.8898 14.6510
# 2 53.7930 130.5112 80.7427 23.1616 -8.5118 -2.8471
# 3 79.3507 80.7427 185.7993 24.5351 -5.7961 6.5840
# 4 0.0685 23.1616 24.5351 39.0226 -13.3859 -2.3989
# 5 -15.8898 -8.5118 -5.7961 -13.3859 33.8077 -0.6363
# 6 14.6510 -2.8471 6.5840 -2.3989 -0.6363 51.3715
#
#
#
# Elastic Compliance Matrix: (Units=1/GPa)
#
#
# Indices 1 2 3 4 5 6 
#
# 1 0.019898 -0.005039 -0.007269 0.011080 0.011142 -0.004367
# 2 -0.005039 0.012321 -0.002507 -0.006341 -0.002167 0.002118
# 3 -0.007269 -0.002507 0.010291 -0.006638 -0.004907 0.000244
# 4 0.011080 -0.006341 -0.006638 0.039752 0.018202 -0.000579
# 5 0.011142 -0.002167 -0.004907 0.018202 0.040611 -0.001316
# 6 -0.004367 0.002118 0.000244 -0.000579 -0.001316 0.020754
#
#
# Mechanical properties :
#
#
# Convention : Reuss Voigt Hill
#
# Bulk Modulus (GPa) = 77.64886 94.33601 85.99243
# Shear Modulus (GPa) = 28.16084 38.66470 33.41277
#
# Velocity S-wave (km/s) = 3.50455 4.10646 3.81739
# Velocity P-wave (km/s) = 7.08810 7.97666 7.54547
#
# Compressibility (1/GPa) = 0.01287849
#
# Stress axis : x y z
#
# Youngs Moduli (GPa) = 50.25533 81.16469 97.17298
#
# Poissons Ratio (x) = 0.40903 0.70635
# Poissons Ratio (y) = 0.25326 0.24364
# Poissons Ratio (z) = 0.36530 0.20350
#
# Static dielectric constant tensor:
#      x y z
#    x 4.221020 0.237950 0.165990 
#    y 0.237950 4.005190 0.011480 
#    z 0.165990 0.011480 4.986510 
# 
# 
# High freq. dielectric constant tensor:
#      x y z
#    x 1.911970 0.019620 0.004200 
#    y 0.019620 1.896970 0.001430 
#    z 0.004200 0.001430 1.943380 
# 
# From -- ./inp_files/6005.got.cif
#   From: 2010.06.25/outbox.cif.g09.slc.cpg/sg2_4_cif.got.tgz:6005.got - 2010.06.27 13:26:56.
