data_PCOD8026438
_publ_section_title
;
Structure prediction by ZEFSAII (Michael W. Deem and Ramdas Pophale) SiO2 
 PCOD8026438
Probable space group: P -1
;
_chemical_formula_sum "Si O2"
_cell_formula_units_Z 16
_cell_length_a 13.538765
_cell_length_b 13.106075
_cell_length_c 11.674032
_cell_angle_alpha 84.391264
_cell_angle_beta 118.163134
_cell_angle_gamma 147.873495
_cell_volume 742.870238
_symmetry_space_group_name_H-M "P -1"
_symmetry_group_IT_number 2
_symmetry_cell_setting 'triclinic'
loop_
_space_group_symop_operation_xyz
x,y,z
-x,-y,-z
loop_
_atom_site_type_symbol
_atom_site_label
_atom_site_fract_x
_atom_site_fract_y
_atom_site_fract_z
Si Si1 0.018801 0.763510 0.038546
Si Si2 0.574142 0.452296 0.996042
Si Si3 0.550682 0.275028 0.197872
Si Si4 0.410048 0.698439 0.308847
Si Si5 0.753345 0.252535 0.185571
Si Si6 0.136341 0.014593 0.625089
Si Si7 0.275526 0.794524 0.302272
Si Si8 0.824149 0.559358 0.551824
O O1 0.225009 0.859680 0.206713
O O2 0.840217 0.683569 0.035517
O O3 0.218616 0.004291 0.049102
O O4 0.834413 0.546365 0.875304
O O5 0.655284 0.442023 0.142181
O O6 0.500000 0.500000 0.000000
O O7 0.324034 0.198688 0.814993
O O8 0.643988 0.237190 0.225047
O O9 0.656623 0.394902 0.365693
O O10 0.699613 0.901843 0.397961
O O11 0.405737 0.818502 0.285786
O O12 0.367207 0.624909 0.423796
O O13 0.980512 0.504857 0.211329
O O14 0.895724 0.272016 0.315738
O O15 0.500000 0.000000 0.000000
O O16 0.000000 0.000000 0.500000
O O17 0.901312 0.743495 0.573632
O O18 0.500000 0.000000 0.500000
#
# Coordination Sequence:
#
# PCOD8026438 Si02
#       8
#     2   2   2   2   2   2   2   2
#     4  11  23  42  68  95 132 175 221 273 337 401
#     4  11  25  46  69  96 132 175 228 276 334 400
#     4  12  24  41  68  98 134 173 220 280 334 398
#     4  10  24  42  64  95 132 174 218 270 332 400
#     4  11  23  41  66  97 139 179 222 276 340 408
#     4  11  25  44  70  95 127 178 223 274 331 394
#     4  11  23  39  65 100 137 175 221 280 339 400
#     4  11  25  41  64  98 133 171 219 273 333 394
#
# _framework density 21.538081999999999
#
# number of rings (size 3 to 8) (size 9 to 14) (size 15 to 20)
#    0.000    1.000    1.250    6.000    5.250    4.000 
#    0.000    0.000    0.000    0.000    0.000    0.000 
#    0.000    0.000    0.000    0.000    0.000    0.000 
#
# Total GULP energy -198446.975540 kJ/mol
# GULP energy per Si atom -12402.935971 kJ/mol
# Density = 2.148906 g / cm^3
# Si number density = 21.538082 Si / 1000 Ang^3
#
#
#
# Elastic Constant Matrix: (Units=GPa)
#
#
# Indices 1 2 3 4 5 6 
#
# 1 141.9680 21.6645 25.1372 0.4714 -15.4378 0.2180
# 2 21.6645 54.2773 1.9451 5.0321 -5.2673 -0.6657
# 3 25.1372 1.9451 79.9102 -5.0975 -10.3234 7.4044
# 4 0.4714 5.0321 -5.0975 39.3625 -0.4192 2.8027
# 5 -15.4378 -5.2673 -10.3234 -0.4192 34.0674 -4.4922
# 6 0.2180 -0.6657 7.4044 2.8027 -4.4922 35.1116
#
#
#
# Elastic Compliance Matrix: (Units=1/GPa)
#
#
# Indices 1 2 3 4 5 6 
#
# 1 0.008171 -0.002911 -0.002222 -0.000035 0.002672 0.000707
# 2 -0.002911 0.020002 0.000455 -0.002496 0.001980 0.000754
# 3 -0.002222 0.000455 0.013963 0.002001 0.002963 -0.002703
# 4 -0.000035 -0.002496 0.002001 0.026166 0.000192 -0.002533
# 5 0.002672 0.001980 0.002963 0.000192 0.032233 0.003505
# 6 0.000707 0.000754 -0.002703 -0.002533 0.003505 0.029711
#
#
# Mechanical properties :
#
#
# Convention : Reuss Voigt Hill
#
# Bulk Modulus (GPa) = 30.50485 41.51654 36.01069
# Shear Modulus (GPa) = 33.21656 36.86889 35.04273
#
# Velocity S-wave (km/s) = 3.93138 4.14188 4.03800
# Velocity P-wave (km/s) = 5.89929 6.49548 6.20455
#
# Compressibility (1/GPa) = 0.03278167
#
# Stress axis : x y z
#
# Youngs Moduli (GPa) = 122.38325 49.99470 71.61901
#
# Poissons Ratio (x) = 0.14551 0.15914
# Poissons Ratio (y) = 0.35620 -0.03262
# Poissons Ratio (z) = 0.27195 -0.02277
#
# Static dielectric constant tensor:
#      x y z
#    x 4.185910 0.055180 -0.037890 
#    y 0.055180 4.109010 0.062480 
#    z -0.037890 0.062480 3.860220 
# 
# 
# High freq. dielectric constant tensor:
#      x y z
#    x 1.849900 0.005590 -0.008310 
#    y 0.005590 1.852170 0.006700 
#    z -0.008310 0.006700 1.855500 
# 
# From -- ./inp_files/428411.got.cif
#   From: 2010.06.25/outbox.cif.g09.slc.cpg/sg2_215_cif.got.tgz:428411.got - 2010.06.27 13:26:56.
