data_PCOD8026239
_publ_section_title
;
Structure prediction by ZEFSAII (Michael W. Deem and Ramdas Pophale) SiO2 
 PCOD8026239
Probable space group: P -1
;
_chemical_formula_sum "Si O2"
_cell_formula_units_Z 14
_cell_length_a 15.635690
_cell_length_b 9.184615
_cell_length_c 6.529620
_cell_angle_alpha 133.349725
_cell_angle_beta 62.503229
_cell_angle_gamma 118.540964
_cell_volume 585.741493
_symmetry_space_group_name_H-M "P -1"
_symmetry_group_IT_number 2
_symmetry_cell_setting 'triclinic'
loop_
_space_group_symop_operation_xyz
x,y,z
-x,-y,-z
loop_
_atom_site_type_symbol
_atom_site_label
_atom_site_fract_x
_atom_site_fract_y
_atom_site_fract_z
Si Si1 0.654043 0.194671 0.960807
Si Si2 0.276492 0.101294 0.714528
Si Si3 0.901385 0.821180 0.803823
Si Si4 0.005060 0.742499 0.985282
Si Si5 0.845720 0.492193 0.232398
Si Si6 0.401195 0.544344 0.058849
Si Si7 0.599003 0.094033 0.350872
O O1 0.582636 0.293878 0.993529
O O2 0.702618 0.033076 0.629689
O O3 0.743359 0.369396 0.127487
O O4 0.582396 0.078967 0.110773
O O5 0.319914 0.030563 0.806740
O O6 0.160522 0.080409 0.864380
O O7 0.327486 0.341780 0.856042
O O8 0.972985 0.709065 0.747484
O O9 0.828287 0.656086 0.579835
O O10 0.966497 0.007666 0.773665
O O11 0.101669 0.663318 0.858184
O O12 0.913515 0.624417 0.110042
O O13 0.357279 0.663256 0.402434
O O14 0.500000 0.500000 0.000000
O O15 0.500000 0.000000 0.500000
#
# Coordination Sequence:
#
# PCOD8026239 Si02
#       7
#     2   2   2   2   2   2   2
#     4  11  27  43  70  99 138 180 224 286 342 400
#     4  11  25  44  67  99 139 175 231 280 339 405
#     4  11  23  42  69 100 138 183 224 275 335 395
#     4  10  24  40  68 102 138 178 227 278 328 398
#     4  11  23  44  67 102 138 178 228 274 337 401
#     4  11  24  46  68  99 130 176 228 280 339 409
#     4  11  24  47  67  98 133 174 226 283 342 404
#
# _framework density 23.901330000000002
#
# number of rings (size 3 to 8) (size 9 to 14) (size 15 to 20)
#    0.000    1.143    1.429    3.429    0.000   16.571 
#    0.000    0.000    0.000    0.000    0.000    0.000 
#    0.000    0.000    0.000    0.000    0.000    0.000 
#
# Total GULP energy -173504.167812 kJ/mol
# GULP energy per Si atom -12393.154844 kJ/mol
# Density = 2.384693 g / cm^3
# Si number density = 23.901330 Si / 1000 Ang^3
#
#
#
# Elastic Constant Matrix: (Units=GPa)
#
#
# Indices 1 2 3 4 5 6 
#
# 1 101.0125 40.4365 22.8311 -7.7674 6.9209 -16.3239
# 2 40.4365 129.1132 52.3587 -3.3959 3.9719 -16.5919
# 3 22.8311 52.3587 113.0554 0.7077 17.8055 -9.7337
# 4 -7.7674 -3.3959 0.7077 39.8944 3.4633 7.8770
# 5 6.9209 3.9719 17.8055 3.4633 37.8159 5.1705
# 6 -16.3239 -16.5919 -9.7337 7.8770 5.1705 45.9884
#
#
#
# Elastic Compliance Matrix: (Units=1/GPa)
#
#
# Indices 1 2 3 4 5 6 
#
# 1 0.012000 -0.003101 -0.000381 0.001678 -0.002258 0.003027
# 2 -0.003101 0.010664 -0.004368 -0.000063 0.001279 0.001689
# 3 -0.000381 -0.004368 0.011900 -0.000495 -0.005231 0.001480
# 4 0.001678 -0.000063 -0.000495 0.026320 -0.001955 -0.003820
# 5 -0.002258 0.001279 -0.005231 -0.001955 0.029978 -0.004483
# 6 0.003027 0.001689 0.001480 -0.003820 -0.004483 0.024900
#
#
# Mechanical properties :
#
#
# Convention : Reuss Voigt Hill
#
# Bulk Modulus (GPa) = 53.01518 63.82596 58.42057
# Shear Modulus (GPa) = 36.29748 39.91006 38.10377
#
# Velocity S-wave (km/s) = 3.90120 4.09073 3.99709
# Velocity P-wave (km/s) = 6.52085 7.00529 6.76740
#
# Compressibility (1/GPa) = 0.01886252
#
# Stress axis : x y z
#
# Youngs Moduli (GPa) = 83.33177 93.77570 84.03618
#
# Poissons Ratio (x) = 0.29081 0.03206
# Poissons Ratio (y) = 0.25842 0.36707
# Poissons Ratio (z) = 0.03179 0.40961
#
# Static dielectric constant tensor:
#      x y z
#    x 4.344340 -0.250980 0.229990 
#    y -0.250980 4.676160 0.145200 
#    z 0.229990 0.145200 4.368330 
# 
# 
# High freq. dielectric constant tensor:
#      x y z
#    x 1.952880 -0.008940 0.012740 
#    y -0.008940 1.965240 0.010700 
#    z 0.012740 0.010700 1.939380 
# 
# From -- ./inp_files/107757.got.cif
#   From: 2010.06.25/outbox.cif.g09.slc.cpg/sg2_54_cif.got.tgz:107757.got - 2010.06.27 13:26:56.
