data_PCOD8026973
_publ_section_title
;
Structure prediction by ZEFSAII (Michael W. Deem and Ramdas Pophale) SiO2 
 PCOD8026973
Probable space group: P -1
;
_chemical_formula_sum "Si O2"
_cell_formula_units_Z 12
_cell_length_a 8.237362
_cell_length_b 8.808660
_cell_length_c 8.902570
_cell_angle_alpha 104.295366
_cell_angle_beta 68.987376
_cell_angle_gamma 129.532310
_cell_volume 464.928494
_symmetry_space_group_name_H-M "P -1"
_symmetry_group_IT_number 2
_symmetry_cell_setting 'triclinic'
loop_
_space_group_symop_operation_xyz
x,y,z
-x,-y,-z
loop_
_atom_site_type_symbol
_atom_site_label
_atom_site_fract_x
_atom_site_fract_y
_atom_site_fract_z
Si Si1 0.254865 0.165319 0.489600
Si Si2 0.623894 0.056920 0.748615
Si Si3 0.153595 0.315634 0.034704
Si Si4 0.991992 0.506021 0.325986
Si Si5 0.284656 0.061368 0.011928
Si Si6 0.365912 0.504999 0.722399
O O1 0.290971 0.283272 0.658645
O O2 0.375612 0.335169 0.360155
O O3 0.366273 0.051748 0.428037
O O4 0.000000 0.000000 0.500000
O O5 0.841837 0.276270 0.740368
O O6 0.414938 0.056905 0.825071
O O7 0.606759 0.928404 0.864401
O O8 0.055315 0.370997 0.209538
O O9 0.297299 0.256389 0.046128
O O10 0.306019 0.500256 0.915671
O O11 0.962040 0.133331 0.956258
O O12 0.000000 0.500000 0.500000
O O13 0.755885 0.432282 0.326587
#
# Coordination Sequence:
#
# PCOD8026973 Si02
#       6
#     2   2   2   2   2   2
#     4  11  23  44  76 105 146 193 244 298 369 432
#     4  11  24  44  70 104 150 189 237 303 374 426
#     4  11  24  47  72 106 145 188 255 297 361 445
#     4  12  27  44  71 111 148 191 244 304 369 437
#     4  10  24  43  73 107 140 196 242 302 364 432
#     4  11  25  45  75 109 146 198 240 305 370 426
#
# _framework density 25.810421000000002
#
# number of rings (size 3 to 8) (size 9 to 14) (size 15 to 20)
#    0.000    1.000    3.333    1.500    7.000    6.000 
#    0.000    2.500    0.000    0.000    0.000    0.000 
#    0.000    0.000    0.000    0.000    0.000    0.000 
#
# Total GULP energy -148781.257364 kJ/mol
# GULP energy per Si atom -12398.438114 kJ/mol
# Density = 2.575167 g / cm^3
# Si number density = 25.810421 Si / 1000 Ang^3
#
#
#
# Elastic Constant Matrix: (Units=GPa)
#
#
# Indices 1 2 3 4 5 6 
#
# 1 121.9777 42.7070 56.5174 0.3342 -22.8570 -25.3031
# 2 42.7070 105.1590 29.7465 -4.8417 -18.2073 -2.2055
# 3 56.5174 29.7465 139.5941 -0.9818 -20.0681 -14.5580
# 4 0.3342 -4.8417 -0.9818 53.7177 -12.8893 -21.9431
# 5 -22.8570 -18.2073 -20.0681 -12.8893 45.9136 3.4897
# 6 -25.3031 -2.2055 -14.5580 -21.9431 3.4897 53.3346
#
#
#
# Elastic Compliance Matrix: (Units=1/GPa)
#
#
# Indices 1 2 3 4 5 6 
#
# 1 0.012891 -0.003344 -0.003273 0.003002 0.004043 0.006055
# 2 -0.003344 0.011668 -0.000775 0.001419 0.003093 -0.000934
# 3 -0.003273 -0.000775 0.009119 0.001170 0.002284 0.001237
# 4 0.003002 0.001419 0.001170 0.025696 0.008886 0.011793
# 5 0.004043 0.003093 0.002284 0.008886 0.028171 0.004482
# 6 0.006055 -0.000934 0.001237 0.011793 0.004482 0.026479
#
#
# Mechanical properties :
#
#
# Convention : Reuss Voigt Hill
#
# Bulk Modulus (GPa) = 52.92704 69.40808 61.16756
# Shear Modulus (GPa) = 37.00770 46.44386 41.72578
#
# Velocity S-wave (km/s) = 3.79070 4.24656 4.02509
# Velocity P-wave (km/s) = 6.30157 7.14103 6.73439
#
# Compressibility (1/GPa) = 0.01889393
#
# Stress axis : x y z
#
# Youngs Moduli (GPa) = 77.57407 85.70422 109.65697
#
# Poissons Ratio (x) = 0.28661 0.35887
# Poissons Ratio (y) = 0.25942 0.08501
# Poissons Ratio (z) = 0.25388 0.06644
#
# Static dielectric constant tensor:
#      x y z
#    x 4.562210 -0.108110 -0.620660 
#    y -0.108110 4.849280 0.103140 
#    z -0.620660 0.103140 4.837620 
# 
# 
# High freq. dielectric constant tensor:
#      x y z
#    x 2.014520 0.002300 -0.037250 
#    y 0.002300 2.053830 0.004250 
#    z -0.037250 0.004250 2.031490 
# 
# From -- ./inp_files/159164.got.cif
#   From: 2010.06.25/outbox.cif.g09.slc.cpg/sg2_80_cif.got.tgz:159164.got - 2010.06.27 13:26:56.
