data_PCOD8026234
_publ_section_title
;
Structure prediction by ZEFSAII (Michael W. Deem and Ramdas Pophale) SiO2 
 PCOD8026234
Probable space group: P -1
;
_chemical_formula_sum "Si O2"
_cell_formula_units_Z 16
_cell_length_a 25.852199
_cell_length_b 11.135162
_cell_length_c 8.136944
_cell_angle_alpha 144.689161
_cell_angle_beta 133.263547
_cell_angle_gamma 33.086678
_cell_volume 739.103195
_symmetry_space_group_name_H-M "P -1"
_symmetry_group_IT_number 2
_symmetry_cell_setting 'triclinic'
loop_
_space_group_symop_operation_xyz
x,y,z
-x,-y,-z
loop_
_atom_site_type_symbol
_atom_site_label
_atom_site_fract_x
_atom_site_fract_y
_atom_site_fract_z
Si Si1 0.290494 0.830033 0.139344
Si Si2 0.543180 0.624802 0.806502
Si Si3 0.826480 0.627222 0.694505
Si Si4 0.116727 0.172562 0.714159
Si Si5 0.952145 0.293346 0.303235
Si Si6 0.235987 0.621230 0.523206
Si Si7 0.787910 0.796679 0.319057
Si Si8 0.632158 0.750839 0.876591
O O1 0.400153 0.564633 0.120155
O O2 0.267971 0.079145 0.259044
O O3 0.238899 0.963523 0.349703
O O4 0.248789 0.714169 0.825767
O O5 0.500000 0.500000 0.500000
O O6 0.611402 0.615828 0.817874
O O7 0.461372 0.941798 0.035399
O O8 0.881595 0.385065 0.406352
O O9 0.792889 0.554685 0.692084
O O10 0.899178 0.655822 0.964869
O O11 0.203512 0.115413 0.742303
O O12 0.027709 0.314248 0.559078
O O13 0.150699 0.879829 0.518610
O O14 0.891933 0.511302 0.270761
O O15 0.000000 0.000000 0.000000
O O16 0.331740 0.435450 0.416263
O O17 0.711310 0.759927 0.122825
#
# Coordination Sequence:
#
# PCOD8026234 Si02
#       8
#     2   2   2   2   2   2   2   2
#     4  10  24  40  67  96 129 170 215 265 326 386
#     4  11  24  43  71 102 130 166 217 272 324 391
#     4  10  24  44  65  92 136 174 220 266 328 390
#     4  11  23  44  65  95 133 178 219 268 327 380
#     4  11  25  40  66 101 128 174 225 276 320 379
#     4  11  24  42  68  96 130 178 215 268 325 392
#     4  11  22  44  68  94 134 173 219 269 323 393
#     4  11  24  42  70  98 131 172 217 264 330 389
#
# _framework density 21.647856000000001
#
# number of rings (size 3 to 8) (size 9 to 14) (size 15 to 20)
#    0.000    1.250    2.500    2.250    5.250    1.000 
#    2.250    1.250    0.000    0.000    0.000    0.000 
#    0.000    0.000    0.000    0.000    0.000    0.000 
#
# Total GULP energy -198313.976184 kJ/mol
# GULP energy per Si atom -12394.623512 kJ/mol
# Density = 2.159858 g / cm^3
# Si number density = 21.647856 Si / 1000 Ang^3
#
#
#
# Elastic Constant Matrix: (Units=GPa)
#
#
# Indices 1 2 3 4 5 6 
#
# 1 97.9622 36.3557 34.9139 1.5637 14.5550 5.1384
# 2 36.3557 149.0155 47.2944 2.2359 11.6400 7.1670
# 3 34.9139 47.2944 117.3175 3.2492 -9.5223 0.0451
# 4 1.5637 2.2359 3.2492 36.8022 -4.1297 -0.4840
# 5 14.5550 11.6400 -9.5223 -4.1297 34.6099 2.8227
# 6 5.1384 7.1670 0.0451 -0.4840 2.8227 26.2977
#
#
#
# Elastic Compliance Matrix: (Units=1/GPa)
#
#
# Indices 1 2 3 4 5 6 
#
# 1 0.013077 -0.001434 -0.003780 -0.000832 -0.006032 -0.001526
# 2 -0.001434 0.008398 -0.003189 -0.000529 -0.003024 -0.001688
# 3 -0.003780 -0.003189 0.011398 0.000003 0.005719 0.000974
# 4 -0.000832 -0.000529 0.000003 0.027671 0.003797 0.000409
# 5 -0.006032 -0.003024 0.005719 0.003797 0.034608 -0.001652
# 6 -0.001526 -0.001688 0.000974 0.000409 -0.001652 0.038968
#
#
# Mechanical properties :
#
#
# Convention : Reuss Voigt Hill
#
# Bulk Modulus (GPa) = 62.23554 66.82481 64.53018
# Shear Modulus (GPa) = 31.99378 35.92404 33.95891
#
# Velocity S-wave (km/s) = 3.84854 4.07808 3.96497
# Velocity P-wave (km/s) = 6.96849 7.28769 7.12987
#
# Compressibility (1/GPa) = 0.01606799
#
# Stress axis : x y z
#
# Youngs Moduli (GPa) = 76.47203 119.07596 87.73470
#
# Poissons Ratio (x) = 0.17073 0.33160
# Poissons Ratio (y) = 0.10964 0.27978
# Poissons Ratio (z) = 0.28903 0.37973
#
# Static dielectric constant tensor:
#      x y z
#    x 3.815360 0.140100 -0.132290 
#    y 0.140100 4.126300 0.105220 
#    z -0.132290 0.105220 3.961460 
# 
# 
# High freq. dielectric constant tensor:
#      x y z
#    x 1.837590 0.011500 -0.007800 
#    y 0.011500 1.855080 0.006410 
#    z -0.007800 0.006410 1.863590 
# 
# From -- ./inp_files/37473.got.cif
#   From: 2010.06.25/outbox.cif.g09.slc.cpg/sg2_19_cif.got.tgz:37473.got - 2010.06.27 13:26:56.
