data_PCOD8026643
_publ_section_title
;
Structure prediction by ZEFSAII (Michael W. Deem and Ramdas Pophale) SiO2 
 PCOD8026643
Probable space group: P -1
;
_chemical_formula_sum "Si O2"
_cell_formula_units_Z 16
_cell_length_a 8.763094
_cell_length_b 8.344106
_cell_length_c 11.233571
_cell_angle_alpha 60.117035
_cell_angle_beta 90.992838
_cell_angle_gamma 85.755294
_cell_volume 708.840929
_symmetry_space_group_name_H-M "P -1"
_symmetry_group_IT_number 2
_symmetry_cell_setting 'triclinic'
loop_
_space_group_symop_operation_xyz
x,y,z
-x,-y,-z
loop_
_atom_site_type_symbol
_atom_site_label
_atom_site_fract_x
_atom_site_fract_y
_atom_site_fract_z
Si Si1 0.651190 0.083276 0.431206
Si Si2 0.941181 0.858720 0.459590
Si Si3 0.666518 0.196258 0.135603
Si Si4 0.918531 0.457289 0.690107
Si Si5 0.337857 0.121811 0.097704
Si Si6 0.774165 0.191848 0.639938
Si Si7 0.874364 0.903298 0.111266
Si Si8 0.165928 0.471030 0.072106
O O1 0.624470 0.216944 0.267719
O O2 0.714399 0.197015 0.500738
O O3 0.500000 0.000000 0.500000
O O4 0.759289 0.909367 0.440355
O O5 0.983240 0.641650 0.571729
O O6 0.043411 0.891615 0.330296
O O7 0.000000 0.000000 0.500000
O O8 0.514404 0.160228 0.074017
O O9 0.804990 0.036811 0.167590
O O10 0.719220 0.393650 0.030416
O O11 0.782863 0.394216 0.625208
O O12 0.841401 0.499529 0.799335
O O13 0.059457 0.296794 0.763867
O O14 0.239188 0.263710 0.129505
O O15 0.327311 0.922941 0.233551
O O16 0.268970 0.128578 0.962962
O O17 0.000000 0.000000 0.000000
O O18 0.000000 0.500000 0.000000
#
# Coordination Sequence:
#
# PCOD8026643 Si02
#       8
#     2   2   2   2   2   2   2   2
#     4  11  24  45  69 100 140 190 233 286 354 426
#     4  10  24  42  72  98 134 185 238 288 347 411
#     4  12  26  44  71 101 146 186 233 291 365 420
#     4  12  24  43  73 104 140 174 243 300 348 414
#     4  12  24  44  70 102 146 185 233 294 364 422
#     4  11  23  43  70  98 138 186 236 289 350 410
#     4  12  23  45  73 106 138 181 236 299 356 420
#     4  12  25  42  71 105 136 186 241 294 352 425
#
# _framework density 22.57206
#
# number of rings (size 3 to 8) (size 9 to 14) (size 15 to 20)
#    0.000    0.500    5.000    3.375    5.250    0.000 
#    0.000    0.625    5.500    0.000    0.000    0.000 
#    0.000    0.000    0.000    0.000    0.000    0.000 
#
# Total GULP energy -198314.941848 kJ/mol
# GULP energy per Si atom -12394.683866 kJ/mol
# Density = 2.252069 g / cm^3
# Si number density = 22.572060 Si / 1000 Ang^3
#
#
#
# Elastic Constant Matrix: (Units=GPa)
#
#
# Indices 1 2 3 4 5 6 
#
# 1 122.5683 15.7293 16.4461 -3.0883 -14.9509 22.4260
# 2 15.7293 107.4378 13.0179 5.1871 -1.4008 22.1097
# 3 16.4461 13.0179 60.2831 3.5995 -11.1389 24.1557
# 4 -3.0883 5.1871 3.5995 49.4408 1.7363 -3.1254
# 5 -14.9509 -1.4008 -11.1389 1.7363 39.5848 0.3211
# 6 22.4260 22.1097 24.1557 -3.1254 0.3211 40.5117
#
#
#
# Elastic Compliance Matrix: (Units=1/GPa)
#
#
# Indices 1 2 3 4 5 6 
#
# 1 0.009593 -0.000300 0.000258 0.000145 0.003722 -0.005319
# 2 -0.000300 0.010617 0.000362 -0.001553 0.000481 -0.005968
# 3 0.000258 0.000362 0.023880 -0.002949 0.007080 -0.014863
# 4 0.000145 -0.001553 -0.002949 0.020938 -0.001782 0.004155
# 5 0.003722 0.000481 0.007080 -0.001782 0.028812 -0.006910
# 6 -0.005319 -0.005968 -0.014863 0.004155 -0.006910 0.040123
#
#
# Mechanical properties :
#
#
# Convention : Reuss Voigt Hill
#
# Bulk Modulus (GPa) = 22.35578 42.29731 32.32654
# Shear Modulus (GPa) = 33.73080 42.24717 37.98899
#
# Velocity S-wave (km/s) = 3.86989 4.33096 4.10690
# Velocity P-wave (km/s) = 5.46752 6.61733 6.06971
#
# Compressibility (1/GPa) = 0.04473117
#
# Stress axis : x y z
#
# Youngs Moduli (GPa) = 104.23734 94.18737 41.87689
#
# Poissons Ratio (x) = 0.02822 -0.01081
# Poissons Ratio (y) = 0.03123 -0.01516
# Poissons Ratio (z) = -0.02690 -0.03410
#
# Static dielectric constant tensor:
#      x y z
#    x 4.554090 -0.256650 0.156510 
#    y -0.256650 4.480950 0.710140 
#    z 0.156510 0.710140 3.408440 
# 
# 
# High freq. dielectric constant tensor:
#      x y z
#    x 1.892670 0.010670 -0.010730 
#    y 0.010670 1.899720 0.020370 
#    z -0.010730 0.020370 1.891200 
# 
# From -- ./inp_files/381362.got.cif
#   From: 2010.06.25/outbox.cif.g09.slc.cpg/sg2_191_cif.got.tgz:381362.got - 2010.06.27 13:26:56.
