data_PCOD8026846
_publ_section_title
;
Structure prediction by ZEFSAII (Michael W. Deem and Ramdas Pophale) SiO2 
 PCOD8026846
Probable space group: P -1
;
_chemical_formula_sum "Si O2"
_cell_formula_units_Z 14
_cell_length_a 9.126476
_cell_length_b 11.799353
_cell_length_c 9.173445
_cell_angle_alpha 72.436021
_cell_angle_beta 130.137115
_cell_angle_gamma 119.947493
_cell_volume 654.086417
_symmetry_space_group_name_H-M "P -1"
_symmetry_group_IT_number 2
_symmetry_cell_setting 'triclinic'
loop_
_space_group_symop_operation_xyz
x,y,z
-x,-y,-z
loop_
_atom_site_type_symbol
_atom_site_label
_atom_site_fract_x
_atom_site_fract_y
_atom_site_fract_z
Si Si1 0.596150 0.775895 0.807527
Si Si2 0.979375 0.857330 0.506963
Si Si3 0.038383 0.243418 0.775047
Si Si4 0.557753 0.631938 0.398157
Si Si5 0.427678 0.820612 0.394006
Si Si6 0.634334 0.513221 0.218562
Si Si7 0.566380 0.061307 0.176905
O O1 0.592819 0.847209 0.625135
O O2 0.402868 0.633277 0.704459
O O3 0.554104 0.850094 0.889408
O O4 0.817169 0.767803 0.992246
O O5 0.951755 0.844916 0.319226
O O6 0.794121 0.745897 0.524525
O O7 0.187266 0.842740 0.700258
O O8 0.000000 0.000000 0.500000
O O9 0.124418 0.391963 0.706612
O O10 0.802560 0.199614 0.694640
O O11 0.500000 0.500000 0.500000
O O12 0.401112 0.695729 0.325339
O O13 0.536248 0.586004 0.236199
O O14 0.527665 0.949263 0.312763
O O15 0.500000 0.500000 0.000000
O O16 0.500000 0.000000 0.000000
#
# Coordination Sequence:
#
# PCOD8026846 Si02
#       7
#     2   2   2   2   2   2   2
#     4  11  23  44  70  97 141 182 228 284 347 415
#     4  11  22  43  70  97 141 186 227 283 351 410
#     4  10  24  43  69 105 135 183 231 281 348 419
#     4  11  23  42  70 103 139 180 232 291 341 412
#     4  12  25  44  69  99 141 176 237 282 351 404
#     4   9  21  42  69  96 138 182 222 282 346 410
#     4  12  27  44  68 103 138 183 234 292 350 416
#
# _framework density 21.4039
#
# number of rings (size 3 to 8) (size 9 to 14) (size 15 to 20)
#    0.000    1.143    4.286    1.286    4.000    3.429 
#    0.000    2.857    0.000    0.000    0.000    0.000 
#    0.000    0.000    0.000    0.000    0.000    0.000 
#
# Total GULP energy -173469.553689 kJ/mol
# GULP energy per Si atom -12390.682406 kJ/mol
# Density = 2.135518 g / cm^3
# Si number density = 21.403900 Si / 1000 Ang^3
#
#
#
# Elastic Constant Matrix: (Units=GPa)
#
#
# Indices 1 2 3 4 5 6 
#
# 1 113.7397 57.1958 42.7461 0.8056 -8.3901 -0.6443
# 2 57.1958 134.6094 31.6510 7.2380 -4.6443 -1.9953
# 3 42.7461 31.6510 116.9341 7.6792 -6.0998 10.4390
# 4 0.8056 7.2380 7.6792 28.1974 -8.4869 -4.6955
# 5 -8.3901 -4.6443 -6.0998 -8.4869 31.6990 4.9178
# 6 -0.6443 -1.9953 10.4390 -4.6955 4.9178 42.8664
#
#
#
# Elastic Compliance Matrix: (Units=1/GPa)
#
#
# Indices 1 2 3 4 5 6 
#
# 1 0.012570 -0.004567 -0.003473 0.002671 0.002578 0.000819
# 2 -0.004567 0.009680 -0.000874 -0.002233 -0.000622 0.000422
# 3 -0.003473 -0.000874 0.010554 -0.002850 0.000694 -0.003055
# 4 0.002671 -0.002233 -0.002850 0.040411 0.010045 0.003904
# 5 0.002578 -0.000622 0.000694 0.010045 0.035446 -0.003126
# 6 0.000819 0.000422 -0.003055 0.003904 -0.003126 0.024890
#
#
# Mechanical properties :
#
#
# Convention : Reuss Voigt Hill
#
# Bulk Modulus (GPa) = 66.77361 69.82988 68.30174
# Shear Modulus (GPa) = 31.97546 36.13193 34.05369
#
# Velocity S-wave (km/s) = 3.86930 4.11311 3.99307
# Velocity P-wave (km/s) = 7.15728 7.43320 7.29655
#
# Compressibility (1/GPa) = 0.01497598
#
# Stress axis : x y z
#
# Youngs Moduli (GPa) = 79.55745 103.30872 94.75030
#
# Poissons Ratio (x) = 0.47179 0.32905
# Poissons Ratio (y) = 0.36332 0.08282
# Poissons Ratio (z) = 0.27629 0.09030
#
# Static dielectric constant tensor:
#      x y z
#    x 4.280590 -0.160890 -0.245110 
#    y -0.160890 3.535970 0.033490 
#    z -0.245110 0.033490 3.861730 
# 
# 
# High freq. dielectric constant tensor:
#      x y z
#    x 1.845460 -0.003890 -0.016430 
#    y -0.003890 1.859520 0.007260 
#    z -0.016430 0.007260 1.827470 
# 
# From -- ./inp_files/185623.got.cif
#   From: 2010.06.25/outbox.cif.g09.slc.cpg/sg2_93_cif.got.tgz:185623.got - 2010.06.27 13:26:56.
