data_PCOD8026401
_publ_section_title
;
Structure prediction by ZEFSAII (Michael W. Deem and Ramdas Pophale) SiO2 
 PCOD8026401
Probable space group: P -1
;
_chemical_formula_sum "Si O2"
_cell_formula_units_Z 16
_cell_length_a 11.654132
_cell_length_b 11.494543
_cell_length_c 9.351187
_cell_angle_alpha 50.700021
_cell_angle_beta 82.578153
_cell_angle_gamma 57.849920
_cell_volume 778.320040
_symmetry_space_group_name_H-M "P -1"
_symmetry_group_IT_number 2
_symmetry_cell_setting 'triclinic'
loop_
_space_group_symop_operation_xyz
x,y,z
-x,-y,-z
loop_
_atom_site_type_symbol
_atom_site_label
_atom_site_fract_x
_atom_site_fract_y
_atom_site_fract_z
Si Si1 0.780599 0.461414 0.198560
Si Si2 0.549645 0.455523 0.365061
Si Si3 0.882632 0.136391 0.225655
Si Si4 0.080787 0.490119 0.353556
Si Si5 0.913363 0.791926 0.584910
Si Si6 0.761376 0.324279 0.808474
Si Si7 0.792769 0.092896 0.707989
Si Si8 0.145194 0.267433 0.042759
O O1 0.629924 0.547061 0.234935
O O2 0.796951 0.337330 0.157345
O O3 0.915625 0.330110 0.386023
O O4 0.767824 0.645998 0.013111
O O5 0.500000 0.500000 0.500000
O O6 0.407285 0.537472 0.230534
O O7 0.671087 0.233709 0.503408
O O8 0.836610 0.009171 0.396519
O O9 0.846355 0.173347 0.035760
O O10 0.053621 0.019627 0.308995
O O11 0.161745 0.278431 0.446987
O O12 0.187403 0.544487 0.329879
O O13 0.000000 0.500000 0.500000
O O14 0.979744 0.619775 0.139840
O O15 0.916908 0.736260 0.791868
O O16 0.789829 0.202646 0.759335
O O17 0.758488 0.944426 0.867841
#
# Coordination Sequence:
#
# PCOD8026401 Si02
#       8
#     2   2   2   2   2   2   2   2
#     4  11  21  39  64  92 125 163 211 258 316 370
#     4  10  24  42  61  86 127 177 207 249 315 393
#     4  12  21  37  69  97 123 158 217 273 308 363
#     4  11  23  37  61  93 130 162 200 272 321 356
#     4  11  21  37  63  98 124 156 212 265 314 365
#     4  11  24  41  60  95 135 164 205 260 326 373
#     4  11  21  40  64  93 125 168 218 258 304 380
#     4  11  23  38  64  98 125 161 212 268 312 368
#
# _framework density 20.557095
#
# number of rings (size 3 to 8) (size 9 to 14) (size 15 to 20)
#    0.000    1.000    3.750    4.500    7.000    0.500 
#    0.000    3.750    0.000    3.000    0.000    0.000 
#    0.000    0.000    0.000    0.000    0.000    0.000 
#
# Total GULP energy -198257.726413 kJ/mol
# GULP energy per Si atom -12391.107901 kJ/mol
# Density = 2.051031 g / cm^3
# Si number density = 20.557095 Si / 1000 Ang^3
#
#
#
# Elastic Constant Matrix: (Units=GPa)
#
#
# Indices 1 2 3 4 5 6 
#
# 1 128.1151 64.4048 56.9554 -15.1395 -31.7185 4.8256
# 2 64.4048 107.2235 39.3320 -6.5073 -19.4523 26.6520
# 3 56.9554 39.3320 106.4316 -11.7062 -27.0799 9.8478
# 4 -15.1395 -6.5073 -11.7062 34.0588 3.6975 -9.7035
# 5 -31.7185 -19.4523 -27.0799 3.6975 30.3347 -9.2519
# 6 4.8256 26.6520 9.8478 -9.7035 -9.2519 46.5666
#
#
#
# Elastic Compliance Matrix: (Units=1/GPa)
#
#
# Indices 1 2 3 4 5 6 
#
# 1 0.016186 -0.008066 -0.003061 0.005402 0.010431 0.006785
# 2 -0.008066 0.016625 -0.001808 -0.003508 -0.001824 -0.009390
# 3 -0.003061 -0.001808 0.013937 0.002357 0.007939 0.000473
# 4 0.005402 -0.003508 0.002357 0.033979 0.004057 0.008836
# 5 0.010431 -0.001824 0.007939 0.004057 0.052193 0.009499
# 6 0.006785 -0.009390 0.000473 0.008836 0.009499 0.029774
#
#
# Mechanical properties :
#
#
# Convention : Reuss Voigt Hill
#
# Bulk Modulus (GPa) = 47.89626 73.68385 60.79006
# Shear Modulus (GPa) = 25.57226 34.26387 29.91806
#
# Velocity S-wave (km/s) = 3.53081 4.08703 3.81906
# Velocity P-wave (km/s) = 6.32233 7.62844 7.00589
#
# Compressibility (1/GPa) = 0.02087846
#
# Stress axis : x y z
#
# Youngs Moduli (GPa) = 61.78068 60.15094 71.74981
#
# Poissons Ratio (x) = 0.48517 0.21960
# Poissons Ratio (y) = 0.49832 0.12975
# Poissons Ratio (z) = 0.18909 0.10878
#
# Static dielectric constant tensor:
#      x y z
#    x 4.143220 0.111850 -0.137290 
#    y 0.111850 4.156890 -0.348300 
#    z -0.137290 -0.348300 3.978490 
# 
# 
# High freq. dielectric constant tensor:
#      x y z
#    x 1.783240 0.024700 -0.021540 
#    y 0.024700 1.803570 0.000530 
#    z -0.021540 0.000530 1.810270 
# 
# From -- ./inp_files/256336.got.cif
#   From: 2010.06.25/outbox.cif.g09.slc.cpg/sg2_129_cif.got.tgz:256336.got - 2010.06.27 13:26:56.
