data_PCOD8026123
_publ_section_title
;
Structure prediction by ZEFSAII (Michael W. Deem and Ramdas Pophale) SiO2 
 PCOD8026123
Probable space group: P -1
;
_chemical_formula_sum "Si O2"
_cell_formula_units_Z 16
_cell_length_a 17.658223
_cell_length_b 26.929906
_cell_length_c 15.017328
_cell_angle_alpha 18.025936
_cell_angle_beta 26.702335
_cell_angle_gamma 20.897287
_cell_volume 787.432477
_symmetry_space_group_name_H-M "P -1"
_symmetry_group_IT_number 2
_symmetry_cell_setting 'triclinic'
loop_
_space_group_symop_operation_xyz
x,y,z
-x,-y,-z
loop_
_atom_site_type_symbol
_atom_site_label
_atom_site_fract_x
_atom_site_fract_y
_atom_site_fract_z
Si Si1 0.893261 0.228646 0.194360
Si Si2 0.520852 0.385482 0.003530
Si Si3 0.140716 0.300896 0.316049
Si Si4 0.867966 0.573811 0.691681
Si Si5 0.280486 0.791073 0.259405
Si Si6 0.257994 0.473786 0.750799
Si Si7 0.752978 0.107852 0.073785
Si Si8 0.070377 0.766968 0.059070
O O1 0.639478 0.367334 0.247947
O O2 0.991817 0.329005 0.970693
O O3 0.923880 0.253254 0.017258
O O4 0.000000 0.000000 0.500000
O O5 0.363965 0.319760 0.294641
O O6 0.635584 0.300152 0.933850
O O7 0.698884 0.305478 0.028156
O O8 0.178363 0.368444 0.254215
O O9 0.885661 0.427408 0.355582
O O10 0.275796 0.059430 0.583016
O O11 0.218085 0.340848 0.077467
O O12 0.001959 0.639223 0.394820
O O13 0.200280 0.655885 0.565863
O O14 0.498051 0.668568 0.296596
O O15 0.343424 0.817646 0.049842
O O16 0.099632 0.999037 0.139554
O O17 0.000000 0.000000 0.000000
#
# Coordination Sequence:
#
# PCOD8026123 Si02
#       8
#     2   2   2   2   2   2   2   2
#     4  10  26  47  68  96 131 173 220 279 329 375
#     4  10  24  41  74  95 133 174 216 270 330 386
#     4  11  21  41  61  93 138 167 216 261 327 394
#     4  10  24  42  70  96 127 175 224 272 314 396
#     4  11  23  38  62  95 133 171 211 265 326 393
#     4  10  24  36  58  95 138 174 201 266 334 392
#     4  12  20  39  66 101 129 172 218 259 325 400
#     4  12  22  46  70  94 129 173 227 270 318 389
#
# _framework density 20.319203000000002
#
# number of rings (size 3 to 8) (size 9 to 14) (size 15 to 20)
#    0.750    0.500    3.750    1.500    3.500    2.000 
#    0.000    0.625    0.000    0.000    0.000    0.000 
#    0.000    0.000    0.000    0.000    0.000    0.000 
#
# Total GULP energy -198231.088989 kJ/mol
# GULP energy per Si atom -12389.443062 kJ/mol
# Density = 2.027296 g / cm^3
# Si number density = 20.319203 Si / 1000 Ang^3
#
#
#
# Elastic Constant Matrix: (Units=GPa)
#
#
# Indices 1 2 3 4 5 6 
#
# 1 60.3943 25.0508 6.4036 -3.0708 -4.6048 -9.6398
# 2 25.0508 99.9343 35.0566 -24.3015 -8.8038 1.5106
# 3 6.4036 35.0566 79.8359 -15.5743 -9.7991 -1.0210
# 4 -3.0708 -24.3015 -15.5743 36.4734 4.9691 -7.0480
# 5 -4.6048 -8.8038 -9.7991 4.9691 25.5362 5.4057
# 6 -9.6398 1.5106 -1.0210 -7.0480 5.4057 44.5300
#
#
#
# Elastic Compliance Matrix: (Units=1/GPa)
#
#
# Indices 1 2 3 4 5 6 
#
# 1 0.019382 -0.005322 0.000807 -0.000956 0.001291 0.004087
# 2 -0.005322 0.014788 -0.004536 0.007161 0.001167 -0.000766
# 3 0.000807 -0.004536 0.015572 0.003331 0.003749 0.000758
# 4 -0.000956 0.007161 0.003331 0.035255 -0.004504 0.005753
# 5 0.001291 0.001167 0.003749 -0.004504 0.043305 -0.005644
# 6 0.004087 -0.000766 0.000758 0.005753 -0.005644 0.024981
#
#
# Mechanical properties :
#
#
# Convention : Reuss Voigt Hill
#
# Bulk Modulus (GPa) = 31.60689 41.46519 36.53604
# Shear Modulus (GPa) = 27.48277 32.88480 30.18378
#
# Velocity S-wave (km/s) = 3.68169 4.02731 3.85837
# Velocity P-wave (km/s) = 5.80191 6.48667 6.15382
#
# Compressibility (1/GPa) = 0.03163867
#
# Stress axis : x y z
#
# Youngs Moduli (GPa) = 51.59444 67.62437 64.21599
#
# Poissons Ratio (x) = 0.35989 -0.05179
# Poissons Ratio (y) = 0.27458 0.29130
# Poissons Ratio (z) = -0.04161 0.30676
#
# Static dielectric constant tensor:
#      x y z
#    x 3.931730 -0.118430 -0.070900 
#    y -0.118430 3.805830 -0.152450 
#    z -0.070900 -0.152450 3.811600 
# 
# 
# High freq. dielectric constant tensor:
#      x y z
#    x 1.792570 -0.008290 -0.009410 
#    y -0.008290 1.793140 -0.005850 
#    z -0.009410 -0.005850 1.792010 
# 
# From -- ./inp_files/539371.got.cif
#   From: 2010.06.25/outbox.cif.g09.slc.cpg/sg2_270_cif.got.tgz:539371.got - 2010.06.27 13:26:56.
