data_PCOD8026848
_publ_section_title
;
Structure prediction by ZEFSAII (Michael W. Deem and Ramdas Pophale) SiO2 
 PCOD8026848
Probable space group: P -1
;
_chemical_formula_sum "Si O2"
_cell_formula_units_Z 16
_cell_length_a 5.195462
_cell_length_b 11.296579
_cell_length_c 12.582444
_cell_angle_alpha 71.776102
_cell_angle_beta 107.276187
_cell_angle_gamma 103.121769
_cell_volume 662.422650
_symmetry_space_group_name_H-M "P -1"
_symmetry_group_IT_number 2
_symmetry_cell_setting 'triclinic'
loop_
_space_group_symop_operation_xyz
x,y,z
-x,-y,-z
loop_
_atom_site_type_symbol
_atom_site_label
_atom_site_fract_x
_atom_site_fract_y
_atom_site_fract_z
Si Si1 0.935728 0.203013 0.071459
Si Si2 0.305289 0.500024 0.574993
Si Si3 0.333975 0.234223 0.730319
Si Si4 0.670530 0.281855 0.331378
Si Si5 0.758045 0.947367 0.721781
Si Si6 0.529100 0.358527 0.072678
Si Si7 0.150795 0.875161 0.144670
Si Si8 0.993879 0.878218 0.462131
O O1 0.692788 0.287897 0.025238
O O2 0.965385 0.118036 0.205272
O O3 0.224839 0.290769 0.069670
O O4 0.897034 0.108538 0.991742
O O5 0.500000 0.500000 0.500000
O O6 0.303999 0.380259 0.684076
O O7 0.427045 0.623040 0.622726
O O8 0.000000 0.500000 0.500000
O O9 0.648149 0.229323 0.795503
O O10 0.131622 0.168213 0.815047
O O11 0.279286 0.171594 0.623166
O O12 0.464120 0.153151 0.332264
O O13 0.709421 0.353271 0.203474
O O14 0.942974 0.237786 0.425348
O O15 0.689530 0.995061 0.819273
O O16 0.790270 0.072341 0.618148
O O17 0.500000 0.500000 0.000000
O O18 0.000000 0.000000 0.500000
#
# Coordination Sequence:
#
# PCOD8026848 Si02
#       8
#     2   2   2   2   2   2   2   2
#     4  11  24  45  72 101 141 180 237 282 348 409
#     4  12  27  46  70 100 143 181 237 287 342 417
#     4  11  25  44  66 106 138 184 235 280 349 414
#     4  11  25  44  72 101 143 184 229 289 349 412
#     4  10  24  43  69 107 138 184 231 285 350 415
#     4  11  26  47  69 104 138 186 234 284 342 414
#     4  11  24  44  73 101 145 179 231 285 346 415
#     4  11  22  40  70 100 141 181 229 289 347 416
#
# _framework density 24.153763999999999
#
# number of rings (size 3 to 8) (size 9 to 14) (size 15 to 20)
#    0.000    1.000    1.250    4.125    7.000    5.000 
#    0.000    6.250    0.000    0.000    0.000    0.000 
#    0.000    0.000    0.000    0.000    0.000    0.000 
#
# Total GULP energy -198268.427196 kJ/mol
# GULP energy per Si atom -12391.776700 kJ/mol
# Density = 2.409879 g / cm^3
# Si number density = 24.153764 Si / 1000 Ang^3
#
#
#
# Elastic Constant Matrix: (Units=GPa)
#
#
# Indices 1 2 3 4 5 6 
#
# 1 92.8142 7.1081 7.8218 4.3937 -3.1957 -7.8242
# 2 7.1081 105.5362 20.7868 13.4722 -16.4771 -8.0555
# 3 7.8218 20.7868 112.0481 8.2831 -3.8972 1.7624
# 4 4.3937 13.4722 8.2831 47.9477 -11.1072 -1.7474
# 5 -3.1957 -16.4771 -3.8972 -11.1072 28.3080 1.8237
# 6 -7.8242 -8.0555 1.7624 -1.7474 1.8237 34.6458
#
#
#
# Elastic Compliance Matrix: (Units=1/GPa)
#
#
# Indices 1 2 3 4 5 6 
#
# 1 0.011106 -0.000252 -0.000701 -0.000593 0.000622 0.002423
# 2 -0.000252 0.011046 -0.001772 -0.001430 0.005452 0.002242
# 3 -0.000701 -0.001772 0.009398 -0.001147 -0.000196 -0.001096
# 4 -0.000593 -0.001430 -0.001147 0.023400 0.008102 0.000346
# 5 0.000622 0.005452 -0.000196 0.008102 0.041745 -0.000371
# 6 0.002423 0.002242 -0.001096 0.000346 -0.000371 0.030025
#
#
# Mechanical properties :
#
#
# Convention : Reuss Voigt Hill
#
# Bulk Modulus (GPa) = 38.31392 42.42575 40.36984
# Shear Modulus (GPa) = 35.49385 40.49241 37.99313
#
# Velocity S-wave (km/s) = 3.83756 4.09888 3.97037
# Velocity P-wave (km/s) = 5.96094 6.32488 6.14560
#
# Compressibility (1/GPa) = 0.02610018
#
# Stress axis : x y z
#
# Youngs Moduli (GPa) = 90.03876 90.52875 106.41085
#
# Poissons Ratio (x) = 0.02283 0.07461
# Poissons Ratio (y) = 0.02271 0.18852
# Poissons Ratio (z) = 0.06313 0.16038
#
# Static dielectric constant tensor:
#      x y z
#    x 4.210670 -0.042830 -0.081150 
#    y -0.042830 4.748020 -0.120340 
#    z -0.081150 -0.120340 5.382010 
# 
# 
# High freq. dielectric constant tensor:
#      x y z
#    x 1.936530 -0.012270 0.012280 
#    y -0.012270 1.971810 0.007000 
#    z 0.012280 0.007000 1.979040 
# 
# From -- ./inp_files/364125.got.cif
#   From: 2010.06.25/outbox.cif.g09.slc.cpg/sg2_183_cif.got.tgz:364125.got - 2010.06.27 13:26:56.
