data_PCOD8026726
_publ_section_title
;
Structure prediction by ZEFSAII (Michael W. Deem and Ramdas Pophale) SiO2 
 PCOD8026726
Probable space group: P -1
;
_chemical_formula_sum "Si O2"
_cell_formula_units_Z 16
_cell_length_a 8.778141
_cell_length_b 14.108551
_cell_length_c 14.792432
_cell_angle_alpha 149.367768
_cell_angle_beta 65.018535
_cell_angle_gamma 95.815417
_cell_volume 696.717360
_symmetry_space_group_name_H-M "P -1"
_symmetry_group_IT_number 2
_symmetry_cell_setting 'triclinic'
loop_
_space_group_symop_operation_xyz
x,y,z
-x,-y,-z
loop_
_atom_site_type_symbol
_atom_site_label
_atom_site_fract_x
_atom_site_fract_y
_atom_site_fract_z
Si Si1 0.334310 0.353461 0.578600
Si Si2 0.892827 0.405310 0.003932
Si Si3 0.744796 0.828227 0.906594
Si Si4 0.063559 0.934535 0.643492
Si Si5 0.488285 0.514898 0.121271
Si Si6 0.833341 0.539081 0.484386
Si Si7 0.368382 0.939046 0.193223
Si Si8 0.762061 0.191038 0.312587
O O1 0.137396 0.542674 0.838442
O O2 0.309183 0.381589 0.500565
O O3 0.536207 0.348503 0.543536
O O4 0.372613 0.115914 0.402356
O O5 0.663619 0.543853 0.135661
O O6 0.000000 0.500000 0.000000
O O7 0.030263 0.133556 0.748404
O O8 0.774359 0.763466 0.738984
O O9 0.929951 0.596953 0.717978
O O10 0.528367 0.872898 0.018583
O O11 0.764353 0.033148 0.101822
O O12 0.261571 0.707139 0.368341
O O13 0.090051 0.960658 0.765534
O O14 0.858817 0.940111 0.691066
O O15 0.500000 0.500000 0.000000
O O16 0.551983 0.274330 0.941226
O O17 0.818217 0.356713 0.395896
#
# Coordination Sequence:
#
# PCOD8026726 Si02
#       8
#     2   2   2   2   2   2   2   2
#     4  11  25  46  69 106 144 190 237 297 363 424
#     4  11  27  46  73 107 142 182 240 294 362 439
#     4  10  24  43  66 104 140 190 245 286 360 422
#     4  11  25  47  74 102 145 195 229 302 366 421
#     4  11  26  46  73 103 138 186 241 299 365 429
#     4  11  24  42  73 103 148 189 246 300 357 425
#     4  10  26  44  72 103 146 182 244 293 354 437
#     4  11  23  46  70 102 150 188 246 293 357 431
#
# _framework density 22.964836999999999
#
# number of rings (size 3 to 8) (size 9 to 14) (size 15 to 20)
#    0.000    1.250    1.250    2.250   10.500    5.500 
#    4.500    0.000    0.000    0.000    0.000    0.000 
#    0.000    0.000    0.000    0.000    0.000    0.000 
#
# Total GULP energy -198251.667316 kJ/mol
# GULP energy per Si atom -12390.729207 kJ/mol
# Density = 2.291257 g / cm^3
# Si number density = 22.964837 Si / 1000 Ang^3
#
#
#
# Elastic Constant Matrix: (Units=GPa)
#
#
# Indices 1 2 3 4 5 6 
#
# 1 124.9491 54.3474 49.8274 -1.3723 -19.6609 3.6590
# 2 54.3474 81.5329 50.0945 -0.4070 -2.9128 -4.6534
# 3 49.8274 50.0945 114.0214 -7.1807 -16.5008 -2.8826
# 4 -1.3723 -0.4070 -7.1807 27.8105 -6.0772 1.4508
# 5 -19.6609 -2.9128 -16.5008 -6.0772 42.5991 -2.2438
# 6 3.6590 -4.6534 -2.8826 1.4508 -2.2438 33.8599
#
#
#
# Elastic Compliance Matrix: (Units=1/GPa)
#
#
# Indices 1 2 3 4 5 6 
#
# 1 0.012710 -0.007470 -0.001551 0.001289 0.004819 -0.002268
# 2 -0.007470 0.021549 -0.007047 -0.003119 -0.004992 0.002972
# 3 -0.001551 -0.007047 0.013503 0.004303 0.004672 0.000474
# 4 0.001289 -0.003119 0.004303 0.038799 0.007511 -0.001366
# 5 0.004819 -0.004992 0.004672 0.007511 0.028277 0.000743
# 6 -0.002268 0.002972 0.000474 -0.001366 0.000743 0.030335
#
#
# Mechanical properties :
#
#
# Convention : Reuss Voigt Hill
#
# Bulk Modulus (GPa) = 63.99390 69.89356 66.94373
# Shear Modulus (GPa) = 27.39442 31.93618 29.66530
#
# Velocity S-wave (km/s) = 3.45756 3.73320 3.59802
# Velocity P-wave (km/s) = 6.62316 7.00596 6.81724
#
# Compressibility (1/GPa) = 0.01562649
#
# Stress axis : x y z
#
# Youngs Moduli (GPa) = 78.68073 46.40480 74.05602
#
# Poissons Ratio (x) = 0.34663 0.11488
# Poissons Ratio (y) = 0.58771 0.52188
# Poissons Ratio (z) = 0.12205 0.32702
#
# Static dielectric constant tensor:
#      x y z
#    x 4.474310 0.050400 -0.081560 
#    y 0.050400 3.906230 -0.044260 
#    z -0.081560 -0.044260 4.253440 
# 
# 
# High freq. dielectric constant tensor:
#      x y z
#    x 1.923510 0.000590 -0.009630 
#    y 0.000590 1.894400 0.003240 
#    z -0.009630 0.003240 1.920670 
# 
# From -- ./inp_files/505742.got.cif
#   From: 2010.06.25/outbox.cif.g09.slc.cpg/sg2_253_cif.got.tgz:505742.got - 2010.06.27 13:26:56.
