data_PCOD8026534
_publ_section_title
;
Structure prediction by ZEFSAII (Michael W. Deem and Ramdas Pophale) SiO2 
 PCOD8026534
Probable space group: P -1
;
_chemical_formula_sum "Si O2"
_cell_formula_units_Z 14
_cell_length_a 8.958661
_cell_length_b 8.831776
_cell_length_c 12.018590
_cell_angle_alpha 44.478271
_cell_angle_beta 59.857705
_cell_angle_gamma 61.228417
_cell_volume 564.160105
_symmetry_space_group_name_H-M "P -1"
_symmetry_group_IT_number 2
_symmetry_cell_setting 'triclinic'
loop_
_space_group_symop_operation_xyz
x,y,z
-x,-y,-z
loop_
_atom_site_type_symbol
_atom_site_label
_atom_site_fract_x
_atom_site_fract_y
_atom_site_fract_z
Si Si1 0.301759 0.556859 0.005943
Si Si2 0.432658 0.830989 0.254989
Si Si3 0.444556 0.940500 0.701466
Si Si4 0.759505 0.714877 0.572138
Si Si5 0.269876 0.256956 0.971189
Si Si6 0.025207 0.248880 0.871990
Si Si7 0.147685 0.579469 0.501864
O O1 0.285470 0.808653 0.836641
O O2 0.500000 0.500000 0.000000
O O3 0.246307 0.414487 0.002851
O O4 0.164614 0.576633 0.151301
O O5 0.305826 0.684461 0.437770
O O6 0.532166 0.946926 0.248647
O O7 0.312784 0.006333 0.127768
O O8 0.578953 0.684897 0.197295
O O9 0.636381 0.763083 0.703826
O O10 0.379294 0.122443 0.538808
O O11 0.801563 0.474944 0.619038
O O12 0.959947 0.755553 0.493968
O O13 0.092115 0.283390 0.953138
O O14 0.144297 0.340934 0.686843
O O15 0.000000 0.000000 0.000000
#
# Coordination Sequence:
#
# PCOD8026534 Si02
#       7
#     2   2   2   2   2   2   2
#     4  12  24  45  72 100 143 184 236 282 352 414
#     4  11  25  44  73 102 143 179 240 285 352 411
#     4  11  23  45  69 104 134 187 228 294 341 422
#     4  10  24  42  68 101 135 178 234 282 357 402
#     4  11  26  46  70 107 140 189 229 295 346 416
#     4  12  28  46  74 105 143 183 238 286 353 420
#     4  11  25  45  69 102 136 186 228 294 343 420
#
# _framework density 24.815649000000001
#
# number of rings (size 3 to 8) (size 9 to 14) (size 15 to 20)
#    0.000    0.857    1.429    4.714    8.000    5.143 
#    0.000    0.000    0.000    0.000    0.000    0.000 
#    0.000    0.000    0.000    0.000    0.000    0.000 
#
# Total GULP energy -173461.613518 kJ/mol
# GULP energy per Si atom -12390.115251 kJ/mol
# Density = 2.475917 g / cm^3
# Si number density = 24.815649 Si / 1000 Ang^3
#
#
#
# Elastic Constant Matrix: (Units=GPa)
#
#
# Indices 1 2 3 4 5 6 
#
# 1 88.0481 26.2674 11.4273 0.0948 -10.7993 6.4782
# 2 26.2674 127.1168 44.5035 25.7916 -21.2922 6.1179
# 3 11.4273 44.5035 105.0987 8.0899 -27.2650 6.4187
# 4 0.0948 25.7916 8.0899 38.4910 0.3707 -1.4262
# 5 -10.7993 -21.2922 -27.2650 0.3707 32.3977 2.1815
# 6 6.4782 6.1179 6.4187 -1.4262 2.1815 46.4123
#
#
#
# Elastic Compliance Matrix: (Units=1/GPa)
#
#
# Indices 1 2 3 4 5 6 
#
# 1 0.012517 -0.002450 0.000450 0.001428 0.003031 -0.001585
# 2 -0.002450 0.011691 -0.002839 -0.007322 0.004645 -0.001250
# 3 0.000450 -0.002839 0.013393 -0.001082 0.009704 -0.002030
# 4 0.001428 -0.007322 -0.001082 0.031245 -0.005749 0.002146
# 5 0.003031 0.004645 0.009704 -0.005749 0.043472 -0.004597
# 6 -0.001585 -0.001250 -0.002030 0.002146 -0.004597 0.022495
#
#
# Mechanical properties :
#
#
# Convention : Reuss Voigt Hill
#
# Bulk Modulus (GPa) = 35.81364 53.85111 44.83238
# Shear Modulus (GPa) = 32.51021 39.33124 35.92072
#
# Velocity S-wave (km/s) = 3.62341 3.98545 3.80873
# Velocity P-wave (km/s) = 5.65409 6.55179 6.11942
#
# Compressibility (1/GPa) = 0.02792232
#
# Stress axis : x y z
#
# Youngs Moduli (GPa) = 79.89314 85.53766 74.66620
#
# Poissons Ratio (x) = 0.20954 -0.03357
# Poissons Ratio (y) = 0.19571 0.21197
# Poissons Ratio (z) = -0.03591 0.24284
#
# Static dielectric constant tensor:
#      x y z
#    x 4.321340 -0.358230 0.711760 
#    y -0.358230 4.536590 0.291670 
#    z 0.711760 0.291670 2.952200 
# 
# 
# High freq. dielectric constant tensor:
#      x y z
#    x 2.001200 -0.020930 0.008160 
#    y -0.020930 1.993830 0.013730 
#    z 0.008160 0.013730 1.992590 
# 
# From -- ./inp_files/491926.got.cif
#   From: 2010.06.25/outbox.cif.g09.slc.cpg/sg2_246_cif.got.tgz:491926.got - 2010.06.27 13:26:56.
