data_PCOD8026819
_publ_section_title
;
Structure prediction by ZEFSAII (Michael W. Deem and Ramdas Pophale) SiO2 
 PCOD8026819
Probable space group: P -1
;
_chemical_formula_sum "Si O2"
_cell_formula_units_Z 14
_cell_length_a 10.986187
_cell_length_b 9.196197
_cell_length_c 9.043061
_cell_angle_alpha 137.468571
_cell_angle_beta 81.913780
_cell_angle_gamma 96.484929
_cell_volume 611.409965
_symmetry_space_group_name_H-M "P -1"
_symmetry_group_IT_number 2
_symmetry_cell_setting 'triclinic'
loop_
_space_group_symop_operation_xyz
x,y,z
-x,-y,-z
loop_
_atom_site_type_symbol
_atom_site_label
_atom_site_fract_x
_atom_site_fract_y
_atom_site_fract_z
Si Si1 0.423398 0.407516 0.080420
Si Si2 0.277559 0.990846 0.817683
Si Si3 0.812569 0.304333 0.634855
Si Si4 0.589738 0.194411 0.096684
Si Si5 0.063298 0.549573 0.708874
Si Si6 0.098789 0.178763 0.224611
Si Si7 0.822687 0.187248 0.877707
O O1 0.311315 0.562075 0.247002
O O2 0.511669 0.399085 0.206426
O O3 0.500000 0.500000 0.000000
O O4 0.379898 0.161432 0.866181
O O5 0.199910 0.897132 0.624665
O O6 0.331701 0.785134 0.748103
O O7 0.200261 0.134700 0.051763
O O8 0.839564 0.205921 0.716137
O O9 0.927964 0.453064 0.687700
O O10 0.681706 0.131657 0.900071
O O11 0.500000 0.000000 0.000000
O O12 0.138351 0.396713 0.471293
O O13 0.035095 0.779155 0.800522
O O14 0.139039 0.590144 0.876587
O O15 0.086081 0.995753 0.215009
#
# Coordination Sequence:
#
# PCOD8026819 Si02
#       7
#     2   2   2   2   2   2   2
#     4  11  22  45  68  95 138 178 226 280 327 401
#     4  10  24  43  69  99 138 171 224 282 336 400
#     4  12  26  42  68 105 136 179 221 275 348 394
#     4   9  21  43  68  94 131 178 226 272 329 392
#     4  11  25  42  72  98 132 182 228 269 338 408
#     4  10  24  43  68  95 134 172 226 273 333 398
#     4  11  24  44  67  99 141 173 225 279 335 401
#
# _framework density 22.897893
#
# number of rings (size 3 to 8) (size 9 to 14) (size 15 to 20)
#    0.000    1.429    2.857    0.857   10.000    2.857 
#    0.000    2.857    0.000    0.000    0.000    0.000 
#    0.000    0.000    0.000    0.000    0.000    0.000 
#
# Total GULP energy -173501.624333 kJ/mol
# GULP energy per Si atom -12392.973167 kJ/mol
# Density = 2.284578 g / cm^3
# Si number density = 22.897893 Si / 1000 Ang^3
#
#
#
# Elastic Constant Matrix: (Units=GPa)
#
#
# Indices 1 2 3 4 5 6 
#
# 1 93.7802 45.5239 69.7859 -8.2634 -3.4637 -9.3500
# 2 45.5239 143.7118 70.0377 -16.8306 -0.5476 -18.6313
# 3 69.7859 70.0377 114.5627 -25.2523 2.1105 -12.3805
# 4 -8.2634 -16.8306 -25.2523 31.8024 -10.1139 1.2507
# 5 -3.4637 -0.5476 2.1105 -10.1139 27.8111 -7.7825
# 6 -9.3500 -18.6313 -12.3805 1.2507 -7.7825 45.3646
#
#
#
# Elastic Compliance Matrix: (Units=1/GPa)
#
#
# Indices 1 2 3 4 5 6 
#
# 1 0.020416 -0.000508 -0.013116 -0.004762 0.002049 0.000902
# 2 -0.000508 0.010307 -0.005363 0.001566 0.001943 0.002955
# 3 -0.013116 -0.005363 0.022798 0.012227 0.001314 0.001204
# 4 -0.004762 0.001566 0.012227 0.045793 0.016438 0.004556
# 5 0.002049 0.001943 0.001314 0.016438 0.044584 0.008774
# 6 0.000902 0.002955 0.001204 0.004556 0.008774 0.025152
#
#
# Mechanical properties :
#
#
# Convention : Reuss Voigt Hill
#
# Bulk Modulus (GPa) = 64.31988 80.30551 72.31269
# Shear Modulus (GPa) = 23.56231 32.10944 27.83588
#
# Velocity S-wave (km/s) = 3.21131 3.74878 3.49040
# Velocity P-wave (km/s) = 6.47309 7.34064 6.92047
#
# Compressibility (1/GPa) = 0.01554729
#
# Stress axis : x y z
#
# Youngs Moduli (GPa) = 48.98165 97.02379 43.86409
#
# Poissons Ratio (x) = 0.04931 0.57530
# Poissons Ratio (y) = 0.02490 0.23523
# Poissons Ratio (z) = 0.64242 0.52031
#
# Static dielectric constant tensor:
#      x y z
#    x 4.611740 -0.334590 0.013890 
#    y -0.334590 4.523200 0.000040 
#    z 0.013890 0.000040 3.975510 
# 
# 
# High freq. dielectric constant tensor:
#      x y z
#    x 1.915670 -0.002720 0.000440 
#    y -0.002720 1.920150 -0.003570 
#    z 0.000440 -0.003570 1.880150 
# 
# From -- ./inp_files/246240.got.cif
#   From: 2010.06.25/outbox.cif.g09.slc.cpg/sg2_124_cif.got.tgz:246240.got - 2010.06.27 13:26:56.
