data_PCOD8026906
_publ_section_title
;
Structure prediction by ZEFSAII (Michael W. Deem and Ramdas Pophale) SiO2 
 PCOD8026906
Probable space group: P -1
;
_chemical_formula_sum "Si O2"
_cell_formula_units_Z 16
_cell_length_a 8.567264
_cell_length_b 17.779374
_cell_length_c 12.253239
_cell_angle_alpha 39.628779
_cell_angle_beta 49.119868
_cell_angle_gamma 77.538835
_cell_volume 721.503126
_symmetry_space_group_name_H-M "P -1"
_symmetry_group_IT_number 2
_symmetry_cell_setting 'triclinic'
loop_
_space_group_symop_operation_xyz
x,y,z
-x,-y,-z
loop_
_atom_site_type_symbol
_atom_site_label
_atom_site_fract_x
_atom_site_fract_y
_atom_site_fract_z
Si Si1 0.224053 0.166404 0.228025
Si Si2 0.947184 0.324912 0.489160
Si Si3 0.273137 0.086891 0.718313
Si Si4 0.117880 0.620775 0.138020
Si Si5 0.286258 0.415852 0.782518
Si Si6 0.734506 0.369473 0.324041
Si Si7 0.714214 0.175008 0.976327
Si Si8 0.314392 0.263976 0.308726
O O1 0.472367 0.172543 0.108737
O O2 0.170437 0.210729 0.318270
O O3 0.259919 0.275903 0.996502
O O4 0.000000 0.000000 0.500000
O O5 0.790790 0.299806 0.477632
O O6 0.957873 0.446303 0.423207
O O7 0.224345 0.358782 0.296566
O O8 0.797560 0.190149 0.794312
O O9 0.515261 0.235197 0.499547
O O10 0.216387 0.125411 0.584838
O O11 0.350343 0.978307 0.782885
O O12 0.000000 0.000000 0.000000
O O13 0.998298 0.650117 0.057843
O O14 0.087809 0.694069 0.175936
O O15 0.385832 0.655878 0.936563
O O16 0.500000 0.500000 0.500000
O O17 0.381407 0.544298 0.683506
O O18 0.000000 0.500000 0.000000
#
# Coordination Sequence:
#
# PCOD8026906 Si02
#       8
#     2   2   2   2   2   2   2   2
#     4  11  27  44  71 103 139 186 236 293 355 424
#     4  11  22  45  70 103 136 185 234 294 344 421
#     4  12  27  46  70 108 142 189 230 296 364 419
#     4  10  24  43  71 101 141 181 236 288 358 416
#     4  11  25  46  72 102 137 189 238 294 352 429
#     4  11  26  46  74 100 140 185 241 289 351 426
#     4  11  26  44  67 102 144 182 232 291 356 423
#     4  11  25  42  69 101 140 185 233 293 351 422
#
# _framework density 22.175923999999998
#
# number of rings (size 3 to 8) (size 9 to 14) (size 15 to 20)
#    0.000    1.000    1.250    4.500    8.750    5.500 
#    0.000    0.000    0.000    0.000    0.000    0.000 
#    0.000    0.000    0.000    0.000    0.000    0.000 
#
# Total GULP energy -198226.607578 kJ/mol
# GULP energy per Si atom -12389.162974 kJ/mol
# Density = 2.212545 g / cm^3
# Si number density = 22.175924 Si / 1000 Ang^3
#
#
#
# Elastic Constant Matrix: (Units=GPa)
#
#
# Indices 1 2 3 4 5 6 
#
# 1 83.0049 42.2862 37.6022 -20.9649 19.8578 1.0633
# 2 42.2862 135.2038 42.7927 -10.7272 4.3251 -5.1032
# 3 37.6022 42.7927 105.8908 -6.0680 14.7448 12.6404
# 4 -20.9649 -10.7272 -6.0680 37.3454 0.5752 5.8695
# 5 19.8578 4.3251 14.7448 0.5752 42.5732 -5.6472
# 6 1.0633 -5.1032 12.6404 5.8695 -5.6472 39.5015
#
#
#
# Elastic Compliance Matrix: (Units=1/GPa)
#
#
# Indices 1 2 3 4 5 6 
#
# 1 0.020435 -0.004330 -0.003423 0.010231 -0.008407 -0.002736
# 2 -0.004330 0.009710 -0.003105 -0.000627 0.002490 0.002814
# 3 -0.003423 -0.003105 0.012960 0.000118 -0.003233 -0.004936
# 4 0.010231 -0.000627 0.000118 0.033431 -0.006027 -0.006223
# 5 -0.008407 0.002490 -0.003233 -0.006027 0.029242 0.006659
# 6 -0.002736 0.002814 -0.004936 -0.006223 0.006659 0.029209
#
#
# Mechanical properties :
#
#
# Convention : Reuss Voigt Hill
#
# Bulk Modulus (GPa) = 46.75390 63.27354 55.01372
# Shear Modulus (GPa) = 30.51912 37.31191 33.91551
#
# Velocity S-wave (km/s) = 3.71378 4.10633 3.91498
# Velocity P-wave (km/s) = 6.28637 7.14682 6.73036
#
# Compressibility (1/GPa) = 0.02138859
#
# Stress axis : x y z
#
# Youngs Moduli (GPa) = 48.93646 102.98523 77.16018
#
# Poissons Ratio (x) = 0.44597 0.26411
# Poissons Ratio (y) = 0.21191 0.23958
# Poissons Ratio (z) = 0.16750 0.31976
#
# Static dielectric constant tensor:
#      x y z
#    x 4.206800 -0.032100 0.212720 
#    y -0.032100 4.232790 -0.003600 
#    z 0.212720 -0.003600 3.888200 
# 
# 
# High freq. dielectric constant tensor:
#      x y z
#    x 1.884430 -0.011420 0.010380 
#    y -0.011420 1.886800 0.006900 
#    z 0.010380 0.006900 1.870930 
# 
# From -- ./inp_files/306622.got.cif
#   From: 2010.06.25/outbox.cif.g09.slc.cpg/sg2_154_cif.got.tgz:306622.got - 2010.06.27 13:26:56.
