data_PCOD8026118
_publ_section_title
;
Structure prediction by ZEFSAII (Michael W. Deem and Ramdas Pophale) SiO2 
 PCOD8026118
Probable space group: P -1
;
_chemical_formula_sum "Si O2"
_cell_formula_units_Z 16
_cell_length_a 14.746258
_cell_length_b 11.895179
_cell_length_c 11.294031
_cell_angle_alpha 78.434174
_cell_angle_beta 31.753711
_cell_angle_gamma 57.519355
_cell_volume 718.344645
_symmetry_space_group_name_H-M "P -1"
_symmetry_group_IT_number 2
_symmetry_cell_setting 'triclinic'
loop_
_space_group_symop_operation_xyz
x,y,z
-x,-y,-z
loop_
_atom_site_type_symbol
_atom_site_label
_atom_site_fract_x
_atom_site_fract_y
_atom_site_fract_z
Si Si1 0.299231 0.687374 0.224103
Si Si2 0.794389 0.697787 0.051116
Si Si3 0.014875 0.275953 0.745677
Si Si4 0.668134 0.638221 0.971542
Si Si5 0.777837 0.165348 0.970734
Si Si6 0.598422 0.861708 0.832288
Si Si7 0.731789 0.669115 0.384586
Si Si8 0.124480 0.100992 0.176960
O O1 0.060064 0.758624 0.548637
O O2 0.500000 0.500000 0.000000
O O3 0.406016 0.721964 0.197575
O O4 0.212288 0.786485 0.180761
O O5 0.641061 0.713722 0.111553
O O6 0.789998 0.836406 0.014944
O O7 0.077701 0.525180 0.772986
O O8 0.661137 0.724432 0.314996
O O9 0.840265 0.447079 0.834032
O O10 0.231555 0.147663 0.442253
O O11 0.131695 0.279808 0.731282
O O12 0.881490 0.216611 0.933304
O O13 0.753219 0.688311 0.764362
O O14 0.506467 0.255988 0.294367
O O15 0.954673 0.968016 0.807559
O O16 0.500000 0.000000 0.000000
O O17 0.360488 0.927606 0.013043
#
# Coordination Sequence:
#
# PCOD8026118 Si02
#       8
#     2   2   2   2   2   2   2   2
#     4  12  24  41  64 102 141 172 221 275 334 417
#     4  10  24  45  70  92 131 186 228 282 335 393
#     4  11  24  43  68  98 134 184 228 271 334 402
#     4  11  23  40  68  98 132 182 221 274 337 407
#     4  12  24  41  68 101 137 176 218 279 339 402
#     4  12  23  38  63  99 140 174 213 276 346 411
#     4  10  23  50  68  93 133 181 239 281 322 395
#     4  12  25  40  65 102 142 177 211 282 350 395
#
# _framework density 22.273430999999999
#
# number of rings (size 3 to 8) (size 9 to 14) (size 15 to 20)
#    0.000    0.750    5.000    2.250    1.750    2.500 
#    2.250    2.500    0.000    0.000    0.000    0.000 
#    0.000    0.000    0.000    0.000    0.000    0.000 
#
# Total GULP energy -198228.180897 kJ/mol
# GULP energy per Si atom -12389.261306 kJ/mol
# Density = 2.222274 g / cm^3
# Si number density = 22.273431 Si / 1000 Ang^3
#
#
#
# Elastic Constant Matrix: (Units=GPa)
#
#
# Indices 1 2 3 4 5 6 
#
# 1 101.3957 35.0982 18.4191 -10.1925 -6.9774 4.3487
# 2 35.0982 104.7275 15.3196 0.4437 4.8065 24.6421
# 3 18.4191 15.3196 82.3406 -1.6958 6.7610 3.5414
# 4 -10.1925 0.4437 -1.6958 26.3447 7.5690 4.0504
# 5 -6.9774 4.8065 6.7610 7.5690 30.1689 -6.9897
# 6 4.3487 24.6421 3.5414 4.0504 -6.9897 38.5822
#
#
#
# Elastic Compliance Matrix: (Units=1/GPa)
#
#
# Indices 1 2 3 4 5 6 
#
# 1 0.012313 -0.004446 -0.002246 0.003333 0.003680 0.001975
# 2 -0.004446 0.013536 -0.000666 0.000970 -0.005402 -0.009163
# 3 -0.002246 -0.000666 0.013191 0.001368 -0.004039 -0.001407
# 4 0.003333 0.000970 0.001368 0.044189 -0.012642 -0.008050
# 5 0.003680 -0.005402 -0.004039 -0.012642 0.041786 0.012303
# 6 0.001975 -0.009163 -0.001407 -0.008050 0.012303 0.034752
#
#
# Mechanical properties :
#
#
# Convention : Reuss Voigt Hill
#
# Bulk Modulus (GPa) = 41.11021 47.34859 44.22940
# Shear Modulus (GPa) = 27.38368 33.66095 30.52232
#
# Velocity S-wave (km/s) = 3.51013 3.89171 3.70583
# Velocity P-wave (km/s) = 5.90975 6.44189 6.18155
#
# Compressibility (1/GPa) = 0.02432486
#
# Stress axis : x y z
#
# Youngs Moduli (GPa) = 81.21650 73.87765 75.80740
#
# Poissons Ratio (x) = 0.32843 0.17024
# Poissons Ratio (y) = 0.36106 0.05051
# Poissons Ratio (z) = 0.18238 0.04922
#
# Static dielectric constant tensor:
#      x y z
#    x 3.797680 0.216090 0.086730 
#    y 0.216090 4.342270 -0.093350 
#    z 0.086730 -0.093350 3.799510 
# 
# 
# High freq. dielectric constant tensor:
#      x y z
#    x 1.878400 0.019040 0.001330 
#    y 0.019040 1.879870 0.005160 
#    z 0.001330 0.005160 1.864420 
# 
# From -- ./inp_files/452252.got.cif
#   From: 2010.06.25/outbox.cif.g09.slc.cpg/sg2_227_cif.got.tgz:452252.got - 2010.06.27 13:26:56.
