data_PCOD8026293
_publ_section_title
;
Structure prediction by ZEFSAII (Michael W. Deem and Ramdas Pophale) SiO2 
 PCOD8026293
Probable space group: P -1
;
_chemical_formula_sum "Si O2"
_cell_formula_units_Z 16
_cell_length_a 11.911863
_cell_length_b 8.948659
_cell_length_c 8.039669
_cell_angle_alpha 96.307424
_cell_angle_beta 64.569840
_cell_angle_gamma 106.775533
_cell_volume 740.920281
_symmetry_space_group_name_H-M "P -1"
_symmetry_group_IT_number 2
_symmetry_cell_setting 'triclinic'
loop_
_space_group_symop_operation_xyz
x,y,z
-x,-y,-z
loop_
_atom_site_type_symbol
_atom_site_label
_atom_site_fract_x
_atom_site_fract_y
_atom_site_fract_z
Si Si1 0.997181 0.656079 0.617569
Si Si2 0.491077 0.736956 0.472341
Si Si3 0.706770 0.563930 0.359779
Si Si4 0.793943 0.139366 0.864525
Si Si5 0.225855 0.920094 0.502337
Si Si6 0.926928 0.823517 0.387190
Si Si7 0.607732 0.027477 0.268622
Si Si8 0.870392 0.484878 0.974195
O O1 0.954785 0.788486 0.555318
O O2 0.000000 0.500000 0.500000
O O3 0.142267 0.747596 0.591714
O O4 0.905229 0.619725 0.830392
O O5 0.619185 0.682628 0.414853
O O6 0.369442 0.586187 0.501152
O O7 0.463951 0.833661 0.665985
O O8 0.511758 0.850549 0.308962
O O9 0.844134 0.653259 0.359267
O O10 0.745171 0.505081 0.152130
O O11 0.726256 0.087887 0.721385
O O12 0.936169 0.111613 0.785867
O O13 0.705512 0.043465 0.055965
O O14 0.818889 0.322841 0.892523
O O15 0.333929 0.967016 0.579968
O O16 0.147903 0.048746 0.570135
O O17 0.000000 0.500000 0.000000
#
# Coordination Sequence:
#
# PCOD8026293 Si02
#       8
#     2   2   2   2   2   2   2   2
#     4  11  21  36  62  94 135 164 198 259 332 395
#     4  10  24  41  64  91 123 178 225 262 312 372
#     4  11  22  41  67  88 134 168 213 273 312 379
#     4  11  22  39  68 100 131 158 216 266 327 392
#     4  11  24  41  64  99 136 167 205 272 328 386
#     4  11  23  41  62 100 135 165 203 267 340 383
#     4  11  23  44  70  91 126 177 223 261 321 380
#     4  12  21  37  64 102 126 166 213 262 323 392
#
# _framework density 21.594766
#
# number of rings (size 3 to 8) (size 9 to 14) (size 15 to 20)
#    0.000    1.000    6.250    2.250    1.750    2.500 
#    0.000    2.500    5.500    3.000    0.000    0.000 
#    0.000    0.000    0.000    0.000    0.000    0.000 
#
# Total GULP energy -198220.119564 kJ/mol
# GULP energy per Si atom -12388.757473 kJ/mol
# Density = 2.154561 g / cm^3
# Si number density = 21.594766 Si / 1000 Ang^3
#
#
#
# Elastic Constant Matrix: (Units=GPa)
#
#
# Indices 1 2 3 4 5 6 
#
# 1 45.5971 1.0810 39.1548 10.5255 -7.0159 -12.8904
# 2 1.0810 93.0677 44.4066 -7.9254 -6.7022 -4.8385
# 3 39.1548 44.4066 168.1456 -18.4508 -11.6407 -1.3070
# 4 10.5255 -7.9254 -18.4508 44.5272 3.7300 -5.5488
# 5 -7.0159 -6.7022 -11.6407 3.7300 24.2207 8.5173
# 6 -12.8904 -4.8385 -1.3070 -5.5488 8.5173 26.1470
#
#
#
# Elastic Compliance Matrix: (Units=1/GPa)
#
#
# Indices 1 2 3 4 5 6 
#
# 1 0.039331 0.005099 -0.011393 -0.011366 0.003362 0.016257
# 2 0.005099 0.013158 -0.004565 -0.000366 0.001522 0.004147
# 3 -0.011393 -0.004565 0.010464 0.005436 0.001481 -0.005267
# 4 -0.011366 -0.000366 0.005436 0.028151 -0.006006 0.002531
# 5 0.003362 0.001522 0.001481 -0.006006 0.049759 -0.015471
# 6 0.016257 0.004147 -0.005267 0.002531 -0.015471 0.052340
#
#
# Mechanical properties :
#
#
# Convention : Reuss Voigt Hill
#
# Bulk Modulus (GPa) = 24.25196 52.89947 38.57572
# Shear Modulus (GPa) = 21.86594 33.79019 27.82807
#
# Velocity S-wave (km/s) = 3.18552 3.95997 3.59367
# Velocity P-wave (km/s) = 4.97845 6.74226 5.92634
#
# Compressibility (1/GPa) = 0.04123377
#
# Stress axis : x y z
#
# Youngs Moduli (GPa) = 25.42537 76.00087 95.56637
#
# Poissons Ratio (x) = -0.38751 1.08882
# Poissons Ratio (y) = -0.12964 0.43623
# Poissons Ratio (z) = 0.28968 0.34692
#
# Static dielectric constant tensor:
#      x y z
#    x 4.086400 0.335110 -0.128690 
#    y 0.335110 4.334260 -0.089090 
#    z -0.128690 -0.089090 4.094970 
# 
# 
# High freq. dielectric constant tensor:
#      x y z
#    x 1.829450 0.006600 -0.021120 
#    y 0.006600 1.874310 -0.004990 
#    z -0.021120 -0.004990 1.841990 
# 
# From -- ./inp_files/175213.got.cif
#   From: 2010.06.25/outbox.cif.g09.slc.cpg/sg2_88_cif.got.tgz:175213.got - 2010.06.27 13:26:56.
