data_PCOD8026111
_publ_section_title
;
Structure prediction by ZEFSAII (Michael W. Deem and Ramdas Pophale) SiO2 
 PCOD8026111
Probable space group: P -1
;
_chemical_formula_sum "Si O2"
_cell_formula_units_Z 16
_cell_length_a 18.397351
_cell_length_b 8.992891
_cell_length_c 12.547836
_cell_angle_alpha 104.353073
_cell_angle_beta 38.987922
_cell_angle_gamma 132.682965
_cell_volume 765.693333
_symmetry_space_group_name_H-M "P -1"
_symmetry_group_IT_number 2
_symmetry_cell_setting 'triclinic'
loop_
_space_group_symop_operation_xyz
x,y,z
-x,-y,-z
loop_
_atom_site_type_symbol
_atom_site_label
_atom_site_fract_x
_atom_site_fract_y
_atom_site_fract_z
Si Si1 0.796318 0.155899 0.429288
Si Si2 0.514744 0.322953 0.158009
Si Si3 0.488627 0.581899 0.366219
Si Si4 0.342667 0.664549 0.396287
Si Si5 0.019157 0.195207 0.547712
Si Si6 0.192505 0.113362 0.775590
Si Si7 0.857211 0.500447 0.749089
Si Si8 0.651283 0.974154 0.919103
O O1 0.749450 0.271284 0.452634
O O2 0.964108 0.355741 0.357866
O O3 0.607435 0.896926 0.655645
O O4 0.859956 0.105308 0.256155
O O5 0.506673 0.493410 0.225849
O O6 0.445067 0.226913 0.099991
O O7 0.732663 0.496751 0.951034
O O8 0.438078 0.696330 0.399312
O O9 0.318731 0.350795 0.595987
O O10 0.690648 0.797840 0.234342
O O11 0.177089 0.374731 0.491737
O O12 0.498904 0.855845 0.160916
O O13 0.072511 0.361606 0.418612
O O14 0.000000 0.000000 0.500000
O O15 0.816834 0.044126 0.794996
O O16 0.000000 0.000000 0.000000
O O17 0.729379 0.214938 0.822221
#
# Coordination Sequence:
#
# PCOD8026111 Si02
#       8
#     2   2   2   2   2   2   2   2
#     4  11  23  41  68  95 128 173 219 268 322 385
#     4  11  21  38  64  93 127 184 215 254 313 389
#     4  10  25  43  67  96 129 159 222 277 322 387
#     4  12  25  42  62 101 138 169 216 267 319 387
#     4  12  26  37  58  94 140 182 222 261 305 373
#     4  10  23  49  73  93 118 169 218 273 342 388
#     4  12  22  39  62  92 134 179 221 254 310 386
#     4  12  23  39  62  92 139 183 214 248 320 389
#
# _framework density 20.896094000000002
#
# number of rings (size 3 to 8) (size 9 to 14) (size 15 to 20)
#    0.000    0.750    5.000    3.000    3.500    2.500 
#    0.000    0.625    0.000    0.000    0.000    0.000 
#    0.000    0.000    0.000    0.000    0.000    0.000 
#
# Total GULP energy -198484.618362 kJ/mol
# GULP energy per Si atom -12405.288648 kJ/mol
# Density = 2.084853 g / cm^3
# Si number density = 20.896094 Si / 1000 Ang^3
#
#
#
# Elastic Constant Matrix: (Units=GPa)
#
#
# Indices 1 2 3 4 5 6 
#
# 1 137.5331 42.5867 33.8772 7.4326 -13.4860 -0.8804
# 2 42.5867 88.0346 29.2370 11.1139 -1.5471 1.7092
# 3 33.8772 29.2370 93.1953 18.9953 -25.2580 1.2385
# 4 7.4326 11.1139 18.9953 29.8724 -2.9184 -3.1112
# 5 -13.4860 -1.5471 -25.2580 -2.9184 32.2342 4.9609
# 6 -0.8804 1.7092 1.2385 -3.1112 4.9609 29.7066
#
#
#
# Elastic Compliance Matrix: (Units=1/GPa)
#
#
# Indices 1 2 3 4 5 6 
#
# 1 0.009066 -0.003901 -0.001495 0.000405 0.002442 0.000190
# 2 -0.003901 0.014763 -0.003789 -0.002550 -0.004063 -0.000396
# 3 -0.001495 -0.003789 0.017762 -0.008631 0.012887 -0.003623
# 4 0.000405 -0.002550 -0.008631 0.039988 -0.003921 0.005361
# 5 0.002442 -0.004063 0.012887 -0.003921 0.042791 -0.007788
# 6 0.000190 -0.000396 -0.003623 0.005361 -0.007788 0.035704
#
#
# Mechanical properties :
#
#
# Convention : Reuss Voigt Hill
#
# Bulk Modulus (GPa) = 43.06503 58.90721 50.98612
# Shear Modulus (GPa) = 26.85497 32.56679 29.71088
#
# Velocity S-wave (km/s) = 3.58881 3.95208 3.77482
# Velocity P-wave (km/s) = 6.15034 7.00550 6.59180
#
# Compressibility (1/GPa) = 0.02322070
#
# Stress axis : x y z
#
# Youngs Moduli (GPa) = 110.30314 67.73671 56.29840
#
# Poissons Ratio (x) = 0.26424 0.08416
# Poissons Ratio (y) = 0.43029 0.21334
# Poissons Ratio (z) = 0.16490 0.25668
#
# Static dielectric constant tensor:
#      x y z
#    x 3.763710 -0.003370 -0.332400 
#    y -0.003370 3.911420 0.044690 
#    z -0.332400 0.044690 3.974440 
# 
# 
# High freq. dielectric constant tensor:
#      x y z
#    x 1.812730 -0.006470 -0.025010 
#    y -0.006470 1.819620 0.002440 
#    z -0.025010 0.002440 1.825160 
# 
# From -- ./inp_files/306990.got.cif
#   From: 2010.06.25/outbox.cif.g09.slc.cpg/sg2_154_cif.got.tgz:306990.got - 2010.06.27 13:26:56.
