data_PCOD8026072
_publ_section_title
;
Structure prediction by ZEFSAII (Michael W. Deem and Ramdas Pophale) SiO2 
 PCOD8026072
Probable space group: P -1
;
_chemical_formula_sum "Si O2"
_cell_formula_units_Z 16
_cell_length_a 26.900640
_cell_length_b 6.182452
_cell_length_c 5.749572
_cell_angle_alpha 107.126036
_cell_angle_beta 104.274320
_cell_angle_gamma 44.927547
_cell_volume 644.324746
_symmetry_space_group_name_H-M "P -1"
_symmetry_group_IT_number 2
_symmetry_cell_setting 'triclinic'
loop_
_space_group_symop_operation_xyz
x,y,z
-x,-y,-z
loop_
_atom_site_type_symbol
_atom_site_label
_atom_site_fract_x
_atom_site_fract_y
_atom_site_fract_z
Si Si1 0.551607 0.760641 0.178400
Si Si2 0.153790 0.883882 0.494355
Si Si3 0.209572 0.999265 0.199272
Si Si4 0.967051 0.527399 0.220267
Si Si5 0.544406 0.206465 0.618916
Si Si6 0.228413 0.462494 0.829191
Si Si7 0.669466 0.111084 0.927694
Si Si8 0.110103 0.632355 0.050221
O O1 0.510206 0.668730 0.196759
O O2 0.566363 0.903730 0.433381
O O3 0.627557 0.458302 0.074681
O O4 0.500000 0.000000 0.000000
O O5 0.194875 0.962495 0.435486
O O6 0.213246 0.529276 0.554013
O O7 0.101143 0.897373 0.266069
O O8 0.110302 0.119989 0.735712
O O9 0.273716 0.982504 0.230140
O O10 0.138214 0.342924 0.153182
O O11 0.231476 0.710565 0.993926
O O12 0.000000 0.500000 0.500000
O O13 0.959898 0.272671 0.114768
O O14 0.000000 0.500000 0.000000
O O15 0.500000 0.500000 0.500000
O O16 0.617500 0.093885 0.741079
O O17 0.162912 0.520170 0.867916
O O18 0.297480 0.115558 0.878918
#
# Coordination Sequence:
#
# PCOD8026072 Si02
#       8
#     2   2   2   2   2   2   2   2
#     4  11  25  47  71  97 145 190 230 305 365 435
#     4  11  25  49  77 104 154 193 246 307 387 430
#     4  10  23  48  70 107 145 192 244 313 369 441
#     4  12  28  48  79 117 152 203 259 309 370 464
#     4  11  25  47  70 102 139 194 237 299 380 435
#     4  10  24  46  72 105 141 195 239 309 370 441
#     4  11  25  47  70 108 144 182 257 292 371 456
#     4  10  24  48  74 103 153 195 239 311 380 432
#
# _framework density 24.8322
#
# number of rings (size 3 to 8) (size 9 to 14) (size 15 to 20)
#    0.000    1.250    2.500    1.125    7.000    1.000 
#   18.000    0.000    0.000    0.000    0.000    0.000 
#    0.000    0.000    0.000    0.000    0.000    0.000 
#
# Total GULP energy -198224.250689 kJ/mol
# GULP energy per Si atom -12389.015668 kJ/mol
# Density = 2.477568 g / cm^3
# Si number density = 24.832200 Si / 1000 Ang^3
#
#
#
# Elastic Constant Matrix: (Units=GPa)
#
#
# Indices 1 2 3 4 5 6 
#
# 1 154.4382 16.0996 63.1564 -6.7370 1.0804 12.4138
# 2 16.0996 60.4084 33.3105 5.4653 -20.2501 21.3024
# 3 63.1564 33.3105 116.7027 -10.6684 -7.2847 2.9138
# 4 -6.7370 5.4653 -10.6684 53.4979 13.5706 -8.9091
# 5 1.0804 -20.2501 -7.2847 13.5706 45.8054 -0.0062
# 6 12.4138 21.3024 2.9138 -8.9091 -0.0062 29.7848
#
#
#
# Elastic Compliance Matrix: (Units=1/GPa)
#
#
# Indices 1 2 3 4 5 6 
#
# 1 0.008856 0.003249 -0.005663 -0.001529 0.000779 -0.005918
# 2 0.003249 0.048707 -0.014963 -0.020765 0.025223 -0.040932
# 3 -0.005663 -0.014963 0.015887 0.007888 -0.006290 0.013866
# 4 -0.001529 -0.020765 0.007888 0.030450 -0.016908 0.023822
# 5 0.000779 0.025223 -0.006290 -0.016908 0.036970 -0.022799
# 6 -0.005918 -0.040932 0.013866 0.023822 -0.022799 0.071080
#
#
# Mechanical properties :
#
#
# Convention : Reuss Voigt Hill
#
# Bulk Modulus (GPa) = 25.84250 61.85359 43.84805
# Shear Modulus (GPa) = 19.26023 40.41647 29.83835
#
# Velocity S-wave (km/s) = 2.78801 4.03871 3.47017
# Velocity P-wave (km/s) = 4.55998 6.83454 5.80966
#
# Compressibility (1/GPa) = 0.03869594
#
# Stress axis : x y z
#
# Youngs Moduli (GPa) = 112.91889 20.53089 62.94541
#
# Poissons Ratio (x) = -0.06671 0.35649
# Poissons Ratio (y) = -0.36690 0.94184
# Poissons Ratio (z) = 0.63951 0.30720
#
# Static dielectric constant tensor:
#      x y z
#    x 4.507090 0.238610 -0.012480 
#    y 0.238610 4.637900 0.035940 
#    z -0.012480 0.035940 4.499360 
# 
# 
# High freq. dielectric constant tensor:
#      x y z
#    x 1.997280 0.014270 0.006850 
#    y 0.014270 2.000010 0.001030 
#    z 0.006850 0.001030 1.990200 
# 
# From -- ./inp_files/114583.got.cif
#   From: 2010.06.25/outbox.cif.g09.slc.cpg/sg2_58_cif.got.tgz:114583.got - 2010.06.27 13:26:56.
