data_PCOD8026237
_publ_section_title
;
Structure prediction by ZEFSAII (Michael W. Deem and Ramdas Pophale) SiO2 
 PCOD8026237
Probable space group: P -1
;
_chemical_formula_sum "Si O2"
_cell_formula_units_Z 12
_cell_length_a 13.641368
_cell_length_b 8.294372
_cell_length_c 4.918106
_cell_angle_alpha 87.731118
_cell_angle_beta 118.978567
_cell_angle_gamma 86.602379
_cell_volume 484.453472
_symmetry_space_group_name_H-M "P -1"
_symmetry_group_IT_number 2
_symmetry_cell_setting 'triclinic'
loop_
_space_group_symop_operation_xyz
x,y,z
-x,-y,-z
loop_
_atom_site_type_symbol
_atom_site_label
_atom_site_fract_x
_atom_site_fract_y
_atom_site_fract_z
Si Si1 0.912706 0.148293 0.945474
Si Si2 0.535333 0.303907 0.310079
Si Si3 0.370837 0.144043 0.762508
Si Si4 0.322953 0.481799 0.858487
Si Si5 0.674449 0.048364 0.789808
Si Si6 0.914605 0.365323 0.418148
O O1 0.911762 0.294877 0.720920
O O2 0.792086 0.081866 0.815526
O O3 0.952127 0.218731 0.278178
O O4 0.000000 0.000000 0.000000
O O5 0.635535 0.389498 0.303404
O O6 0.588234 0.212627 0.654431
O O7 0.495749 0.166013 0.053374
O O8 0.425372 0.431529 0.218468
O O9 0.297644 0.318838 0.670970
O O10 0.375687 0.088782 0.459053
O O11 0.311126 0.015379 0.879896
O O12 0.209873 0.557333 0.845427
O O13 0.000000 0.500000 0.500000
#
# Coordination Sequence:
#
# PCOD8026237 Si02
#       6
#     2   2   2   2   2   2
#     4  12  29  47  74 102 139 185 232 291 350 407
#     4   9  20  44  66 102 139 186 223 282 341 408
#     4  10  24  40  68 100 136 183 226 273 342 409
#     4   9  22  44  69 102 139 180 229 286 342 407
#     4  12  23  44  67  99 144 176 231 280 340 413
#     4  12  27  51  74 103 137 182 238 289 346 412
#
# _framework density 24.770177
#
# number of rings (size 3 to 8) (size 9 to 14) (size 15 to 20)
#    1.000    0.333    1.667    3.000    4.667    1.333 
#    0.000    2.500    0.000    0.000    0.000    0.000 
#    0.000    0.000    0.000    0.000    0.000    0.000 
#
# Total GULP energy -148791.253996 kJ/mol
# GULP energy per Si atom -12399.271166 kJ/mol
# Density = 2.471380 g / cm^3
# Si number density = 24.770177 Si / 1000 Ang^3
#
#
#
# Elastic Constant Matrix: (Units=GPa)
#
#
# Indices 1 2 3 4 5 6 
#
# 1 127.5003 48.5027 22.7651 -8.3494 18.4652 7.2142
# 2 48.5027 106.8756 15.2563 -15.7710 6.9722 4.9374
# 3 22.7651 15.2563 55.9335 -2.0861 -0.6012 0.0507
# 4 -8.3494 -15.7710 -2.0861 21.8435 -5.5829 -2.4437
# 5 18.4652 6.9722 -0.6012 -5.5829 41.2176 -5.5373
# 6 7.2142 4.9374 0.0507 -2.4437 -5.5373 50.6015
#
#
#
# Elastic Compliance Matrix: (Units=1/GPa)
#
#
# Indices 1 2 3 4 5 6 
#
# 1 0.010689 -0.004089 -0.003300 -0.000497 -0.004432 -0.001631
# 2 -0.004089 0.012486 -0.001456 0.007466 0.000683 -0.000199
# 3 -0.003300 -0.001456 0.019649 0.000208 0.002152 0.000838
# 4 -0.000497 0.007466 0.000208 0.052950 0.006485 0.002609
# 5 -0.004432 0.000683 0.002152 0.006485 0.027564 0.003892
# 6 -0.001631 -0.000199 0.000838 0.002609 0.003892 0.020565
#
#
# Mechanical properties :
#
#
# Convention : Reuss Voigt Hill
#
# Bulk Modulus (GPa) = 39.78458 51.48421 45.63440
# Shear Modulus (GPa) = 29.41684 36.31822 32.86753
#
# Velocity S-wave (km/s) = 3.44988 3.83326 3.64661
# Velocity P-wave (km/s) = 5.65378 6.35781 6.01610
#
# Compressibility (1/GPa) = 0.02513536
#
# Stress axis : x y z
#
# Youngs Moduli (GPa) = 93.55124 80.08743 50.89414
#
# Poissons Ratio (x) = 0.32746 0.16795
# Poissons Ratio (y) = 0.38252 0.07408
# Poissons Ratio (z) = 0.30872 0.11658
#
# Static dielectric constant tensor:
#      x y z
#    x 4.282630 0.081940 0.104880 
#    y 0.081940 4.734420 -0.069490 
#    z 0.104880 -0.069490 4.141920 
# 
# 
# High freq. dielectric constant tensor:
#      x y z
#    x 1.983150 0.010830 -0.002910 
#    y 0.010830 2.010570 -0.006490 
#    z -0.002910 -0.006490 1.963330 
# 
# From -- ./inp_files/87693.got.cif
#   From: 2010.06.25/outbox.cif.g09.slc.cpg/sg2_44_cif.got.tgz:87693.got - 2010.06.27 13:26:56.
