data_PCOD8026457
_publ_section_title
;
Structure prediction by ZEFSAII (Michael W. Deem and Ramdas Pophale) SiO2 
 PCOD8026457
Probable space group: P -1
;
_chemical_formula_sum "Si O2"
_cell_formula_units_Z 16
_cell_length_a 13.067142
_cell_length_b 13.599914
_cell_length_c 11.241073
_cell_angle_alpha 115.849714
_cell_angle_beta 89.742639
_cell_angle_gamma 145.508846
_cell_volume 730.650471
_symmetry_space_group_name_H-M "P -1"
_symmetry_group_IT_number 2
_symmetry_cell_setting 'triclinic'
loop_
_space_group_symop_operation_xyz
x,y,z
-x,-y,-z
loop_
_atom_site_type_symbol
_atom_site_label
_atom_site_fract_x
_atom_site_fract_y
_atom_site_fract_z
Si Si1 0.375066 0.127350 0.275448
Si Si2 0.727932 0.465588 0.655503
Si Si3 0.046314 0.303406 0.770313
Si Si4 0.853397 0.343327 0.538817
Si Si5 0.488223 0.604983 0.997925
Si Si6 0.330246 0.063480 0.634296
Si Si7 0.846238 0.961765 0.975990
Si Si8 0.339862 0.737900 0.850755
O O1 0.580232 0.376125 0.497903
O O2 0.528241 0.197660 0.223833
O O3 0.160069 0.856026 0.215070
O O4 0.241927 0.095343 0.187411
O O5 0.727244 0.334261 0.568117
O O6 0.584518 0.346417 0.715899
O O7 0.998949 0.784919 0.836290
O O8 0.293878 0.622275 0.910111
O O9 0.190075 0.341500 0.849377
O O10 0.909715 0.144638 0.560455
O O11 0.000000 0.500000 0.500000
O O12 0.057249 0.504416 0.716583
O O13 0.654334 0.048967 0.383410
O O14 0.668353 0.861727 0.208503
O O15 0.595681 0.703637 0.916657
O O16 0.500000 0.500000 0.000000
O O17 0.000000 0.000000 0.000000
O O18 0.500000 0.000000 0.000000
#
# Coordination Sequence:
#
# PCOD8026457 Si02
#       8
#     2   2   2   2   2   2   2   2
#     4  11  23  44  67  94 135 175 224 277 334 397
#     4  11  23  43  68  96 133 176 223 278 330 401
#     4  10  24  43  65  95 133 176 222 277 331 398
#     4  11  21  37  63  95 131 173 221 266 332 396
#     4  12  25  43  70  96 132 177 221 280 338 397
#     4  10  24  42  65  96 134 174 221 275 332 398
#     4  12  26  44  69  99 132 173 226 282 337 401
#     4  11  23  39  63  98 135 179 223 272 334 396
#
# _framework density 21.898295000000001
#
# number of rings (size 3 to 8) (size 9 to 14) (size 15 to 20)
#    0.000    1.000    2.500    4.125    3.500    1.500 
#    0.000    0.000    0.000    0.000    0.000    0.000 
#    0.000    0.000    0.000    0.000    0.000    0.000 
#
# Total GULP energy -198245.285867 kJ/mol
# GULP energy per Si atom -12390.330367 kJ/mol
# Density = 2.184845 g / cm^3
# Si number density = 21.898295 Si / 1000 Ang^3
#
#
#
# Elastic Constant Matrix: (Units=GPa)
#
#
# Indices 1 2 3 4 5 6 
#
# 1 94.6683 16.7152 39.6808 -5.6848 8.0661 -11.2575
# 2 16.7152 128.4056 22.1850 -2.4742 2.8638 7.0274
# 3 39.6808 22.1850 77.3721 -4.5265 11.6098 -10.3089
# 4 -5.6848 -2.4742 -4.5265 34.4008 -3.4480 2.4192
# 5 8.0661 2.8638 11.6098 -3.4480 34.4240 3.3118
# 6 -11.2575 7.0274 -10.3089 2.4192 3.3118 34.4446
#
#
#
# Elastic Compliance Matrix: (Units=1/GPa)
#
#
# Indices 1 2 3 4 5 6 
#
# 1 0.013831 -0.000834 -0.006222 0.001081 -0.001241 0.002872
# 2 -0.000834 0.008467 -0.002446 0.000411 0.000629 -0.002822
# 3 -0.006222 -0.002446 0.018143 0.000394 -0.004835 0.004333
# 4 0.001081 0.000411 0.000394 0.029743 0.002748 -0.001966
# 5 -0.001241 0.000629 -0.004835 0.002748 0.031696 -0.005221
# 6 0.002872 -0.002822 0.004333 -0.001966 -0.005221 0.032483
#
#
# Mechanical properties :
#
#
# Convention : Reuss Voigt Hill
#
# Bulk Modulus (GPa) = 46.65047 50.84534 48.74791
# Shear Modulus (GPa) = 31.15023 35.44489 33.29756
#
# Velocity S-wave (km/s) = 3.77569 4.02756 3.90366
# Velocity P-wave (km/s) = 6.35274 6.70057 6.52897
#
# Compressibility (1/GPa) = 0.02143601
#
# Stress axis : x y z
#
# Youngs Moduli (GPa) = 72.30395 118.10042 55.11855
#
# Poissons Ratio (x) = 0.09850 0.34294
# Poissons Ratio (y) = 0.06031 0.13484
# Poissons Ratio (z) = 0.44987 0.28891
#
# Static dielectric constant tensor:
#      x y z
#    x 3.593490 -0.034120 0.179240 
#    y -0.034120 3.786940 0.021590 
#    z 0.179240 0.021590 3.868700 
# 
# 
# High freq. dielectric constant tensor:
#      x y z
#    x 1.850610 -0.001500 0.022600 
#    y -0.001500 1.886480 -0.003980 
#    z 0.022600 -0.003980 1.855010 
# 
# From -- ./inp_files/399376.got.cif
#   From: 2010.06.25/outbox.cif.g09.slc.cpg/sg2_200_cif.got.tgz:399376.got - 2010.06.27 13:26:56.
