data_PCOD8026746
_publ_section_title
;
Structure prediction by ZEFSAII (Michael W. Deem and Ramdas Pophale) SiO2 
 PCOD8026746
Probable space group: P -1
;
_chemical_formula_sum "Si O2"
_cell_formula_units_Z 14
_cell_length_a 14.067172
_cell_length_b 9.806372
_cell_length_c 12.095371
_cell_angle_alpha 63.345416
_cell_angle_beta 30.384646
_cell_angle_gamma 49.829357
_cell_volume 619.264286
_symmetry_space_group_name_H-M "P -1"
_symmetry_group_IT_number 2
_symmetry_cell_setting 'triclinic'
loop_
_space_group_symop_operation_xyz
x,y,z
-x,-y,-z
loop_
_atom_site_type_symbol
_atom_site_label
_atom_site_fract_x
_atom_site_fract_y
_atom_site_fract_z
Si Si1 0.314397 0.776723 0.038994
Si Si2 0.573591 0.988054 0.052898
Si Si3 0.962287 0.357462 0.279643
Si Si4 0.165777 0.247217 0.781088
Si Si5 0.370233 0.996073 0.470280
Si Si6 0.826052 0.466337 0.622719
Si Si7 0.914382 0.153262 0.217725
O O1 0.575120 0.650423 0.776228
O O2 0.329682 0.883541 0.089706
O O3 0.213726 0.658870 0.211561
O O4 0.139796 0.939096 0.070479
O O5 0.370104 0.058283 0.321222
O O6 0.766530 0.774804 0.968123
O O7 0.500000 0.000000 0.000000
O O8 0.868384 0.556979 0.251825
O O9 0.929873 0.358061 0.443363
O O10 0.854269 0.265150 0.353702
O O11 0.380778 0.099840 0.692831
O O12 0.192767 0.181507 0.650824
O O13 0.948059 0.262775 0.047656
O O14 0.301066 0.850863 0.595869
O O15 0.000000 0.500000 0.500000
#
# Coordination Sequence:
#
# PCOD8026746 Si02
#       7
#     2   2   2   2   2   2   2
#     4  10  24  43  66  98 138 174 240 272 340 415
#     4  11  24  44  69 101 139 180 226 281 350 405
#     4  11  25  42  70  99 143 172 228 293 336 398
#     4  11  24  48  67  99 140 178 237 275 331 419
#     4  11  25  44  72  96 136 189 223 278 344 403
#     4  11  25  44  67 100 136 187 227 289 339 409
#     4  11  25  44  68 102 134 179 227 287 341 403
#
# _framework density 22.607469999999999
#
# number of rings (size 3 to 8) (size 9 to 14) (size 15 to 20)
#    0.000    1.143    2.857    2.571   10.000    1.714 
#    0.000    0.000    0.000    0.000    0.000    0.000 
#    0.000    0.000    0.000    0.000    0.000    0.000 
#
# Total GULP energy -173548.053484 kJ/mol
# GULP energy per Si atom -12396.289535 kJ/mol
# Density = 2.255601 g / cm^3
# Si number density = 22.607470 Si / 1000 Ang^3
#
#
#
# Elastic Constant Matrix: (Units=GPa)
#
#
# Indices 1 2 3 4 5 6 
#
# 1 90.6823 15.1050 50.6486 -4.2773 15.4757 31.1602
# 2 15.1050 95.9510 25.3833 -1.3761 -0.5211 21.6553
# 3 50.6486 25.3833 115.4149 -11.2558 11.0956 26.6097
# 4 -4.2773 -1.3761 -11.2558 33.6648 14.0718 0.6257
# 5 15.4757 -0.5211 11.0956 14.0718 38.2132 -2.4875
# 6 31.1602 21.6553 26.6097 0.6257 -2.4875 31.7072
#
#
#
# Elastic Compliance Matrix: (Units=1/GPa)
#
#
# Indices 1 2 3 4 5 6 
#
# 1 0.022547 0.002363 -0.003460 0.007321 -0.012220 -0.021972
# 2 0.002363 0.012660 -0.001228 0.001239 -0.001541 -0.010084
# 3 -0.003460 -0.001228 0.013294 0.006301 -0.005282 -0.007457
# 4 0.007321 0.001239 0.006301 0.041975 -0.021265 -0.015826
# 5 -0.012220 -0.001541 -0.005282 -0.021265 0.041841 0.021196
# 6 -0.021972 -0.010084 -0.007457 -0.015826 0.021196 0.068252
#
#
# Mechanical properties :
#
#
# Convention : Reuss Voigt Hill
#
# Bulk Modulus (GPa) = 22.80332 53.81354 38.30843
# Shear Modulus (GPa) = 22.74433 34.77782 28.76108
#
# Velocity S-wave (km/s) = 3.17528 3.92641 3.57065
# Velocity P-wave (km/s) = 4.85301 6.66414 5.82934
#
# Compressibility (1/GPa) = 0.04385327
#
# Stress axis : x y z
#
# Youngs Moduli (GPa) = 44.35186 78.98904 75.22051
#
# Poissons Ratio (x) = -0.18667 0.26024
# Poissons Ratio (y) = -0.10482 0.09234
# Poissons Ratio (z) = 0.15344 0.09696
#
# Static dielectric constant tensor:
#      x y z
#    x 5.071450 -0.345950 0.757620 
#    y -0.345950 4.494520 -0.253180 
#    z 0.757620 -0.253180 4.770690 
# 
# 
# High freq. dielectric constant tensor:
#      x y z
#    x 1.887090 0.014060 0.002120 
#    y 0.014060 1.902460 0.000960 
#    z 0.002120 0.000960 1.887670 
# 
# From -- ./inp_files/236534.got.cif
#   From: 2010.06.25/outbox.cif.g09.slc.cpg/sg2_119_cif.got.tgz:236534.got - 2010.06.27 13:26:56.
