data_PCOD8026436
_publ_section_title
;
Structure prediction by ZEFSAII (Michael W. Deem and Ramdas Pophale) SiO2 
 PCOD8026436
Probable space group: P -1
;
_chemical_formula_sum "Si O2"
_cell_formula_units_Z 16
_cell_length_a 13.249632
_cell_length_b 11.535631
_cell_length_c 13.304675
_cell_angle_alpha 93.893804
_cell_angle_beta 141.609933
_cell_angle_gamma 115.501712
_cell_volume 787.186293
_symmetry_space_group_name_H-M "P -1"
_symmetry_group_IT_number 2
_symmetry_cell_setting 'triclinic'
loop_
_space_group_symop_operation_xyz
x,y,z
-x,-y,-z
loop_
_atom_site_type_symbol
_atom_site_label
_atom_site_fract_x
_atom_site_fract_y
_atom_site_fract_z
Si Si1 0.858367 0.040015 0.867539
Si Si2 0.269165 0.450813 0.278336
Si Si3 0.005685 0.564409 0.771622
Si Si4 0.942771 0.154080 0.718605
Si Si5 0.610928 0.169653 0.376867
Si Si6 0.641222 0.429914 0.865388
Si Si7 0.307109 0.938983 0.929143
Si Si8 0.945601 0.938944 0.567714
O O1 0.830142 0.037968 0.726277
O O2 0.575030 0.882653 0.685540
O O3 0.013161 0.232691 0.047778
O O4 0.000000 0.000000 0.000000
O O5 0.500000 0.500000 0.500000
O O6 0.358067 0.565895 0.254203
O O7 0.199211 0.506835 0.309722
O O8 0.118347 0.731577 0.804785
O O9 0.850997 0.392680 0.565636
O O10 0.237471 0.624763 0.010236
O O11 0.715177 0.102471 0.487945
O O12 0.202966 0.374046 0.954875
O O13 0.011135 0.087551 0.694356
O O14 0.468751 0.081981 0.155192
O O15 0.347186 0.270773 0.663963
O O16 0.135345 0.943337 0.748679
O O17 0.500000 0.000000 0.000000
O O18 0.000000 0.000000 0.500000
#
# Coordination Sequence:
#
# PCOD8026436 Si02
#       8
#     2   2   2   2   2   2   2   2
#     4  11  22  37  60  96 135 172 214 264 323 388
#     4  11  22  37  60  96 135 172 214 264 323 388
#     4  11  23  42  66  95 131 171 215 269 326 385
#     4  10  24  42  64  95 131 170 215 266 325 386
#     4  11  23  42  66  95 131 171 215 269 326 385
#     4  10  24  42  64  95 131 170 215 266 325 386
#     4  12  26  46  68  96 130 170 223 270 323 390
#     4  12  26  44  70  94 126 174 217 270 323 388
#
# _framework density 20.325558000000001
#
# number of rings (size 3 to 8) (size 9 to 14) (size 15 to 20)
#    0.000    1.000    1.250    5.250    3.500    4.000 
#    0.000    0.000    0.000    0.000    0.000    0.000 
#    0.000    0.000    0.000    0.000    0.000    0.000 
#
# Total GULP energy -198502.028659 kJ/mol
# GULP energy per Si atom -12406.376791 kJ/mol
# Density = 2.027930 g / cm^3
# Si number density = 20.325558 Si / 1000 Ang^3
#
#
#
# Elastic Constant Matrix: (Units=GPa)
#
#
# Indices 1 2 3 4 5 6 
#
# 1 154.4952 74.4548 67.3631 -11.2011 7.5095 5.4074
# 2 74.4548 139.0880 74.8116 -24.5690 -2.4754 2.4509
# 3 67.3631 74.8116 134.5972 -23.2361 9.5018 4.8088
# 4 -11.2011 -24.5690 -23.2361 43.1463 -5.8403 5.4226
# 5 7.5095 -2.4754 9.5018 -5.8403 38.6764 -7.3381
# 6 5.4074 2.4509 4.8088 5.4226 -7.3381 38.4273
#
#
#
# Elastic Compliance Matrix: (Units=1/GPa)
#
#
# Indices 1 2 3 4 5 6 
#
# 1 0.009554 -0.003932 -0.002662 -0.001324 -0.001828 -0.000923
# 2 -0.003932 0.012503 -0.004531 0.004065 0.003365 0.000392
# 3 -0.002662 -0.004531 0.012063 0.003096 -0.002607 -0.001781
# 4 -0.001324 0.004065 0.003096 0.027724 0.003231 -0.003756
# 5 -0.001828 0.003365 -0.002607 0.003231 0.028573 0.005369
# 6 -0.000923 0.000392 -0.001781 -0.003756 0.005369 0.027906
#
#
# Mechanical properties :
#
#
# Convention : Reuss Voigt Hill
#
# Bulk Modulus (GPa) = 84.26383 95.71549 89.98966
# Shear Modulus (GPa) = 34.59489 38.15338 36.37414
#
# Velocity S-wave (km/s) = 4.13005 4.33727 4.23493
# Velocity P-wave (km/s) = 8.01812 8.50153 8.26336
#
# Compressibility (1/GPa) = 0.01186749
#
# Stress axis : x y z
#
# Youngs Moduli (GPa) = 104.67070 79.98170 82.90072
#
# Poissons Ratio (x) = 0.31452 0.22072
# Poissons Ratio (y) = 0.41160 0.37563
# Poissons Ratio (z) = 0.27868 0.36241
#
# Static dielectric constant tensor:
#      x y z
#    x 3.670130 -0.020920 -0.023890 
#    y -0.020920 3.831940 -0.037460 
#    z -0.023890 -0.037460 3.824210 
# 
# 
# High freq. dielectric constant tensor:
#      x y z
#    x 1.795670 -0.006660 0.001070 
#    y -0.006660 1.809950 -0.001740 
#    z 0.001070 -0.001740 1.812420 
# 
# From -- ./inp_files/272468.got.cif
#   From: 2010.06.25/outbox.cif.g09.slc.cpg/sg2_137_cif.got.tgz:272468.got - 2010.06.27 13:26:56.
