data_PCOD8026306
_publ_section_title
;
Structure prediction by ZEFSAII (Michael W. Deem and Ramdas Pophale) SiO2 
 PCOD8026306
Probable space group: P -1
;
_chemical_formula_sum "Si O2"
_cell_formula_units_Z 16
_cell_length_a 21.104203
_cell_length_b 9.315099
_cell_length_c 8.688236
_cell_angle_alpha 64.549546
_cell_angle_beta 150.180003
_cell_angle_gamma 116.860127
_cell_volume 754.967800
_symmetry_space_group_name_H-M "P -1"
_symmetry_group_IT_number 2
_symmetry_cell_setting 'triclinic'
loop_
_space_group_symop_operation_xyz
x,y,z
-x,-y,-z
loop_
_atom_site_type_symbol
_atom_site_label
_atom_site_fract_x
_atom_site_fract_y
_atom_site_fract_z
Si Si1 0.755912 0.833938 0.361921
Si Si2 0.382130 0.904604 0.199647
Si Si3 0.613343 0.412665 0.836963
Si Si4 0.028167 0.898618 0.752445
Si Si5 0.371166 0.519859 0.808917
Si Si6 0.883511 0.900816 0.897787
Si Si7 0.872162 0.560667 0.150414
Si Si8 0.791605 0.322073 0.835787
O O1 0.708012 0.660088 0.267349
O O2 0.759211 0.842305 0.552755
O O3 0.901252 0.879517 0.593764
O O4 0.670467 0.962386 0.071902
O O5 0.412973 0.765943 0.212241
O O6 0.278552 0.826087 0.142092
O O7 0.500000 0.000000 0.500000
O O8 0.500000 0.500000 0.500000
O O9 0.600524 0.403635 0.998340
O O10 0.755341 0.514947 0.048250
O O11 0.069007 0.725910 0.885615
O O12 0.000000 0.000000 0.500000
O O13 0.144837 0.989693 0.066862
O O14 0.293878 0.645115 0.504942
O O15 0.500000 0.500000 0.000000
O O16 0.920855 0.748175 0.136310
O O17 0.000000 0.000000 0.000000
O O18 0.000000 0.500000 0.500000
O O19 0.818297 0.487464 0.908591
#
# Coordination Sequence:
#
# PCOD8026306 Si02
#       8
#     2   2   2   2   2   2   2   2
#     4  11  24  44  68  95 143 182 220 289 350 408
#     4  11  24  47  70  98 136 185 230 282 349 420
#     4  11  27  45  75 105 138 187 240 283 354 425
#     4  11  23  41  67 102 137 176 231 280 349 417
#     4  12  26  48  70 101 142 180 238 295 343 416
#     4  10  24  41  64  99 139 179 222 282 347 409
#     4  11  24  44  72 101 142 185 231 282 347 420
#     4  11  24  43  68 102 138 179 229 288 349 411
#
# _framework density 21.192958000000001
#
# number of rings (size 3 to 8) (size 9 to 14) (size 15 to 20)
#    0.000    1.000    2.500    3.750   10.500    2.500 
#    0.000    1.250    0.000    0.000    0.000    0.000 
#    0.000    0.000    0.000    0.000    0.000    0.000 
#
# Total GULP energy -198298.285986 kJ/mol
# GULP energy per Si atom -12393.642874 kJ/mol
# Density = 2.114472 g / cm^3
# Si number density = 21.192958 Si / 1000 Ang^3
#
#
#
# Elastic Constant Matrix: (Units=GPa)
#
#
# Indices 1 2 3 4 5 6 
#
# 1 113.2575 31.0469 55.9998 0.9312 -16.8804 -18.9654
# 2 31.0469 100.3624 29.8053 -5.2811 -11.9744 -9.6261
# 3 55.9998 29.8053 142.5248 -20.7865 -8.3792 -6.5946
# 4 0.9312 -5.2811 -20.7865 46.8890 -3.4085 -3.1013
# 5 -16.8804 -11.9744 -8.3792 -3.4085 40.7686 2.5451
# 6 -18.9654 -9.6261 -6.5946 -3.1013 2.5451 30.8108
#
#
#
# Elastic Compliance Matrix: (Units=1/GPa)
#
#
# Indices 1 2 3 4 5 6 
#
# 1 0.013125 -0.001810 -0.004564 -0.001837 0.003432 0.006068
# 2 -0.001810 0.011440 -0.001295 0.001057 0.002302 0.002099
# 3 -0.004564 -0.001295 0.009664 0.004189 0.000112 -0.000733
# 4 -0.001837 0.001057 0.004189 0.023654 0.002245 0.002291
# 5 0.003432 0.002302 0.000112 0.002245 0.026782 0.000870
# 6 0.006068 0.002099 -0.000733 0.002291 0.000870 0.036849
#
#
# Mechanical properties :
#
#
# Convention : Reuss Voigt Hill
#
# Bulk Modulus (GPa) = 52.93269 65.53875 59.23572
# Shear Modulus (GPa) = 34.92879 39.64655 37.28767
#
# Velocity S-wave (km/s) = 4.06412 4.32990 4.19911
# Velocity P-wave (km/s) = 6.85956 7.48260 7.17784
#
# Compressibility (1/GPa) = 0.01889192
#
# Stress axis : x y z
#
# Youngs Moduli (GPa) = 76.19047 87.41380 103.47891
#
# Poissons Ratio (x) = 0.15821 0.47226
# Poissons Ratio (y) = 0.13790 0.13397
# Poissons Ratio (z) = 0.34772 0.11317
#
# Static dielectric constant tensor:
#      x y z
#    x 4.200430 -0.300270 -0.476410 
#    y -0.300270 4.240820 0.377740 
#    z -0.476410 0.377740 4.253720 
# 
# 
# High freq. dielectric constant tensor:
#      x y z
#    x 1.833160 -0.009130 -0.017640 
#    y -0.009130 1.842910 -0.000030 
#    z -0.017640 -0.000030 1.843020 
# 
# From -- ./inp_files/189055.got.cif
#   From: 2010.06.25/outbox.cif.g09.slc.cpg/sg2_95_cif.got.tgz:189055.got - 2010.06.27 13:26:56.
