data_PCOD8026642
_publ_section_title
;
Structure prediction by ZEFSAII (Michael W. Deem and Ramdas Pophale) SiO2 
 PCOD8026642
Probable space group: P -1
;
_chemical_formula_sum "Si O2"
_cell_formula_units_Z 14
_cell_length_a 17.712813
_cell_length_b 9.125922
_cell_length_c 5.573090
_cell_angle_alpha 50.724217
_cell_angle_beta 122.049598
_cell_angle_gamma 120.025621
_cell_volume 572.213190
_symmetry_space_group_name_H-M "P -1"
_symmetry_group_IT_number 2
_symmetry_cell_setting 'triclinic'
loop_
_space_group_symop_operation_xyz
x,y,z
-x,-y,-z
loop_
_atom_site_type_symbol
_atom_site_label
_atom_site_fract_x
_atom_site_fract_y
_atom_site_fract_z
Si Si1 0.761248 0.693335 0.386080
Si Si2 0.368184 0.563854 0.212756
Si Si3 0.437031 0.201913 0.600248
Si Si4 0.234360 0.658383 0.516182
Si Si5 0.068640 0.048772 0.351277
Si Si6 0.945076 0.277619 0.652433
Si Si7 0.354841 0.031156 0.154643
O O1 0.673764 0.541728 0.507437
O O2 0.804644 0.563416 0.413137
O O3 0.836098 0.795173 0.599491
O O4 0.723586 0.858287 0.018101
O O5 0.402922 0.399217 0.288823
O O6 0.453389 0.745544 0.230659
O O7 0.291088 0.647458 0.864655
O O8 0.422462 0.075648 0.457393
O O9 0.394418 0.092272 0.890335
O O10 0.145345 0.742824 0.317975
O O11 0.303766 0.800665 0.301040
O O12 0.091018 0.841959 0.528693
O O13 0.000000 0.000000 0.500000
O O14 0.018102 0.157906 0.968511
O O15 0.000000 0.500000 0.500000
#
# Coordination Sequence:
#
# PCOD8026642 Si02
#       7
#     2   2   2   2   2   2   2
#     4  11  25  44  68 103 144 189 240 297 362 433
#     4  10  24  42  72  97 146 189 247 292 365 419
#     4  10  24  47  71 103 145 199 243 303 356 433
#     4  12  26  42  70 107 141 186 242 301 360 430
#     4  11  25  46  73 100 141 187 230 290 364 435
#     4  11  26  45  72 105 140 180 236 294 360 435
#     4  11  26  44  74 103 149 191 249 297 366 419
#
# _framework density 24.466407
#
# number of rings (size 3 to 8) (size 9 to 14) (size 15 to 20)
#    0.000    1.143    1.429    2.571    8.000    9.714 
#    0.000    0.000    0.000    0.000    0.000    0.000 
#    0.000    0.000    0.000    0.000    0.000    0.000 
#
# Total GULP energy -173464.655345 kJ/mol
# GULP energy per Si atom -12390.332525 kJ/mol
# Density = 2.441072 g / cm^3
# Si number density = 24.466407 Si / 1000 Ang^3
#
#
#
# Elastic Constant Matrix: (Units=GPa)
#
#
# Indices 1 2 3 4 5 6 
#
# 1 79.2052 47.3889 9.3876 3.4542 -6.2689 13.4058
# 2 47.3889 162.9840 40.3832 -0.4086 7.1188 2.5013
# 3 9.3876 40.3832 83.2175 -1.2682 -4.1854 6.3363
# 4 3.4542 -0.4086 -1.2682 38.6986 2.1772 -1.2345
# 5 -6.2689 7.1188 -4.1854 2.1772 41.6731 0.7886
# 6 13.4058 2.5013 6.3363 -1.2345 0.7886 38.3293
#
#
#
# Elastic Compliance Matrix: (Units=1/GPa)
#
#
# Indices 1 2 3 4 5 6 
#
# 1 0.017085 -0.005369 0.001297 -0.001946 0.003832 -0.005981
# 2 -0.005369 0.008762 -0.003931 0.000664 -0.002772 0.002034
# 3 0.001297 -0.003931 0.014092 0.000092 0.002326 -0.002572
# 4 -0.001946 0.000664 0.000092 0.026173 -0.001793 0.001502
# 5 0.003832 -0.002772 0.002326 -0.001793 0.025414 -0.002125
# 6 -0.005981 0.002034 -0.002572 0.001502 -0.002125 0.028566
#
#
# Mechanical properties :
#
#
# Convention : Reuss Voigt Hill
#
# Bulk Modulus (GPa) = 41.78388 57.74734 49.76561
# Shear Modulus (GPa) = 34.70401 38.95666 36.83034
#
# Velocity S-wave (km/s) = 3.77030 3.99463 3.88408
# Velocity P-wave (km/s) = 6.00572 6.70299 6.36391
#
# Compressibility (1/GPa) = 0.02393267
#
# Stress axis : x y z
#
# Youngs Moduli (GPa) = 58.53202 114.12702 70.96232
#
# Poissons Ratio (x) = 0.61278 -0.09202
# Poissons Ratio (y) = 0.31428 0.27892
# Poissons Ratio (z) = -0.07590 0.44858
#
# Static dielectric constant tensor:
#      x y z
#    x 4.269100 -0.056280 0.269160 
#    y -0.056280 4.853820 0.133530 
#    z 0.269160 0.133530 3.584640 
# 
# 
# High freq. dielectric constant tensor:
#      x y z
#    x 1.971940 -0.000800 0.014400 
#    y -0.000800 1.993430 -0.011230 
#    z 0.014400 -0.011230 1.970020 
# 
# From -- ./inp_files/91245.got.cif
#   From: 2010.06.25/outbox.cif.g09.slc.cpg/sg2_46_cif.got.tgz:91245.got - 2010.06.27 13:26:56.
