data_PCOD8026433
_publ_section_title
;
Structure prediction by ZEFSAII (Michael W. Deem and Ramdas Pophale) SiO2 
 PCOD8026433
Probable space group: P -1
;
_chemical_formula_sum "Si O2"
_cell_formula_units_Z 14
_cell_length_a 7.495176
_cell_length_b 6.209435
_cell_length_c 18.144138
_cell_angle_alpha 97.160393
_cell_angle_beta 66.896378
_cell_angle_gamma 137.380365
_cell_volume 507.351653
_symmetry_space_group_name_H-M "P -1"
_symmetry_group_IT_number 2
_symmetry_cell_setting 'triclinic'
loop_
_space_group_symop_operation_xyz
x,y,z
-x,-y,-z
loop_
_atom_site_type_symbol
_atom_site_label
_atom_site_fract_x
_atom_site_fract_y
_atom_site_fract_z
Si Si1 0.118300 0.873709 0.212292
Si Si2 0.758707 0.517938 0.113689
Si Si3 0.087904 0.851360 0.931593
Si Si4 0.086329 0.868087 0.650956
Si Si5 0.729770 0.497100 0.832973
Si Si6 0.687488 0.612450 0.569581
Si Si7 0.821261 0.553637 0.394178
O O1 0.402534 0.257448 0.155889
O O2 0.221084 0.714392 0.198514
O O3 0.864995 0.676593 0.183904
O O4 0.987891 0.831313 0.312706
O O5 0.800651 0.299239 0.082632
O O6 0.951955 0.808848 0.031905
O O7 0.833247 0.650913 0.903878
O O8 0.372946 0.235156 0.874556
O O9 0.929828 0.794612 0.752216
O O10 0.899678 0.816481 0.612868
O O11 0.072817 0.600089 0.631314
O O12 0.429663 0.219154 0.608770
O O13 0.887568 0.709196 0.470995
O O14 0.526839 0.707057 0.579253
#
# Coordination Sequence:
#
# PCOD8026433 Si02
#       7
#     2   2   2   2   2   2   2
#     4   9  18  30  48  76 111 150 189 240 294 346
#     4   9  16  26  45  76 110 146 190 236 291 348
#     4   9  15  26  45  75 112 145 188 241 284 348
#     4  11  23  41  63  92 126 162 205 253 305 363
#     4   9  17  29  49  76 111 151 189 237 294 345
#     4  11  25  41  64  93 121 165 207 249 312 365
#     4  10  24  42  64  91 127 160 206 258 302 365
#
# _framework density 27.594273999999999
#
# number of rings (size 3 to 8) (size 9 to 14) (size 15 to 20)
#    0.000    2.286    0.000    2.571    0.000   12.571 
#    0.000    0.000    0.000    0.000    0.000   20.000 
#    0.000    0.000    0.000    0.000    0.000    0.000 
#
# Total GULP energy -173719.658950 kJ/mol
# GULP energy per Si atom -12408.547068 kJ/mol
# Density = 2.753147 g / cm^3
# Si number density = 27.594274 Si / 1000 Ang^3
#
#
#
# Elastic Constant Matrix: (Units=GPa)
#
#
# Indices 1 2 3 4 5 6 
#
# 1 85.1997 15.9460 63.7132 1.0812 -12.4637 8.5457
# 2 15.9460 121.7984 91.5915 -11.5391 1.1061 21.1357
# 3 63.7132 91.5915 241.5624 13.6590 6.1642 13.0585
# 4 1.0812 -11.5391 13.6590 57.5494 -9.8537 9.3170
# 5 -12.4637 1.1061 6.1642 -9.8537 39.7316 -4.2738
# 6 8.5457 21.1357 13.0585 9.3170 -4.2738 49.9174
#
#
#
# Elastic Compliance Matrix: (Units=1/GPa)
#
#
# Indices 1 2 3 4 5 6 
#
# 1 0.016589 0.002723 -0.005610 0.003089 0.006491 -0.002546
# 2 0.002723 0.013852 -0.006031 0.005430 0.002150 -0.005583
# 3 -0.005610 -0.006031 0.008124 -0.003948 -0.003637 0.001814
# 4 0.003089 0.005430 -0.003948 0.021242 0.006136 -0.005235
# 5 0.006491 0.002150 -0.003637 0.006136 0.029262 0.000290
# 6 -0.002546 -0.005583 0.001814 -0.005235 0.000290 0.023360
#
#
# Mechanical properties :
#
#
# Convention : Reuss Voigt Hill
#
# Bulk Modulus (GPa) = 48.24208 87.89576 68.06892
# Shear Modulus (GPa) = 36.44953 47.92699 42.18826
#
# Velocity S-wave (km/s) = 3.63837 4.17207 3.91433
# Velocity P-wave (km/s) = 5.93051 7.42498 6.71942
#
# Compressibility (1/GPa) = 0.02072879
#
# Stress axis : x y z
#
# Youngs Moduli (GPa) = 60.28185 72.18916 123.09176
#
# Poissons Ratio (x) = -0.19655 0.69059
# Poissons Ratio (y) = -0.16413 0.74231
# Poissons Ratio (z) = 0.33821 0.43534
#
# Static dielectric constant tensor:
#      x y z
#    x 5.532740 -0.568520 -0.115210 
#    y -0.568520 5.021520 -0.304850 
#    z -0.115210 -0.304850 5.519430 
# 
# 
# High freq. dielectric constant tensor:
#      x y z
#    x 2.171390 -0.048000 -0.013350 
#    y -0.048000 2.132530 -0.010050 
#    z -0.013350 -0.010050 2.143780 
# 
# From -- ./inp_files/321199.got.cif
#   From: 2010.06.25/outbox.cif.g09.slc.cpg/sg2_161_cif.got.tgz:321199.got - 2010.06.27 13:26:56.
