data_PCOD8026582
_publ_section_title
;
Structure prediction by ZEFSAII (Michael W. Deem and Ramdas Pophale) SiO2 
 PCOD8026582
Probable space group: P -1
;
_chemical_formula_sum "Si O2"
_cell_formula_units_Z 10
_cell_length_a 6.811646
_cell_length_b 15.787438
_cell_length_c 11.829840
_cell_angle_alpha 29.832106
_cell_angle_beta 55.203736
_cell_angle_gamma 43.922223
_cell_volume 433.552549
_symmetry_space_group_name_H-M "P -1"
_symmetry_group_IT_number 2
_symmetry_cell_setting 'triclinic'
loop_
_space_group_symop_operation_xyz
x,y,z
-x,-y,-z
loop_
_atom_site_type_symbol
_atom_site_label
_atom_site_fract_x
_atom_site_fract_y
_atom_site_fract_z
Si Si1 0.347980 0.155552 0.764893
Si Si2 0.659078 0.916036 0.716668
Si Si3 0.106248 0.557123 0.116014
Si Si4 0.616731 0.200431 0.234067
Si Si5 0.768523 0.474861 0.505019
O O1 0.361270 0.353950 0.552279
O O2 0.005513 0.249890 0.741593
O O3 0.532043 0.044582 0.723414
O O4 0.500000 0.000000 0.000000
O O5 0.422198 0.893205 0.758262
O O6 0.793466 0.010033 0.482738
O O7 0.910942 0.687543 0.925001
O O8 0.328446 0.340334 0.239488
O O9 0.932035 0.533915 0.297116
O O10 0.239881 0.677376 0.986166
O O11 0.500000 0.500000 0.500000
#
# Coordination Sequence:
#
# PCOD8026582 Si02
#       5
#     2   2   2   2   2
#     4  11  24  47  68 100 136 178 231 279 334 401
#     4  11  22  43  69 100 130 175 223 278 337 402
#     4  11  22  45  66  99 134 173 223 282 332 400
#     4  10  24  42  69  98 134 172 224 275 341 394
#     4  11  26  46  69  98 139 182 227 280 337 400
#
# _framework density 23.065256000000002
#
# number of rings (size 3 to 8) (size 9 to 14) (size 15 to 20)
#    0.000    1.200    4.000    1.200    0.000    5.600 
#    3.600    0.000    0.000    0.000    0.000    0.000 
#    0.000    0.000    0.000    0.000    0.000    0.000 
#
# Total GULP energy -123906.924970 kJ/mol
# GULP energy per Si atom -12390.692497 kJ/mol
# Density = 2.301276 g / cm^3
# Si number density = 23.065256 Si / 1000 Ang^3
#
#
#
# Elastic Constant Matrix: (Units=GPa)
#
#
# Indices 1 2 3 4 5 6 
#
# 1 185.9583 61.8566 74.7419 36.3409 36.5804 9.6938
# 2 61.8566 66.1571 42.6608 28.5487 -4.0374 16.9139
# 3 74.7419 42.6608 138.8881 26.1277 36.2202 1.9088
# 4 36.3409 28.5487 26.1277 53.5021 9.0126 11.2686
# 5 36.5804 -4.0374 36.2202 9.0126 62.1983 -2.2821
# 6 9.6938 16.9139 1.9088 11.2686 -2.2821 39.8647
#
#
#
# Elastic Compliance Matrix: (Units=1/GPa)
#
#
# Indices 1 2 3 4 5 6 
#
# 1 0.010002 -0.009089 -0.000961 -0.000794 -0.005747 0.001366
# 2 -0.009089 0.035750 -0.007607 -0.009469 0.013132 -0.009165
# 3 -0.000961 -0.007607 0.011850 -0.000513 -0.006657 0.002658
# 4 -0.000794 -0.009469 -0.000513 0.025851 -0.003715 -0.003285
# 5 -0.005747 0.013132 -0.006657 -0.003715 0.024674 -0.001393
# 6 0.001366 -0.009165 0.002658 -0.003285 -0.001393 0.029363
#
#
# Mechanical properties :
#
#
# Convention : Reuss Voigt Hill
#
# Bulk Modulus (GPa) = 44.86875 83.28024 64.07449
# Shear Modulus (GPa) = 27.74169 45.22930 36.48550
#
# Velocity S-wave (km/s) = 3.47183 4.43304 3.98155
# Velocity P-wave (km/s) = 5.96378 7.89856 6.99835
#
# Compressibility (1/GPa) = 0.02228723
#
# Stress axis : x y z
#
# Youngs Moduli (GPa) = 99.98180 27.97195 84.38823
#
# Poissons Ratio (x) = 0.25424 0.08111
# Poissons Ratio (y) = 0.90876 0.64194
# Poissons Ratio (z) = 0.09610 0.21278
#
# Static dielectric constant tensor:
#      x y z
#    x 4.392450 0.041370 0.427490 
#    y 0.041370 4.120020 -0.329790 
#    z 0.427490 -0.329790 4.518620 
# 
# 
# High freq. dielectric constant tensor:
#      x y z
#    x 1.916580 0.016190 0.024470 
#    y 0.016190 1.909260 -0.016590 
#    z 0.024470 -0.016590 1.921440 
# 
# From -- ./inp_files/19363.got.cif
#   From: 2010.06.25/outbox.cif.g09.slc.cpg/sg2_10_cif.got.tgz:19363.got - 2010.06.27 13:26:56.
