data_PCOD8026296
_publ_section_title
;
Structure prediction by ZEFSAII (Michael W. Deem and Ramdas Pophale) SiO2 
 PCOD8026296
Probable space group: P -1
;
_chemical_formula_sum "Si O2"
_cell_formula_units_Z 16
_cell_length_a 11.849936
_cell_length_b 9.417345
_cell_length_c 14.069217
_cell_angle_alpha 49.665204
_cell_angle_beta 41.735228
_cell_angle_gamma 46.936651
_cell_volume 732.343273
_symmetry_space_group_name_H-M "P -1"
_symmetry_group_IT_number 2
_symmetry_cell_setting 'triclinic'
loop_
_space_group_symop_operation_xyz
x,y,z
-x,-y,-z
loop_
_atom_site_type_symbol
_atom_site_label
_atom_site_fract_x
_atom_site_fract_y
_atom_site_fract_z
Si Si1 0.331949 0.805229 0.428370
Si Si2 0.477932 0.163252 0.521429
Si Si3 0.528653 0.604758 0.057647
Si Si4 0.125169 0.228126 0.819656
Si Si5 0.401593 0.500889 0.735910
Si Si6 0.931503 0.359538 0.231962
Si Si7 0.325611 0.093321 0.140231
Si Si8 0.236403 0.793529 0.016491
O O1 0.383325 0.908177 0.443766
O O2 0.516750 0.613070 0.365045
O O3 0.168233 0.730436 0.587653
O O4 0.284441 0.948210 0.304305
O O5 0.267719 0.253101 0.646212
O O6 0.517542 0.332613 0.365789
O O7 0.500000 0.000000 0.500000
O O8 0.536057 0.642306 0.149799
O O9 0.318599 0.712174 0.104701
O O10 0.642134 0.734070 0.890091
O O11 0.621494 0.366761 0.077250
O O12 0.052458 0.429391 0.841697
O O13 0.963326 0.209830 0.866270
O O14 0.224383 0.021037 0.908349
O O15 0.180603 0.602713 0.813793
O O16 0.137098 0.195507 0.153760
O O17 0.500000 0.000000 0.000000
#
# Coordination Sequence:
#
# PCOD8026296 Si02
#       8
#     2   2   2   2   2   2   2   2
#     4  11  22  45  70  99 138 178 222 284 338 411
#     4  11  22  41  69  98 129 175 228 274 338 403
#     4  11  23  43  62  96 139 175 221 275 343 394
#     4  11  20  43  68  94 128 179 227 273 339 400
#     4  11  22  42  70 100 134 174 222 285 336 410
#     4  11  23  44  70  99 133 175 232 281 341 401
#     4  12  25  43  67  98 135 178 225 282 345 401
#     4  10  24  41  64  94 136 179 220 278 331 411
#
# _framework density 21.847677000000001
#
# number of rings (size 3 to 8) (size 9 to 14) (size 15 to 20)
#    0.000    1.000    5.000    2.625    0.000    1.500 
#   11.250    0.625    0.000    0.000    0.000    0.000 
#    0.000    0.000    0.000    0.000    0.000    0.000 
#
# Total GULP energy -198275.135027 kJ/mol
# GULP energy per Si atom -12392.195939 kJ/mol
# Density = 2.179795 g / cm^3
# Si number density = 21.847677 Si / 1000 Ang^3
#
#
#
# Elastic Constant Matrix: (Units=GPa)
#
#
# Indices 1 2 3 4 5 6 
#
# 1 145.2809 54.1039 54.5004 -1.5191 -1.0433 -17.8012
# 2 54.1039 116.3040 42.3380 -8.5985 -5.3539 -6.2041
# 3 54.5004 42.3380 76.0927 -11.9682 -8.2592 -9.6796
# 4 -1.5191 -8.5985 -11.9682 38.3829 -0.9589 -7.8787
# 5 -1.0433 -5.3539 -8.2592 -0.9589 37.6457 1.9067
# 6 -17.8012 -6.2041 -9.6796 -7.8787 1.9067 42.6364
#
#
#
# Elastic Compliance Matrix: (Units=1/GPa)
#
#
# Indices 1 2 3 4 5 6 
#
# 1 0.010440 -0.002704 -0.006109 -0.001656 -0.001596 0.002344
# 2 -0.002704 0.011502 -0.004246 0.001112 0.000670 -0.000244
# 3 -0.006109 -0.004246 0.021635 0.006210 0.003994 0.002712
# 4 -0.001656 0.001112 0.006210 0.029503 0.001910 0.006247
# 5 -0.001596 0.000670 0.003994 0.001910 0.027567 -0.000542
# 6 0.002344 -0.000244 0.002712 0.006247 -0.000542 0.026192
#
#
# Mechanical properties :
#
#
# Convention : Reuss Voigt Hill
#
# Bulk Modulus (GPa) = 57.27668 71.06244 64.16956
# Shear Modulus (GPa) = 31.49080 36.18203 33.83641
#
# Velocity S-wave (km/s) = 3.80067 4.07394 3.93968
# Velocity P-wave (km/s) = 6.74784 7.39772 7.08024
#
# Compressibility (1/GPa) = 0.01745911
#
# Stress axis : x y z
#
# Youngs Moduli (GPa) = 95.78328 86.94268 46.22106
#
# Poissons Ratio (x) = 0.23508 0.28236
# Poissons Ratio (y) = 0.25898 0.19627
# Poissons Ratio (z) = 0.58513 0.36919
#
# Static dielectric constant tensor:
#      x y z
#    x 3.886130 -0.032170 -0.227070 
#    y -0.032170 4.086980 -0.326550 
#    z -0.227070 -0.326550 3.905670 
# 
# 
# High freq. dielectric constant tensor:
#      x y z
#    x 1.860210 -0.002420 -0.013160 
#    y -0.002420 1.862090 -0.021270 
#    z -0.013160 -0.021270 1.858020 
# 
# From -- ./inp_files/419470.got.cif
#   From: 2010.06.25/outbox.cif.g09.slc.cpg/sg2_210_cif.got.tgz:419470.got - 2010.06.27 13:26:56.
