data_PCOD8026406
_publ_section_title
;
Structure prediction by ZEFSAII (Michael W. Deem and Ramdas Pophale) SiO2 
 PCOD8026406
Probable space group: P -1
;
_chemical_formula_sum "Si O2"
_cell_formula_units_Z 14
_cell_length_a 10.165341
_cell_length_b 13.215233
_cell_length_c 9.340017
_cell_angle_alpha 62.109702
_cell_angle_beta 103.850428
_cell_angle_gamma 53.531842
_cell_volume 611.438925
_symmetry_space_group_name_H-M "P -1"
_symmetry_group_IT_number 2
_symmetry_cell_setting 'triclinic'
loop_
_space_group_symop_operation_xyz
x,y,z
-x,-y,-z
loop_
_atom_site_type_symbol
_atom_site_label
_atom_site_fract_x
_atom_site_fract_y
_atom_site_fract_z
Si Si1 0.687517 0.792199 0.102240
Si Si2 0.064739 0.917743 0.794461
Si Si3 0.943239 0.220912 0.390015
Si Si4 0.457122 0.480070 0.715795
Si Si5 0.443693 0.941141 0.637209
Si Si6 0.775679 0.530872 0.512858
Si Si7 0.547418 0.248882 0.465947
O O1 0.716010 0.650468 0.280936
O O2 0.944896 0.674402 0.246663
O O3 0.611083 0.829901 0.892872
O O4 0.500000 0.000000 0.000000
O O5 0.136887 0.785435 0.770370
O O6 0.025091 0.073820 0.629229
O O7 0.288467 0.761061 0.062262
O O8 0.822709 0.039889 0.726200
O O9 0.711381 0.445920 0.244789
O O10 0.166196 0.150883 0.470971
O O11 0.325045 0.527797 0.505258
O O12 0.506395 0.579925 0.676213
O O13 0.484396 0.789794 0.671230
O O14 0.500000 0.000000 0.500000
O O15 0.634989 0.679875 0.515051
#
# Coordination Sequence:
#
# PCOD8026406 Si02
#       7
#     2   2   2   2   2   2   2
#     4  11  25  46  68  92 130 174 216 264 317 379
#     4   9  19  36  60  89 126 165 201 257 321 373
#     4   9  19  36  57  91 126 158 210 259 310 379
#     4  11  21  37  65  93 127 168 208 259 320 380
#     4  11  23  43  70  94 126 172 217 269 321 372
#     4  11  25  42  65  98 131 172 216 257 319 387
#     4  10  24  42  61  98 132 159 214 266 315 383
#
# _framework density 22.896806999999999
#
# number of rings (size 3 to 8) (size 9 to 14) (size 15 to 20)
#    0.000    1.714    0.000    4.286    0.000    8.000 
#    0.000    1.429    0.000    0.000    0.000    0.000 
#    0.000    0.000    0.000    0.000    0.000    0.000 
#
# Total GULP energy -173575.613974 kJ/mol
# GULP energy per Si atom -12398.258141 kJ/mol
# Density = 2.284469 g / cm^3
# Si number density = 22.896807 Si / 1000 Ang^3
#
#
#
# Elastic Constant Matrix: (Units=GPa)
#
#
# Indices 1 2 3 4 5 6 
#
# 1 101.3378 38.7916 64.2646 1.7120 22.3661 -10.8932
# 2 38.7916 119.4336 56.4902 -5.2460 21.7254 -23.1927
# 3 64.2646 56.4902 134.2698 0.9074 28.4809 -14.8280
# 4 1.7120 -5.2460 0.9074 36.1930 -6.7793 8.9350
# 5 22.3661 21.7254 28.4809 -6.7793 32.2535 -1.4192
# 6 -10.8932 -23.1927 -14.8280 8.9350 -1.4192 44.9222
#
#
#
# Elastic Compliance Matrix: (Units=1/GPa)
#
#
# Indices 1 2 3 4 5 6 
#
# 1 0.015136 -0.001179 -0.005450 -0.002111 -0.005267 0.001516
# 2 -0.001179 0.011877 -0.002980 -0.000140 -0.004372 0.004752
# 3 -0.005450 -0.002980 0.012722 -0.001960 -0.005792 0.001546
# 4 -0.002111 -0.000140 -0.001960 0.031315 0.009556 -0.007158
# 5 -0.005267 -0.004372 -0.005792 0.009556 0.044463 -0.005942
# 6 0.001516 0.004752 0.001546 -0.007158 -0.005942 0.026828
#
#
# Mechanical properties :
#
#
# Convention : Reuss Voigt Hill
#
# Bulk Modulus (GPa) = 48.73426 74.90376 61.81901
# Shear Modulus (GPa) = 29.69148 35.70671 32.69910
#
# Velocity S-wave (km/s) = 3.60495 3.95329 3.78313
# Velocity P-wave (km/s) = 6.21756 7.32275 6.79267
#
# Compressibility (1/GPa) = 0.02051945
#
# Stress axis : x y z
#
# Youngs Moduli (GPa) = 66.06604 84.19645 78.60276
#
# Poissons Ratio (x) = 0.09925 0.42836
# Poissons Ratio (y) = 0.07788 0.23420
# Poissons Ratio (z) = 0.36004 0.25087
#
# Static dielectric constant tensor:
#      x y z
#    x 4.193160 -0.248450 0.294750 
#    y -0.248450 4.365250 -0.047750 
#    z 0.294750 -0.047750 3.892760 
# 
# 
# High freq. dielectric constant tensor:
#      x y z
#    x 1.904120 -0.011120 0.021810 
#    y -0.011120 1.915740 -0.001790 
#    z 0.021810 -0.001790 1.888030 
# 
# From -- ./inp_files/272576.got.cif
#   From: 2010.06.25/outbox.cif.g09.slc.cpg/sg2_137_cif.got.tgz:272576.got - 2010.06.27 13:26:56.
