data_PCOD8026700
_publ_section_title
;
Structure prediction by ZEFSAII (Michael W. Deem and Ramdas Pophale) SiO2 
 PCOD8026700
Probable space group: P -1
;
_chemical_formula_sum "Si O2"
_cell_formula_units_Z 16
_cell_length_a 7.810104
_cell_length_b 25.073344
_cell_length_c 5.236780
_cell_angle_alpha 97.637180
_cell_angle_beta 65.694704
_cell_angle_gamma 135.021247
_cell_volume 640.373129
_symmetry_space_group_name_H-M "P -1"
_symmetry_group_IT_number 2
_symmetry_cell_setting 'triclinic'
loop_
_space_group_symop_operation_xyz
x,y,z
-x,-y,-z
loop_
_atom_site_type_symbol
_atom_site_label
_atom_site_fract_x
_atom_site_fract_y
_atom_site_fract_z
Si Si1 0.512006 0.570851 0.320502
Si Si2 0.951013 0.790581 0.660114
Si Si3 0.947867 0.596386 0.338311
Si Si4 0.706634 0.239650 0.583742
Si Si5 0.658592 0.085506 0.118694
Si Si6 0.576925 0.377326 0.092831
Si Si7 0.128782 0.938474 0.424376
Si Si8 0.559399 0.853008 0.834468
O O1 0.806596 0.604194 0.210650
O O2 0.284822 0.477018 0.384446
O O3 0.514975 0.603476 0.073489
O O4 0.433744 0.593235 0.617250
O O5 0.074581 0.760002 0.465369
O O6 0.077964 0.830923 0.879402
O O7 0.032527 0.857567 0.479598
O O8 0.627836 0.715971 0.830915
O O9 0.144090 0.672011 0.447811
O O10 0.120792 0.583828 0.098195
O O11 0.584771 0.204983 0.356664
O O12 0.475548 0.190288 0.916613
O O13 0.539657 0.107180 0.017631
O O14 0.406775 0.020302 0.434195
O O15 0.758666 0.047967 0.925583
O O16 0.878618 0.925810 0.617094
#
# Coordination Sequence:
#
# PCOD8026700 Si02
#       8
#     2   2   2   2   2   2   2   2
#     4  11  28  48  73 109 144 186 237 294 351 426
#     4  11  24  44  68  97 140 177 232 286 345 412
#     4  11  26  48  74 106 147 188 235 292 358 417
#     4  11  25  45  68 101 138 182 225 290 343 410
#     4  10  24  43  65 100 136 178 226 289 341 413
#     4  12  27  46  77 104 145 187 240 290 354 424
#     4  11  23  43  70  96 134 183 228 281 353 407
#     4  11  25  44  69 100 137 178 233 279 344 412
#
# _framework density 24.985434999999999
#
# number of rings (size 3 to 8) (size 9 to 14) (size 15 to 20)
#    0.000    1.000    2.500    2.250    8.750    5.000 
#    0.000    1.875    0.000    0.000    0.000    0.000 
#    0.000    0.000    0.000    0.000    0.000    0.000 
#
# Total GULP energy -198233.860538 kJ/mol
# GULP energy per Si atom -12389.616284 kJ/mol
# Density = 2.492857 g / cm^3
# Si number density = 24.985435 Si / 1000 Ang^3
#
#
#
# Elastic Constant Matrix: (Units=GPa)
#
#
# Indices 1 2 3 4 5 6 
#
# 1 67.1778 2.6052 7.1207 8.9129 -10.6698 7.3774
# 2 2.6052 127.8488 23.1982 -14.5617 7.6464 7.3983
# 3 7.1207 23.1982 69.1073 1.0780 1.5791 12.4822
# 4 8.9129 -14.5617 1.0780 40.8484 -0.4618 -7.0715
# 5 -10.6698 7.6464 1.5791 -0.4618 41.1462 -10.1051
# 6 7.3774 7.3983 12.4822 -7.0715 -10.1051 36.2415
#
#
#
# Elastic Compliance Matrix: (Units=1/GPa)
#
#
# Indices 1 2 3 4 5 6 
#
# 1 0.016466 -0.000707 -0.001001 -0.004234 0.003742 -0.002645
# 2 -0.000707 0.008860 -0.002808 0.003268 -0.001825 -0.000569
# 3 -0.001001 -0.002808 0.016664 -0.002269 -0.001857 -0.005923
# 4 -0.004234 0.003268 -0.002269 0.027753 0.000282 0.006470
# 5 0.003742 -0.001825 -0.001857 0.000282 0.027657 0.008017
# 6 -0.002645 -0.000569 -0.005923 0.006470 0.008017 0.033785
#
#
# Mechanical properties :
#
#
# Convention : Reuss Voigt Hill
#
# Bulk Modulus (GPa) = 30.34149 36.66466 33.50308
# Shear Modulus (GPa) = 33.06859 39.06122 36.06491
#
# Velocity S-wave (km/s) = 3.64196 3.95822 3.80338
# Velocity P-wave (km/s) = 5.46399 5.96627 5.72064
#
# Compressibility (1/GPa) = 0.03295817
#
# Stress axis : x y z
#
# Youngs Moduli (GPa) = 60.73095 112.86852 60.01139
#
# Poissons Ratio (x) = 0.07979 0.06007
# Poissons Ratio (y) = 0.04293 0.16850
# Poissons Ratio (z) = 0.06079 0.31691
#
# Static dielectric constant tensor:
#      x y z
#    x 4.429370 -0.128360 -0.228800 
#    y -0.128360 4.750300 -0.258890 
#    z -0.228800 -0.258890 4.380290 
# 
# 
# High freq. dielectric constant tensor:
#      x y z
#    x 1.985120 -0.009640 -0.020350 
#    y -0.009640 2.016860 -0.015090 
#    z -0.020350 -0.015090 1.988810 
# 
# From -- ./inp_files/56464.got.cif
#   From: 2010.06.25/outbox.cif.g09.slc.cpg/sg2_29_cif.got.tgz:56464.got - 2010.06.27 13:26:56.
