data_PCOD8026428
_publ_section_title
;
Structure prediction by ZEFSAII (Michael W. Deem and Ramdas Pophale) SiO2 
 PCOD8026428
Probable space group: P -1
;
_chemical_formula_sum "Si O2"
_cell_formula_units_Z 16
_cell_length_a 15.344914
_cell_length_b 8.157181
_cell_length_c 11.230257
_cell_angle_alpha 103.168339
_cell_angle_beta 144.091936
_cell_angle_gamma 57.914968
_cell_volume 637.922224
_symmetry_space_group_name_H-M "P -1"
_symmetry_group_IT_number 2
_symmetry_cell_setting 'triclinic'
loop_
_space_group_symop_operation_xyz
x,y,z
-x,-y,-z
loop_
_atom_site_type_symbol
_atom_site_label
_atom_site_fract_x
_atom_site_fract_y
_atom_site_fract_z
Si Si1 0.142402 0.661285 0.151130
Si Si2 0.253614 0.497726 0.758446
Si Si3 0.205741 0.145792 0.065152
Si Si4 0.297513 0.749364 0.136859
Si Si5 0.643114 0.285034 0.409092
Si Si6 0.490610 0.190108 0.425922
Si Si7 0.883197 0.687478 0.250850
Si Si8 0.682144 0.176748 0.165827
O O1 0.141023 0.750187 0.033512
O O2 0.197795 0.741625 0.337794
O O3 0.292274 0.413080 0.270020
O O4 0.934438 0.738793 0.959045
O O5 0.208929 0.419201 0.814379
O O6 0.239331 0.711399 0.801673
O O7 0.103117 0.545078 0.501002
O O8 0.461950 0.308481 0.913718
O O9 0.420783 0.043904 0.327617
O O10 0.211551 0.947984 0.983897
O O11 0.135346 0.319487 0.912505
O O12 0.466423 0.531044 0.231975
O O13 0.358969 0.840627 0.323076
O O14 0.563343 0.176178 0.370050
O O15 0.720882 0.188866 0.350013
O O16 0.782125 0.930242 0.216496
#
# Coordination Sequence:
#
# PCOD8026428 Si02
#       8
#     2   2   2   2   2   2   2   2
#     4   9  19  37  59  83 119 155 194 246 299 365
#     4  10  24  42  64  86 132 162 212 266 310 352
#     4  12  21  34  60  89 119 154 199 246 311 360
#     4   9  20  36  59  85 119 153 199 245 296 366
#     4   9  19  39  60  86 114 162 199 238 303 372
#     4   9  19  37  59  83 119 155 194 246 299 365
#     4  11  25  43  61  98 130 161 213 266 305 375
#     4  11  22  42  70  90 126 171 210 252 320 374
#
# _framework density 25.081426
#
# number of rings (size 3 to 8) (size 9 to 14) (size 15 to 20)
#    0.000    2.000    0.000    4.875    3.500    0.000 
#    0.000    0.000   22.000    0.000    0.000    0.000 
#    0.000    0.000    0.000    0.000    0.000    0.000 
#
# Total GULP energy -198215.875214 kJ/mol
# GULP energy per Si atom -12388.492201 kJ/mol
# Density = 2.502434 g / cm^3
# Si number density = 25.081426 Si / 1000 Ang^3
#
#
#
# Elastic Constant Matrix: (Units=GPa)
#
#
# Indices 1 2 3 4 5 6 
#
# 1 95.7304 30.2257 18.5710 1.3629 18.4760 32.7056
# 2 30.2257 70.9188 -10.5207 -0.6504 4.4526 12.6276
# 3 18.5710 -10.5207 69.5007 -2.9465 11.5879 0.3906
# 4 1.3629 -0.6504 -2.9465 24.5624 3.4544 0.5074
# 5 18.4760 4.4526 11.5879 3.4544 30.2861 9.2568
# 6 32.7056 12.6276 0.3906 0.5074 9.2568 28.0691
#
#
#
# Elastic Compliance Matrix: (Units=1/GPa)
#
#
# Indices 1 2 3 4 5 6 
#
# 1 0.021325 -0.006055 -0.005998 -0.001168 -0.003293 -0.020933
# 2 -0.006055 0.017514 0.004418 0.001416 -0.000505 -0.000744
# 3 -0.005998 0.004418 0.017804 0.003324 -0.006246 0.006753
# 4 -0.001168 0.001416 0.003324 0.042040 -0.006158 0.001948
# 5 -0.003293 -0.000505 -0.006246 -0.006158 0.041026 -0.009267
# 6 -0.020933 -0.000744 0.006753 0.001948 -0.009267 0.063279
#
#
# Mechanical properties :
#
#
# Convention : Reuss Voigt Hill
#
# Bulk Modulus (GPa) = 24.17053 34.74465 29.45759
# Shear Modulus (GPa) = 21.54716 29.77512 25.66114
#
# Velocity S-wave (km/s) = 2.93420 3.44922 3.20208
# Velocity P-wave (km/s) = 4.59751 5.45396 5.04395
#
# Compressibility (1/GPa) = 0.04137269
#
# Stress axis : x y z
#
# Youngs Moduli (GPa) = 46.89299 57.09738 56.16709
#
# Poissons Ratio (x) = 0.34574 0.33687
# Poissons Ratio (y) = 0.28395 -0.24813
# Poissons Ratio (z) = 0.28125 -0.25223
#
# Static dielectric constant tensor:
#      x y z
#    x 4.736070 0.564380 -0.077900 
#    y 0.564380 4.589290 0.049760 
#    z -0.077900 0.049760 4.879780 
# 
# 
# High freq. dielectric constant tensor:
#      x y z
#    x 2.013480 0.030850 -0.001610 
#    y 0.030850 1.992880 -0.000820 
#    z -0.001610 -0.000820 1.999730 
# 
# From -- ./inp_files/447684.got.cif
#   From: 2010.06.25/outbox.cif.g09.slc.cpg/sg2_224_cif.got.tgz:447684.got - 2010.06.27 13:26:56.
