data_PCOD8026158
_publ_section_title
;
Structure prediction by ZEFSAII (Michael W. Deem and Ramdas Pophale) SiO2 
 PCOD8026158
Probable space group: P -1
;
_chemical_formula_sum "Si O2"
_cell_formula_units_Z 12
_cell_length_a 5.139042
_cell_length_b 23.458375
_cell_length_c 5.147378
_cell_angle_alpha 84.138337
_cell_angle_beta 117.907714
_cell_angle_gamma 103.554703
_cell_volume 533.073619
_symmetry_space_group_name_H-M "P -1"
_symmetry_group_IT_number 2
_symmetry_cell_setting 'triclinic'
loop_
_space_group_symop_operation_xyz
x,y,z
-x,-y,-z
loop_
_atom_site_type_symbol
_atom_site_label
_atom_site_fract_x
_atom_site_fract_y
_atom_site_fract_z
Si Si1 0.239377 0.706450 0.464180
Si Si2 0.644919 0.477341 0.830041
Si Si3 0.759703 0.889322 0.129607
Si Si4 0.623962 0.653513 0.329931
Si Si5 0.428863 0.759538 0.024235
Si Si6 0.530696 0.067925 0.533135
O O1 0.514278 0.672751 0.552301
O O2 0.283434 0.759347 0.671248
O O3 0.977451 0.653360 0.476275
O O4 0.186043 0.739987 0.153921
O O5 0.500000 0.500000 0.500000
O O6 0.579218 0.407191 0.830378
O O7 0.500000 0.500000 0.000000
O O8 0.000000 0.500000 0.000000
O O9 0.644719 0.820791 0.166355
O O10 0.624196 0.904438 0.786726
O O11 0.648102 0.926104 0.289043
O O12 0.120002 0.901747 0.282798
O O13 0.608006 0.706797 0.099213
O O14 0.500000 0.000000 0.500000
#
# Coordination Sequence:
#
# PCOD8026158 Si02
#       6
#     2   2   2   2   2   2
#     4  10  24  39  67  92 135 169 220 262 352 392
#     4  12  28  46  72 100 136 179 234 279 335 406
#     4  12  26  43  74 102 137 178 231 279 335 406
#     4  10  26  42  69  93 137 171 220 275 343 390
#     4  10  26  40  68  97 136 168 223 272 343 393
#     4  12  26  48  70 101 139 183 227 279 335 397
#
# _framework density 22.510960000000001
#
# number of rings (size 3 to 8) (size 9 to 14) (size 15 to 20)
#    1.000    0.000    0.000    5.000   11.667    0.000 
#    0.000    0.000    0.000    0.000    0.000    0.000 
#    0.000    0.000    0.000    0.000    0.000    0.000 
#
# Total GULP energy -148658.581897 kJ/mol
# GULP energy per Si atom -12388.215158 kJ/mol
# Density = 2.245972 g / cm^3
# Si number density = 22.510960 Si / 1000 Ang^3
#
#
#
# Elastic Constant Matrix: (Units=GPa)
#
#
# Indices 1 2 3 4 5 6 
#
# 1 143.6563 8.3738 55.1870 9.3211 -3.1083 20.3038
# 2 8.3738 134.6779 17.9401 13.8563 6.0885 9.6485
# 3 55.1870 17.9401 133.8326 10.2064 -8.6900 1.0533
# 4 9.3211 13.8563 10.2064 34.8002 -5.4744 4.4789
# 5 -3.1083 6.0885 -8.6900 -5.4744 44.0510 11.5848
# 6 20.3038 9.6485 1.0533 4.4789 11.5848 32.2303
#
#
#
# Elastic Compliance Matrix: (Units=1/GPa)
#
#
# Indices 1 2 3 4 5 6 
#
# 1 0.009322 0.000352 -0.003707 -0.000504 0.001477 -0.006317
# 2 0.000352 0.008027 -0.001061 -0.002943 -0.001199 -0.001750
# 3 -0.003707 -0.001061 0.009298 -0.001444 0.000960 0.002205
# 4 -0.000504 -0.002943 -0.001444 0.031979 0.005413 -0.005144
# 5 0.001477 -0.001199 0.000960 0.005413 0.026715 -0.010957
# 6 -0.006317 -0.001750 0.002205 -0.005144 -0.010957 0.040111
#
#
# Mechanical properties :
#
#
# Convention : Reuss Voigt Hill
#
# Bulk Modulus (GPa) = 56.13237 63.90763 60.02000
# Shear Modulus (GPa) = 35.65744 44.26069 39.95907
#
# Velocity S-wave (km/s) = 3.98427 4.43898 4.21776
# Velocity P-wave (km/s) = 6.79379 7.39756 7.10209
#
# Compressibility (1/GPa) = 0.01781503
#
# Stress axis : x y z
#
# Youngs Moduli (GPa) = 107.26987 124.58122 107.54928
#
# Poissons Ratio (x) = -0.04385 0.39871
# Poissons Ratio (y) = -0.03775 0.11409
# Poissons Ratio (z) = 0.39767 0.13216
#
# Static dielectric constant tensor:
#      x y z
#    x 4.206490 0.031220 -0.051620 
#    y 0.031220 4.077650 0.047470 
#    z -0.051620 0.047470 4.152150 
# 
# 
# High freq. dielectric constant tensor:
#      x y z
#    x 1.902310 0.004940 -0.016660 
#    y 0.004940 1.893740 0.011480 
#    z -0.016660 0.011480 1.884110 
# 
# From -- ./inp_files/10922.got.cif
#   From: 2010.06.25/outbox.cif.g09.slc.cpg/sg2_6_cif.got.tgz:10922.got - 2010.06.27 13:26:56.
