data_PCOD8026141
_publ_section_title
;
Structure prediction by ZEFSAII (Michael W. Deem and Ramdas Pophale) SiO2 
 PCOD8026141
Probable space group: P -1
;
_chemical_formula_sum "Si O2"
_cell_formula_units_Z 14
_cell_length_a 18.246921
_cell_length_b 7.722798
_cell_length_c 9.143468
_cell_angle_alpha 66.810134
_cell_angle_beta 29.689144
_cell_angle_gamma 58.730933
_cell_volume 540.480123
_symmetry_space_group_name_H-M "P -1"
_symmetry_group_IT_number 2
_symmetry_cell_setting 'triclinic'
loop_
_space_group_symop_operation_xyz
x,y,z
-x,-y,-z
loop_
_atom_site_type_symbol
_atom_site_label
_atom_site_fract_x
_atom_site_fract_y
_atom_site_fract_z
Si Si1 0.116404 0.628389 0.286207
Si Si2 0.367224 0.691863 0.248125
Si Si3 0.735849 0.884332 0.872442
Si Si4 0.491358 0.690293 0.354187
Si Si5 0.013431 0.553237 0.202591
Si Si6 0.736137 0.076953 0.100904
Si Si7 0.990976 0.243810 0.130465
O O1 0.133034 0.461554 0.441129
O O2 0.929371 0.790105 0.554266
O O3 0.150836 0.534000 0.091581
O O4 0.251647 0.717389 0.059284
O O5 0.406240 0.682414 0.353954
O O6 0.196453 0.672029 0.536650
O O7 0.349620 0.913136 0.144325
O O8 0.500000 0.500000 0.000000
O O9 0.659800 0.715212 0.020865
O O10 0.695174 0.948130 0.090665
O O11 0.500000 0.500000 0.500000
O O12 0.388593 0.888586 0.562995
O O13 0.073465 0.375305 0.035150
O O14 0.968058 0.757722 0.114450
O O15 0.914666 0.981306 0.895323
#
# Coordination Sequence:
#
# PCOD8026141 Si02
#       7
#     2   2   2   2   2   2   2
#     4  11  23  42  73 106 144 186 245 297 358 431
#     4  12  28  49  74 104 152 195 249 296 370 438
#     4  12  26  48  74 108 148 197 243 301 372 432
#     4  12  31  49  74 107 151 197 245 302 373 435
#     4  10  24  38  69 107 144 181 239 301 360 420
#     4  12  25  48  76 107 147 190 245 303 363 438
#     4  11  24  45  71 109 141 189 244 307 356 428
#
# _framework density 25.902894
#
# number of rings (size 3 to 8) (size 9 to 14) (size 15 to 20)
#    0.000    0.571    2.857    3.857   10.000    3.429 
#    0.000    0.000    0.000    0.000    0.000    0.000 
#    0.000    0.000    0.000    0.000    0.000    0.000 
#
# Total GULP energy -173442.938412 kJ/mol
# GULP energy per Si atom -12388.781315 kJ/mol
# Density = 2.584394 g / cm^3
# Si number density = 25.902894 Si / 1000 Ang^3
#
#
#
# Elastic Constant Matrix: (Units=GPa)
#
#
# Indices 1 2 3 4 5 6 
#
# 1 127.5071 34.9656 35.4970 0.2003 30.5074 -15.2324
# 2 34.9656 85.0139 36.3123 -26.2408 -0.6420 -19.3818
# 3 35.4970 36.3123 116.3506 11.3854 6.2315 -14.5028
# 4 0.2003 -26.2408 11.3854 46.9665 -0.9482 4.4327
# 5 30.5074 -0.6420 6.2315 -0.9482 49.9738 -10.5574
# 6 -15.2324 -19.3818 -14.5028 4.4327 -10.5574 47.6809
#
#
#
# Elastic Compliance Matrix: (Units=1/GPa)
#
#
# Indices 1 2 3 4 5 6 
#
# 1 0.011165 -0.004939 -0.001254 -0.002633 -0.006790 -0.000081
# 2 -0.004939 0.021842 -0.006238 0.013340 0.005462 0.005373
# 3 -0.001254 -0.006238 0.011725 -0.006438 -0.000671 0.001080
# 4 -0.002633 0.013340 -0.006438 0.030333 0.003268 0.000527
# 5 -0.006790 0.005462 -0.000671 0.003268 0.025466 0.005182
# 6 -0.000081 0.005373 0.001080 0.000527 0.005182 0.024558
#
#
# Mechanical properties :
#
#
# Convention : Reuss Voigt Hill
#
# Bulk Modulus (GPa) = 50.32630 60.26904 55.29767
# Shear Modulus (GPa) = 31.93364 43.73070 37.83217
#
# Velocity S-wave (km/s) = 3.51496 4.11330 3.82585
# Velocity P-wave (km/s) = 5.99536 6.77324 6.39613
#
# Compressibility (1/GPa) = 0.01987033
#
# Stress axis : x y z
#
# Youngs Moduli (GPa) = 89.56392 45.78231 85.29048
#
# Poissons Ratio (x) = 0.22612 0.10693
# Poissons Ratio (y) = 0.44235 0.53207
# Poissons Ratio (z) = 0.11229 0.28561
#
# Static dielectric constant tensor:
#      x y z
#    x 4.977680 -0.151730 0.289390 
#    y -0.151730 5.080340 0.059720 
#    z 0.289390 0.059720 4.739740 
# 
# 
# High freq. dielectric constant tensor:
#      x y z
#    x 2.047990 -0.000800 0.015960 
#    y -0.000800 2.047250 -0.003520 
#    z 0.015960 -0.003520 2.035190 
# 
# From -- ./inp_files/328648.got.cif
#   From: 2010.06.25/outbox.cif.g09.slc.cpg/sg2_165_cif.got.tgz:328648.got - 2010.06.27 13:26:56.
