data_PCOD8026550
_publ_section_title
;
Structure prediction by ZEFSAII (Michael W. Deem and Ramdas Pophale) SiO2 
 PCOD8026550
Probable space group: P -1
;
_chemical_formula_sum "Si O2"
_cell_formula_units_Z 16
_cell_length_a 14.975882
_cell_length_b 10.879932
_cell_length_c 14.453771
_cell_angle_alpha 148.448554
_cell_angle_beta 37.739344
_cell_angle_gamma 122.811895
_cell_volume 687.202765
_symmetry_space_group_name_H-M "P -1"
_symmetry_group_IT_number 2
_symmetry_cell_setting 'triclinic'
loop_
_space_group_symop_operation_xyz
x,y,z
-x,-y,-z
loop_
_atom_site_type_symbol
_atom_site_label
_atom_site_fract_x
_atom_site_fract_y
_atom_site_fract_z
Si Si1 0.454765 0.409563 0.307756
Si Si2 0.280748 0.261987 0.910273
Si Si3 0.388714 0.041470 0.251169
Si Si4 0.835461 0.168928 0.292754
Si Si5 0.168009 0.688088 0.407856
Si Si6 0.266772 0.433689 0.837622
Si Si7 0.956730 0.901550 0.378185
Si Si8 0.579056 0.117691 0.687681
O O1 0.413218 0.295340 0.362540
O O2 0.286149 0.593754 0.516469
O O3 0.570362 0.552567 0.326705
O O4 0.564159 0.166585 0.001196
O O5 0.173843 0.419475 0.187622
O O6 0.259134 0.465065 0.975958
O O7 0.243408 0.030585 0.752930
O O8 0.464505 0.140972 0.711424
O O9 0.205168 0.133446 0.491975
O O10 0.497482 0.898015 0.159437
O O11 0.877407 0.274442 0.422510
O O12 0.000000 0.000000 0.000000
O O13 0.051419 0.916627 0.585606
O O14 0.351475 0.662998 0.231147
O O15 0.271053 0.159002 0.628307
O O16 0.103950 0.638631 0.059322
O O17 0.000000 0.000000 0.500000
#
# Coordination Sequence:
#
# PCOD8026550 Si02
#       8
#     2   2   2   2   2   2   2   2
#     4  11  23  44  66  94 137 178 222 280 341 397
#     4  12  23  44  71  96 137 176 226 290 334 401
#     4  10  24  42  68  97 134 182 223 282 336 407
#     4  12  28  46  67 101 140 181 229 283 345 408
#     4  11  24  43  71 100 132 179 229 282 339 408
#     4  12  22  40  70  97 131 177 223 277 338 398
#     4  11  22  42  69 101 134 176 233 278 335 405
#     4  11  22  41  68 102 129 172 234 276 343 402
#
# _framework density 23.282795
#
# number of rings (size 3 to 8) (size 9 to 14) (size 15 to 20)
#    0.000    0.750    5.000    3.000    1.750    4.000 
#    2.250    0.000    0.000    0.000    0.000    0.000 
#    0.000    0.000    0.000    0.000    0.000    0.000 
#
# Total GULP energy -198335.505274 kJ/mol
# GULP energy per Si atom -12395.969080 kJ/mol
# Density = 2.322980 g / cm^3
# Si number density = 23.282795 Si / 1000 Ang^3
#
#
#
# Elastic Constant Matrix: (Units=GPa)
#
#
# Indices 1 2 3 4 5 6 
#
# 1 62.0948 3.4534 -9.0590 -8.8269 -3.9120 -12.3588
# 2 3.4534 75.6080 -11.1174 -6.0950 -1.9204 -14.6187
# 3 -9.0590 -11.1174 65.1509 -10.1796 -8.0143 -2.6200
# 4 -8.8269 -6.0950 -10.1796 27.9359 0.3753 3.7122
# 5 -3.9120 -1.9204 -8.0143 0.3753 50.1202 2.5365
# 6 -12.3588 -14.6187 -2.6200 3.7122 2.5365 31.9440
#
#
#
# Elastic Compliance Matrix: (Units=1/GPa)
#
#
# Indices 1 2 3 4 5 6 
#
# 1 0.019372 0.001938 0.004694 0.007195 0.001889 0.007780
# 2 0.001938 0.015592 0.004055 0.004466 0.000978 0.007621
# 3 0.004694 0.004055 0.018589 0.008574 0.003230 0.003943
# 4 0.007195 0.004466 0.008574 0.042078 0.001763 0.000501
# 5 0.001889 0.000978 0.003230 0.001763 0.020661 -0.000402
# 6 0.007780 0.007621 0.003943 0.000501 -0.000402 0.038100
#
#
# Mechanical properties :
#
#
# Convention : Reuss Voigt Hill
#
# Bulk Modulus (GPa) = 13.34679 18.82310 16.08494
# Shear Modulus (GPa) = 31.64668 36.63847 34.14257
#
# Velocity S-wave (km/s) = 3.69077 3.97120 3.83355
# Velocity P-wave (km/s) = 4.88951 5.39716 5.14960
#
# Compressibility (1/GPa) = 0.07492439
#
# Stress axis : x y z
#
# Youngs Moduli (GPa) = 51.62186 64.13478 53.79508
#
# Poissons Ratio (x) = -0.12427 -0.25249
# Poissons Ratio (y) = -0.10002 -0.21812
# Poissons Ratio (z) = -0.24229 -0.26004
#
# Static dielectric constant tensor:
#      x y z
#    x 4.561110 -0.216780 -0.098240 
#    y -0.216780 4.349750 0.115010 
#    z -0.098240 0.115010 4.237000 
# 
# 
# High freq. dielectric constant tensor:
#      x y z
#    x 1.932290 -0.012980 0.006760 
#    y -0.012980 1.901960 0.014850 
#    z 0.006760 0.014850 1.930600 
# 
# From -- ./inp_files/437181.got.cif
#   From: 2010.06.25/outbox.cif.g09.slc.cpg/sg2_219_cif.got.tgz:437181.got - 2010.06.27 13:26:56.
