data_PCOD8026792
_publ_section_title
;
Structure prediction by ZEFSAII (Michael W. Deem and Ramdas Pophale) SiO2 
 PCOD8026792
Probable space group: P -1
;
_chemical_formula_sum "Si O2"
_cell_formula_units_Z 16
_cell_length_a 8.759917
_cell_length_b 9.175036
_cell_length_c 11.570960
_cell_angle_alpha 98.734016
_cell_angle_beta 98.367080
_cell_angle_gamma 48.009512
_cell_volume 681.980881
_symmetry_space_group_name_H-M "P -1"
_symmetry_group_IT_number 2
_symmetry_cell_setting 'triclinic'
loop_
_space_group_symop_operation_xyz
x,y,z
-x,-y,-z
loop_
_atom_site_type_symbol
_atom_site_label
_atom_site_fract_x
_atom_site_fract_y
_atom_site_fract_z
Si Si1 0.821265 0.809996 0.024661
Si Si2 0.788016 0.101052 0.673299
Si Si3 0.532284 0.725574 0.980167
Si Si4 0.910308 0.842887 0.287304
Si Si5 0.542184 0.520870 0.181445
Si Si6 0.006657 0.271615 0.208536
Si Si7 0.566090 0.098840 0.446511
Si Si8 0.121054 0.466955 0.395086
O O1 0.931278 0.754947 0.153503
O O2 0.655457 0.044388 0.027283
O O3 0.736056 0.697112 0.990031
O O4 0.984276 0.734288 0.930879
O O5 0.603277 0.325652 0.716271
O O6 0.734385 0.081600 0.536578
O O7 0.007429 0.043030 0.693371
O O8 0.817727 0.945277 0.744986
O O9 0.528655 0.602030 0.866505
O O10 0.517534 0.650115 0.089607
O O11 0.053516 0.671353 0.375347
O O12 0.673684 0.987260 0.323323
O O13 0.777714 0.368702 0.232169
O O14 0.057958 0.399977 0.276208
O O15 0.364614 0.320890 0.424432
O O16 0.500000 0.000000 0.500000
O O17 0.000000 0.500000 0.500000
#
# Coordination Sequence:
#
# PCOD8026792 Si02
#       8
#     2   2   2   2   2   2   2   2
#     4  11  26  45  73 108 153 192 241 294 359 438
#     4  12  27  49  73 109 148 188 244 304 362 427
#     4  10  24  43  68 100 150 192 240 285 356 421
#     4  12  29  46  75 112 145 187 244 301 364 434
#     4  11  25  43  71 104 146 194 240 290 355 424
#     4  12  26  45  75 104 151 197 237 294 367 426
#     4  12  26  49  81 101 143 191 244 304 368 425
#     4  12  26  47  77 108 137 188 250 301 359 429
#
# _framework density 23.461069999999999
#
# number of rings (size 3 to 8) (size 9 to 14) (size 15 to 20)
#    0.000    0.500    3.750    2.625   10.500    3.500 
#    0.000    0.000    0.000    0.000    0.000    0.000 
#    0.000    0.000    0.000    0.000    0.000    0.000 
#
# Total GULP energy -198478.073258 kJ/mol
# GULP energy per Si atom -12404.879579 kJ/mol
# Density = 2.340767 g / cm^3
# Si number density = 23.461070 Si / 1000 Ang^3
#
#
#
# Elastic Constant Matrix: (Units=GPa)
#
#
# Indices 1 2 3 4 5 6 
#
# 1 103.4462 25.1806 25.9159 5.1004 8.3881 -3.5598
# 2 25.1806 96.0732 22.0981 -2.1107 -3.8360 -0.2601
# 3 25.9159 22.0981 115.9529 4.4719 -4.0258 -7.3625
# 4 5.1004 -2.1107 4.4719 37.0262 -3.6137 3.1049
# 5 8.3881 -3.8360 -4.0258 -3.6137 41.7388 6.9952
# 6 -3.5598 -0.2601 -7.3625 3.1049 6.9952 43.7086
#
#
#
# Elastic Compliance Matrix: (Units=1/GPa)
#
#
# Indices 1 2 3 4 5 6 
#
# 1 0.011177 -0.002639 -0.001954 -0.001849 -0.003035 0.001183
# 2 -0.002639 0.011581 -0.001666 0.001457 0.001694 -0.000801
# 3 -0.001954 -0.001666 0.009534 -0.001010 0.000841 0.001374
# 4 -0.001849 0.001457 -0.001010 0.028028 0.003310 -0.002833
# 5 -0.003035 0.001694 0.000841 0.003310 0.025840 -0.004466
# 6 0.001183 -0.000801 0.001374 -0.002833 -0.004466 0.024118
#
#
# Mechanical properties :
#
#
# Convention : Reuss Voigt Hill
#
# Bulk Modulus (GPa) = 50.56938 51.31794 50.94366
# Shear Modulus (GPa) = 38.64401 40.64656 39.64529
#
# Velocity S-wave (km/s) = 4.06292 4.16686 4.11522
# Velocity P-wave (km/s) = 6.60387 6.71353 6.65892
#
# Compressibility (1/GPa) = 0.01977481
#
# Stress axis : x y z
#
# Youngs Moduli (GPa) = 89.47185 86.34914 104.89005
#
# Poissons Ratio (x) = 0.22784 0.20497
# Poissons Ratio (y) = 0.23607 0.17470
# Poissons Ratio (z) = 0.17484 0.14382
#
# Static dielectric constant tensor:
#      x y z
#    x 4.206340 0.099120 0.087540 
#    y 0.099120 4.388770 0.051560 
#    z 0.087540 0.051560 4.250320 
# 
# 
# High freq. dielectric constant tensor:
#      x y z
#    x 1.928060 0.002200 0.000110 
#    y 0.002200 1.944910 -0.000020 
#    z 0.000110 -0.000020 1.929710 
# 
# From -- ./inp_files/382674.got.cif
#   From: 2010.06.25/outbox.cif.g09.slc.cpg/sg2_192_cif.got.tgz:382674.got - 2010.06.27 13:26:56.
