data_PCOD8026832
_publ_section_title
;
Structure prediction by ZEFSAII (Michael W. Deem and Ramdas Pophale) SiO2 
 PCOD8026832
Probable space group: P -1
;
_chemical_formula_sum "Si O2"
_cell_formula_units_Z 16
_cell_length_a 12.598747
_cell_length_b 15.535230
_cell_length_c 15.831111
_cell_angle_alpha 35.439976
_cell_angle_beta 25.134905
_cell_angle_gamma 34.096480
_cell_volume 709.735368
_symmetry_space_group_name_H-M "P -1"
_symmetry_group_IT_number 2
_symmetry_cell_setting 'triclinic'
loop_
_space_group_symop_operation_xyz
x,y,z
-x,-y,-z
loop_
_atom_site_type_symbol
_atom_site_label
_atom_site_fract_x
_atom_site_fract_y
_atom_site_fract_z
Si Si1 0.674623 0.929680 0.693363
Si Si2 0.417893 0.677241 0.024229
Si Si3 0.331690 0.072869 0.981916
Si Si4 0.044834 0.299711 0.536449
Si Si5 0.574413 0.332401 0.159707
Si Si6 0.204774 0.418627 0.841525
Si Si7 0.821021 0.343349 0.477854
Si Si8 0.196373 0.959754 0.650260
O O1 0.548934 0.794704 0.875104
O O2 0.996562 0.832296 0.550056
O O3 0.629473 0.055458 0.548400
O O4 0.542524 0.038473 0.780881
O O5 0.304927 0.737774 0.963144
O O6 0.191130 0.661358 0.259193
O O7 0.631596 0.493790 0.009163
O O8 0.119624 0.989148 0.184210
O O9 0.162646 0.260068 0.967384
O O10 0.500000 0.000000 0.000000
O O11 0.938619 0.362861 0.468849
O O12 0.251427 0.380928 0.351770
O O13 0.214814 0.108786 0.569520
O O14 0.706503 0.203416 0.238881
O O15 0.511555 0.365380 0.695288
O O16 0.148975 0.531302 0.710797
O O17 0.000000 0.500000 0.000000
#
# Coordination Sequence:
#
# PCOD8026832 Si02
#       8
#     2   2   2   2   2   2   2   2
#     4  11  24  45  70  97 142 179 224 281 341 404
#     4  11  24  41  69  97 134 185 220 281 334 406
#     4  12  26  44  70 100 133 185 229 273 346 407
#     4  11  22  42  67  94 134 179 222 275 342 396
#     4  11  25  42  66 102 134 175 233 276 336 402
#     4  11  26  43  69 101 136 176 229 286 338 402
#     4  10  24  43  69 100 134 178 223 286 338 399
#     4  11  25  42  67 101 137 174 225 286 333 405
#
# _framework density 22.543614999999999
#
# number of rings (size 3 to 8) (size 9 to 14) (size 15 to 20)
#    0.000    1.000    3.750    3.000    3.500    6.500 
#    0.000    0.000    0.000    0.000    0.000    0.000 
#    0.000    0.000    0.000    0.000    0.000    0.000 
#
# Total GULP energy -198358.912096 kJ/mol
# GULP energy per Si atom -12397.432006 kJ/mol
# Density = 2.249230 g / cm^3
# Si number density = 22.543615 Si / 1000 Ang^3
#
#
#
# Elastic Constant Matrix: (Units=GPa)
#
#
# Indices 1 2 3 4 5 6 
#
# 1 92.3603 48.7620 36.9075 -1.2872 15.6453 -9.6630
# 2 48.7620 110.9683 40.5414 3.8381 21.6161 10.6420
# 3 36.9075 40.5414 103.5789 11.6057 16.8088 5.9752
# 4 -1.2872 3.8381 11.6057 46.6211 -1.4657 13.5016
# 5 15.6453 21.6161 16.8088 -1.4657 37.3436 5.9247
# 6 -9.6630 10.6420 5.9752 13.5016 5.9247 31.9805
#
#
#
# Elastic Compliance Matrix: (Units=1/GPa)
#
#
# Indices 1 2 3 4 5 6 
#
# 1 0.017083 -0.006421 -0.003455 -0.000825 -0.003331 0.008909
# 2 -0.006421 0.013875 -0.002363 0.000864 -0.003313 -0.005867
# 3 -0.003455 -0.002363 0.012647 -0.002886 -0.002852 -0.000874
# 4 -0.000825 0.000864 -0.002886 0.025533 0.003973 -0.011513
# 5 -0.003331 -0.003313 -0.002852 0.003973 0.032657 -0.007099
# 6 0.008909 -0.005867 -0.000874 -0.011513 -0.007099 0.042252
#
#
# Mechanical properties :
#
#
# Convention : Reuss Voigt Hill
#
# Bulk Modulus (GPa) = 52.28573 62.14768 57.21671
# Shear Modulus (GPa) = 28.58761 35.23548 31.91154
#
# Velocity S-wave (km/s) = 3.56491 3.95776 3.76646
# Velocity P-wave (km/s) = 6.33942 6.96511 6.65962
#
# Compressibility (1/GPa) = 0.01912568
#
# Stress axis : x y z
#
# Youngs Moduli (GPa) = 58.53880 72.07322 79.07020
#
# Poissons Ratio (x) = 0.46282 0.27315
# Poissons Ratio (y) = 0.37591 0.18687
# Poissons Ratio (z) = 0.20223 0.17033
#
# Static dielectric constant tensor:
#      x y z
#    x 4.062020 0.611540 0.826970 
#    y 0.611540 10.272020 7.952590 
#    z 0.826970 7.952590 14.706640 
# 
# 
# High freq. dielectric constant tensor:
#      x y z
#    x 1.886270 0.003260 0.011350 
#    y 0.003260 1.880090 -0.007510 
#    z 0.011350 -0.007510 1.912930 
# 
# From -- ./inp_files/520706.got.cif
#   From: 2010.06.25/outbox.cif.g09.slc.cpg/sg2_261_cif.got.tgz:520706.got - 2010.06.27 13:26:56.
