data_PCOD8026993
_publ_section_title
;
Structure prediction by ZEFSAII (Michael W. Deem and Ramdas Pophale) SiO2 
 PCOD8026993
Probable space group: P -1
;
_chemical_formula_sum "Si O2"
_cell_formula_units_Z 16
_cell_length_a 14.164639
_cell_length_b 8.710833
_cell_length_c 14.583911
_cell_angle_alpha 66.826069
_cell_angle_beta 33.829267
_cell_angle_gamma 89.888796
_cell_volume 711.502289
_symmetry_space_group_name_H-M "P -1"
_symmetry_group_IT_number 2
_symmetry_cell_setting 'triclinic'
loop_
_space_group_symop_operation_xyz
x,y,z
-x,-y,-z
loop_
_atom_site_type_symbol
_atom_site_label
_atom_site_fract_x
_atom_site_fract_y
_atom_site_fract_z
Si Si1 0.178878 0.645004 0.944674
Si Si2 0.753304 0.202737 0.338752
Si Si3 0.785501 0.601472 0.575590
Si Si4 0.311263 0.419887 0.995177
Si Si5 0.033825 0.042879 0.176946
Si Si6 0.341216 0.009892 0.849327
Si Si7 0.008048 0.201805 0.449536
Si Si8 0.593831 0.126679 0.799377
O O1 0.309885 0.807063 0.714447
O O2 0.170506 0.765172 0.009008
O O3 0.313482 0.564588 0.882542
O O4 0.929793 0.451925 0.165606
O O5 0.861951 0.085588 0.286306
O O6 0.549881 0.120433 0.587770
O O7 0.899086 0.788701 0.363519
O O8 0.943236 0.692824 0.514631
O O9 0.730307 0.384052 0.634154
O O10 0.554954 0.538366 0.804458
O O11 0.184132 0.394841 0.194490
O O12 0.186970 0.181548 0.108477
O O13 0.205071 0.102348 0.940843
O O14 0.404358 0.013830 0.902794
O O15 0.769744 0.103188 0.628383
O O16 0.000000 0.000000 0.500000
O O17 0.500000 0.000000 0.000000
#
# Coordination Sequence:
#
# PCOD8026993 Si02
#       8
#     2   2   2   2   2   2   2   2
#     4  10  24  43  77  99 139 182 231 289 352 406
#     4  10  24  50  68 107 140 177 233 295 345 411
#     4  12  25  44  66  97 140 184 223 287 346 400
#     4  11  23  44  67 101 135 180 232 290 339 416
#     4  11  24  44  69 102 142 175 233 286 339 420
#     4  12  25  43  74 100 137 188 229 281 352 412
#     4  12  25  42  68  98 132 184 233 280 346 410
#     4  12  27  45  65 101 144 179 231 287 336 419
#
# _framework density 22.487629999999999
#
# number of rings (size 3 to 8) (size 9 to 14) (size 15 to 20)
#    0.000    0.750    2.500    4.875    7.000    0.500 
#    0.000    5.625    0.000    0.000    0.000    0.000 
#    0.000    0.000    0.000    0.000    0.000    0.000 
#
# Total GULP energy -198311.957361 kJ/mol
# GULP energy per Si atom -12394.497335 kJ/mol
# Density = 2.243645 g / cm^3
# Si number density = 22.487630 Si / 1000 Ang^3
#
#
#
# Elastic Constant Matrix: (Units=GPa)
#
#
# Indices 1 2 3 4 5 6 
#
# 1 91.9717 39.2107 31.4591 -0.0647 21.9247 -2.6765
# 2 39.2107 122.4805 44.2369 2.9718 14.1611 4.4409
# 3 31.4591 44.2369 120.9818 27.0180 10.1908 -20.8757
# 4 -0.0647 2.9718 27.0180 45.3740 -4.2187 -6.5280
# 5 21.9247 14.1611 10.1908 -4.2187 27.3102 2.8224
# 6 -2.6765 4.4409 -20.8757 -6.5280 2.8224 29.4566
#
#
#
# Elastic Compliance Matrix: (Units=1/GPa)
#
#
# Indices 1 2 3 4 5 6 
#
# 1 0.015280 -0.003147 -0.001830 0.000625 -0.010028 0.001665
# 2 -0.003147 0.010899 -0.004079 0.000970 -0.000988 -0.004510
# 3 -0.001830 -0.004079 0.013595 -0.006874 -0.003469 0.008892
# 4 0.000625 0.000970 -0.006874 0.026652 0.005635 0.000406
# 5 -0.010028 -0.000988 -0.003469 0.005635 0.048023 -0.006574
# 6 0.001665 -0.004510 0.008892 0.000406 -0.006574 0.041801
#
#
# Mechanical properties :
#
#
# Convention : Reuss Voigt Hill
#
# Bulk Modulus (GPa) = 46.16272 62.80524 54.48398
# Shear Modulus (GPa) = 27.53581 35.12996 31.33288
#
# Velocity S-wave (km/s) = 3.50306 3.95674 3.73679
# Velocity P-wave (km/s) = 6.07738 6.99027 6.54975
#
# Compressibility (1/GPa) = 0.02166250
#
# Stress axis : x y z
#
# Youngs Moduli (GPa) = 65.44559 91.74949 73.55864
#
# Poissons Ratio (x) = 0.28872 0.13463
# Poissons Ratio (y) = 0.20594 0.30002
# Poissons Ratio (z) = 0.11978 0.37421
#
# Static dielectric constant tensor:
#      x y z
#    x 4.191560 0.065830 -0.105970 
#    y 0.065830 4.184590 -0.037390 
#    z -0.105970 -0.037390 4.181490 
# 
# 
# High freq. dielectric constant tensor:
#      x y z
#    x 1.884070 0.004520 -0.011070 
#    y 0.004520 1.892080 -0.000950 
#    z -0.011070 -0.000950 1.897380 
# 
# From -- ./inp_files/529530.got.cif
#   From: 2010.06.25/outbox.cif.g09.slc.cpg/sg2_265_cif.got.tgz:529530.got - 2010.06.27 13:26:56.
