data_PCOD8026358
_publ_section_title
;
Structure prediction by ZEFSAII (Michael W. Deem and Ramdas Pophale) SiO2 
 PCOD8026358
Probable space group: P -1
;
_chemical_formula_sum "Si O2"
_cell_formula_units_Z 16
_cell_length_a 19.455179
_cell_length_b 19.722570
_cell_length_c 6.600793
_cell_angle_alpha 120.471679
_cell_angle_beta 109.770448
_cell_angle_gamma 20.928434
_cell_volume 700.282945
_symmetry_space_group_name_H-M "P -1"
_symmetry_group_IT_number 2
_symmetry_cell_setting 'triclinic'
loop_
_space_group_symop_operation_xyz
x,y,z
-x,-y,-z
loop_
_atom_site_type_symbol
_atom_site_label
_atom_site_fract_x
_atom_site_fract_y
_atom_site_fract_z
Si Si1 0.497737 0.507759 0.270519
Si Si2 0.833025 0.288955 0.802573
Si Si3 0.800731 0.116582 0.734654
Si Si4 0.258044 0.216135 0.593228
Si Si5 0.250011 0.077612 0.107172
Si Si6 0.273187 0.466179 0.215921
Si Si7 0.002685 0.188936 0.217373
Si Si8 0.042137 0.345909 0.929872
O O1 0.500000 0.500000 0.500000
O O2 0.371333 0.558986 0.136569
O O3 0.381162 0.703393 0.355530
O O4 0.735831 0.256283 0.029178
O O5 0.763475 0.444936 0.887632
O O6 0.977563 0.096147 0.487476
O O7 0.961961 0.171146 0.962810
O O8 0.822356 0.020542 0.761929
O O9 0.225562 0.190288 0.336205
O O10 0.207504 0.223318 0.763942
O O11 0.500000 0.000000 0.500000
O O12 0.097135 0.452368 0.768704
O O13 0.087279 0.186608 0.225950
O O14 0.187155 0.144041 0.910212
O O15 0.485635 0.805621 0.951418
O O16 0.221232 0.570885 0.522272
O O17 0.119489 0.546026 0.190189
#
# Coordination Sequence:
#
# PCOD8026358 Si02
#       8
#     2   2   2   2   2   2   2   2
#     4  11  24  43  67 101 135 175 224 276 334 400
#     4  11  24  43  66  95 135 176 222 278 332 399
#     4  10  24  41  68  96 133 172 225 268 338 392
#     4  11  24  44  69  97 136 173 225 281 339 401
#     4  12  24  42  70  94 135 180 222 280 342 396
#     4  11  24  42  65 100 130 179 231 272 337 406
#     4  11  24  43  65  97 135 177 227 282 332 399
#     4  11  24  44  66  98 134 173 231 276 335 411
#
# _framework density 22.847908
#
# number of rings (size 3 to 8) (size 9 to 14) (size 15 to 20)
#    0.000    1.000    3.750    2.250    0.000    8.500 
#    0.000    0.000    0.000    0.000    0.000    0.000 
#    0.000    0.000    0.000    0.000    0.000    0.000 
#
# Total GULP energy -198301.787441 kJ/mol
# GULP energy per Si atom -12393.861715 kJ/mol
# Density = 2.279590 g / cm^3
# Si number density = 22.847908 Si / 1000 Ang^3
#
#
#
# Elastic Constant Matrix: (Units=GPa)
#
#
# Indices 1 2 3 4 5 6 
#
# 1 79.3717 27.1946 5.7042 -6.6885 -9.3973 3.8277
# 2 27.1946 108.9386 48.5357 -7.5246 -8.7000 21.2232
# 3 5.7042 48.5357 122.8074 -2.4232 1.1904 10.4405
# 4 -6.6885 -7.5246 -2.4232 41.4868 4.9387 -3.0630
# 5 -9.3973 -8.7000 1.1904 4.9387 31.2582 -5.2582
# 6 3.8277 21.2232 10.4405 -3.0630 -5.2582 42.6148
#
#
#
# Elastic Compliance Matrix: (Units=1/GPa)
#
#
# Indices 1 2 3 4 5 6 
#
# 1 0.014264 -0.003708 0.000725 0.001358 0.003161 0.000876
# 2 -0.003708 0.013356 -0.004690 0.000976 0.001807 -0.004877
# 3 0.000725 -0.004690 0.010009 0.000006 -0.001532 -0.000370
# 4 0.001358 0.000976 0.000006 0.024931 -0.003126 0.000797
# 5 0.003161 0.001807 -0.001532 -0.003126 0.034540 0.003229
# 6 0.000876 -0.004877 -0.000370 0.000797 0.003229 0.026362
#
#
# Mechanical properties :
#
#
# Convention : Reuss Voigt Hill
#
# Bulk Modulus (GPa) = 44.87805 52.66520 48.77162
# Shear Modulus (GPa) = 34.19091 38.38415 36.28753
#
# Velocity S-wave (km/s) = 3.87260 4.10321 3.98957
# Velocity P-wave (km/s) = 6.29927 6.74899 6.52800
#
# Compressibility (1/GPa) = 0.02228261
#
# Stress axis : x y z
#
# Youngs Moduli (GPa) = 70.10779 74.87014 99.90760
#
# Poissons Ratio (x) = 0.27761 -0.07239
# Poissons Ratio (y) = 0.25995 0.46858
# Poissons Ratio (z) = -0.05080 0.35115
#
# Static dielectric constant tensor:
#      x y z
#    x 4.178590 0.268130 -0.050060 
#    y 0.268130 4.228960 0.082850 
#    z -0.050060 0.082850 4.278640 
# 
# 
# High freq. dielectric constant tensor:
#      x y z
#    x 1.900910 0.017110 -0.013250 
#    y 0.017110 1.899420 0.005430 
#    z -0.013250 0.005430 1.917610 
# 
# From -- ./inp_files/120458.got.cif
#   From: 2010.06.25/outbox.cif.g09.slc.cpg/sg2_61_cif.got.tgz:120458.got - 2010.06.27 13:26:56.
