data_PCOD8026882
_publ_section_title
;
Structure prediction by ZEFSAII (Michael W. Deem and Ramdas Pophale) SiO2 
 PCOD8026882
Probable space group: P -1
;
_chemical_formula_sum "Si O2"
_cell_formula_units_Z 14
_cell_length_a 26.958426
_cell_length_b 6.646879
_cell_length_c 14.967117
_cell_angle_alpha 139.447471
_cell_angle_beta 159.953857
_cell_angle_gamma 42.071886
_cell_volume 592.767876
_symmetry_space_group_name_H-M "P -1"
_symmetry_group_IT_number 2
_symmetry_cell_setting 'triclinic'
loop_
_space_group_symop_operation_xyz
x,y,z
-x,-y,-z
loop_
_atom_site_type_symbol
_atom_site_label
_atom_site_fract_x
_atom_site_fract_y
_atom_site_fract_z
Si Si1 0.513879 0.144562 0.368819
Si Si2 0.051315 0.810396 0.653574
Si Si3 0.792445 0.303341 0.430087
Si Si4 0.428144 0.101245 0.007087
Si Si5 0.812435 0.853144 0.859605
Si Si6 0.004973 0.749690 0.000216
Si Si7 0.705807 0.296346 0.098224
O O1 0.500000 0.500000 0.500000
O O2 0.518444 0.096462 0.251958
O O3 0.660209 0.934288 0.579037
O O4 0.376258 0.010819 0.136150
O O5 0.124420 0.781089 0.669647
O O6 0.000000 0.500000 0.500000
O O7 0.912559 0.067220 0.502746
O O8 0.183437 0.917520 0.972835
O O9 0.864095 0.562972 0.691718
O O10 0.697382 0.457793 0.237369
O O11 0.697776 0.122286 0.275375
O O12 0.367274 0.463744 0.017757
O O13 0.500000 0.000000 0.000000
O O14 0.959008 0.919434 0.073449
O O15 0.843297 0.485145 0.819705
O O16 0.000000 0.000000 0.000000
#
# Coordination Sequence:
#
# PCOD8026882 Si02
#       7
#     2   2   2   2   2   2   2
#     4  11  27  48  71 107 147 187 244 293 356 433
#     4  11  22  43  72  99 138 180 232 292 347 426
#     4  10  24  43  70 104 135 180 240 289 353 426
#     4  11  26  45  72 104 141 192 236 292 357 426
#     4  10  25  44  67 103 143 178 241 289 352 429
#     4  10  24  44  70 102 137 187 231 293 360 414
#     4  11  25  43  73 101 139 189 232 290 361 413
#
# _framework density 23.618013999999999
#
# number of rings (size 3 to 8) (size 9 to 14) (size 15 to 20)
#    0.000    1.429    1.429    1.286    8.000    8.000 
#    0.000    0.000    0.000    0.000    0.000    0.000 
#    0.000    0.000    0.000    0.000    0.000    0.000 
#
# Total GULP energy -173457.860389 kJ/mol
# GULP energy per Si atom -12389.847171 kJ/mol
# Density = 2.356426 g / cm^3
# Si number density = 23.618014 Si / 1000 Ang^3
#
#
#
# Elastic Constant Matrix: (Units=GPa)
#
#
# Indices 1 2 3 4 5 6 
#
# 1 143.0340 50.1477 38.1836 7.3968 14.1397 16.5714
# 2 50.1477 122.1355 37.0991 -6.7788 4.7795 23.9438
# 3 38.1836 37.0991 95.7959 -3.3889 3.4006 9.9129
# 4 7.3968 -6.7788 -3.3889 39.7120 4.2475 0.0169
# 5 14.1397 4.7795 3.4006 4.2475 40.1854 0.0650
# 6 16.5714 23.9438 9.9129 0.0169 0.0650 42.9540
#
#
#
# Elastic Compliance Matrix: (Units=1/GPa)
#
#
# Indices 1 2 3 4 5 6 
#
# 1 0.009116 -0.002754 -0.002407 -0.002111 -0.002451 -0.001421
# 2 -0.002754 0.011155 -0.002660 0.002231 -0.000361 -0.004542
# 3 -0.002407 -0.002660 0.012516 0.001063 -0.000007 -0.000477
# 4 -0.002111 0.002231 0.001063 0.026302 -0.002392 -0.000681
# 5 -0.002451 -0.000361 -0.000007 -0.002392 0.026042 0.001110
# 6 -0.001421 -0.004542 -0.000477 -0.000681 0.001110 0.026470
#
#
# Mechanical properties :
#
#
# Convention : Reuss Voigt Hill
#
# Bulk Modulus (GPa) = 58.33453 67.98070 63.15762
# Shear Modulus (GPa) = 37.60580 40.27260 38.93920
#
# Velocity S-wave (km/s) = 3.99463 4.13384 4.06483
# Velocity P-wave (km/s) = 6.78446 7.18546 6.98783
#
# Compressibility (1/GPa) = 0.01714251
#
# Stress axis : x y z
#
# Youngs Moduli (GPa) = 109.70034 89.64656 79.89755
#
# Poissons Ratio (x) = 0.24690 0.19235
# Poissons Ratio (y) = 0.30213 0.21257
# Poissons Ratio (z) = 0.26410 0.23850
#
# Static dielectric constant tensor:
#      x y z
#    x 4.970540 -0.961640 -0.456590 
#    y -0.961640 5.944980 0.318010 
#    z -0.456590 0.318010 4.381680 
# 
# 
# High freq. dielectric constant tensor:
#      x y z
#    x 1.955130 0.006510 -0.012090 
#    y 0.006510 1.938950 -0.009500 
#    z -0.012090 -0.009500 1.930390 
# 
# From -- ./inp_files/365446.got.cif
#   From: 2010.06.25/outbox.cif.g09.slc.cpg/sg2_183_cif.got.tgz:365446.got - 2010.06.27 13:26:56.
