data_PCOD8026828
_publ_section_title
;
Structure prediction by ZEFSAII (Michael W. Deem and Ramdas Pophale) SiO2 
 PCOD8026828
Probable space group: P -1
;
_chemical_formula_sum "Si O2"
_cell_formula_units_Z 14
_cell_length_a 13.016131
_cell_length_b 20.752945
_cell_length_c 11.602299
_cell_angle_alpha 150.408950
_cell_angle_beta 147.224902
_cell_angle_gamma 20.646328
_cell_volume 539.046053
_symmetry_space_group_name_H-M "P -1"
_symmetry_group_IT_number 2
_symmetry_cell_setting 'triclinic'
loop_
_space_group_symop_operation_xyz
x,y,z
-x,-y,-z
loop_
_atom_site_type_symbol
_atom_site_label
_atom_site_fract_x
_atom_site_fract_y
_atom_site_fract_z
Si Si1 0.730328 0.603344 0.760735
Si Si2 0.527039 0.373360 0.058239
Si Si3 0.053869 0.237512 0.766102
Si Si4 0.034499 0.173139 0.080718
Si Si5 0.774251 0.010857 0.261898
Si Si6 0.233816 0.781752 0.717574
Si Si7 0.698368 0.794879 0.436817
O O1 0.564048 0.594217 0.680097
O O2 0.996558 0.381020 0.616846
O O3 0.517726 0.761768 0.703105
O O4 0.844083 0.674092 0.043767
O O5 0.235272 0.603546 0.178089
O O6 0.757451 0.260407 0.206516
O O7 0.689848 0.361420 0.087575
O O8 0.465650 0.256448 0.783373
O O9 0.009393 0.173475 0.511299
O O10 0.297859 0.045074 0.783348
O O11 0.229075 0.187809 0.340782
O O12 0.070488 0.158316 0.954393
O O13 0.161806 0.970988 0.934113
O O14 0.000000 0.000000 0.500000
O O15 0.500000 0.000000 0.500000
#
# Coordination Sequence:
#
# PCOD8026828 Si02
#       7
#     2   2   2   2   2   2   2
#     4  10  24  43  68  99 133 174 221 276 325 389
#     4  11  25  43  64 104 135 177 219 266 338 395
#     4  11  23  43  70  96 133 177 224 273 327 387
#     4  11  24  42  67  95 137 173 219 277 328 390
#     4  11  23  48  67  98 129 175 232 271 326 390
#     4  11  22  42  66 105 133 172 225 269 332 393
#     4  11  24  44  65  97 140 173 214 269 337 400
#
# _framework density 25.971806999999998
#
# number of rings (size 3 to 8) (size 9 to 14) (size 15 to 20)
#    0.000    1.143    4.286    2.143    0.000    6.286 
#    2.571    1.429    0.000    0.000    0.000    0.000 
#    0.000    0.000    0.000    0.000    0.000    0.000 
#
# Total GULP energy -173658.064238 kJ/mol
# GULP energy per Si atom -12404.147446 kJ/mol
# Density = 2.591269 g / cm^3
# Si number density = 25.971807 Si / 1000 Ang^3
#
#
#
# Elastic Constant Matrix: (Units=GPa)
#
#
# Indices 1 2 3 4 5 6 
#
# 1 82.7469 8.9920 40.5018 -13.6572 -7.1999 1.7734
# 2 8.9920 81.6952 25.7684 -2.5360 -8.8169 -9.8730
# 3 40.5018 25.7684 201.9850 -17.0768 -9.3153 -2.0293
# 4 -13.6572 -2.5360 -17.0768 31.1529 -1.0179 5.9570
# 5 -7.1999 -8.8169 -9.3153 -1.0179 32.7421 1.1450
# 6 1.7734 -9.8730 -2.0293 5.9570 1.1450 23.1218
#
#
#
# Elastic Compliance Matrix: (Units=1/GPa)
#
#
# Indices 1 2 3 4 5 6 
#
# 1 0.014521 -0.000829 -0.002228 0.005791 0.002631 -0.003286
# 2 -0.000829 0.013800 -0.001496 -0.001108 0.002865 0.005968
# 3 -0.002228 -0.001496 0.005810 0.002224 0.000849 -0.000573
# 4 0.005791 -0.001108 0.002224 0.037906 0.003158 -0.010644
# 5 0.002631 0.002865 0.000849 0.003158 0.032278 -0.001316
# 6 -0.003286 0.005968 -0.000573 -0.010644 -0.001316 0.048807
#
#
# Mechanical properties :
#
#
# Convention : Reuss Voigt Hill
#
# Bulk Modulus (GPa) = 39.96003 57.43906 48.69954
# Shear Modulus (GPa) = 29.31384 36.81437 33.06411
#
# Velocity S-wave (km/s) = 3.36323 3.76902 3.57189
# Velocity P-wave (km/s) = 5.52278 6.41129 5.98355
#
# Compressibility (1/GPa) = 0.02502501
#
# Stress axis : x y z
#
# Youngs Moduli (GPa) = 68.86667 72.46494 172.12130
#
# Poissons Ratio (x) = 0.06006 0.38349
# Poissons Ratio (y) = 0.05708 0.25747
# Poissons Ratio (z) = 0.15344 0.10840
#
# Static dielectric constant tensor:
#      x y z
#    x 4.681680 -0.206930 -0.048550 
#    y -0.206930 5.001570 -0.002780 
#    z -0.048550 -0.002780 5.116090 
# 
# 
# High freq. dielectric constant tensor:
#      x y z
#    x 2.023010 -0.007710 0.006000 
#    y -0.007710 2.039480 -0.002600 
#    z 0.006000 -0.002600 2.066760 
# 
# From -- ./inp_files/267643.got.cif
#   From: 2010.06.25/outbox.cif.g09.slc.cpg/sg2_134_cif.got.tgz:267643.got - 2010.06.27 13:26:56.
