data_PCOD8026016
_publ_section_title
;
Structure prediction by ZEFSAII (Michael W. Deem and Ramdas Pophale) SiO2 
 PCOD8026016
Probable space group: P -1
;
_chemical_formula_sum "Si O2"
_cell_formula_units_Z 14
_cell_length_a 7.478179
_cell_length_b 9.188973
_cell_length_c 9.119451
_cell_angle_alpha 79.880066
_cell_angle_beta 57.333924
_cell_angle_gamma 87.412813
_cell_volume 518.398867
_symmetry_space_group_name_H-M "P -1"
_symmetry_group_IT_number 2
_symmetry_cell_setting 'triclinic'
loop_
_space_group_symop_operation_xyz
x,y,z
-x,-y,-z
loop_
_atom_site_type_symbol
_atom_site_label
_atom_site_fract_x
_atom_site_fract_y
_atom_site_fract_z
Si Si1 0.365544 0.327841 0.593942
Si Si2 0.151757 0.167025 0.254289
Si Si3 0.897573 0.951699 0.207768
Si Si4 0.236778 0.624059 0.037570
Si Si5 0.921446 0.443188 0.387824
Si Si6 0.559767 0.647613 0.118734
Si Si7 0.554388 0.156325 0.288163
O O1 0.472245 0.312965 0.706566
O O2 0.524177 0.263886 0.418358
O O3 0.318946 0.500242 0.536780
O O4 0.137333 0.226105 0.720817
O O5 0.972460 0.271485 0.381844
O O6 0.334485 0.133253 0.297683
O O7 0.034977 0.015287 0.274942
O O8 0.254370 0.247537 0.053387
O O9 0.652714 0.003501 0.320612
O O10 0.000000 0.000000 0.000000
O O11 0.019464 0.530623 0.184453
O O12 0.333194 0.675543 0.142883
O O13 0.399107 0.523810 0.895883
O O14 0.241991 0.770539 0.908894
O O15 0.000000 0.500000 0.500000
#
# Coordination Sequence:
#
# PCOD8026016 Si02
#       7
#     2   2   2   2   2   2   2
#     4  12  25  43  68 106 141 175 238 288 342 411
#     4  10  23  47  72 101 142 184 231 285 350 410
#     4  12  26  47  71 102 137 192 236 280 348 416
#     4   9  21  41  65  97 135 181 223 274 357 402
#     4  11  23  44  71 105 138 176 231 292 341 419
#     4   9  20  39  67  97 135 176 227 285 337 408
#     4  11  25  46  70 102 144 180 230 290 342 420
#
# _framework density 27.006233999999999
#
# number of rings (size 3 to 8) (size 9 to 14) (size 15 to 20)
#    0.000    1.429    2.857    2.143    2.000    4.000 
#    2.571    0.000    0.000    0.000    0.000    0.000 
#    0.000    0.000    0.000    0.000    0.000    0.000 
#
# Total GULP energy -173506.206350 kJ/mol
# GULP energy per Si atom -12393.300454 kJ/mol
# Density = 2.694477 g / cm^3
# Si number density = 27.006234 Si / 1000 Ang^3
#
#
#
# Elastic Constant Matrix: (Units=GPa)
#
#
# Indices 1 2 3 4 5 6 
#
# 1 103.4548 19.0697 25.5097 22.4880 18.8188 -9.6436
# 2 19.0697 89.2155 2.8294 15.2748 8.1318 3.6260
# 3 25.5097 2.8294 86.7189 22.9181 19.1062 4.7849
# 4 22.4880 15.2748 22.9181 32.4734 13.4137 -5.0532
# 5 18.8188 8.1318 19.1062 13.4137 47.0945 7.1660
# 6 -9.6436 3.6260 4.7849 -5.0532 7.1660 45.2620
#
#
#
# Elastic Compliance Matrix: (Units=1/GPa)
#
#
# Indices 1 2 3 4 5 6 
#
# 1 0.012249 -0.001584 -0.001786 -0.004809 -0.002962 0.002858
# 2 -0.001584 0.012711 0.001937 -0.006545 -0.000138 -0.002269
# 3 -0.001786 0.001937 0.015330 -0.009863 -0.002598 -0.002846
# 4 -0.004809 -0.006545 -0.009863 0.048535 -0.007867 0.007207
# 5 -0.002962 -0.000138 -0.002598 -0.007867 0.026562 -0.005429
# 6 0.002858 -0.002269 -0.002846 0.007207 -0.005429 0.024849
#
#
# Mechanical properties :
#
#
# Convention : Reuss Voigt Hill
#
# Bulk Modulus (GPa) = 26.72162 41.57855 34.15009
# Shear Modulus (GPa) = 32.13828 40.43132 36.28480
#
# Velocity S-wave (km/s) = 3.45343 3.87345 3.66945
# Velocity P-wave (km/s) = 5.08110 5.95266 5.53407
#
# Compressibility (1/GPa) = 0.03742288
#
# Stress axis : x y z
#
# Youngs Moduli (GPa) = 81.64036 78.66922 65.23317
#
# Poissons Ratio (x) = 0.12464 0.11649
# Poissons Ratio (y) = 0.12935 -0.12633
# Poissons Ratio (z) = 0.14579 -0.15236
#
# Static dielectric constant tensor:
#      x y z
#    x 4.767710 0.060560 -0.101480 
#    y 0.060560 5.001510 -0.071240 
#    z -0.101480 -0.071240 5.078750 
# 
# 
# High freq. dielectric constant tensor:
#      x y z
#    x 2.082570 0.002140 -0.003710 
#    y 0.002140 2.086930 -0.001910 
#    z -0.003710 -0.001910 2.107100 
# 
# From -- ./inp_files/158365.got.cif
#   From: 2010.06.25/outbox.cif.g09.slc.cpg/sg2_80_cif.got.tgz:158365.got - 2010.06.27 13:26:56.
