data_PCOD8026133
_publ_section_title
;
Structure prediction by ZEFSAII (Michael W. Deem and Ramdas Pophale) SiO2 
 PCOD8026133
Probable space group: P -1
;
_chemical_formula_sum "Si O2"
_cell_formula_units_Z 14
_cell_length_a 7.199795
_cell_length_b 18.400029
_cell_length_c 4.826541
_cell_angle_alpha 76.197889
_cell_angle_beta 100.702406
_cell_angle_gamma 117.954010
_cell_volume 546.453959
_symmetry_space_group_name_H-M "P -1"
_symmetry_group_IT_number 2
_symmetry_cell_setting 'triclinic'
loop_
_space_group_symop_operation_xyz
x,y,z
-x,-y,-z
loop_
_atom_site_type_symbol
_atom_site_label
_atom_site_fract_x
_atom_site_fract_y
_atom_site_fract_z
Si Si1 0.578648 0.436877 0.453422
Si Si2 0.949907 0.594863 0.477250
Si Si3 0.975521 0.163599 0.448691
Si Si4 0.098641 0.092042 0.061368
Si Si5 0.202202 0.346381 0.111206
Si Si6 0.389204 0.709090 0.270249
Si Si7 0.438356 0.816002 0.687502
O O1 0.500000 0.500000 0.500000
O O2 0.832083 0.496394 0.439274
O O3 0.457034 0.400824 0.161502
O O4 0.497041 0.350770 0.697956
O O5 0.908356 0.608603 0.772067
O O6 0.197220 0.638571 0.454339
O O7 0.861303 0.649873 0.224674
O O8 0.734081 0.149286 0.442552
O O9 0.127477 0.251076 0.270886
O O10 0.970378 0.092294 0.301859
O O11 0.076477 0.155495 0.775604
O O12 0.344064 0.118021 0.174896
O O13 0.000000 0.000000 0.000000
O O14 0.499400 0.787661 0.438483
O O15 0.330144 0.738295 0.941015
#
# Coordination Sequence:
#
# PCOD8026133 Si02
#       7
#     2   2   2   2   2   2   2
#     4  10  24  38  61  93 135 182 226 294 352 390
#     4  11  21  39  60  90 129 173 225 282 336 390
#     4  12  24  47  76 102 144 185 226 286 345 415
#     4  12  28  47  74 111 143 177 225 280 351 431
#     4  11  21  40  62  93 126 172 234 270 335 407
#     4  12  23  44  65  97 137 177 240 286 337 418
#     4  12  26  47  75 105 136 186 235 286 349 413
#
# _framework density 25.619721999999999
#
# number of rings (size 3 to 8) (size 9 to 14) (size 15 to 20)
#    0.000    0.571    2.857    5.571    0.000    6.857 
#    0.000    5.000    0.000    0.000    0.000    0.000 
#    0.000    0.000    0.000    0.000    0.000    0.000 
#
# Total GULP energy -173491.755183 kJ/mol
# GULP energy per Si atom -12392.268227 kJ/mol
# Density = 2.556141 g / cm^3
# Si number density = 25.619722 Si / 1000 Ang^3
#
#
#
# Elastic Constant Matrix: (Units=GPa)
#
#
# Indices 1 2 3 4 5 6 
#
# 1 88.7157 36.0665 4.4905 11.4983 16.2982 7.2126
# 2 36.0665 114.2236 2.3548 6.1246 18.0267 7.4502
# 3 4.4905 2.3548 76.1959 10.7345 13.2867 -0.3202
# 4 11.4983 6.1246 10.7345 34.7829 1.4047 -0.4569
# 5 16.2982 18.0267 13.2867 1.4047 32.6909 10.2934
# 6 7.2126 7.4502 -0.3202 -0.4569 10.2934 40.5405
#
#
#
# Elastic Compliance Matrix: (Units=1/GPa)
#
#
# Indices 1 2 3 4 5 6 
#
# 1 0.014142 -0.003416 0.000735 -0.004103 -0.005089 -0.000637
# 2 -0.003416 0.010556 0.000736 -0.000786 -0.004307 -0.000242
# 3 0.000735 0.000736 0.014974 -0.004683 -0.007167 0.001619
# 4 -0.004103 -0.000786 -0.004683 0.031580 0.002880 0.000462
# 5 -0.005089 -0.004307 -0.007167 0.002880 0.041045 -0.008749
# 6 -0.000637 -0.000242 0.001619 0.000462 -0.008749 0.027064
#
#
# Mechanical properties :
#
#
# Convention : Reuss Voigt Hill
#
# Bulk Modulus (GPa) = 27.94733 40.55096 34.24914
# Shear Modulus (GPa) = 32.22103 37.35110 34.78606
#
# Velocity S-wave (km/s) = 3.55020 3.82239 3.68881
# Velocity P-wave (km/s) = 5.26664 5.94502 5.61608
#
# Compressibility (1/GPa) = 0.03578159
#
# Stress axis : x y z
#
# Youngs Moduli (GPa) = 70.71191 94.73494 66.78112
#
# Poissons Ratio (x) = 0.32360 -0.04908
# Poissons Ratio (y) = 0.24154 -0.04914
# Poissons Ratio (z) = -0.05196 -0.06971
#
# Static dielectric constant tensor:
#      x y z
#    x 5.072250 0.143040 0.135980 
#    y 0.143040 4.824770 0.049990 
#    z 0.135980 0.049990 4.558610 
# 
# 
# High freq. dielectric constant tensor:
#      x y z
#    x 2.034790 -0.000870 0.014570 
#    y -0.000870 2.023480 0.010200 
#    z 0.014570 0.010200 2.020430 
# 
# From -- ./inp_files/43432.got.cif
#   From: 2010.06.25/outbox.cif.g09.slc.cpg/sg2_22_cif.got.tgz:43432.got - 2010.06.27 13:26:56.
