data_PCOD8026878
_publ_section_title
;
Structure prediction by ZEFSAII (Michael W. Deem and Ramdas Pophale) SiO2 
 PCOD8026878
Probable space group: P -1
;
_chemical_formula_sum "Si O2"
_cell_formula_units_Z 16
_cell_length_a 11.401962
_cell_length_b 11.363471
_cell_length_c 8.586983
_cell_angle_alpha 49.198547
_cell_angle_beta 56.430711
_cell_angle_gamma 82.829737
_cell_volume 650.537161
_symmetry_space_group_name_H-M "P -1"
_symmetry_group_IT_number 2
_symmetry_cell_setting 'triclinic'
loop_
_space_group_symop_operation_xyz
x,y,z
-x,-y,-z
loop_
_atom_site_type_symbol
_atom_site_label
_atom_site_fract_x
_atom_site_fract_y
_atom_site_fract_z
Si Si1 0.587876 0.791121 0.076413
Si Si2 0.895160 0.662646 0.676162
Si Si3 0.920011 0.034556 0.877977
Si Si4 0.358831 0.026188 0.694184
Si Si5 0.890499 0.756171 0.938155
Si Si6 0.415641 0.314091 0.163664
Si Si7 0.853619 0.296660 0.056152
Si Si8 0.626691 0.126259 0.621422
O O1 0.707461 0.707978 0.120306
O O2 0.518375 0.703490 0.039130
O O3 0.667751 0.994223 0.812690
O O4 0.448807 0.761820 0.323583
O O5 0.946900 0.710023 0.774351
O O6 0.762087 0.727847 0.682600
O O7 0.030164 0.767444 0.367694
O O8 0.844091 0.466079 0.849555
O O9 0.964266 0.953415 0.760965
O O10 0.738231 0.940427 0.120743
O O11 0.000000 0.000000 0.000000
O O12 0.239939 0.854208 0.858728
O O13 0.429375 0.181196 0.391800
O O14 0.510195 0.015051 0.668284
O O15 0.966844 0.673063 0.084130
O O16 0.500000 0.500000 0.000000
O O17 0.777582 0.256255 0.318773
#
# Coordination Sequence:
#
# PCOD8026878 Si02
#       8
#     2   2   2   2   2   2   2   2
#     4  10  24  43  70 103 135 186 231 284 343 412
#     4  11  26  42  68 104 138 181 232 287 349 403
#     4  12  23  45  72 102 133 183 236 283 343 419
#     4  12  24  44  72  97 141 184 228 287 350 411
#     4  11  24  47  71  97 137 187 232 282 348 414
#     4  11  23  44  69 101 139 184 228 280 353 420
#     4  12  25  43  72 103 144 182 232 291 345 413
#     4  11  24  43  69 106 137 177 238 284 346 409
#
# _framework density 24.59506
#
# number of rings (size 3 to 8) (size 9 to 14) (size 15 to 20)
#    0.000    0.750    5.000    1.875    5.250    0.500 
#    2.250    1.875    0.000    0.000    0.000    0.000 
#    0.000    0.000    0.000    0.000    0.000    0.000 
#
# Total GULP energy -198277.328237 kJ/mol
# GULP energy per Si atom -12392.333015 kJ/mol
# Density = 2.453908 g / cm^3
# Si number density = 24.595060 Si / 1000 Ang^3
#
#
#
# Elastic Constant Matrix: (Units=GPa)
#
#
# Indices 1 2 3 4 5 6 
#
# 1 80.8074 17.8179 -6.1614 11.2405 -3.2435 -3.6840
# 2 17.8179 119.3197 44.0752 -5.8688 4.4490 8.9690
# 3 -6.1614 44.0752 75.6194 -5.0727 3.5275 2.1116
# 4 11.2405 -5.8688 -5.0727 26.4555 -4.5079 -6.2709
# 5 -3.2435 4.4490 3.5275 -4.5079 26.4535 0.4635
# 6 -3.6840 8.9690 2.1116 -6.2709 0.4635 36.9428
#
#
#
# Elastic Compliance Matrix: (Units=1/GPa)
#
#
# Indices 1 2 3 4 5 6 
#
# 1 0.014283 -0.003566 0.002771 -0.005900 0.000956 0.001118
# 2 -0.003566 0.011791 -0.006906 0.002033 -0.001110 -0.002464
# 3 0.002771 -0.006906 0.017531 0.000789 -0.000721 0.001094
# 4 -0.005900 0.002033 0.000789 0.043413 0.006119 0.006165
# 5 0.000956 -0.001110 -0.000721 0.006119 0.039228 0.000953
# 6 0.001118 -0.002464 0.001094 0.006165 0.000953 0.028751
#
#
# Mechanical properties :
#
#
# Convention : Reuss Voigt Hill
#
# Bulk Modulus (GPa) = 35.45871 43.02332 39.24101
# Shear Modulus (GPa) = 27.80857 32.63800 30.22328
#
# Velocity S-wave (km/s) = 3.36617 3.64677 3.50928
# Velocity P-wave (km/s) = 5.43658 5.93823 5.69294
#
# Compressibility (1/GPa) = 0.02820182
#
# Stress axis : x y z
#
# Youngs Moduli (GPa) = 70.01413 84.81014 57.04141
#
# Poissons Ratio (x) = 0.30245 -0.15804
# Poissons Ratio (y) = 0.24969 0.39393
# Poissons Ratio (z) = -0.19399 0.58570
#
# Static dielectric constant tensor:
#      x y z
#    x 4.725380 -0.076790 0.002880 
#    y -0.076790 4.698040 0.387810 
#    z 0.002880 0.387810 4.135200 
# 
# 
# High freq. dielectric constant tensor:
#      x y z
#    x 1.994150 0.001470 0.003740 
#    y 0.001470 1.990520 0.016830 
#    z 0.003740 0.016830 1.941610 
# 
# From -- ./inp_files/261526.got.cif
#   From: 2010.06.25/outbox.cif.g09.slc.cpg/sg2_131_cif.got.tgz:261526.got - 2010.06.27 13:26:56.
