data_PCOD8026268
_publ_section_title
;
Structure prediction by ZEFSAII (Michael W. Deem and Ramdas Pophale) SiO2 
 PCOD8026268
Probable space group: P -1
;
_chemical_formula_sum "Si O2"
_cell_formula_units_Z 14
_cell_length_a 8.979379
_cell_length_b 12.256653
_cell_length_c 10.043654
_cell_angle_alpha 53.272905
_cell_angle_beta 61.433404
_cell_angle_gamma 43.503995
_cell_volume 607.912403
_symmetry_space_group_name_H-M "P -1"
_symmetry_group_IT_number 2
_symmetry_cell_setting 'triclinic'
loop_
_space_group_symop_operation_xyz
x,y,z
-x,-y,-z
loop_
_atom_site_type_symbol
_atom_site_label
_atom_site_fract_x
_atom_site_fract_y
_atom_site_fract_z
Si Si1 0.859723 0.738834 0.815153
Si Si2 0.221154 0.525022 0.001362
Si Si3 0.560925 0.936048 0.170060
Si Si4 0.520416 0.674610 0.461151
Si Si5 0.137475 0.714295 0.475671
Si Si6 0.153841 0.002106 0.832898
Si Si7 0.478103 0.656384 0.777768
O O1 0.759928 0.636861 0.946664
O O2 0.014228 0.685961 0.660768
O O3 0.661848 0.941522 0.739113
O O4 0.985910 0.700896 0.930130
O O5 0.277773 0.485814 0.162686
O O6 0.394098 0.547227 0.852421
O O7 0.630195 0.743706 0.284336
O O8 0.739401 0.939286 0.160369
O O9 0.500000 0.000000 0.000000
O O10 0.278605 0.763135 0.446837
O O11 0.687482 0.466961 0.540426
O O12 0.494524 0.736550 0.579725
O O13 0.972968 0.860888 0.332934
O O14 0.327302 0.809251 0.838223
O O15 0.000000 0.000000 0.000000
#
# Coordination Sequence:
#
# PCOD8026268 Si02
#       7
#     2   2   2   2   2   2   2
#     4  11  24  45  72 102 144 181 232 279 348 403
#     4  10  24  40  76 104 136 182 232 282 344 406
#     4  12  29  46  71 102 139 181 233 288 345 414
#     4  11  27  46  71 103 141 181 230 284 344 410
#     4  11  27  46  71 103 141 181 230 284 344 410
#     4  12  29  46  71 102 139 181 233 288 345 414
#     4  11  24  45  72 102 144 181 232 279 348 403
#
# _framework density 23.029630999999998
#
# number of rings (size 3 to 8) (size 9 to 14) (size 15 to 20)
#    0.000    0.857    2.857    1.714   14.000    2.857 
#    0.000    0.000    0.000    0.000    0.000    0.000 
#    0.000    0.000    0.000    0.000    0.000    0.000 
#
# Total GULP energy -173494.741981 kJ/mol
# GULP energy per Si atom -12392.481570 kJ/mol
# Density = 2.297722 g / cm^3
# Si number density = 23.029631 Si / 1000 Ang^3
#
#
#
# Elastic Constant Matrix: (Units=GPa)
#
#
# Indices 1 2 3 4 5 6 
#
# 1 183.8555 33.0853 71.0569 -17.1912 17.4615 -4.6426
# 2 33.0853 53.3187 33.2007 -6.8712 1.8831 -4.4810
# 3 71.0569 33.2007 139.4316 -16.4201 15.4491 4.5987
# 4 -17.1912 -6.8712 -16.4201 38.4296 -3.3166 2.0593
# 5 17.4615 1.8831 15.4491 -3.3166 41.9205 -10.1954
# 6 -4.6426 -4.4810 4.5987 2.0593 -10.1954 32.7474
#
#
#
# Elastic Compliance Matrix: (Units=1/GPa)
#
#
# Indices 1 2 3 4 5 6 
#
# 1 0.007264 -0.002500 -0.002766 0.001452 -0.001666 0.000466
# 2 -0.002500 0.023630 -0.004681 0.001120 0.002852 0.004354
# 3 -0.002766 -0.004681 0.010441 0.002307 -0.003187 -0.003636
# 4 0.001452 0.001120 0.002307 0.027971 0.000312 -0.001627
# 5 -0.001666 0.002852 -0.003187 0.000312 0.027872 0.009259
# 6 0.000466 0.004354 -0.003636 -0.001627 0.009259 0.034694
#
#
# Mechanical properties :
#
#
# Convention : Reuss Voigt Hill
#
# Bulk Modulus (GPa) = 46.63803 72.36574 59.50188
# Shear Modulus (GPa) = 31.46388 38.57036 35.01712
#
# Velocity S-wave (km/s) = 3.70027 4.09689 3.90362
# Velocity P-wave (km/s) = 6.20897 7.33965 6.79786
#
# Compressibility (1/GPa) = 0.02144173
#
# Stress axis : x y z
#
# Youngs Moduli (GPa) = 137.67025 42.31865 95.77606
#
# Poissons Ratio (x) = 0.10578 0.26496
# Poissons Ratio (y) = 0.34412 0.44829
# Poissons Ratio (z) = 0.38085 0.19808
#
# Static dielectric constant tensor:
#      x y z
#    x 4.547300 -0.117860 0.140580 
#    y -0.117860 4.082040 -0.187160 
#    z 0.140580 -0.187160 4.105570 
# 
# 
# High freq. dielectric constant tensor:
#      x y z
#    x 1.931960 -0.003250 0.008350 
#    y -0.003250 1.898850 -0.018170 
#    z 0.008350 -0.018170 1.916840 
# 
# From -- ./inp_files/184779.got.cif
#   From: 2010.06.25/outbox.cif.g09.slc.cpg/sg2_93_cif.got.tgz:184779.got - 2010.06.27 13:26:56.
