data_PCOD8026847
_publ_section_title
;
Structure prediction by ZEFSAII (Michael W. Deem and Ramdas Pophale) SiO2 
 PCOD8026847
Probable space group: P -1
;
_chemical_formula_sum "Si O2"
_cell_formula_units_Z 16
_cell_length_a 12.165154
_cell_length_b 18.759932
_cell_length_c 9.975521
_cell_angle_alpha 42.511312
_cell_angle_beta 44.492403
_cell_angle_gamma 28.900273
_cell_volume 727.177833
_symmetry_space_group_name_H-M "P -1"
_symmetry_group_IT_number 2
_symmetry_cell_setting 'triclinic'
loop_
_space_group_symop_operation_xyz
x,y,z
-x,-y,-z
loop_
_atom_site_type_symbol
_atom_site_label
_atom_site_fract_x
_atom_site_fract_y
_atom_site_fract_z
Si Si1 0.729719 0.657079 0.034927
Si Si2 0.889159 0.978100 0.237462
Si Si3 0.266779 0.158357 0.045816
Si Si4 0.456463 0.436796 0.510897
Si Si5 0.378613 0.290899 0.232862
Si Si6 0.960250 0.413900 0.739476
Si Si7 0.012100 0.287527 0.607940
Si Si8 0.051828 0.872786 0.541649
O O1 0.620739 0.637913 0.267260
O O2 0.685847 0.799858 0.917710
O O3 0.586370 0.703187 0.961932
O O4 0.000000 0.500000 0.000000
O O5 0.868320 0.876307 0.323983
O O6 0.032238 0.905428 0.353239
O O7 0.627950 0.138041 0.288466
O O8 0.000000 0.000000 0.000000
O O9 0.117266 0.133415 0.252479
O O10 0.146748 0.300031 0.851378
O O11 0.500000 0.000000 0.000000
O O12 0.500000 0.500000 0.500000
O O13 0.249940 0.580191 0.399905
O O14 0.690732 0.299528 0.413329
O O15 0.290632 0.442152 0.172285
O O16 0.179679 0.300058 0.402717
O O17 0.977201 0.305519 0.774942
O O18 0.000000 0.500000 0.500000
O O19 0.000000 0.000000 0.500000
#
# Coordination Sequence:
#
# PCOD8026847 Si02
#       8
#     2   2   2   2   2   2   2   2
#     4  12  21  43  71 102 134 182 240 292 353 429
#     4  12  28  46  68 104 148 193 237 291 364 434
#     4  12  27  45  75 106 143 190 248 300 361 431
#     4  12  24  45  70 100 143 183 232 298 365 433
#     4  11  24  42  73 100 138 180 240 295 352 426
#     4  10  24  43  69 107 137 180 237 298 358 419
#     4  11  24  44  70  99 137 184 238 293 354 426
#     4  12  29  47  71 106 150 190 240 303 370 430
#
# _framework density 22.002872
#
# number of rings (size 3 to 8) (size 9 to 14) (size 15 to 20)
#    0.000    0.500    3.750    4.125    8.750    0.000 
#    0.000    1.250    0.000    0.000    0.000    0.000 
#    0.000    0.000    0.000    0.000    0.000    0.000 
#
# Total GULP energy -198367.086162 kJ/mol
# GULP energy per Si atom -12397.942885 kJ/mol
# Density = 2.195279 g / cm^3
# Si number density = 22.002872 Si / 1000 Ang^3
#
#
#
# Elastic Constant Matrix: (Units=GPa)
#
#
# Indices 1 2 3 4 5 6 
#
# 1 80.2914 32.3143 19.7466 11.4545 3.5332 17.8674
# 2 32.3143 175.7803 22.2339 17.3207 -3.3245 7.7781
# 3 19.7466 22.2339 98.1965 6.0141 -1.7466 0.3002
# 4 11.4545 17.3207 6.0141 33.0166 -3.2554 1.9395
# 5 3.5332 -3.3245 -1.7466 -3.2554 42.2671 1.8258
# 6 17.8674 7.7781 0.3002 1.9395 1.8258 56.8442
#
#
#
# Elastic Compliance Matrix: (Units=1/GPa)
#
#
# Indices 1 2 3 4 5 6 
#
# 1 0.015445 -0.001996 -0.002439 -0.003772 -0.001650 -0.004387
# 2 -0.001996 0.006428 -0.000895 -0.002462 0.000454 -0.000178
# 3 -0.002439 -0.000895 0.010924 -0.000675 0.000497 0.000838
# 4 -0.003772 -0.002462 -0.000675 0.033253 0.002642 0.000307
# 5 -0.001650 0.000454 0.000497 0.002642 0.024074 -0.000409
# 6 -0.004387 -0.000178 0.000838 0.000307 -0.000409 0.018993
#
#
# Mechanical properties :
#
#
# Convention : Reuss Voigt Hill
#
# Bulk Modulus (GPa) = 45.17169 55.87308 50.52239
# Shear Modulus (GPa) = 39.32164 45.09047 42.20605
#
# Velocity S-wave (km/s) = 4.23201 4.53183 4.38448
# Velocity P-wave (km/s) = 6.66741 7.26856 6.97447
#
# Compressibility (1/GPa) = 0.02213776
#
# Stress axis : x y z
#
# Youngs Moduli (GPa) = 64.74693 155.56807 91.53951
#
# Poissons Ratio (x) = 0.31055 0.22324
# Poissons Ratio (y) = 0.12925 0.08190
# Poissons Ratio (z) = 0.15790 0.13918
#
# Static dielectric constant tensor:
#      x y z
#    x 4.307590 0.188290 0.209370 
#    y 0.188290 3.905750 0.116910 
#    z 0.209370 0.116910 3.987920 
# 
# 
# High freq. dielectric constant tensor:
#      x y z
#    x 1.869630 0.009870 0.006570 
#    y 0.009870 1.888340 0.005250 
#    z 0.006570 0.005250 1.860920 
# 
# From -- ./inp_files/262201.got.cif
#   From: 2010.06.25/outbox.cif.g09.slc.cpg/sg2_132_cif.got.tgz:262201.got - 2010.06.27 13:26:56.
