data_PCOD8026455
_publ_section_title
;
Structure prediction by ZEFSAII (Michael W. Deem and Ramdas Pophale) SiO2 
 PCOD8026455
Probable space group: P -1
;
_chemical_formula_sum "Si O2"
_cell_formula_units_Z 16
_cell_length_a 25.339678
_cell_length_b 6.470625
_cell_length_c 7.500131
_cell_angle_alpha 62.915957
_cell_angle_beta 43.936429
_cell_angle_gamma 86.252071
_cell_volume 687.709940
_symmetry_space_group_name_H-M "P -1"
_symmetry_group_IT_number 2
_symmetry_cell_setting 'triclinic'
loop_
_space_group_symop_operation_xyz
x,y,z
-x,-y,-z
loop_
_atom_site_type_symbol
_atom_site_label
_atom_site_fract_x
_atom_site_fract_y
_atom_site_fract_z
Si Si1 0.123391 0.093891 0.759938
Si Si2 0.917084 0.040457 0.701058
Si Si3 0.350323 0.894516 0.904418
Si Si4 0.742008 0.789823 0.105036
Si Si5 0.611413 0.264717 0.499778
Si Si6 0.700643 0.663354 0.662411
Si Si7 0.977599 0.587134 0.205089
Si Si8 0.569813 0.835322 0.054447
O O1 0.222260 0.178366 0.448706
O O2 0.089477 0.290975 0.683760
O O3 0.124862 0.109263 0.961976
O O4 0.067178 0.801371 0.962633
O O5 0.941493 0.344980 0.521735
O O6 0.000000 0.000000 0.500000
O O7 0.843775 0.890879 0.792244
O O8 0.390734 0.879913 0.622292
O O9 0.277098 0.986236 0.020318
O O10 0.420376 0.091655 0.789022
O O11 0.307758 0.623325 0.212822
O O12 0.695027 0.527211 0.213137
O O13 0.712579 0.768152 0.391052
O O14 0.529143 0.323666 0.683028
O O15 0.610062 0.089827 0.737546
O O16 0.616837 0.658672 0.958043
O O17 0.000000 0.500000 0.000000
#
# Coordination Sequence:
#
# PCOD8026455 Si02
#       8
#     2   2   2   2   2   2   2   2
#     4  10  24  42  65  96 133 172 224 272 338 393
#     4  11  23  44  67  96 132 177 218 276 337 393
#     4  12  24  45  72 101 135 186 227 275 345 400
#     4  11  25  45  69 100 138 175 232 281 340 407
#     4  11  25  46  71 105 136 180 230 282 336 410
#     4  11  24  44  68 100 136 182 224 283 337 408
#     4  11  22  41  65  95 128 174 222 276 328 402
#     4  11  25  45  72 101 141 181 226 281 342 401
#
# _framework density 23.265623000000001
#
# number of rings (size 3 to 8) (size 9 to 14) (size 15 to 20)
#    0.000    1.000    3.750    2.250    0.000    7.500 
#    2.250    0.000    0.000    0.000    0.000    0.000 
#    0.000    0.000    0.000    0.000    0.000    0.000 
#
# Total GULP energy -198365.009696 kJ/mol
# GULP energy per Si atom -12397.813106 kJ/mol
# Density = 2.321267 g / cm^3
# Si number density = 23.265623 Si / 1000 Ang^3
#
#
#
# Elastic Constant Matrix: (Units=GPa)
#
#
# Indices 1 2 3 4 5 6 
#
# 1 117.2761 50.4922 35.7334 -9.0096 -15.3830 -12.3527
# 2 50.4922 90.3632 33.1253 -10.6291 -8.3706 -7.2512
# 3 35.7334 33.1253 78.6616 -10.5266 -17.1194 -15.9898
# 4 -9.0096 -10.6291 -10.5266 41.1419 0.3891 6.0172
# 5 -15.3830 -8.3706 -17.1194 0.3891 36.8585 -0.4538
# 6 -12.3527 -7.2512 -15.9898 6.0172 -0.4538 41.1836
#
#
#
# Elastic Compliance Matrix: (Units=1/GPa)
#
#
# Indices 1 2 3 4 5 6 
#
# 1 0.012167 -0.005557 -0.002150 0.000387 0.002836 0.001811
# 2 -0.005557 0.015804 -0.004190 0.001917 -0.000707 -0.000799
# 3 -0.002150 -0.004190 0.018331 0.002272 0.006709 0.005476
# 4 0.000387 0.001917 0.002272 0.025809 0.001350 -0.002420
# 5 0.002836 -0.000707 0.006709 0.001350 0.031298 0.003478
# 6 0.001811 -0.000799 0.005476 -0.002420 0.003478 0.027202
#
#
# Mechanical properties :
#
#
# Convention : Reuss Voigt Hill
#
# Bulk Modulus (GPa) = 44.42985 58.33365 51.38175
# Shear Modulus (GPa) = 30.88182 34.96680 32.92431
#
# Velocity S-wave (km/s) = 3.64725 3.88098 3.76593
# Velocity P-wave (km/s) = 6.07246 6.72384 6.40643
#
# Compressibility (1/GPa) = 0.02250739
#
# Stress axis : x y z
#
# Youngs Moduli (GPa) = 82.19074 63.27707 54.55152
#
# Poissons Ratio (x) = 0.35162 0.11728
# Poissons Ratio (y) = 0.45672 0.22859
# Poissons Ratio (z) = 0.17671 0.26515
#
# Static dielectric constant tensor:
#      x y z
#    x 4.759460 -0.015120 -0.246040 
#    y -0.015120 3.978200 -0.443030 
#    z -0.246040 -0.443030 4.381070 
# 
# 
# High freq. dielectric constant tensor:
#      x y z
#    x 1.946190 -0.007220 0.000960 
#    y -0.007220 1.908190 -0.007530 
#    z 0.000960 -0.007530 1.922570 
# 
# From -- ./inp_files/122983.got.cif
#   From: 2010.06.25/outbox.cif.g09.slc.cpg/sg2_62_cif.got.tgz:122983.got - 2010.06.27 13:26:56.
