data_PCOD8026018
_publ_section_title
;
Structure prediction by ZEFSAII (Michael W. Deem and Ramdas Pophale) SiO2 
 PCOD8026018
Probable space group: P -1
;
_chemical_formula_sum "Si O2"
_cell_formula_units_Z 16
_cell_length_a 5.200521
_cell_length_b 19.453378
_cell_length_c 11.020437
_cell_angle_alpha 43.429657
_cell_angle_beta 100.287734
_cell_angle_gamma 111.572026
_cell_volume 705.925887
_symmetry_space_group_name_H-M "P -1"
_symmetry_group_IT_number 2
_symmetry_cell_setting 'triclinic'
loop_
_space_group_symop_operation_xyz
x,y,z
-x,-y,-z
loop_
_atom_site_type_symbol
_atom_site_label
_atom_site_fract_x
_atom_site_fract_y
_atom_site_fract_z
Si Si1 0.011722 0.626978 0.203725
Si Si2 0.307125 0.530083 0.037931
Si Si3 0.889670 0.871640 0.381931
Si Si4 0.364112 0.038411 0.326159
Si Si5 0.194744 0.340572 0.435719
Si Si6 0.423530 0.957792 0.184287
Si Si7 0.216596 0.613602 0.501443
Si Si8 0.552995 0.720853 0.972419
O O1 0.059124 0.615755 0.362597
O O2 0.869122 0.506434 0.296326
O O3 0.305415 0.688675 0.088640
O O4 0.814277 0.695422 0.079376
O O5 0.297763 0.461284 0.244361
O O6 0.500000 0.500000 0.000000
O O7 0.440274 0.655383 0.922374
O O8 0.000000 0.500000 0.000000
O O9 0.087499 0.900102 0.239761
O O10 0.846801 0.747015 0.563269
O O11 0.589591 0.877778 0.322864
O O12 0.049359 0.949457 0.405157
O O13 0.350156 0.153511 0.208821
O O14 0.500000 0.000000 0.500000
O O15 0.510430 0.041623 0.200179
O O16 0.448049 0.334279 0.550970
O O17 0.900580 0.315945 0.510000
O O18 0.500000 0.000000 0.000000
#
# Coordination Sequence:
#
# PCOD8026018 Si02
#       8
#     2   2   2   2   2   2   2   2
#     4  11  23  43  67 105 137 182 220 283 352 424
#     4  12  26  43  67  97 131 179 227 286 343 412
#     4  10  25  44  69 100 137 182 230 290 344 422
#     4  10  28  48  71 102 141 191 242 294 354 417
#     4  12  23  43  66 101 135 176 228 278 349 416
#     4  10  23  47  72 102 138 182 239 296 352 416
#     4  11  22  41  70 101 146 173 224 281 352 431
#     4  12  25  46  70  97 141 180 236 281 350 425
#
# _framework density 22.665271000000001
#
# number of rings (size 3 to 8) (size 9 to 14) (size 15 to 20)
#    0.750    0.250    2.500    3.375    3.500    6.500 
#    0.000    0.000    0.000    0.000    0.000    0.000 
#    0.000    0.000    0.000    0.000    0.000    0.000 
#
# Total GULP energy -198226.775256 kJ/mol
# GULP energy per Si atom -12389.173454 kJ/mol
# Density = 2.261368 g / cm^3
# Si number density = 22.665271 Si / 1000 Ang^3
#
#
#
# Elastic Constant Matrix: (Units=GPa)
#
#
# Indices 1 2 3 4 5 6 
#
# 1 167.4380 34.0646 35.8006 -0.2306 23.4535 2.2461
# 2 34.0646 130.2508 53.1854 -19.8142 21.3098 -10.7140
# 3 35.8006 53.1854 83.2270 -6.5799 29.3193 -3.1022
# 4 -0.2306 -19.8142 -6.5799 44.4957 -6.0471 3.6431
# 5 23.4535 21.3098 29.3193 -6.0471 36.8495 -1.0158
# 6 2.2461 -10.7140 -3.1022 3.6431 -1.0158 44.9042
#
#
#
# Elastic Compliance Matrix: (Units=1/GPa)
#
#
# Indices 1 2 3 4 5 6 
#
# 1 0.006881 -0.000934 -0.001457 -0.000929 -0.002851 -0.000657
# 2 -0.000934 0.011314 -0.006385 0.003903 -0.000173 0.001985
# 3 -0.001457 -0.006385 0.020926 -0.001410 -0.012266 -0.000168
# 4 -0.000929 0.003903 -0.001410 0.024553 0.003457 -0.001033
# 5 -0.002851 -0.000173 -0.012266 0.003457 0.039375 -0.000136
# 6 -0.000657 0.001985 -0.000168 -0.001033 -0.000136 0.022845
#
#
# Mechanical properties :
#
#
# Convention : Reuss Voigt Hill
#
# Bulk Modulus (GPa) = 46.36153 69.66856 58.01504
# Shear Modulus (GPa) = 33.19291 42.44087 37.81689
#
# Velocity S-wave (km/s) = 3.83101 4.33194 4.08915
# Velocity P-wave (km/s) = 6.32994 7.47166 6.92437
#
# Compressibility (1/GPa) = 0.02156961
#
# Stress axis : x y z
#
# Youngs Moduli (GPa) = 145.33539 88.38424 47.78835
#
# Poissons Ratio (x) = 0.08252 0.06962
# Poissons Ratio (y) = 0.13568 0.30513
# Poissons Ratio (z) = 0.21172 0.56434
#
# Static dielectric constant tensor:
#      x y z
#    x 3.459070 -0.386390 0.153540 
#    y -0.386390 4.050280 -0.158890 
#    z 0.153540 -0.158890 3.870670 
# 
# 
# High freq. dielectric constant tensor:
#      x y z
#    x 1.913620 -0.002180 0.014120 
#    y -0.002180 1.896410 -0.010580 
#    z 0.014120 -0.010580 1.871040 
# 
# From -- ./inp_files/370360.got.cif
#   From: 2010.06.25/outbox.cif.g09.slc.cpg/sg2_186_cif.got.tgz:370360.got - 2010.06.27 13:26:56.
