data_PCOD8026554
_publ_section_title
;
Structure prediction by ZEFSAII (Michael W. Deem and Ramdas Pophale) SiO2 
 PCOD8026554
Probable space group: P -1
;
_chemical_formula_sum "Si O2"
_cell_formula_units_Z 12
_cell_length_a 9.985593
_cell_length_b 4.970895
_cell_length_c 11.709413
_cell_angle_alpha 118.280211
_cell_angle_beta 101.919111
_cell_angle_gamma 78.762840
_cell_volume 497.629544
_symmetry_space_group_name_H-M "P -1"
_symmetry_group_IT_number 2
_symmetry_cell_setting 'triclinic'
loop_
_space_group_symop_operation_xyz
x,y,z
-x,-y,-z
loop_
_atom_site_type_symbol
_atom_site_label
_atom_site_fract_x
_atom_site_fract_y
_atom_site_fract_z
Si Si1 0.160675 0.609121 0.296914
Si Si2 0.684657 0.449936 0.908510
Si Si3 0.542475 0.912802 0.137044
Si Si4 0.081653 0.687994 0.909186
Si Si5 0.306518 0.533075 0.747141
Si Si6 0.853216 0.687615 0.532939
O O1 0.290553 0.556164 0.223668
O O2 0.195880 0.374206 0.359898
O O3 0.020619 0.551051 0.197099
O O4 0.136870 0.953323 0.409695
O O5 0.614611 0.146222 0.874448
O O6 0.584119 0.757153 0.988649
O O7 0.830982 0.454989 0.997111
O O8 0.642710 0.749356 0.218818
O O9 0.565981 0.269765 0.213753
O O10 0.181612 0.743324 0.830834
O O11 0.000000 0.000000 0.000000
O O12 0.259113 0.409477 0.594014
O O13 0.000000 0.500000 0.500000
#
# Coordination Sequence:
#
# PCOD8026554 Si02
#       6
#     2   2   2   2   2   2
#     4  12  25  42  67 101 134 170 221 272 330 393
#     4  10  24  42  68  98 135 171 220 268 338 388
#     4  10  24  45  68  96 131 178 215 273 324 397
#     4  11  23  40  69 104 136 166 216 281 340 392
#     4  11  24  43  68  93 132 174 226 262 330 387
#     4  12  26  43  66  96 135 177 219 268 332 388
#
# _framework density 24.114322000000001
#
# number of rings (size 3 to 8) (size 9 to 14) (size 15 to 20)
#    0.000    1.000    1.667    4.000    4.667   10.000 
#    0.000    5.000    0.000    0.000    0.000    0.000 
#    0.000    0.000    0.000    0.000    0.000    0.000 
#
# Total GULP energy -148878.248260 kJ/mol
# GULP energy per Si atom -12406.520688 kJ/mol
# Density = 2.405944 g / cm^3
# Si number density = 24.114322 Si / 1000 Ang^3
#
#
#
# Elastic Constant Matrix: (Units=GPa)
#
#
# Indices 1 2 3 4 5 6 
#
# 1 74.9648 5.2986 44.9909 -0.5472 4.5909 13.6625
# 2 5.2986 73.3311 22.4928 13.2098 3.7659 19.8351
# 3 44.9909 22.4928 140.2524 -1.8721 14.4750 16.5423
# 4 -0.5472 13.2098 -1.8721 41.4270 15.6855 -0.1776
# 5 4.5909 3.7659 14.4750 15.6855 41.0967 0.8737
# 6 13.6625 19.8351 16.5423 -0.1776 0.8737 39.8006
#
#
#
# Elastic Compliance Matrix: (Units=1/GPa)
#
#
# Indices 1 2 3 4 5 6 
#
# 1 0.017207 0.001719 -0.005276 -0.000622 0.000113 -0.004576
# 2 0.001719 0.017656 -0.002666 -0.006430 0.001761 -0.008349
# 3 -0.005276 -0.002666 0.009749 0.002566 -0.003562 -0.000823
# 4 -0.000622 -0.006430 0.002566 0.030888 -0.012093 0.002755
# 5 0.000113 0.001761 -0.003562 -0.012093 0.030032 -0.000149
# 6 -0.004576 -0.008349 -0.000823 0.002755 -0.000149 0.031214
#
#
# Mechanical properties :
#
#
# Convention : Reuss Voigt Hill
#
# Bulk Modulus (GPa) = 31.08816 48.23478 39.66147
# Shear Modulus (GPa) = 31.26693 38.84926 35.05810
#
# Velocity S-wave (km/s) = 3.60476 4.01814 3.81705
# Velocity P-wave (km/s) = 5.49961 6.44773 5.99245
#
# Compressibility (1/GPa) = 0.03216659
#
# Stress axis : x y z
#
# Youngs Moduli (GPa) = 58.11659 56.63662 102.57708
#
# Poissons Ratio (x) = -0.09734 0.54115
# Poissons Ratio (y) = -0.09989 0.27345
# Poissons Ratio (z) = 0.30660 0.15098
#
# Static dielectric constant tensor:
#      x y z
#    x 4.518360 0.134830 0.139070 
#    y 0.134830 4.256270 -0.189150 
#    z 0.139070 -0.189150 4.668220 
# 
# 
# High freq. dielectric constant tensor:
#      x y z
#    x 1.961820 0.008310 0.008250 
#    y 0.008310 1.959210 -0.010130 
#    z 0.008250 -0.010130 1.965140 
# 
# From -- ./inp_files/74333.got.cif
#   From: 2010.06.25/outbox.cif.g09.slc.cpg/sg2_38_cif.got.tgz:74333.got - 2010.06.27 13:26:56.
