data_PCOD8026022
_publ_section_title
;
Structure prediction by ZEFSAII (Michael W. Deem and Ramdas Pophale) SiO2 
 PCOD8026022
Probable space group: P -1
;
_chemical_formula_sum "Si O2"
_cell_formula_units_Z 16
_cell_length_a 15.239601
_cell_length_b 11.788960
_cell_length_c 11.556584
_cell_angle_alpha 61.761411
_cell_angle_beta 80.556994
_cell_angle_gamma 28.376903
_cell_volume 693.903210
_symmetry_space_group_name_H-M "P -1"
_symmetry_group_IT_number 2
_symmetry_cell_setting 'triclinic'
loop_
_space_group_symop_operation_xyz
x,y,z
-x,-y,-z
loop_
_atom_site_type_symbol
_atom_site_label
_atom_site_fract_x
_atom_site_fract_y
_atom_site_fract_z
Si Si1 0.461863 0.675442 0.004449
Si Si2 0.200325 0.127702 0.645157
Si Si3 0.919887 0.184781 0.224813
Si Si4 0.495891 0.152422 0.458070
Si Si5 0.120506 0.656679 0.468528
Si Si6 0.270726 0.341573 0.813776
Si Si7 0.838855 0.914234 0.903575
Si Si8 0.138499 0.292223 0.211723
O O1 0.268280 0.021088 0.815903
O O2 0.500000 0.500000 0.000000
O O3 0.705802 0.421714 0.080033
O O4 0.358596 0.794840 0.098269
O O5 0.000000 0.500000 0.500000
O O6 0.113284 0.112213 0.612730
O O7 0.440051 0.849556 0.666725
O O8 0.836396 0.385484 0.248275
O O9 0.093264 0.034174 0.178652
O O10 0.046342 0.899252 0.402874
O O11 0.240896 0.517859 0.385023
O O12 0.500000 0.000000 0.500000
O O13 0.678801 0.950836 0.610547
O O14 0.294020 0.348165 0.668654
O O15 0.097893 0.454711 0.812761
O O16 0.500000 0.000000 0.000000
O O17 0.748143 0.941371 0.806192
O O18 0.073053 0.527145 0.080586
#
# Coordination Sequence:
#
# PCOD8026022 Si02
#       8
#     2   2   2   2   2   2   2   2
#     4  12  27  45  73 103 146 194 241 301 371 439
#     4  12  26  48  68 105 148 189 245 307 360 432
#     4  11  27  46  71 106 145 195 238 301 369 442
#     4  12  27  42  74 107 142 195 240 297 375 428
#     4  12  27  46  69 106 152 190 237 305 368 437
#     4  11  25  47  78 108 142 191 249 302 367 437
#     4  10  25  44  73 104 142 185 245 302 362 427
#     4  10  23  47  72 110 143 181 250 315 352 435
#
# _framework density 23.057970000000001
#
# number of rings (size 3 to 8) (size 9 to 14) (size 15 to 20)
#    0.000    0.750    3.750    1.875   12.250    0.500 
#    0.000    1.250    0.000    0.000    0.000    0.000 
#    0.000    0.000    0.000    0.000    0.000    0.000 
#
# Total GULP energy -198324.024803 kJ/mol
# GULP energy per Si atom -12395.251550 kJ/mol
# Density = 2.300549 g / cm^3
# Si number density = 23.057970 Si / 1000 Ang^3
#
#
#
# Elastic Constant Matrix: (Units=GPa)
#
#
# Indices 1 2 3 4 5 6 
#
# 1 112.1184 40.7895 21.0916 5.0131 -10.8783 -10.2697
# 2 40.7895 131.3484 16.5037 13.5586 -7.3453 -8.1058
# 3 21.0916 16.5037 102.6632 4.9587 -9.4385 -9.8699
# 4 5.0131 13.5586 4.9587 30.4545 3.4050 -4.0863
# 5 -10.8783 -7.3453 -9.4385 3.4050 38.8297 -0.3590
# 6 -10.2697 -8.1058 -9.8699 -4.0863 -0.3590 32.7397
#
#
#
# Elastic Compliance Matrix: (Units=1/GPa)
#
#
# Indices 1 2 3 4 5 6 
#
# 1 0.010626 -0.002857 -0.001301 -0.000208 0.002159 0.002232
# 2 -0.002857 0.009034 -0.000523 -0.003487 0.001094 0.000760
# 3 -0.001301 -0.000523 0.010599 -0.001189 0.002241 0.002534
# 4 -0.000208 -0.003487 -0.001189 0.035489 -0.004090 0.003098
# 5 0.002159 0.001094 0.002241 -0.004090 0.027482 0.001415
# 6 0.002232 0.000760 0.002534 0.003098 0.001415 0.032598
#
#
# Mechanical properties :
#
#
# Convention : Reuss Voigt Hill
#
# Bulk Modulus (GPa) = 47.85152 55.87774 51.86463
# Shear Modulus (GPa) = 35.17262 38.25444 36.71353
#
# Velocity S-wave (km/s) = 3.90987 4.07757 3.99460
# Velocity P-wave (km/s) = 6.41721 6.81579 6.61950
#
# Compressibility (1/GPa) = 0.02089798
#
# Stress axis : x y z
#
# Youngs Moduli (GPa) = 94.10616 110.69001 94.34854
#
# Poissons Ratio (x) = 0.31620 0.12273
# Poissons Ratio (y) = 0.26882 0.04938
# Poissons Ratio (z) = 0.12241 0.05793
#
# Static dielectric constant tensor:
#      x y z
#    x 4.399450 -0.082570 -0.200860 
#    y -0.082570 4.516630 0.304020 
#    z -0.200860 0.304020 3.996860 
# 
# 
# High freq. dielectric constant tensor:
#      x y z
#    x 1.928330 0.000250 -0.002460 
#    y 0.000250 1.913340 0.012140 
#    z -0.002460 0.012140 1.904270 
# 
# From -- ./inp_files/452197.got.cif
#   From: 2010.06.25/outbox.cif.g09.slc.cpg/sg2_227_cif.got.tgz:452197.got - 2010.06.27 13:26:56.
