data_PCOD8026571
_publ_section_title
;
Structure prediction by ZEFSAII (Michael W. Deem and Ramdas Pophale) SiO2 
 PCOD8026571
Probable space group: P -1
;
_chemical_formula_sum "Si O2"
_cell_formula_units_Z 16
_cell_length_a 11.677622
_cell_length_b 12.203440
_cell_length_c 5.226998
_cell_angle_alpha 95.992161
_cell_angle_beta 94.481934
_cell_angle_gamma 72.736168
_cell_volume 706.566918
_symmetry_space_group_name_H-M "P -1"
_symmetry_group_IT_number 2
_symmetry_cell_setting 'triclinic'
loop_
_space_group_symop_operation_xyz
x,y,z
-x,-y,-z
loop_
_atom_site_type_symbol
_atom_site_label
_atom_site_fract_x
_atom_site_fract_y
_atom_site_fract_z
Si Si1 0.709764 0.101266 0.321031
Si Si2 0.730739 0.231213 0.838055
Si Si3 0.143916 0.583153 0.130579
Si Si4 0.885367 0.626173 0.252319
Si Si5 0.502537 0.572260 0.262946
Si Si6 0.571488 0.840029 0.699581
Si Si7 0.705987 0.602376 0.573134
Si Si8 0.705864 0.862754 0.205077
O O1 0.773199 0.145689 0.582263
O O2 0.569805 0.117064 0.354435
O O3 0.770733 0.963570 0.273191
O O4 0.725780 0.163525 0.078631
O O5 0.823005 0.304938 0.938713
O O6 0.600107 0.307993 0.743552
O O7 0.260644 0.518657 0.303032
O O8 0.022902 0.626045 0.289304
O O9 0.125306 0.493693 0.895666
O O10 0.831525 0.629385 0.530755
O O11 0.806618 0.742238 0.124999
O O12 0.500000 0.500000 0.500000
O O13 0.632824 0.595394 0.297755
O O14 0.500000 0.500000 0.000000
O O15 0.617280 0.703832 0.749308
O O16 0.633081 0.856416 0.448088
O O17 0.614084 0.902664 0.960286
#
# Coordination Sequence:
#
# PCOD8026571 Si02
#       8
#     2   2   2   2   2   2   2   2
#     4  12  25  43  64  98 137 176 217 264 327 404
#     4  12  26  41  64  98 139 176 212 261 337 403
#     4  11  23  44  65  96 130 175 221 281 331 389
#     4  10  24  42  69  94 125 171 235 282 325 377
#     4  12  24  38  62  93 138 174 206 257 325 407
#     4  11  22  39  67  99 129 170 218 271 328 388
#     4  11  22  38  65  96 134 163 217 269 338 387
#     4  11  23  44  68  96 129 174 225 275 321 378
#
# _framework density 22.644707
#
# number of rings (size 3 to 8) (size 9 to 14) (size 15 to 20)
#    0.000    0.750    3.750    4.125    3.500    0.000 
#    0.000    1.250    0.000    0.000    0.000    0.000 
#    0.000    0.000    0.000    0.000    0.000    0.000 
#
# Total GULP energy -198326.700389 kJ/mol
# GULP energy per Si atom -12395.418774 kJ/mol
# Density = 2.259317 g / cm^3
# Si number density = 22.644707 Si / 1000 Ang^3
#
#
#
# Elastic Constant Matrix: (Units=GPa)
#
#
# Indices 1 2 3 4 5 6 
#
# 1 63.6679 23.4375 11.4849 1.0718 3.2750 13.5523
# 2 23.4375 110.7862 28.7734 14.0202 0.1503 21.8772
# 3 11.4849 28.7734 122.1556 5.6023 0.0356 13.2577
# 4 1.0718 14.0202 5.6023 30.9860 8.1951 0.3971
# 5 3.2750 0.1503 0.0356 8.1951 26.8079 0.7672
# 6 13.5523 21.8772 13.2577 0.3971 0.7672 27.3224
#
#
#
# Elastic Compliance Matrix: (Units=1/GPa)
#
#
# Indices 1 2 3 4 5 6 
#
# 1 0.018274 -0.002591 -0.000439 0.001351 -0.002438 -0.006728
# 2 -0.002591 0.012210 -0.001536 -0.005639 0.002195 -0.007726
# 3 -0.000439 -0.001536 0.008948 -0.000986 0.000434 -0.002892
# 4 0.001351 -0.005639 -0.000986 0.038045 -0.011880 0.004104
# 5 -0.002438 0.002195 0.000434 -0.011880 0.041269 -0.001745
# 6 -0.006728 -0.007726 -0.002892 0.004104 -0.001745 0.047516
#
#
# Mechanical properties :
#
#
# Convention : Reuss Voigt Hill
#
# Bulk Modulus (GPa) = 33.00281 47.11126 40.05704
# Shear Modulus (GPa) = 26.95510 32.55085 29.75297
#
# Velocity S-wave (km/s) = 3.45389 3.79550 3.62871
# Velocity P-wave (km/s) = 5.52373 6.32909 5.94008
#
# Compressibility (1/GPa) = 0.03030045
#
# Stress axis : x y z
#
# Youngs Moduli (GPa) = 54.72177 81.90236 111.75301
#
# Poissons Ratio (x) = 0.21222 0.04904
# Poissons Ratio (y) = 0.14179 0.17164
# Poissons Ratio (z) = 0.02401 0.12580
#
# Static dielectric constant tensor:
#      x y z
#    x 4.642810 -0.202760 -0.239080 
#    y -0.202760 4.539770 0.324380 
#    z -0.239080 0.324380 4.136390 
# 
# 
# High freq. dielectric constant tensor:
#      x y z
#    x 1.874980 0.006970 -0.004100 
#    y 0.006970 1.903010 0.005360 
#    z -0.004100 0.005360 1.894250 
# 
# From -- ./inp_files/67300.got.cif
#   From: 2010.06.25/outbox.cif.g09.slc.cpg/sg2_34_cif.got.tgz:67300.got - 2010.06.27 13:26:56.
