data_PCOD8026506
_publ_section_title
;
Structure prediction by ZEFSAII (Michael W. Deem and Ramdas Pophale) SiO2 
 PCOD8026506
Probable space group: P -1
;
_chemical_formula_sum "Si O2"
_cell_formula_units_Z 16
_cell_length_a 9.799830
_cell_length_b 15.415724
_cell_length_c 11.203116
_cell_angle_alpha 113.130417
_cell_angle_beta 115.667512
_cell_angle_gamma 27.919161
_cell_volume 714.056128
_symmetry_space_group_name_H-M "P -1"
_symmetry_group_IT_number 2
_symmetry_cell_setting 'triclinic'
loop_
_space_group_symop_operation_xyz
x,y,z
-x,-y,-z
loop_
_atom_site_type_symbol
_atom_site_label
_atom_site_fract_x
_atom_site_fract_y
_atom_site_fract_z
Si Si1 0.754633 0.455656 0.624508
Si Si2 0.861730 0.623970 0.130014
Si Si3 0.126172 0.537478 0.570403
Si Si4 0.793129 0.042122 0.015951
Si Si5 0.098744 0.338502 0.202352
Si Si6 0.329728 0.857538 0.709801
Si Si7 0.756415 0.268237 0.657825
Si Si8 0.185114 0.668894 0.035800
O O1 0.941396 0.365269 0.522268
O O2 0.467164 0.682842 0.624442
O O3 0.680013 0.383911 0.582624
O O4 0.965712 0.371103 0.771406
O O5 0.924916 0.530420 0.224081
O O6 0.511222 0.822169 0.091419
O O7 0.000000 0.500000 0.000000
O O8 0.483047 0.343944 0.616342
O O9 0.000000 0.500000 0.500000
O O10 0.981706 0.664602 0.701415
O O11 0.743137 0.116773 0.165292
O O12 0.969030 0.851969 0.981523
O O13 0.000000 0.000000 0.000000
O O14 0.447565 0.173221 0.236292
O O15 0.981872 0.341269 0.046549
O O16 0.040882 0.046858 0.627343
O O17 0.792993 0.315586 0.810963
O O18 0.500000 0.500000 0.000000
#
# Coordination Sequence:
#
# PCOD8026506 Si02
#       8
#     2   2   2   2   2   2   2   2
#     4  11  24  44  73  93 138 183 226 278 342 395
#     4  11  20  39  66  96 130 175 217 273 339 404
#     4  12  24  47  70  96 133 188 229 279 334 409
#     4  11  24  36  61 101 139 171 226 271 344 417
#     4  11  22  42  67  93 139 171 226 269 348 389
#     4  10  24  42  67 103 137 177 216 288 336 410
#     4  11  26  43  72 102 133 176 237 270 350 407
#     4  11  23  40  67  99 135 175 213 292 338 398
#
# _framework density 22.407202999999999
#
# number of rings (size 3 to 8) (size 9 to 14) (size 15 to 20)
#    0.000    1.000    6.250    1.875    5.250    1.500 
#    0.000    0.625    5.500    0.000    0.000    0.000 
#    0.000    0.000    0.000    0.000    0.000    0.000 
#
# Total GULP energy -198286.603521 kJ/mol
# GULP energy per Si atom -12392.912720 kJ/mol
# Density = 2.235620 g / cm^3
# Si number density = 22.407203 Si / 1000 Ang^3
#
#
#
# Elastic Constant Matrix: (Units=GPa)
#
#
# Indices 1 2 3 4 5 6 
#
# 1 144.7876 52.2234 34.7749 -3.1188 -0.3636 -15.5967
# 2 52.2234 138.5145 25.3694 -18.4910 -3.1363 -14.2438
# 3 34.7749 25.3694 82.4435 8.4303 -10.9496 -3.2945
# 4 -3.1188 -18.4910 8.4303 29.0172 -2.0106 -1.4264
# 5 -0.3636 -3.1363 -10.9496 -2.0106 46.4187 -2.4411
# 6 -15.5967 -14.2438 -3.2945 -1.4264 -2.4411 30.9436
#
#
#
# Elastic Compliance Matrix: (Units=1/GPa)
#
#
# Indices 1 2 3 4 5 6 
#
# 1 0.008829 -0.002445 -0.002973 0.000358 -0.000625 0.002975
# 2 -0.002445 0.009899 -0.002521 0.006983 0.000537 0.003420
# 3 -0.002973 -0.002521 0.015152 -0.006170 0.003056 -0.001089
# 4 0.000358 0.006983 -0.006170 0.041047 0.001045 0.004712
# 5 -0.000625 0.000537 0.003056 0.001045 0.022450 0.002077
# 6 0.002975 0.003420 -0.001089 0.004712 0.002077 0.035656
#
#
# Mechanical properties :
#
#
# Convention : Reuss Voigt Hill
#
# Bulk Modulus (GPa) = 55.54317 65.60900 60.57609
# Shear Modulus (GPa) = 32.27651 38.16777 35.22214
#
# Velocity S-wave (km/s) = 3.79945 4.13167 3.96904
# Velocity P-wave (km/s) = 6.64000 7.21837 6.93522
#
# Compressibility (1/GPa) = 0.01800401
#
# Stress axis : x y z
#
# Youngs Moduli (GPa) = 113.26216 101.02027 65.99635
#
# Poissons Ratio (x) = 0.24697 0.19618
# Poissons Ratio (y) = 0.27690 0.16637
# Poissons Ratio (z) = 0.33667 0.25466
#
# Static dielectric constant tensor:
#      x y z
#    x 4.079400 -0.074450 0.006200 
#    y -0.074450 4.086790 -0.116440 
#    z 0.006200 -0.116440 4.390710 
# 
# 
# High freq. dielectric constant tensor:
#      x y z
#    x 1.891830 -0.010600 0.003840 
#    y -0.010600 1.864040 -0.015600 
#    z 0.003840 -0.015600 1.906420 
# 
# From -- ./inp_files/271359.got.cif
#   From: 2010.06.25/outbox.cif.g09.slc.cpg/sg2_136_cif.got.tgz:271359.got - 2010.06.27 13:26:56.
