data_PCOD8026448
_publ_section_title
;
Structure prediction by ZEFSAII (Michael W. Deem and Ramdas Pophale) SiO2 
 PCOD8026448
Probable space group: P -1
;
_chemical_formula_sum "Si O2"
_cell_formula_units_Z 16
_cell_length_a 15.305175
_cell_length_b 9.214991
_cell_length_c 15.022766
_cell_angle_alpha 99.662651
_cell_angle_beta 140.652602
_cell_angle_gamma 49.931656
_cell_volume 753.762806
_symmetry_space_group_name_H-M "P -1"
_symmetry_group_IT_number 2
_symmetry_cell_setting 'triclinic'
loop_
_space_group_symop_operation_xyz
x,y,z
-x,-y,-z
loop_
_atom_site_type_symbol
_atom_site_label
_atom_site_fract_x
_atom_site_fract_y
_atom_site_fract_z
Si Si1 0.721298 0.927035 0.005163
Si Si2 0.014569 0.352264 0.368808
Si Si3 0.172243 0.033175 0.724195
Si Si4 0.348728 0.339522 0.046386
Si Si5 0.770798 0.570258 0.380584
Si Si6 0.007498 0.891454 0.126169
Si Si7 0.657340 0.398438 0.799658
Si Si8 0.879703 0.068909 0.599108
O O1 0.636799 0.833506 0.914012
O O2 0.511712 0.220080 0.832071
O O3 0.766619 0.904681 0.143787
O O4 0.953289 0.778419 0.116169
O O5 0.210291 0.312254 0.520339
O O6 0.841492 0.553606 0.333968
O O7 0.148107 0.078972 0.460586
O O8 0.865097 0.476608 0.173985
O O9 0.932003 0.291492 0.508658
O O10 0.104554 0.934717 0.703814
O O11 0.399134 0.826269 0.815267
O O12 0.272648 0.519025 0.080932
O O13 0.244519 0.664390 0.229396
O O14 0.059527 0.962945 0.252652
O O15 0.781877 0.146191 0.915266
O O16 0.368372 0.629171 0.590284
#
# Coordination Sequence:
#
# PCOD8026448 Si02
#       8
#     2   2   2   2   2   2   2   2
#     4  11  22  39  62  89 124 157 198 245 296 353
#     4  11  22  37  59  89 121 163 197 238 296 356
#     4  11  23  37  61  93 123 159 194 241 300 361
#     4  12  22  40  61  87 128 161 195 244 297 356
#     4  11  21  37  60  86 124 158 196 237 297 361
#     4  10  24  42  65  90 114 158 204 253 296 347
#     4  11  23  43  66  86 119 158 202 251 301 347
#     4  11  23  41  63  91 122 153 203 246 297 359
#
# _framework density 21.226835999999999
#
# number of rings (size 3 to 8) (size 9 to 14) (size 15 to 20)
#    0.000    1.000    3.750    4.500    0.000    4.000 
#    0.000    0.000    0.000    1.500    0.000    0.000 
#    0.000    0.000    0.000    0.000    0.000    0.000 
#
# Total GULP energy -198374.149195 kJ/mol
# GULP energy per Si atom -12398.384325 kJ/mol
# Density = 2.117852 g / cm^3
# Si number density = 21.226836 Si / 1000 Ang^3
#
#
#
# Elastic Constant Matrix: (Units=GPa)
#
#
# Indices 1 2 3 4 5 6 
#
# 1 82.9952 35.8255 10.2073 8.1438 3.3416 -12.9360
# 2 35.8255 65.8689 -6.3004 4.5493 4.2972 -8.4869
# 3 10.2073 -6.3004 76.8380 -4.8680 -10.5626 -5.8605
# 4 8.1438 4.5493 -4.8680 26.5329 -1.6129 -8.3316
# 5 3.3416 4.2972 -10.5626 -1.6129 29.0905 -1.0007
# 6 -12.9360 -8.4869 -5.8605 -8.3316 -1.0007 16.2010
#
#
#
# Elastic Compliance Matrix: (Units=1/GPa)
#
#
# Indices 1 2 3 4 5 6 
#
# 1 0.017529 -0.008618 -0.002860 -0.002275 -0.001658 0.007175
# 2 -0.008618 0.020896 0.003332 0.001528 -0.000595 0.006020
# 3 -0.002860 0.003332 0.015572 0.006267 0.006137 0.008697
# 4 -0.002275 0.001528 0.006267 0.047869 0.005868 0.026230
# 5 -0.001658 -0.000595 0.006137 0.005868 0.037411 0.005912
# 6 0.007175 0.006020 0.008697 0.026230 0.005912 0.087608
#
#
# Mechanical properties :
#
#
# Convention : Reuss Voigt Hill
#
# Bulk Modulus (GPa) = 26.52081 33.90743 30.21412
# Shear Modulus (GPa) = 19.55086 26.76287 23.15686
#
# Velocity S-wave (km/s) = 3.03816 3.55463 3.30650
# Velocity P-wave (km/s) = 4.98281 5.73199 5.37048
#
# Compressibility (1/GPa) = 0.03770623
#
# Stress axis : x y z
#
# Youngs Moduli (GPa) = 57.04905 47.85521 64.21966
#
# Poissons Ratio (x) = 0.41239 0.18367
# Poissons Ratio (y) = 0.49162 -0.21400
# Poissons Ratio (z) = 0.16316 -0.15947
#
# Static dielectric constant tensor:
#      x y z
#    x 3.708180 -0.020930 -0.093170 
#    y -0.020930 3.667110 0.129410 
#    z -0.093170 0.129410 3.982860 
# 
# 
# High freq. dielectric constant tensor:
#      x y z
#    x 1.820810 0.006530 -0.013690 
#    y 0.006530 1.815030 0.010650 
#    z -0.013690 0.010650 1.848750 
# 
# From -- ./inp_files/187933.got.cif
#   From: 2010.06.25/outbox.cif.g09.slc.cpg/sg2_94_cif.got.tgz:187933.got - 2010.06.27 13:26:56.
