data_PCOD8026511
_publ_section_title
;
Structure prediction by ZEFSAII (Michael W. Deem and Ramdas Pophale) SiO2 
 PCOD8026511
Probable space group: P -1
;
_chemical_formula_sum "Si O2"
_cell_formula_units_Z 16
_cell_length_a 15.524437
_cell_length_b 15.027498
_cell_length_c 15.806511
_cell_angle_alpha 29.853593
_cell_angle_beta 27.229102
_cell_angle_gamma 27.569868
_cell_volume 724.405352
_symmetry_space_group_name_H-M "P -1"
_symmetry_group_IT_number 2
_symmetry_cell_setting 'triclinic'
loop_
_space_group_symop_operation_xyz
x,y,z
-x,-y,-z
loop_
_atom_site_type_symbol
_atom_site_label
_atom_site_fract_x
_atom_site_fract_y
_atom_site_fract_z
Si Si1 0.883377 0.779810 0.201095
Si Si2 0.765089 0.976106 0.868826
Si Si3 0.480025 0.778742 0.273834
Si Si4 0.704802 0.180759 0.926838
Si Si5 0.291705 0.591599 0.903300
Si Si6 0.849848 0.405757 0.724150
Si Si7 0.532362 0.784657 0.612319
Si Si8 0.248252 0.637278 0.709651
O O1 0.723244 0.703583 0.440058
O O2 0.070324 0.737584 0.143519
O O3 0.040127 0.651043 0.091388
O O4 0.725171 0.016779 0.115436
O O5 0.988763 0.770980 0.820279
O O6 0.696595 0.130909 0.721944
O O7 0.796632 0.079621 0.839262
O O8 0.572189 0.927802 0.094840
O O9 0.359480 0.765840 0.473267
O O10 0.680433 0.557516 0.253262
O O11 0.455032 0.369072 0.985976
O O12 0.862112 0.264451 0.751183
O O13 0.328996 0.779626 0.749957
O O14 0.332869 0.564369 0.790241
O O15 0.608095 0.615097 0.762836
O O16 0.000000 0.500000 0.500000
O O17 0.500000 0.000000 0.500000
#
# Coordination Sequence:
#
# PCOD8026511 Si02
#       8
#     2   2   2   2   2   2   2   2
#     4  11  24  42  66  90 129 173 210 261 323 368
#     4  11  22  43  66  97 125 167 215 261 321 381
#     4  10  24  42  67  91 133 164 210 269 320 381
#     4  11  23  40  65  94 130 168 216 264 313 386
#     4  11  25  41  62  93 131 166 213 266 315 381
#     4   9  22  41  61  91 130 166 213 259 314 374
#     4  10  25  41  63  95 126 169 218 262 315 383
#     4  11  22  42  65  94 126 171 210 258 325 381
#
# _framework density 22.087081999999999
#
# number of rings (size 3 to 8) (size 9 to 14) (size 15 to 20)
#    0.000    1.500    2.500    1.125    8.750    1.000 
#    0.000    3.750    0.000    0.000    0.000    0.000 
#    0.000    0.000    0.000    0.000    0.000    0.000 
#
# Total GULP energy -198269.965536 kJ/mol
# GULP energy per Si atom -12391.872846 kJ/mol
# Density = 2.203681 g / cm^3
# Si number density = 22.087082 Si / 1000 Ang^3
#
#
#
# Elastic Constant Matrix: (Units=GPa)
#
#
# Indices 1 2 3 4 5 6 
#
# 1 84.4026 27.0263 31.0058 -9.6510 16.5949 1.0167
# 2 27.0263 89.9596 24.1037 -13.6713 11.9073 -20.5412
# 3 31.0058 24.1037 85.1923 -1.6904 21.8757 -5.4291
# 4 -9.6510 -13.6713 -1.6904 32.5506 -5.9543 3.2825
# 5 16.5949 11.9073 21.8757 -5.9543 29.7879 -6.9777
# 6 1.0167 -20.5412 -5.4291 3.2825 -6.9777 32.3688
#
#
#
# Elastic Compliance Matrix: (Units=1/GPa)
#
#
# Indices 1 2 3 4 5 6 
#
# 1 0.015759 -0.003837 -0.003552 0.002401 -0.005308 -0.004914
# 2 -0.003837 0.015668 -0.002571 0.004523 0.000859 0.009359
# 3 -0.003552 -0.002571 0.016118 -0.002987 -0.009562 -0.000575
# 4 0.002401 0.004523 -0.002987 0.034250 0.005917 0.000096
# 5 -0.005308 0.000859 -0.009562 0.005917 0.046382 0.008506
# 6 -0.004914 0.009359 -0.000575 0.000096 0.008506 0.038715
#
#
# Mechanical properties :
#
#
# Convention : Reuss Voigt Hill
#
# Bulk Modulus (GPa) = 36.20016 47.09179 41.64597
# Shear Modulus (GPa) = 25.50744 30.76937 28.13840
#
# Velocity S-wave (km/s) = 3.40201 3.73647 3.57315
# Velocity P-wave (km/s) = 5.64419 6.32314 5.99329
#
# Compressibility (1/GPa) = 0.02762419
#
# Stress axis : x y z
#
# Youngs Moduli (GPa) = 63.45597 63.82262 62.04327
#
# Poissons Ratio (x) = 0.24490 0.22040
# Poissons Ratio (y) = 0.24349 0.15951
# Poissons Ratio (z) = 0.22542 0.16409
#
# Static dielectric constant tensor:
#      x y z
#    x 4.315770 -0.457450 0.240650 
#    y -0.457450 4.174610 -0.173970 
#    z 0.240650 -0.173970 3.963500 
# 
# 
# High freq. dielectric constant tensor:
#      x y z
#    x 1.868070 -0.017930 0.013380 
#    y -0.017930 1.873180 -0.007280 
#    z 0.013380 -0.007280 1.863130 
# 
# From -- ./inp_files/534061.got.cif
#   From: 2010.06.25/outbox.cif.g09.slc.cpg/sg2_268_cif.got.tgz:534061.got - 2010.06.27 13:26:56.
