data_PCOD8026693
_publ_section_title
;
Structure prediction by ZEFSAII (Michael W. Deem and Ramdas Pophale) SiO2 
 PCOD8026693
Probable space group: P -1
;
_chemical_formula_sum "Si O2"
_cell_formula_units_Z 16
_cell_length_a 6.678415
_cell_length_b 17.554159
_cell_length_c 8.839509
_cell_angle_alpha 112.450343
_cell_angle_beta 51.971637
_cell_angle_gamma 113.870943
_cell_volume 733.713212
_symmetry_space_group_name_H-M "P -1"
_symmetry_group_IT_number 2
_symmetry_cell_setting 'triclinic'
loop_
_space_group_symop_operation_xyz
x,y,z
-x,-y,-z
loop_
_atom_site_type_symbol
_atom_site_label
_atom_site_fract_x
_atom_site_fract_y
_atom_site_fract_z
Si Si1 0.225704 0.452648 0.026732
Si Si2 0.484354 0.185505 0.826533
Si Si3 0.964178 0.722478 0.861776
Si Si4 0.773517 0.544502 0.329540
Si Si5 0.864472 0.935840 0.311871
Si Si6 0.324139 0.858603 0.983452
Si Si7 0.143425 0.113982 0.388674
Si Si8 0.966099 0.280769 0.513631
O O1 0.166585 0.357270 0.038218
O O2 0.997168 0.494958 0.227383
O O3 0.500000 0.500000 0.000000
O O4 0.256189 0.454722 0.834980
O O5 0.671190 0.258599 0.696268
O O6 0.379242 0.100069 0.712357
O O7 0.243561 0.220450 0.024946
O O8 0.655819 0.162958 0.865859
O O9 0.216826 0.772631 0.873487
O O10 0.048480 0.696202 0.638438
O O11 0.500000 0.500000 0.500000
O O12 0.856571 0.640048 0.422791
O O13 0.809822 0.882360 0.451342
O O14 0.898950 0.036103 0.399659
O O15 0.129116 0.920378 0.102211
O O16 0.602623 0.905316 0.823613
O O17 0.092234 0.200717 0.416859
#
# Coordination Sequence:
#
# PCOD8026693 Si02
#       8
#     2   2   2   2   2   2   2   2
#     4  11  25  47  69  98 134 175 220 274 333 402
#     4  11  23  42  65  95 131 171 220 269 321 388
#     4  11  25  41  68  95 130 174 220 263 328 391
#     4  11  27  45  71 101 135 172 221 279 331 395
#     4  10  24  43  64  94 129 177 218 268 329 377
#     4  11  22  43  64  93 130 173 218 270 319 385
#     4  11  23  42  65  95 132 169 221 271 322 391
#     4  12  24  43  67  98 132 173 215 272 329 385
#
# _framework density 21.806882999999999
#
# number of rings (size 3 to 8) (size 9 to 14) (size 15 to 20)
#    0.000    1.000    2.500    3.375    3.500    6.000 
#    2.250    0.000    0.000    0.000    0.000    0.000 
#    0.000    0.000    0.000    0.000    0.000    0.000 
#
# Total GULP energy -198480.261129 kJ/mol
# GULP energy per Si atom -12405.016321 kJ/mol
# Density = 2.175725 g / cm^3
# Si number density = 21.806883 Si / 1000 Ang^3
#
#
#
# Elastic Constant Matrix: (Units=GPa)
#
#
# Indices 1 2 3 4 5 6 
#
# 1 111.3168 46.1356 39.4707 5.8283 9.6315 20.8507
# 2 46.1356 124.2389 30.6164 7.0554 5.3091 22.4053
# 3 39.4707 30.6164 114.5067 -9.7313 4.0262 14.0441
# 4 5.8283 7.0554 -9.7313 34.3577 7.6118 -3.4694
# 5 9.6315 5.3091 4.0262 7.6118 28.5940 3.5173
# 6 20.8507 22.4053 14.0441 -3.4694 3.5173 34.5846
#
#
#
# Elastic Compliance Matrix: (Units=1/GPa)
#
#
# Indices 1 2 3 4 5 6 
#
# 1 0.012378 -0.002812 -0.003106 -0.002398 -0.002029 -0.004414
# 2 -0.002812 0.010455 -0.001485 -0.002690 0.000521 -0.004798
# 3 -0.003106 -0.001485 0.010704 0.004014 -0.001131 -0.000994
# 4 -0.002398 -0.002690 0.004014 0.033781 -0.008971 0.005860
# 5 -0.002029 0.000521 -0.001131 -0.008971 0.038534 -0.003474
# 6 -0.004414 -0.004798 -0.000994 0.005860 -0.003474 0.036029
#
#
# Mechanical properties :
#
#
# Convention : Reuss Voigt Hill
#
# Bulk Modulus (GPa) = 53.38768 64.72309 59.05539
# Shear Modulus (GPa) = 30.68825 35.09659 32.89242
#
# Velocity S-wave (km/s) = 3.75543 4.01612 3.88796
# Velocity P-wave (km/s) = 6.58328 7.15892 6.87713
#
# Compressibility (1/GPa) = 0.01873091
#
# Stress axis : x y z
#
# Youngs Moduli (GPa) = 80.78816 95.64894 93.42725
#
# Poissons Ratio (x) = 0.26899 0.29018
# Poissons Ratio (y) = 0.22720 0.13870
# Poissons Ratio (z) = 0.25092 0.14199
#
# Static dielectric constant tensor:
#      x y z
#    x 3.867860 0.124600 0.032200 
#    y 0.124600 3.718620 0.041390 
#    z 0.032200 0.041390 4.086530 
# 
# 
# High freq. dielectric constant tensor:
#      x y z
#    x 1.858970 0.011540 0.002050 
#    y 0.011540 1.861360 -0.001980 
#    z 0.002050 -0.001980 1.873860 
# 
# From -- ./inp_files/49189.got.cif
#   From: 2010.06.25/outbox.cif.g09.slc.cpg/sg2_25_cif.got.tgz:49189.got - 2010.06.27 13:26:56.
