data_PCOD8026441
_publ_section_title
;
Structure prediction by ZEFSAII (Michael W. Deem and Ramdas Pophale) SiO2 
 PCOD8026441
Probable space group: P -1
;
_chemical_formula_sum "Si O2"
_cell_formula_units_Z 16
_cell_length_a 6.668404
_cell_length_b 12.265346
_cell_length_c 10.907770
_cell_angle_alpha 87.015113
_cell_angle_beta 66.146209
_cell_angle_gamma 58.959320
_cell_volume 685.024354
_symmetry_space_group_name_H-M "P -1"
_symmetry_group_IT_number 2
_symmetry_cell_setting 'triclinic'
loop_
_space_group_symop_operation_xyz
x,y,z
-x,-y,-z
loop_
_atom_site_type_symbol
_atom_site_label
_atom_site_fract_x
_atom_site_fract_y
_atom_site_fract_z
Si Si1 0.763751 0.502215 0.621059
Si Si2 0.215399 0.890364 0.866919
Si Si3 0.453824 0.760576 0.046512
Si Si4 0.354298 0.248796 0.753292
Si Si5 0.908697 0.540004 0.838785
Si Si6 0.841410 0.238194 0.547440
Si Si7 0.897893 0.888426 0.278659
Si Si8 0.820436 0.301161 0.281538
O O1 0.747192 0.551247 0.758460
O O2 0.822739 0.358936 0.612683
O O3 0.487293 0.601327 0.619603
O O4 0.000000 0.500000 0.500000
O O5 0.131189 0.796213 0.836487
O O6 0.461153 0.814659 0.905109
O O7 0.254887 0.962067 0.738886
O O8 0.000000 0.000000 0.000000
O O9 0.525403 0.820087 0.140034
O O10 0.165823 0.791316 0.142637
O O11 0.681975 0.607150 0.995182
O O12 0.558846 0.259288 0.619554
O O13 0.106029 0.391526 0.832777
O O14 0.292544 0.159979 0.695187
O O15 0.053304 0.617570 0.787797
O O16 0.045741 0.114519 0.589007
O O17 0.941409 0.222130 0.383864
#
# Coordination Sequence:
#
# PCOD8026441 Si02
#       8
#     2   2   2   2   2   2   2   2
#     4  12  22  40  67 100 141 172 212 271 337 402
#     4  10  24  49  66  92 133 178 234 280 315 382
#     4  10  24  42  64  98 126 177 227 271 331 388
#     4  11  23  41  67  98 136 175 210 277 341 394
#     4  12  23  39  67 103 133 173 214 274 343 402
#     4  11  23  42  65 103 136 169 220 266 342 403
#     4  10  24  45  66  91 135 179 221 283 320 385
#     4  12  25  42  70 100 136 176 222 270 332 401
#
# _framework density 23.356835
#
# number of rings (size 3 to 8) (size 9 to 14) (size 15 to 20)
#    0.000    1.000    5.000    1.500    3.500    1.500 
#    4.500    0.625    0.000    0.000    0.000    0.000 
#    0.000    0.000    0.000    0.000    0.000    0.000 
#
# Total GULP energy -198296.465542 kJ/mol
# GULP energy per Si atom -12393.529096 kJ/mol
# Density = 2.330367 g / cm^3
# Si number density = 23.356835 Si / 1000 Ang^3
#
#
#
# Elastic Constant Matrix: (Units=GPa)
#
#
# Indices 1 2 3 4 5 6 
#
# 1 99.0974 19.2683 17.1542 -11.4969 9.6815 13.8971
# 2 19.2683 68.3987 0.2746 -18.0618 10.4605 7.9029
# 3 17.1542 0.2746 63.1988 -9.7569 24.8876 -3.1838
# 4 -11.4969 -18.0618 -9.7569 37.7543 -6.1745 7.1154
# 5 9.6815 10.4605 24.8876 -6.1745 44.2030 -9.0641
# 6 13.8971 7.9029 -3.1838 7.1154 -9.0641 27.3375
#
#
#
# Elastic Compliance Matrix: (Units=1/GPa)
#
#
# Indices 1 2 3 4 5 6 
#
# 1 0.012513 -0.001261 -0.002332 0.003743 -0.002244 -0.007986
# 2 -0.001261 0.020194 0.004413 0.011086 -0.007501 -0.010055
# 3 -0.002332 0.004413 0.022238 0.005647 -0.012934 -0.003259
# 4 0.003743 0.011086 0.005647 0.036546 -0.004700 -0.015520
# 5 -0.002244 -0.007501 -0.012934 -0.004700 0.034480 0.014458
# 6 -0.007986 -0.010055 -0.003259 -0.015520 0.014458 0.052000
#
#
# Mechanical properties :
#
#
# Convention : Reuss Voigt Hill
#
# Bulk Modulus (GPa) = 17.67248 33.78767 25.73008
# Shear Modulus (GPa) = 25.61572 34.79216 30.20394
#
# Velocity S-wave (km/s) = 3.31526 3.86371 3.59994
# Velocity P-wave (km/s) = 4.71564 5.86529 5.32160
#
# Compressibility (1/GPa) = 0.05658516
#
# Stress axis : x y z
#
# Youngs Moduli (GPa) = 79.91398 49.51965 44.96867
#
# Poissons Ratio (x) = 0.06247 0.10486
# Poissons Ratio (y) = 0.10081 -0.19846
# Poissons Ratio (z) = 0.18635 -0.21855
#
# Static dielectric constant tensor:
#      x y z
#    x 1.218800 -1.041180 -1.541840 
#    y -1.041180 4.411330 -0.724720 
#    z -1.541840 -0.724720 3.084520 
# 
# 
# High freq. dielectric constant tensor:
#      x y z
#    x 1.935550 -0.010100 0.021330 
#    y -0.010100 1.912430 -0.006980 
#    z 0.021330 -0.006980 1.919830 
# 
# From -- ./inp_files/71646.got.cif
#   From: 2010.06.25/outbox.cif.g09.slc.cpg/sg2_36_cif.got.tgz:71646.got - 2010.06.27 13:26:56.
