data_PCOD8026931
_publ_section_title
;
Structure prediction by ZEFSAII (Michael W. Deem and Ramdas Pophale) SiO2 
 PCOD8026931
Probable space group: P -1
;
_chemical_formula_sum "Si O2"
_cell_formula_units_Z 16
_cell_length_a 9.294608
_cell_length_b 8.643790
_cell_length_c 13.596850
_cell_angle_alpha 43.927087
_cell_angle_beta 85.153231
_cell_angle_gamma 76.530005
_cell_volume 731.347974
_symmetry_space_group_name_H-M "P -1"
_symmetry_group_IT_number 2
_symmetry_cell_setting 'triclinic'
loop_
_space_group_symop_operation_xyz
x,y,z
-x,-y,-z
loop_
_atom_site_type_symbol
_atom_site_label
_atom_site_fract_x
_atom_site_fract_y
_atom_site_fract_z
Si Si1 0.395213 0.894418 0.985169
Si Si2 0.904881 0.685005 0.631044
Si Si3 0.405001 0.418310 0.277753
Si Si4 0.917260 0.065700 0.614213
Si Si5 0.881578 0.735893 0.914621
Si Si6 0.094329 0.186955 0.902068
Si Si7 0.579169 0.296342 0.518202
Si Si8 0.562422 0.820584 0.810930
O O1 0.351022 0.693180 0.143207
O O2 0.469714 0.790982 0.926075
O O3 0.500000 0.000000 0.000000
O O4 0.244476 0.084700 0.878061
O O5 0.731641 0.687965 0.633687
O O6 0.955774 0.799489 0.477583
O O7 0.001710 0.424140 0.752934
O O8 0.932545 0.840970 0.647934
O O9 0.531197 0.350356 0.383866
O O10 0.478775 0.318393 0.215610
O O11 0.757862 0.248950 0.530044
O O12 0.940634 0.956045 0.772401
O O13 0.737156 0.722448 0.866944
O O14 0.843312 0.770699 0.014302
O O15 0.000000 0.500000 0.000000
O O16 0.000000 0.000000 0.000000
O O17 0.500000 0.500000 0.500000
O O18 0.524525 0.084267 0.661018
#
# Coordination Sequence:
#
# PCOD8026931 Si02
#       8
#     2   2   2   2   2   2   2   2
#     4  12  26  44  69 102 138 182 229 290 352 406
#     4  11  23  45  67 103 137 180 227 281 339 414
#     4  12  24  47  70  98 139 180 232 287 337 419
#     4  10  24  43  71  99 137 179 231 272 347 416
#     4  11  21  44  71  99 138 182 228 284 341 407
#     4  12  25  44  69  99 141 180 227 292 345 398
#     4  11  25  43  70  99 139 182 222 285 350 402
#     4  11  24  45  67 103 135 180 235 276 347 415
#
# _framework density 21.877410999999999
#
# number of rings (size 3 to 8) (size 9 to 14) (size 15 to 20)
#    0.000    0.750    6.250    1.500    5.250    0.000 
#    2.250    1.250    0.000    0.000    0.000    0.000 
#    0.000    0.000    0.000    0.000    0.000    0.000 
#
# Total GULP energy -198420.567971 kJ/mol
# GULP energy per Si atom -12401.285498 kJ/mol
# Density = 2.182762 g / cm^3
# Si number density = 21.877411 Si / 1000 Ang^3
#
#
#
# Elastic Constant Matrix: (Units=GPa)
#
#
# Indices 1 2 3 4 5 6 
#
# 1 71.2028 52.7165 36.0309 -0.4301 -6.9458 -17.1685
# 2 52.7165 106.8182 41.5360 -7.1830 9.5496 -8.8098
# 3 36.0309 41.5360 119.2559 -3.6099 0.3081 -13.2793
# 4 -0.4301 -7.1830 -3.6099 45.5434 -2.3286 2.7099
# 5 -6.9458 9.5496 0.3081 -2.3286 43.3281 -0.6688
# 6 -17.1685 -8.8098 -13.2793 2.7099 -0.6688 38.1369
#
#
#
# Elastic Compliance Matrix: (Units=1/GPa)
#
#
# Indices 1 2 3 4 5 6 
#
# 1 0.027704 -0.012529 -0.003113 -0.002112 0.007247 0.008771
# 2 -0.012529 0.016870 -0.002321 0.002237 -0.005633 -0.002809
# 3 -0.003113 -0.002321 0.010326 0.000325 -0.000018 0.001635
# 4 -0.002112 0.002237 0.000325 0.022447 0.000343 -0.001910
# 5 0.007247 -0.005633 -0.000018 0.000343 0.025538 0.002378
# 6 0.008771 -0.002809 0.001635 -0.001910 0.002378 0.030268
#
#
# Mechanical properties :
#
#
# Convention : Reuss Voigt Hill
#
# Bulk Modulus (GPa) = 52.69900 61.98264 57.34082
# Shear Modulus (GPa) = 28.50587 36.53456 32.52021
#
# Velocity S-wave (km/s) = 3.61360 4.09096 3.85967
# Velocity P-wave (km/s) = 6.44604 7.12095 6.79188
#
# Compressibility (1/GPa) = 0.01897569
#
# Stress axis : x y z
#
# Youngs Moduli (GPa) = 36.09531 59.27812 96.84294
#
# Poissons Ratio (x) = 0.74268 0.30144
# Poissons Ratio (y) = 0.45223 0.22475
# Poissons Ratio (z) = 0.11235 0.13757
#
# Static dielectric constant tensor:
#      x y z
#    x 3.862240 -0.272060 -0.149880 
#    y -0.272060 3.964440 0.210700 
#    z -0.149880 0.210700 4.526350 
# 
# 
# High freq. dielectric constant tensor:
#      x y z
#    x 1.848450 -0.012330 -0.003160 
#    y -0.012330 1.867180 -0.007950 
#    z -0.003160 -0.007950 1.874440 
# 
# From -- ./inp_files/298529.got.cif
#   From: 2010.06.25/outbox.cif.g09.slc.cpg/sg2_150_cif.got.tgz:298529.got - 2010.06.27 13:26:56.
