data_PCOD8026478
_publ_section_title
;
Structure prediction by ZEFSAII (Michael W. Deem and Ramdas Pophale) SiO2 
 PCOD8026478
Probable space group: P -1
;
_chemical_formula_sum "Si O2"
_cell_formula_units_Z 16
_cell_length_a 5.160098
_cell_length_b 15.613146
_cell_length_c 11.746989
_cell_angle_alpha 117.004818
_cell_angle_beta 80.194415
_cell_angle_gamma 127.447049
_cell_volume 661.912244
_symmetry_space_group_name_H-M "P -1"
_symmetry_group_IT_number 2
_symmetry_cell_setting 'triclinic'
loop_
_space_group_symop_operation_xyz
x,y,z
-x,-y,-z
loop_
_atom_site_type_symbol
_atom_site_label
_atom_site_fract_x
_atom_site_fract_y
_atom_site_fract_z
Si Si1 0.616695 0.301925 0.905153
Si Si2 0.642716 0.464221 0.173142
Si Si3 0.016043 0.528907 0.645580
Si Si4 0.922132 0.252249 0.176891
Si Si5 0.856605 0.885207 0.520473
Si Si6 0.838235 0.155463 0.894127
Si Si7 0.441872 0.352556 0.727750
Si Si8 0.672089 0.103915 0.324110
O O1 0.775324 0.232245 0.863107
O O2 0.684305 0.357571 0.805956
O O3 0.218156 0.207816 0.888475
O O4 0.785847 0.410592 0.049982
O O5 0.805957 0.510409 0.313581
O O6 0.712237 0.581218 0.171302
O O7 0.271268 0.348089 0.151277
O O8 0.216214 0.672818 0.735903
O O9 0.000000 0.500000 0.500000
O O10 0.637665 0.445111 0.664087
O O11 0.918595 0.190283 0.256265
O O12 0.719038 0.154717 0.031933
O O13 0.814283 0.781681 0.382345
O O14 0.502438 0.842175 0.570554
O O15 0.117613 0.914815 0.616606
O O16 0.000000 0.000000 0.500000
O O17 0.625197 0.020396 0.783973
#
# Coordination Sequence:
#
# PCOD8026478 Si02
#       8
#     2   2   2   2   2   2   2   2
#     4  11  24  45  71 102 139 176 230 283 342 405
#     4  10  24  44  67 102 137 180 224 288 338 406
#     4  11  24  42  67  98 142 176 228 281 344 404
#     4  10  24  42  66 103 137 177 230 280 339 410
#     4  12  28  48  68 103 138 179 232 282 342 403
#     4  11  23  45  70 103 137 181 224 289 339 396
#     4  11  26  41  70 100 134 187 226 279 343 412
#     4  12  26  44  74  97 138 184 232 281 341 407
#
# _framework density 24.172387000000001
#
# number of rings (size 3 to 8) (size 9 to 14) (size 15 to 20)
#    0.000    1.000    1.250    4.125    8.750    1.500 
#    0.000    3.125    0.000    0.000    0.000    0.000 
#    0.000    0.000    0.000    0.000    0.000    0.000 
#
# Total GULP energy -198311.967952 kJ/mol
# GULP energy per Si atom -12394.497997 kJ/mol
# Density = 2.411737 g / cm^3
# Si number density = 24.172387 Si / 1000 Ang^3
#
#
#
# Elastic Constant Matrix: (Units=GPa)
#
#
# Indices 1 2 3 4 5 6 
#
# 1 52.9313 0.9078 -6.4013 2.5370 16.9241 -15.4095
# 2 0.9078 116.0302 28.4593 -4.6857 3.9117 -18.3582
# 3 -6.4013 28.4593 114.3028 -0.7723 13.5800 -7.9997
# 4 2.5370 -4.6857 -0.7723 49.3415 -10.4164 0.9056
# 5 16.9241 3.9117 13.5800 -10.4164 40.1803 -2.5346
# 6 -15.4095 -18.3582 -7.9997 0.9056 -2.5346 27.4075
#
#
#
# Elastic Compliance Matrix: (Units=1/GPa)
#
#
# Indices 1 2 3 4 5 6 
#
# 1 0.029144 0.001868 0.004022 -0.004511 -0.013871 0.017677
# 2 0.001868 0.010261 -0.001871 0.000602 -0.000536 0.007308
# 3 0.004022 -0.001871 0.010289 -0.001370 -0.005118 0.003583
# 4 -0.004511 0.000602 -0.001370 0.022252 0.007913 -0.002536
# 5 -0.013871 -0.000536 -0.005118 0.007913 0.034138 -0.006757
# 6 0.017677 0.007308 0.003583 -0.002536 -0.006757 0.051825
#
#
# Mechanical properties :
#
#
# Convention : Reuss Voigt Hill
#
# Bulk Modulus (GPa) = 17.32130 36.57733 26.94931
# Shear Modulus (GPa) = 29.56544 40.73908 35.15226
#
# Velocity S-wave (km/s) = 3.50109 4.10976 3.81758
# Velocity P-wave (km/s) = 4.85024 6.13880 5.53217
#
# Compressibility (1/GPa) = 0.05773240
#
# Stress axis : x y z
#
# Youngs Moduli (GPa) = 34.31199 97.45271 97.18737
#
# Poissons Ratio (x) = -0.18203 -0.39087
# Poissons Ratio (y) = -0.06409 0.18184
# Poissons Ratio (z) = -0.13800 0.18234
#
# Static dielectric constant tensor:
#      x y z
#    x 4.467110 -0.131820 -0.131660 
#    y -0.131820 4.393640 -0.018150 
#    z -0.131660 -0.018150 4.630230 
# 
# 
# High freq. dielectric constant tensor:
#      x y z
#    x 1.955920 -0.006290 -0.002470 
#    y -0.006290 1.969140 -0.001570 
#    z -0.002470 -0.001570 1.972570 
# 
# From -- ./inp_files/71290.got.cif
#   From: 2010.06.25/outbox.cif.g09.slc.cpg/sg2_36_cif.got.tgz:71290.got - 2010.06.27 13:26:56.
