data_PCOD8026153
_publ_section_title
;
Structure prediction by ZEFSAII (Michael W. Deem and Ramdas Pophale) SiO2 
 PCOD8026153
Probable space group: P -1
;
_chemical_formula_sum "Si O2"
_cell_formula_units_Z 16
_cell_length_a 11.019669
_cell_length_b 11.833450
_cell_length_c 11.127900
_cell_angle_alpha 64.438113
_cell_angle_beta 145.999443
_cell_angle_gamma 117.313450
_cell_volume 717.160039
_symmetry_space_group_name_H-M "P -1"
_symmetry_group_IT_number 2
_symmetry_cell_setting 'triclinic'
loop_
_space_group_symop_operation_xyz
x,y,z
-x,-y,-z
loop_
_atom_site_type_symbol
_atom_site_label
_atom_site_fract_x
_atom_site_fract_y
_atom_site_fract_z
Si Si1 0.600247 0.616854 0.116521
Si Si2 0.974544 0.206951 0.550740
Si Si3 0.396310 0.319037 0.460615
Si Si4 0.948643 0.268190 0.231645
Si Si5 0.509682 0.840760 0.792595
Si Si6 0.336853 0.097873 0.348973
Si Si7 0.129298 0.975334 0.876287
Si Si8 0.653825 0.447560 0.823164
O O1 0.535663 0.587476 0.215316
O O2 0.869865 0.667001 0.317119
O O3 0.500000 0.500000 0.000000
O O4 0.495817 0.732151 0.930414
O O5 0.896496 0.235496 0.341338
O O6 0.743740 0.158547 0.455409
O O7 0.100698 0.088463 0.708438
O O8 0.444005 0.188712 0.504346
O O9 0.606098 0.386683 0.678612
O O10 0.316668 0.401408 0.248204
O O11 0.209139 0.290258 0.421094
O O12 0.837833 0.150086 0.110161
O O13 0.868606 0.398862 0.069886
O O14 0.648627 0.815698 0.799902
O O15 0.637791 0.978091 0.885300
O O16 0.500000 0.000000 0.500000
O O17 0.077869 0.044674 0.191118
#
# Coordination Sequence:
#
# PCOD8026153 Si02
#       8
#     2   2   2   2   2   2   2   2
#     4  11  24  43  67  93 130 171 217 273 332 392
#     4  11  22  42  62  97 131 169 215 271 325 395
#     4  10  24  42  65  94 132 170 223 272 321 383
#     4  11  22  40  66  97 130 174 216 264 333 388
#     4  11  23  42  63  96 130 171 218 264 329 390
#     4  11  22  42  67  94 134 175 216 269 328 391
#     4  10  24  39  66  95 135 172 217 271 323 390
#     4  11  22  43  66  94 129 172 222 272 321 390
#
# _framework density 22.310223000000001
#
# number of rings (size 3 to 8) (size 9 to 14) (size 15 to 20)
#    0.000    1.250    3.750    1.875    1.750    1.000 
#    0.000    1.250    0.000    0.000    0.000    0.000 
#    0.000    0.000    0.000    0.000    0.000    0.000 
#
# Total GULP energy -198233.848968 kJ/mol
# GULP energy per Si atom -12389.615560 kJ/mol
# Density = 2.225944 g / cm^3
# Si number density = 22.310223 Si / 1000 Ang^3
#
#
#
# Elastic Constant Matrix: (Units=GPa)
#
#
# Indices 1 2 3 4 5 6 
#
# 1 90.0330 38.5934 38.4005 6.1167 -5.8851 -0.1612
# 2 38.5934 97.1540 32.6872 15.3686 9.7798 -8.0690
# 3 38.4005 32.6872 78.6533 14.5626 5.2540 -10.0992
# 4 6.1167 15.3686 14.5626 43.6584 9.7127 -1.4663
# 5 -5.8851 9.7798 5.2540 9.7127 31.0898 -4.4981
# 6 -0.1612 -8.0690 -10.0992 -1.4663 -4.4981 27.1829
#
#
#
# Elastic Compliance Matrix: (Units=1/GPa)
#
#
# Indices 1 2 3 4 5 6 
#
# 1 0.016499 -0.005143 -0.006748 0.000470 0.005295 -0.003034
# 2 -0.005143 0.014110 -0.002301 -0.002534 -0.003866 0.002527
# 3 -0.006748 -0.002301 0.018519 -0.003863 -0.001655 0.005675
# 4 0.000470 -0.002534 -0.003863 0.026518 -0.007023 -0.001916
# 5 0.005295 -0.003866 -0.001655 -0.007023 0.037448 0.004087
# 6 -0.003034 0.002527 0.005675 -0.001916 0.004087 0.040201
#
#
# Mechanical properties :
#
#
# Convention : Reuss Voigt Hill
#
# Bulk Modulus (GPa) = 48.20737 53.91140 51.05939
# Shear Modulus (GPa) = 26.51197 30.79683 28.65440
#
# Velocity S-wave (km/s) = 3.45096 3.71939 3.58769
# Velocity P-wave (km/s) = 6.12646 6.53162 6.33228
#
# Compressibility (1/GPa) = 0.02074372
#
# Stress axis : x y z
#
# Youngs Moduli (GPa) = 60.61150 70.87184 53.99742
#
# Poissons Ratio (x) = 0.36449 0.36437
# Poissons Ratio (y) = 0.31172 0.12426
# Poissons Ratio (z) = 0.40901 0.16309
#
# Static dielectric constant tensor:
#      x y z
#    x 4.077280 0.240950 -0.199440 
#    y 0.240950 4.107710 0.061260 
#    z -0.199440 0.061260 3.950030 
# 
# 
# High freq. dielectric constant tensor:
#      x y z
#    x 1.879180 0.018850 -0.011150 
#    y 0.018850 1.878730 0.000350 
#    z -0.011150 0.000350 1.876080 
# 
# From -- ./inp_files/70365.got.cif
#   From: 2010.06.25/outbox.cif.g09.slc.cpg/sg2_36_cif.got.tgz:70365.got - 2010.06.27 13:26:56.
