data_PCOD8026899
_publ_section_title
;
Structure prediction by ZEFSAII (Michael W. Deem and Ramdas Pophale) SiO2 
 PCOD8026899
Probable space group: P -1
;
_chemical_formula_sum "Si O2"
_cell_formula_units_Z 14
_cell_length_a 17.378473
_cell_length_b 11.329626
_cell_length_c 8.538483
_cell_angle_alpha 35.678760
_cell_angle_beta 51.351863
_cell_angle_gamma 40.439935
_cell_volume 635.924777
_symmetry_space_group_name_H-M "P -1"
_symmetry_group_IT_number 2
_symmetry_cell_setting 'triclinic'
loop_
_space_group_symop_operation_xyz
x,y,z
-x,-y,-z
loop_
_atom_site_type_symbol
_atom_site_label
_atom_site_fract_x
_atom_site_fract_y
_atom_site_fract_z
Si Si1 0.564781 0.916427 0.669423
Si Si2 0.233351 0.020687 0.582991
Si Si3 0.591810 0.641587 0.396993
Si Si4 0.073505 0.012865 0.028508
Si Si5 0.867055 0.397002 0.362999
Si Si6 0.586417 0.482077 0.230721
Si Si7 0.032808 0.525411 0.150175
O O1 0.482759 0.081286 0.742682
O O2 0.500000 0.000000 0.500000
O O3 0.685021 0.902616 0.529790
O O4 0.604148 0.638489 0.916799
O O5 0.127817 0.245265 0.377044
O O6 0.302085 0.798898 0.610029
O O7 0.197023 0.931177 0.877556
O O8 0.725883 0.532459 0.393917
O O9 0.577000 0.619977 0.254729
O O10 0.533244 0.500866 0.689541
O O11 0.085347 0.856964 0.334175
O O12 0.002772 0.298627 0.848023
O O13 0.000000 0.000000 0.000000
O O14 0.911446 0.551131 0.225265
O O15 0.917436 0.369237 0.153654
#
# Coordination Sequence:
#
# PCOD8026899 Si02
#       7
#     2   2   2   2   2   2   2
#     4  11  26  41  70 101 137 173 221 276 338 400
#     4  11  26  43  72  98 136 180 222 280 338 398
#     4  10  24  43  70  98 131 179 223 275 331 398
#     4  12  27  43  70 101 138 179 224 274 344 397
#     4  11  26  43  71  99 137 175 228 276 335 396
#     4  10  24  46  69  97 135 176 228 270 337 397
#     4  11  26  47  67 101 135 180 229 274 335 403
#
# _framework density 22.015183
#
# number of rings (size 3 to 8) (size 9 to 14) (size 15 to 20)
#    0.000    1.143    1.429    2.143   10.000    5.714 
#    0.000    0.000    0.000    0.000    0.000    0.000 
#    0.000    0.000    0.000    0.000    0.000    0.000 
#
# Total GULP energy -173460.300468 kJ/mol
# GULP energy per Si atom -12390.021462 kJ/mol
# Density = 2.196508 g / cm^3
# Si number density = 22.015183 Si / 1000 Ang^3
#
#
#
# Elastic Constant Matrix: (Units=GPa)
#
#
# Indices 1 2 3 4 5 6 
#
# 1 140.9961 64.1126 41.4277 -4.3466 -18.0928 -19.1775
# 2 64.1126 113.3492 43.4990 1.2443 -19.9228 -1.7691
# 3 41.4277 43.4990 134.1434 7.2493 -16.2064 -9.9786
# 4 -4.3466 1.2443 7.2493 30.5624 0.5639 -5.1335
# 5 -18.0928 -19.9228 -16.2064 0.5639 27.0357 7.6203
# 6 -19.1775 -1.7691 -9.9786 -5.1335 7.6203 42.1974
#
#
#
# Elastic Compliance Matrix: (Units=1/GPa)
#
#
# Indices 1 2 3 4 5 6 
#
# 1 0.010739 -0.005346 -0.001258 0.002775 0.001171 0.004485
# 2 -0.005346 0.013775 -0.002248 -0.001527 0.006303 -0.003708
# 3 -0.001258 -0.002248 0.009079 -0.002173 0.002789 0.000713
# 4 0.002775 -0.001527 -0.002173 0.034652 -0.002818 0.005408
# 5 0.001171 0.006303 0.002789 -0.002818 0.046184 -0.007227
# 6 0.004485 -0.003708 0.000713 0.005408 -0.007227 0.027713
#
#
# Mechanical properties :
#
#
# Convention : Reuss Voigt Hill
#
# Bulk Modulus (GPa) = 62.93042 76.28527 69.60785
# Shear Modulus (GPa) = 30.27688 35.92239 33.09964
#
# Velocity S-wave (km/s) = 3.71249 4.04383 3.88169
# Velocity P-wave (km/s) = 6.85739 7.51863 7.19561
#
# Compressibility (1/GPa) = 0.01589057
#
# Stress axis : x y z
#
# Youngs Moduli (GPa) = 93.12148 72.59294 110.13911
#
# Poissons Ratio (x) = 0.38808 0.13853
# Poissons Ratio (y) = 0.49782 0.24757
# Poissons Ratio (z) = 0.11712 0.16317
#
# Static dielectric constant tensor:
#      x y z
#    x 3.939820 0.098590 -0.018000 
#    y 0.098590 3.842610 -0.137080 
#    z -0.018000 -0.137080 3.732530 
# 
# 
# High freq. dielectric constant tensor:
#      x y z
#    x 1.876500 0.001310 -0.018680 
#    y 0.001310 1.866830 0.007130 
#    z -0.018680 0.007130 1.875070 
# 
# From -- ./inp_files/28433.got.cif
#   From: 2010.06.25/outbox.cif.g09.slc.cpg/sg2_15_cif.got.tgz:28433.got - 2010.06.27 13:26:56.
