data_PCOD8026258
_publ_section_title
;
Structure prediction by ZEFSAII (Michael W. Deem and Ramdas Pophale) SiO2 
 PCOD8026258
Probable space group: P -1
;
_chemical_formula_sum "Si O2"
_cell_formula_units_Z 14
_cell_length_a 14.581178
_cell_length_b 8.734992
_cell_length_c 15.171926
_cell_angle_alpha 148.418984
_cell_angle_beta 139.953665
_cell_angle_gamma 39.151924
_cell_volume 605.951582
_symmetry_space_group_name_H-M "P -1"
_symmetry_group_IT_number 2
_symmetry_cell_setting 'triclinic'
loop_
_space_group_symop_operation_xyz
x,y,z
-x,-y,-z
loop_
_atom_site_type_symbol
_atom_site_label
_atom_site_fract_x
_atom_site_fract_y
_atom_site_fract_z
Si Si1 0.443374 0.917370 0.326015
Si Si2 0.513870 0.198237 0.023944
Si Si3 0.847360 0.878157 0.105500
Si Si4 0.052266 0.066501 0.475156
Si Si5 0.107580 0.272324 0.272335
Si Si6 0.950485 0.289516 0.985797
Si Si7 0.414072 0.876673 0.629039
O O1 0.423918 0.575739 0.145155
O O2 0.500000 0.000000 0.500000
O O3 0.277995 0.189586 0.319113
O O4 0.558173 0.946663 0.350105
O O5 0.690641 0.175063 0.137628
O O6 0.500000 0.000000 0.000000
O O7 0.471437 0.029409 0.827226
O O8 0.893678 0.797540 0.998777
O O9 0.817887 0.591175 0.993678
O O10 0.994378 0.896177 0.273133
O O11 0.957038 0.432059 0.565764
O O12 0.233957 0.958664 0.549117
O O13 0.000000 0.000000 0.500000
O O14 0.112606 0.988988 0.200072
O O15 0.985874 0.349397 0.141348
O O16 0.500000 0.500000 0.500000
#
# Coordination Sequence:
#
# PCOD8026258 Si02
#       7
#     2   2   2   2   2   2   2
#     4  12  27  47  73 106 149 187 239 298 363 426
#     4  12  26  46  75 104 147 191 240 291 366 428
#     4  11  24  43  70  99 138 181 243 277 349 419
#     4  12  25  44  71 102 139 183 236 288 350 418
#     4  11  24  44  71  98 141 176 236 284 355 413
#     4  10  24  40  71  97 133 180 233 289 339 412
#     4  12  29  47  72 106 150 191 238 299 364 423
#
# _framework density 23.104154000000001
#
# number of rings (size 3 to 8) (size 9 to 14) (size 15 to 20)
#    0.000    0.571    1.429    5.571   12.000    0.571 
#    0.000    0.000    0.000    0.000    0.000    0.000 
#    0.000    0.000    0.000    0.000    0.000    0.000 
#
# Total GULP energy -173559.434203 kJ/mol
# GULP energy per Si atom -12397.102443 kJ/mol
# Density = 2.305157 g / cm^3
# Si number density = 23.104154 Si / 1000 Ang^3
#
#
#
# Elastic Constant Matrix: (Units=GPa)
#
#
# Indices 1 2 3 4 5 6 
#
# 1 115.6564 58.0531 47.1657 5.1405 6.4026 4.9223
# 2 58.0531 102.8421 40.9590 12.8011 1.8128 -24.0875
# 3 47.1657 40.9590 131.1401 10.8504 -7.4792 3.4313
# 4 5.1405 12.8011 10.8504 44.9983 -2.2204 0.7745
# 5 6.4026 1.8128 -7.4792 -2.2204 35.1771 -4.5070
# 6 4.9223 -24.0875 3.4313 0.7745 -4.5070 54.1501
#
#
#
# Elastic Compliance Matrix: (Units=1/GPa)
#
#
# Indices 1 2 3 4 5 6 
#
# 1 0.014234 -0.008252 -0.002705 0.001298 -0.003310 -0.005087
# 2 -0.008252 0.017933 -0.002511 -0.003661 0.000968 0.009019
# 3 -0.002705 -0.002511 0.009651 -0.001162 0.002438 -0.001263
# 4 0.001298 -0.003661 -0.001162 0.023476 0.000940 -0.001930
# 5 -0.003310 0.000968 0.002438 0.000940 0.029950 0.003057
# 6 -0.005087 0.009019 -0.001263 -0.001930 0.003057 0.023304
#
#
# Mechanical properties :
#
#
# Convention : Reuss Voigt Hill
#
# Bulk Modulus (GPa) = 67.19816 71.33268 69.26542
# Shear Modulus (GPa) = 33.23517 40.42916 36.83216
#
# Velocity S-wave (km/s) = 3.79686 4.18768 3.99705
# Velocity P-wave (km/s) = 6.95482 7.37045 7.16565
#
# Compressibility (1/GPa) = 0.01488136
#
# Stress axis : x y z
#
# Youngs Moduli (GPa) = 70.25634 55.76306 103.61886
#
# Poissons Ratio (x) = 0.46017 0.28028
# Poissons Ratio (y) = 0.57977 0.26018
# Poissons Ratio (z) = 0.19004 0.14002
#
# Static dielectric constant tensor:
#      x y z
#    x 4.357140 -0.054210 0.062290 
#    y -0.054210 4.599160 0.499530 
#    z 0.062290 0.499530 4.503740 
# 
# 
# High freq. dielectric constant tensor:
#      x y z
#    x 1.924560 0.000370 -0.001410 
#    y 0.000370 1.923950 0.010060 
#    z -0.001410 0.010060 1.920180 
# 
# From -- ./inp_files/159379.got.cif
#   From: 2010.06.25/outbox.cif.g09.slc.cpg/sg2_80_cif.got.tgz:159379.got - 2010.06.27 13:26:56.
