data_PCOD8026494
_publ_section_title
;
Structure prediction by ZEFSAII (Michael W. Deem and Ramdas Pophale) SiO2 
 PCOD8026494
Probable space group: P -1
;
_chemical_formula_sum "Si O2"
_cell_formula_units_Z 14
_cell_length_a 8.916812
_cell_length_b 15.400123
_cell_length_c 5.056767
_cell_angle_alpha 113.684676
_cell_angle_beta 70.425115
_cell_angle_gamma 100.062740
_cell_volume 598.505093
_symmetry_space_group_name_H-M "P -1"
_symmetry_group_IT_number 2
_symmetry_cell_setting 'triclinic'
loop_
_space_group_symop_operation_xyz
x,y,z
-x,-y,-z
loop_
_atom_site_type_symbol
_atom_site_label
_atom_site_fract_x
_atom_site_fract_y
_atom_site_fract_z
Si Si1 0.044864 0.159885 0.564467
Si Si2 0.345493 0.940818 0.442859
Si Si3 0.268027 0.739348 0.176867
Si Si4 0.369676 0.633742 0.491934
Si Si5 0.857361 0.031304 0.895496
Si Si6 0.745196 0.662345 0.350591
Si Si7 0.167026 0.450097 0.346834
O O1 0.205009 0.226252 0.590141
O O2 0.909575 0.227648 0.619796
O O3 0.987931 0.112068 0.818653
O O4 0.068157 0.072380 0.236811
O O5 0.388703 0.832260 0.226763
O O6 0.274301 0.985720 0.277199
O O7 0.500000 0.000000 0.500000
O O8 0.218765 0.937634 0.750039
O O9 0.324547 0.663936 0.261033
O O10 0.270592 0.693578 0.830120
O O11 0.555388 0.650003 0.461626
O O12 0.315170 0.523585 0.411987
O O13 0.827323 0.630913 0.534683
O O14 0.813208 0.597516 0.004787
O O15 0.000000 0.500000 0.500000
#
# Coordination Sequence:
#
# PCOD8026494 Si02
#       7
#     2   2   2   2   2   2   2
#     4  10  24  44  68  98 136 177 234 266 342 391
#     4  11  24  40  67  96 138 170 231 272 341 384
#     4  11  24  42  65  97 129 183 213 276 325 407
#     4  12  25  44  68  97 139 170 225 272 341 389
#     4  10  24  42  66  95 134 183 217 287 320 402
#     4  12  26  42  71 100 132 174 222 278 329 402
#     4  12  25  46  70  99 133 174 219 277 336 397
#
# _framework density 23.391611000000001
#
# number of rings (size 3 to 8) (size 9 to 14) (size 15 to 20)
#    0.000    0.857    0.000    6.857    4.000    9.714 
#    0.000    0.000    0.000    0.000    0.000    0.000 
#    0.000    0.000    0.000    0.000    0.000    0.000 
#
# Total GULP energy -173634.575530 kJ/mol
# GULP energy per Si atom -12402.469681 kJ/mol
# Density = 2.333837 g / cm^3
# Si number density = 23.391611 Si / 1000 Ang^3
#
#
#
# Elastic Constant Matrix: (Units=GPa)
#
#
# Indices 1 2 3 4 5 6 
#
# 1 102.9947 46.4945 -6.1454 -16.2493 -2.5081 5.9120
# 2 46.4945 117.1904 6.5829 14.1336 -4.7851 21.5537
# 3 -6.1454 6.5829 60.9902 -1.8756 -6.7545 -12.8156
# 4 -16.2493 14.1336 -1.8756 18.9687 -8.9243 12.3102
# 5 -2.5081 -4.7851 -6.7545 -8.9243 27.1719 1.1754
# 6 5.9120 21.5537 -12.8156 12.3102 1.1754 54.4703
#
#
#
# Elastic Compliance Matrix: (Units=1/GPa)
#
#
# Indices 1 2 3 4 5 6 
#
# 1 0.022448 -0.012337 0.005231 0.039254 0.014331 -0.005505
# 2 -0.012337 0.016663 -0.004818 -0.027404 -0.008402 -0.000013
# 3 0.005231 -0.004818 0.019355 0.011885 0.008218 0.003029
# 4 0.039254 -0.027404 0.011885 0.148703 0.051688 -0.025343
# 5 0.014331 -0.008402 0.008218 0.051688 0.056063 -0.009188
# 6 -0.005505 -0.000013 0.003029 -0.025343 -0.009188 0.025600
#
#
# Mechanical properties :
#
#
# Convention : Reuss Voigt Hill
#
# Bulk Modulus (GPa) = 28.88513 41.67106 35.27809
# Shear Modulus (GPa) = 15.42171 35.73841 25.58006
#
# Velocity S-wave (km/s) = 2.57044 3.91299 3.31048
# Velocity P-wave (km/s) = 4.60270 6.18615 5.45222
#
# Compressibility (1/GPa) = 0.03461989
#
# Stress axis : x y z
#
# Youngs Moduli (GPa) = 44.54649 60.01448 51.66549
#
# Poissons Ratio (x) = 0.74038 -0.27026
# Poissons Ratio (y) = 0.54956 0.24890
# Poissons Ratio (z) = -0.23302 0.28912
#
# Static dielectric constant tensor:
#      x y z
#    x 4.485350 0.128660 -0.031090 
#    y 0.128660 4.489660 0.132350 
#    z -0.031090 0.132350 4.343970 
# 
# 
# High freq. dielectric constant tensor:
#      x y z
#    x 1.931720 0.001230 0.008240 
#    y 0.001230 1.935670 0.004680 
#    z 0.008240 0.004680 1.935370 
# 
# From -- ./inp_files/36075.got.cif
#   From: 2010.06.25/outbox.cif.g09.slc.cpg/sg2_19_cif.got.tgz:36075.got - 2010.06.27 13:26:56.
