data_PCOD8026681
_publ_section_title
;
Structure prediction by ZEFSAII (Michael W. Deem and Ramdas Pophale) SiO2 
 PCOD8026681
Probable space group: P -1
;
_chemical_formula_sum "Si O2"
_cell_formula_units_Z 14
_cell_length_a 20.198743
_cell_length_b 14.382515
_cell_length_c 6.853251
_cell_angle_alpha 99.285508
_cell_angle_beta 100.569470
_cell_angle_gamma 17.918877
_cell_volume 601.584781
_symmetry_space_group_name_H-M "P -1"
_symmetry_group_IT_number 2
_symmetry_cell_setting 'triclinic'
loop_
_space_group_symop_operation_xyz
x,y,z
-x,-y,-z
loop_
_atom_site_type_symbol
_atom_site_label
_atom_site_fract_x
_atom_site_fract_y
_atom_site_fract_z
Si Si1 0.033857 0.067007 0.155803
Si Si2 0.732413 0.146724 0.472003
Si Si3 0.480519 0.746369 0.503784
Si Si4 0.895718 0.664397 0.698721
Si Si5 0.818963 0.184015 0.244368
Si Si6 0.637171 0.668699 0.899514
Si Si7 0.208858 0.329561 0.034019
O O1 0.011741 0.006650 0.275064
O O2 0.124600 0.033165 0.315850
O O3 0.801054 0.401572 0.049552
O O4 0.211570 0.803707 0.996659
O O5 0.500000 0.500000 0.500000
O O6 0.686336 0.096319 0.403206
O O7 0.863279 0.024821 0.324617
O O8 0.621109 0.494244 0.352565
O O9 0.618703 0.627572 0.684065
O O10 0.350400 0.980370 0.355793
O O11 0.000000 0.500000 0.500000
O O12 0.037404 0.558423 0.841122
O O13 0.906473 0.556659 0.798603
O O14 0.405444 0.996018 0.981579
O O15 0.724148 0.654112 0.873461
#
# Coordination Sequence:
#
# PCOD8026681 Si02
#       7
#     2   2   2   2   2   2   2
#     4  11  24  43  68  94 131 178 212 268 322 388
#     4  10  24  43  63  93 131 170 218 265 318 382
#     4  11  24  43  67  99 131 172 217 270 318 388
#     4  11  22  45  69  96 129 170 216 269 325 382
#     4  10  25  43  68  94 134 170 220 262 323 385
#     4  11  24  44  67  99 130 173 218 264 330 380
#     4  10  24  46  68  96 134 169 215 272 323 389
#
# _framework density 23.271865999999999
#
# number of rings (size 3 to 8) (size 9 to 14) (size 15 to 20)
#    0.000    1.429    1.429    2.143   10.000    4.000 
#    5.143    0.000    0.000    0.000    0.000    0.000 
#    0.000    0.000    0.000    0.000    0.000    0.000 
#
# Total GULP energy -173470.341845 kJ/mol
# GULP energy per Si atom -12390.738703 kJ/mol
# Density = 2.321890 g / cm^3
# Si number density = 23.271866 Si / 1000 Ang^3
#
#
#
# Elastic Constant Matrix: (Units=GPa)
#
#
# Indices 1 2 3 4 5 6 
#
# 1 137.5058 15.2192 70.9093 -0.7226 0.1222 -13.3054
# 2 15.2192 79.7122 47.2239 -13.2408 1.5299 -1.4736
# 3 70.9093 47.2239 129.7117 -5.7412 0.2744 -14.2641
# 4 -0.7226 -13.2408 -5.7412 45.3091 -10.4651 4.3218
# 5 0.1222 1.5299 0.2744 -10.4651 32.8288 -2.5203
# 6 -13.3054 -1.4736 -14.2641 4.3218 -2.5203 28.4407
#
#
#
# Elastic Compliance Matrix: (Units=1/GPa)
#
#
# Indices 1 2 3 4 5 6 
#
# 1 0.010415 0.001591 -0.006072 -0.000329 -0.000017 0.001958
# 2 0.001591 0.017213 -0.007227 0.004503 0.000486 -0.002630
# 3 -0.006072 -0.007227 0.014064 -0.000734 0.000313 0.003978
# 4 -0.000329 0.004503 -0.000734 0.025380 0.007622 -0.003470
# 5 -0.000017 0.000486 0.000313 0.007622 0.033015 0.001942
# 6 0.001958 -0.002630 0.003978 -0.003470 0.001942 0.038635
#
#
# Mechanical properties :
#
#
# Convention : Reuss Voigt Hill
#
# Bulk Modulus (GPa) = 54.71829 68.18161 61.44995
# Shear Modulus (GPa) = 29.72100 35.55420 32.63760
#
# Velocity S-wave (km/s) = 3.57756 3.91292 3.74899
# Velocity P-wave (km/s) = 6.37408 7.05521 6.72328
#
# Compressibility (1/GPa) = 0.01827543
#
# Stress axis : x y z
#
# Youngs Moduli (GPa) = 96.01189 58.09543 71.10225
#
# Poissons Ratio (x) = -0.09240 0.43173
# Poissons Ratio (y) = -0.15271 0.51387
# Poissons Ratio (z) = 0.58298 0.41986
#
# Static dielectric constant tensor:
#      x y z
#    x 4.655560 -0.290190 -0.118730 
#    y -0.290190 3.824500 0.098940 
#    z -0.118730 0.098940 4.135330 
# 
# 
# High freq. dielectric constant tensor:
#      x y z
#    x 1.933880 -0.003660 -0.004890 
#    y -0.003660 1.911490 -0.001830 
#    z -0.004890 -0.001830 1.920880 
# 
# From -- ./inp_files/119486.got.cif
#   From: 2010.06.25/outbox.cif.g09.slc.cpg/sg2_60_cif.got.tgz:119486.got - 2010.06.27 13:26:56.
