data_PCOD8026302
_publ_section_title
;
Structure prediction by ZEFSAII (Michael W. Deem and Ramdas Pophale) SiO2 
 PCOD8026302
Probable space group: P -1
;
_chemical_formula_sum "Si O2"
_cell_formula_units_Z 14
_cell_length_a 8.079977
_cell_length_b 11.881437
_cell_length_c 8.472788
_cell_angle_alpha 96.074547
_cell_angle_beta 60.453071
_cell_angle_gamma 122.039144
_cell_volume 586.303184
_symmetry_space_group_name_H-M "P -1"
_symmetry_group_IT_number 2
_symmetry_cell_setting 'triclinic'
loop_
_space_group_symop_operation_xyz
x,y,z
-x,-y,-z
loop_
_atom_site_type_symbol
_atom_site_label
_atom_site_fract_x
_atom_site_fract_y
_atom_site_fract_z
Si Si1 0.267825 0.079158 0.894498
Si Si2 0.576851 0.756734 0.472665
Si Si3 0.786665 0.543226 0.008334
Si Si4 0.676257 0.711576 0.880800
Si Si5 0.887345 0.517435 0.298725
Si Si6 0.458923 0.023285 0.344094
Si Si7 0.975763 0.768587 0.457760
O O1 0.396498 0.178317 0.700771
O O2 0.340950 0.970763 0.852197
O O3 0.345145 0.166906 0.031149
O O4 0.000000 0.000000 0.000000
O O5 0.366820 0.600387 0.545377
O O6 0.810864 0.769689 0.405132
O O7 0.529751 0.836381 0.642718
O O8 0.722613 0.648390 0.002279
O O9 0.951963 0.540483 0.798861
O O10 0.556232 0.394844 0.114328
O O11 0.897825 0.583922 0.134385
O O12 0.886765 0.764224 0.673604
O O13 0.988025 0.637614 0.398703
O O14 0.224264 0.905004 0.357354
O O15 0.500000 0.000000 0.500000
#
# Coordination Sequence:
#
# PCOD8026302 Si02
#       7
#     2   2   2   2   2   2   2
#     4  11  25  44  67  94 132 172 224 273 327 388
#     4  11  24  44  70  96 136 174 222 268 331 392
#     4  10  24  41  64  95 142 167 217 269 332 384
#     4  11  23  40  65  99 132 175 218 270 324 389
#     4  11  24  43  67 100 134 177 216 271 329 393
#     4  10  24  45  66  96 128 176 220 271 327 394
#     4  12  24  43  71  99 135 174 223 265 336 393
#
# _framework density 23.878430999999999
#
# number of rings (size 3 to 8) (size 9 to 14) (size 15 to 20)
#    0.000    1.143    1.429    4.286   10.000    0.571 
#    0.000    1.429    0.000    0.000    0.000    0.000 
#    0.000    0.000    0.000    0.000    0.000    0.000 
#
# Total GULP energy -173645.231085 kJ/mol
# GULP energy per Si atom -12403.230792 kJ/mol
# Density = 2.382408 g / cm^3
# Si number density = 23.878431 Si / 1000 Ang^3
#
#
#
# Elastic Constant Matrix: (Units=GPa)
#
#
# Indices 1 2 3 4 5 6 
#
# 1 54.7897 3.9939 0.1304 1.8985 -27.1715 4.2713
# 2 3.9939 112.9205 25.2215 28.5157 -13.7463 1.1126
# 3 0.1304 25.2215 92.8606 21.6265 -20.4274 -3.7483
# 4 1.8985 28.5157 21.6265 42.1577 -4.1111 -10.4423
# 5 -27.1715 -13.7463 -20.4274 -4.1111 39.8590 1.4370
# 6 4.2713 1.1126 -3.7483 -10.4423 1.4370 25.5843
#
#
#
# Elastic Compliance Matrix: (Units=1/GPa)
#
#
# Indices 1 2 3 4 5 6 
#
# 1 0.031070 0.002026 0.005715 -0.005282 0.024550 -0.007973
# 2 0.002026 0.011590 -0.000388 -0.008433 0.004475 -0.004592
# 3 0.005715 -0.000388 0.014778 -0.007096 0.010686 -0.002269
# 4 -0.005282 -0.008433 -0.007096 0.036460 -0.006943 0.015480
# 5 0.024550 0.004475 0.010686 -0.006943 0.048426 -0.008282
# 6 -0.007973 -0.004592 -0.002269 0.015480 -0.008282 0.047068
#
#
# Mechanical properties :
#
#
# Convention : Reuss Voigt Hill
#
# Bulk Modulus (GPa) = 13.86124 35.47362 24.66743
# Shear Modulus (GPa) = 25.15917 36.93520 31.04718
#
# Velocity S-wave (km/s) = 3.24950 3.93721 3.60977
# Velocity P-wave (km/s) = 4.46055 5.96297 5.26562
#
# Compressibility (1/GPa) = 0.07214359
#
# Stress axis : x y z
#
# Youngs Moduli (GPa) = 32.18542 86.27828 67.66960
#
# Poissons Ratio (x) = -0.17476 -0.38673
# Poissons Ratio (y) = -0.06519 0.02624
# Poissons Ratio (z) = -0.18394 0.03346
#
# Static dielectric constant tensor:
#      x y z
#    x 4.335330 -0.148980 -0.298070 
#    y -0.148980 4.593890 0.412470 
#    z -0.298070 0.412470 4.270510 
# 
# 
# High freq. dielectric constant tensor:
#      x y z
#    x 1.947810 -0.000300 -0.015740 
#    y -0.000300 1.950330 0.017950 
#    z -0.015740 0.017950 1.942920 
# 
# From -- ./inp_files/158581.got.cif
#   From: 2010.06.25/outbox.cif.g09.slc.cpg/sg2_80_cif.got.tgz:158581.got - 2010.06.27 13:26:56.
