data_PCOD8026686
_publ_section_title
;
Structure prediction by ZEFSAII (Michael W. Deem and Ramdas Pophale) SiO2 
 PCOD8026686
Probable space group: P -1
;
_chemical_formula_sum "Si O2"
_cell_formula_units_Z 16
_cell_length_a 9.129411
_cell_length_b 18.067051
_cell_length_c 22.179687
_cell_angle_alpha 17.838176
_cell_angle_beta 135.539921
_cell_angle_gamma 126.803632
_cell_volume 727.803437
_symmetry_space_group_name_H-M "P -1"
_symmetry_group_IT_number 2
_symmetry_cell_setting 'triclinic'
loop_
_space_group_symop_operation_xyz
x,y,z
-x,-y,-z
loop_
_atom_site_type_symbol
_atom_site_label
_atom_site_fract_x
_atom_site_fract_y
_atom_site_fract_z
Si Si1 0.187660 0.623289 0.967291
Si Si2 0.763462 0.531655 0.696899
Si Si3 0.513286 0.083024 0.507640
Si Si4 0.953814 0.465357 0.415153
Si Si5 0.372180 0.922002 0.708505
Si Si6 0.743380 0.351212 0.558134
Si Si7 0.166552 0.229475 0.970646
Si Si8 0.027708 0.938252 0.789180
O O1 0.104971 0.872704 0.793600
O O2 0.241437 0.729966 0.836189
O O3 0.406616 0.396932 0.235140
O O4 0.000000 0.500000 0.000000
O O5 0.760405 0.794093 0.523286
O O6 0.520370 0.571439 0.567220
O O7 0.943581 0.454956 0.755771
O O8 0.829430 0.307695 0.939219
O O9 0.384378 0.951460 0.616639
O O10 0.500000 0.000000 0.500000
O O11 0.764227 0.992997 0.676131
O O12 0.158933 0.536818 0.445046
O O13 0.782793 0.466992 0.416525
O O14 0.071794 0.188261 0.631492
O O15 0.801322 0.684231 0.154297
O O16 0.620443 0.791956 0.910069
O O17 0.872084 0.040391 0.833083
#
# Coordination Sequence:
#
# PCOD8026686 Si02
#       8
#     2   2   2   2   2   2   2   2
#     4  12  27  47  69 101 133 173 229 285 340 409
#     4  11  22  43  70  97 138 176 227 276 328 404
#     4  12  25  47  68  99 136 173 224 284 337 402
#     4  11  23  43  68  98 140 181 223 275 344 390
#     4  11  25  43  72  98 133 180 223 279 343 398
#     4  10  24  43  64 102 140 178 223 281 327 399
#     4  11  22  43  67 100 134 178 227 273 331 401
#     4  12  23  45  68  98 135 179 227 279 336 402
#
# _framework density 21.983957
#
# number of rings (size 3 to 8) (size 9 to 14) (size 15 to 20)
#    0.000    0.750    5.000    2.625    1.750    2.000 
#    0.000    0.000    0.000    0.000    0.000    0.000 
#    0.000    0.000    0.000    0.000    0.000    0.000 
#
# Total GULP energy -198461.435863 kJ/mol
# GULP energy per Si atom -12403.839741 kJ/mol
# Density = 2.193392 g / cm^3
# Si number density = 21.983957 Si / 1000 Ang^3
#
#
#
# Elastic Constant Matrix: (Units=GPa)
#
#
# Indices 1 2 3 4 5 6 
#
# 1 121.1800 47.7687 53.9552 -8.9168 -18.5244 -9.9136
# 2 47.7687 121.1707 32.0655 -10.8931 -3.2063 -5.4913
# 3 53.9552 32.0655 105.2766 6.3429 -9.3879 0.3949
# 4 -8.9168 -10.8931 6.3429 19.3410 -7.2427 -9.4820
# 5 -18.5244 -3.2063 -9.3879 -7.2427 53.4611 -0.4964
# 6 -9.9136 -5.4913 0.3949 -9.4820 -0.4964 27.4868
#
#
#
# Elastic Compliance Matrix: (Units=1/GPa)
#
#
# Indices 1 2 3 4 5 6 
#
# 1 0.015606 -0.001904 -0.007899 0.016534 0.006250 0.011179
# 2 -0.001904 0.010715 -0.002755 0.008495 0.000691 0.004437
# 3 -0.007899 -0.002755 0.015136 -0.015478 -0.002425 -0.009000
# 4 0.016534 0.008495 -0.015478 0.095703 0.016869 0.041202
# 5 0.006250 0.000691 -0.002425 0.016869 0.022852 0.008659
# 6 0.011179 0.004437 -0.009000 0.041202 0.008659 0.055798
#
#
# Mechanical properties :
#
#
# Convention : Reuss Voigt Hill
#
# Bulk Modulus (GPa) = 61.19064 68.35624 64.77344
# Shear Modulus (GPa) = 20.29427 34.31363 27.30395
#
# Velocity S-wave (km/s) = 3.04162 3.95504 3.52802
# Velocity P-wave (km/s) = 6.34271 7.21233 6.79145
#
# Compressibility (1/GPa) = 0.01634237
#
# Stress axis : x y z
#
# Youngs Moduli (GPa) = 64.07642 93.32433 66.06579
#
# Poissons Ratio (x) = 0.17766 0.52188
# Poissons Ratio (y) = 0.12198 0.18200
# Poissons Ratio (z) = 0.50616 0.25710
#
# Static dielectric constant tensor:
#      x y z
#    x 4.106710 -0.120940 -0.006280 
#    y -0.120940 3.873640 -0.045980 
#    z -0.006280 -0.045980 4.249800 
# 
# 
# High freq. dielectric constant tensor:
#      x y z
#    x 1.870670 -0.005460 -0.005760 
#    y -0.005460 1.854920 0.000040 
#    z -0.005760 0.000040 1.880970 
# 
# From -- ./inp_files/590917.got.cif
#   From: 2010.06.25/outbox.cif.g09.slc.cpg/sg2_296_cif.got.tgz:590917.got - 2010.06.27 13:26:56.
