data_PCOD8026960
_publ_section_title
;
Structure prediction by ZEFSAII (Michael W. Deem and Ramdas Pophale) SiO2 
 PCOD8026960
Probable space group: P -1
;
_chemical_formula_sum "Si O2"
_cell_formula_units_Z 16
_cell_length_a 5.595044
_cell_length_b 19.743675
_cell_length_c 8.762580
_cell_angle_alpha 133.361898
_cell_angle_beta 92.915614
_cell_angle_gamma 79.468594
_cell_volume 688.111045
_symmetry_space_group_name_H-M "P -1"
_symmetry_group_IT_number 2
_symmetry_cell_setting 'triclinic'
loop_
_space_group_symop_operation_xyz
x,y,z
-x,-y,-z
loop_
_atom_site_type_symbol
_atom_site_label
_atom_site_fract_x
_atom_site_fract_y
_atom_site_fract_z
Si Si1 0.142174 0.083426 0.112392
Si Si2 0.707035 0.630077 0.870211
Si Si3 0.983486 0.532519 0.223267
Si Si4 0.499859 0.003562 0.254640
Si Si5 0.423586 0.431331 0.521648
Si Si6 0.770707 0.080762 0.639884
Si Si7 0.108913 0.706537 0.623732
Si Si8 0.850401 0.282589 0.000140
O O1 0.341174 0.074942 0.239657
O O2 0.956312 0.185385 0.272556
O O3 0.275944 0.068239 0.929680
O O4 0.000000 0.000000 0.000000
O O5 0.723983 0.631013 0.687337
O O6 0.431674 0.672539 0.984542
O O7 0.765368 0.521568 0.770888
O O8 0.927202 0.679136 0.019066
O O9 0.753287 0.503394 0.260043
O O10 0.940401 0.646041 0.430645
O O11 0.000000 0.500000 0.000000
O O12 0.581246 0.075251 0.489198
O O13 0.352163 0.931661 0.220031
O O14 0.500000 0.500000 0.500000
O O15 0.619850 0.352911 0.498498
O O16 0.879175 0.174592 0.783487
O O17 0.000000 0.000000 0.500000
O O18 0.095175 0.705534 0.803204
#
# Coordination Sequence:
#
# PCOD8026960 Si02
#       8
#     2   2   2   2   2   2   2   2
#     4  11  24  46  71 104 144 193 242 300 373 453
#     4  11  24  45  71 104 138 194 247 307 361 453
#     4  12  26  45  67 103 151 186 237 314 379 440
#     4  10  24  43  72  99 148 186 243 306 371 435
#     4  11  22  46  77 102 139 192 254 305 363 451
#     4  11  24  44  71 104 143 190 244 314 370 433
#     4  11  24  42  73 101 137 194 245 296 371 452
#     4  11  25  42  77 104 141 188 259 299 367 442
#
# _framework density 23.25206
#
# number of rings (size 3 to 8) (size 9 to 14) (size 15 to 20)
#    0.000    1.000    2.500    4.125    5.250    3.500 
#    2.250    0.000    0.000    0.000    0.000    0.000 
#    0.000    0.000    0.000    0.000    0.000    0.000 
#
# Total GULP energy -198252.146524 kJ/mol
# GULP energy per Si atom -12390.759158 kJ/mol
# Density = 2.319914 g / cm^3
# Si number density = 23.252060 Si / 1000 Ang^3
#
#
#
# Elastic Constant Matrix: (Units=GPa)
#
#
# Indices 1 2 3 4 5 6 
#
# 1 145.4080 56.7862 53.9597 16.0451 -14.4266 3.2117
# 2 56.7862 103.7127 55.6944 19.0509 -15.6526 -9.6560
# 3 53.9597 55.6944 122.3510 15.0594 -9.7780 2.7076
# 4 16.0451 19.0509 15.0594 51.2394 4.1911 -4.4184
# 5 -14.4266 -15.6526 -9.7780 4.1911 35.8615 7.5379
# 6 3.2117 -9.6560 2.7076 -4.4184 7.5379 37.8760
#
#
#
# Elastic Compliance Matrix: (Units=1/GPa)
#
#
# Indices 1 2 3 4 5 6 
#
# 1 0.009531 -0.003690 -0.002126 -0.001364 0.002267 -0.002207
# 2 -0.003690 0.015812 -0.004953 -0.003261 0.003695 0.003582
# 3 -0.002126 -0.004953 0.011616 -0.001157 0.000747 -0.002197
# 4 -0.001364 -0.003261 -0.001157 0.022212 -0.005526 0.003058
# 5 0.002267 0.003695 0.000747 -0.005526 0.032613 -0.006439
# 6 -0.002207 0.003582 -0.002197 0.003058 -0.006439 0.029298
#
#
# Mechanical properties :
#
#
# Convention : Reuss Voigt Hill
#
# Bulk Modulus (GPa) = 64.84220 78.26137 71.55179
# Shear Modulus (GPa) = 33.83851 38.66415 36.25133
#
# Velocity S-wave (km/s) = 3.81897 4.08220 3.95278
# Velocity P-wave (km/s) = 6.88427 7.47998 7.18830
#
# Compressibility (1/GPa) = 0.01542206
#
# Stress axis : x y z
#
# Youngs Moduli (GPa) = 104.91707 63.24147 86.08636
#
# Poissons Ratio (x) = 0.23335 0.18302
# Poissons Ratio (y) = 0.38713 0.42640
# Poissons Ratio (z) = 0.22306 0.31324
#
# Static dielectric constant tensor:
#      x y z
#    x 6.245390 -0.053150 1.791260 
#    y -0.053150 3.987140 0.234670 
#    z 1.791260 0.234670 5.798680 
# 
# 
# High freq. dielectric constant tensor:
#      x y z
#    x 1.939270 -0.010030 0.009020 
#    y -0.010030 1.897440 0.011800 
#    z 0.009020 0.011800 1.917090 
# 
# From -- ./inp_files/139548.got.cif
#   From: 2010.06.25/outbox.cif.g09.slc.cpg/sg2_70_cif.got.tgz:139548.got - 2010.06.27 13:26:56.
