data_PCOD8026720
_publ_section_title
;
Structure prediction by ZEFSAII (Michael W. Deem and Ramdas Pophale) SiO2 
 PCOD8026720
Probable space group: P -1
;
_chemical_formula_sum "Si O2"
_cell_formula_units_Z 14
_cell_length_a 7.928457
_cell_length_b 18.742179
_cell_length_c 6.573368
_cell_angle_alpha 46.246992
_cell_angle_beta 98.041962
_cell_angle_gamma 115.677311
_cell_volume 616.437186
_symmetry_space_group_name_H-M "P -1"
_symmetry_group_IT_number 2
_symmetry_cell_setting 'triclinic'
loop_
_space_group_symop_operation_xyz
x,y,z
-x,-y,-z
loop_
_atom_site_type_symbol
_atom_site_label
_atom_site_fract_x
_atom_site_fract_y
_atom_site_fract_z
Si Si1 0.865480 0.438856 0.910507
Si Si2 0.019591 0.285644 0.091327
Si Si3 0.488862 0.210160 0.364990
Si Si4 0.823207 0.920734 0.770360
Si Si5 0.781402 0.764901 0.413998
Si Si6 0.702729 0.589727 0.434703
Si Si7 0.327482 0.922175 0.486593
O O1 0.841134 0.534135 0.599316
O O2 0.652411 0.338958 0.121998
O O3 0.000000 0.500000 0.000000
O O4 0.986380 0.393354 0.890127
O O5 0.062539 0.242853 0.397573
O O6 0.822500 0.180001 0.193750
O O7 0.194027 0.313583 0.909801
O O8 0.356030 0.167382 0.223890
O O9 0.364819 0.203220 0.555323
O O10 0.594859 0.131794 0.570263
O O11 0.769350 0.000593 0.747339
O O12 0.886270 0.855407 0.073917
O O13 0.000000 0.000000 0.500000
O O14 0.667991 0.643188 0.527928
O O15 0.500000 0.500000 0.500000
O O16 0.500000 0.000000 0.500000
#
# Coordination Sequence:
#
# PCOD8026720 Si02
#       7
#     2   2   2   2   2   2   2
#     4  11  23  46  67  97 138 180 223 277 339 400
#     4  11  24  44  68 100 134 175 232 276 337 412
#     4  10  24  43  65  99 135 174 231 276 336 412
#     4  11  23  44  70  97 135 178 223 285 347 397
#     4  12  24  41  67  99 135 172 233 282 327 412
#     4  12  26  43  69  98 137 186 224 281 341 398
#     4   9  21  44  66  92 134 174 221 280 339 403
#
# _framework density 22.711151999999998
#
# number of rings (size 3 to 8) (size 9 to 14) (size 15 to 20)
#    0.000    1.143    1.429    4.714    2.000    4.000 
#    7.714    4.286    0.000    0.000    0.000    0.000 
#    0.000    0.000    0.000    0.000    0.000    0.000 
#
# Total GULP energy -173486.518702 kJ/mol
# GULP energy per Si atom -12391.894193 kJ/mol
# Density = 2.265946 g / cm^3
# Si number density = 22.711152 Si / 1000 Ang^3
#
#
#
# Elastic Constant Matrix: (Units=GPa)
#
#
# Indices 1 2 3 4 5 6 
#
# 1 123.0842 53.9253 52.7123 -0.3556 -0.7274 -14.5484
# 2 53.9253 139.9637 45.6439 -14.6312 -8.2116 -1.2985
# 3 52.7123 45.6439 117.8289 3.0535 4.9511 -0.8482
# 4 -0.3556 -14.6312 3.0535 27.4167 0.9695 -0.6426
# 5 -0.7274 -8.2116 4.9511 0.9695 45.3259 -13.0109
# 6 -14.5484 -1.2985 -0.8482 -0.6426 -13.0109 56.0041
#
#
#
# Elastic Compliance Matrix: (Units=1/GPa)
#
#
# Indices 1 2 3 4 5 6 
#
# 1 0.011579 -0.003211 -0.003925 -0.001087 0.000940 0.003080
# 2 -0.003211 0.009920 -0.002628 0.005475 0.001874 -0.000146
# 3 -0.003925 -0.002628 0.011410 -0.002682 -0.002140 -0.001436
# 4 -0.001087 0.005475 -0.002682 0.039671 0.000529 0.000382
# 5 0.000940 0.001874 -0.002140 0.000529 0.024337 0.005915
# 6 0.003080 -0.000146 -0.001436 0.000382 0.005915 0.020009
#
#
# Mechanical properties :
#
#
# Convention : Reuss Voigt Hill
#
# Bulk Modulus (GPa) = 74.73628 76.15997 75.44812
# Shear Modulus (GPa) = 35.48254 40.98903 38.23578
#
# Velocity S-wave (km/s) = 3.95693 4.25290 4.10758
# Velocity P-wave (km/s) = 7.33861 7.59758 7.46921
#
# Compressibility (1/GPa) = 0.01338038
#
# Stress axis : x y z
#
# Youngs Moduli (GPa) = 86.36488 100.80928 87.64272
#
# Poissons Ratio (x) = 0.32369 0.34402
# Poissons Ratio (y) = 0.27731 0.23031
# Poissons Ratio (z) = 0.33900 0.26491
#
# Static dielectric constant tensor:
#      x y z
#    x 4.636910 -0.415800 0.346130 
#    y -0.415800 4.493860 -0.469690 
#    z 0.346130 -0.469690 3.900230 
# 
# 
# High freq. dielectric constant tensor:
#      x y z
#    x 1.911880 -0.010660 0.011100 
#    y -0.010660 1.912660 -0.028190 
#    z 0.011100 -0.028190 1.874790 
# 
# From -- ./inp_files/27736.got.cif
#   From: 2010.06.25/outbox.cif.g09.slc.cpg/sg2_14_cif.got.tgz:27736.got - 2010.06.27 13:26:56.
