data_PCOD8026804
_publ_section_title
;
Structure prediction by ZEFSAII (Michael W. Deem and Ramdas Pophale) SiO2 
 PCOD8026804
Probable space group: P -1
;
_chemical_formula_sum "Si O2"
_cell_formula_units_Z 16
_cell_length_a 14.764446
_cell_length_b 9.465297
_cell_length_c 8.162807
_cell_angle_alpha 105.121370
_cell_angle_beta 45.467118
_cell_angle_gamma 88.608897
_cell_volume 748.588178
_symmetry_space_group_name_H-M "P -1"
_symmetry_group_IT_number 2
_symmetry_cell_setting 'triclinic'
loop_
_space_group_symop_operation_xyz
x,y,z
-x,-y,-z
loop_
_atom_site_type_symbol
_atom_site_label
_atom_site_fract_x
_atom_site_fract_y
_atom_site_fract_z
Si Si1 0.298302 0.720605 0.591942
Si Si2 0.226594 0.779196 0.324862
Si Si3 0.865248 0.475726 0.098975
Si Si4 0.493988 0.559618 0.847703
Si Si5 0.021834 0.640181 0.416409
Si Si6 0.235144 0.090833 0.271574
Si Si7 0.588387 0.065255 0.285975
Si Si8 0.643824 0.751840 0.581141
O O1 0.271024 0.779268 0.457097
O O2 0.180044 0.653402 0.781469
O O3 0.442765 0.589514 0.393055
O O4 0.308154 0.864976 0.729075
O O5 0.093744 0.728366 0.473322
O O6 0.188702 0.944680 0.335530
O O7 0.343495 0.663391 0.030256
O O8 0.760819 0.644612 0.290348
O O9 0.880011 0.424293 0.877637
O O10 0.000000 0.500000 0.000000
O O11 0.600200 0.654394 0.747458
O O12 0.500000 0.500000 0.000000
O O13 0.000000 0.500000 0.500000
O O14 0.885605 0.755943 0.556802
O O15 0.316967 0.113532 0.335203
O O16 0.323836 0.064872 0.986735
O O17 0.485598 0.192646 0.349410
O O18 0.500000 0.000000 0.500000
#
# Coordination Sequence:
#
# PCOD8026804 Si02
#       8
#     2   2   2   2   2   2   2   2
#     4  10  24  43  68 104 138 176 233 283 337 406
#     4  11  23  45  70  99 139 184 223 281 349 402
#     4  11  23  46  70 101 136 175 236 286 333 401
#     4   9  21  37  70  96 132 174 227 273 336 401
#     4  12  28  45  73  99 135 185 234 278 341 414
#     4  12  26  47  68 100 143 179 229 280 346 415
#     4  12  27  42  68 103 139 180 227 282 346 404
#     4  11  24  43  70  99 137 178 224 282 344 402
#
# _framework density 21.373566
#
# number of rings (size 3 to 8) (size 9 to 14) (size 15 to 20)
#    0.000    1.000    2.500    3.000   10.500    1.000 
#    0.000    1.250    0.000    0.000    0.000    0.000 
#    0.000    0.000    0.000    0.000    0.000    0.000 
#
# Total GULP energy -198347.533584 kJ/mol
# GULP energy per Si atom -12396.720849 kJ/mol
# Density = 2.132492 g / cm^3
# Si number density = 21.373566 Si / 1000 Ang^3
#
#
#
# Elastic Constant Matrix: (Units=GPa)
#
#
# Indices 1 2 3 4 5 6 
#
# 1 105.3676 34.8661 34.1995 0.7961 1.9851 11.0880
# 2 34.8661 123.9742 47.3373 -15.1295 4.9976 -1.6391
# 3 34.1995 47.3373 127.9098 -4.3117 10.6156 -3.0615
# 4 0.7961 -15.1295 -4.3117 34.8226 2.2098 -0.6906
# 5 1.9851 4.9976 10.6156 2.2098 31.0264 -1.1429
# 6 11.0880 -1.6391 -3.0615 -0.6906 -1.1429 35.7106
#
#
#
# Elastic Compliance Matrix: (Units=1/GPa)
#
#
# Indices 1 2 3 4 5 6 
#
# 1 0.011532 -0.002659 -0.002292 -0.001810 0.000459 -0.003919
# 2 -0.002659 0.010513 -0.002942 0.004336 -0.000784 0.001115
# 3 -0.002292 -0.002942 0.009781 0.000183 -0.002690 0.001333
# 4 -0.001810 0.004336 0.000183 0.030868 -0.002796 0.001284
# 5 0.000459 -0.000784 -0.002690 -0.002796 0.033469 0.000608
# 6 -0.003919 0.001115 0.001333 0.001284 0.000608 0.029430
#
#
# Mechanical properties :
#
#
# Convention : Reuss Voigt Hill
#
# Bulk Modulus (GPa) = 62.34572 65.56193 63.95383
# Shear Modulus (GPa) = 34.07738 36.36849 35.22294
#
# Velocity S-wave (km/s) = 3.99729 4.12948 4.06392
# Velocity P-wave (km/s) = 7.10896 7.31284 7.21162
#
# Compressibility (1/GPa) = 0.01603959
#
# Stress axis : x y z
#
# Youngs Moduli (GPa) = 86.71560 95.12221 102.24100
#
# Poissons Ratio (x) = 0.25295 0.23435
# Poissons Ratio (y) = 0.23059 0.30076
# Poissons Ratio (z) = 0.19876 0.27982
#
# Static dielectric constant tensor:
#      x y z
#    x 3.771520 -0.172830 -0.170420 
#    y -0.172830 4.483040 1.617970 
#    z -0.170420 1.617970 9.138190 
# 
# 
# High freq. dielectric constant tensor:
#      x y z
#    x 1.833380 0.002720 0.001360 
#    y 0.002720 1.848240 -0.005610 
#    z 0.001360 -0.005610 1.849800 
# 
# From -- ./inp_files/243125.got.cif
#   From: 2010.06.25/outbox.cif.g09.slc.cpg/sg2_122_cif.got.tgz:243125.got - 2010.06.27 13:26:56.
