data_PCOD8026528
_publ_section_title
;
Structure prediction by ZEFSAII (Michael W. Deem and Ramdas Pophale) SiO2 
 PCOD8026528
Probable space group: P -1
;
_chemical_formula_sum "Si O2"
_cell_formula_units_Z 16
_cell_length_a 9.005934
_cell_length_b 17.853252
_cell_length_c 12.375556
_cell_angle_alpha 149.023397
_cell_angle_beta 49.081724
_cell_angle_gamma 135.140210
_cell_volume 716.252225
_symmetry_space_group_name_H-M "P -1"
_symmetry_group_IT_number 2
_symmetry_cell_setting 'triclinic'
loop_
_space_group_symop_operation_xyz
x,y,z
-x,-y,-z
loop_
_atom_site_type_symbol
_atom_site_label
_atom_site_fract_x
_atom_site_fract_y
_atom_site_fract_z
Si Si1 0.684140 0.082808 0.160212
Si Si2 0.123721 0.744792 0.496776
Si Si3 0.631351 0.754987 0.505639
Si Si4 0.656127 0.465135 0.807317
Si Si5 0.693371 0.529139 0.370124
Si Si6 0.983565 0.799121 0.039983
Si Si7 0.311098 0.803040 0.069128
Si Si8 0.890146 0.076681 0.494954
O O1 0.799745 0.159537 0.310857
O O2 0.509977 0.145322 0.267867
O O3 0.546403 0.900862 0.029981
O O4 0.870293 0.106641 0.014046
O O5 0.251329 0.632486 0.279854
O O6 0.140771 0.848365 0.510563
O O7 0.886488 0.619683 0.469391
O O8 0.489997 0.646830 0.349188
O O9 0.676137 0.645824 0.434419
O O10 0.871401 0.867274 0.497482
O O11 0.500000 0.500000 0.000000
O O12 0.830287 0.621274 0.862139
O O13 0.500000 0.500000 0.500000
O O14 0.702320 0.372573 0.115430
O O15 0.130750 0.784737 0.046977
O O16 0.836301 0.892958 0.266301
O O17 0.270007 0.893355 0.306114
#
# Coordination Sequence:
#
# PCOD8026528 Si02
#       8
#     2   2   2   2   2   2   2   2
#     4  11  26  45  71 100 143 180 234 283 340 415
#     4  10  26  46  66 104 140 178 230 292 340 406
#     4  10  24  42  68 100 132 182 228 282 340 404
#     4  11  25  43  71  99 140 176 230 282 349 402
#     4  11  25  43  71  99 140 176 230 282 349 402
#     4  12  25  44  71 102 139 184 231 282 344 409
#     4  12  25  44  71 102 139 184 231 282 344 409
#     4  11  26  45  71 100 143 180 234 283 340 415
#
# _framework density 22.338498999999999
#
# number of rings (size 3 to 8) (size 9 to 14) (size 15 to 20)
#    0.000    1.000    2.500    2.250   10.500    4.000 
#    0.000    0.000    0.000    0.000    0.000    0.000 
#    0.000    0.000    0.000    0.000    0.000    0.000 
#
# Total GULP energy -198230.372198 kJ/mol
# GULP energy per Si atom -12389.398262 kJ/mol
# Density = 2.228766 g / cm^3
# Si number density = 22.338499 Si / 1000 Ang^3
#
#
#
# Elastic Constant Matrix: (Units=GPa)
#
#
# Indices 1 2 3 4 5 6 
#
# 1 114.0407 19.2461 25.2562 13.1948 -8.5244 1.3476
# 2 19.2461 50.3280 33.7787 5.3651 -12.3947 -11.8444
# 3 25.2562 33.7787 60.8589 8.9965 4.0872 6.8426
# 4 13.1948 5.3651 8.9965 46.4393 0.4629 -0.8714
# 5 -8.5244 -12.3947 4.0872 0.4629 24.1501 0.0854
# 6 1.3476 -11.8444 6.8426 -0.8714 0.0854 18.5810
#
#
#
# Elastic Compliance Matrix: (Units=1/GPa)
#
#
# Indices 1 2 3 4 5 6 
#
# 1 0.010358 0.002762 -0.006305 -0.002042 0.006169 0.003207
# 2 0.002762 0.120032 -0.085476 0.003162 0.076605 0.107587
# 3 -0.006305 -0.085476 0.080612 -0.004929 -0.059348 -0.083674
# 4 -0.002042 0.003162 -0.004929 0.022785 0.001282 0.005042
# 5 0.006169 0.076605 -0.059348 0.001282 0.092674 0.069874
# 6 0.003207 0.107587 -0.083674 0.005042 0.069874 0.152895
#
#
# Mechanical properties :
#
#
# Convention : Reuss Voigt Hill
#
# Bulk Modulus (GPa) = 30.33598 42.42108 36.37853
# Shear Modulus (GPa) = 7.48073 27.63050 17.55562
#
# Velocity S-wave (km/s) = 1.83196 3.52078 2.80642
# Velocity P-wave (km/s) = 4.25257 5.96315 5.17897
#
# Compressibility (1/GPa) = 0.03296416
#
# Stress axis : x y z
#
# Youngs Moduli (GPa) = 96.53972 8.33112 12.40507
#
# Poissons Ratio (x) = -0.02301 0.07821
# Poissons Ratio (y) = -0.26662 1.06034
# Poissons Ratio (z) = 0.60864 0.71211
#
# Static dielectric constant tensor:
#      x y z
#    x 3.882200 0.131720 -0.121510 
#    y 0.131720 4.154890 0.321570 
#    z -0.121510 0.321570 4.303890 
# 
# 
# High freq. dielectric constant tensor:
#      x y z
#    x 1.893950 0.005550 -0.004670 
#    y 0.005550 1.883850 0.015050 
#    z -0.004670 0.015050 1.887980 
# 
# From -- ./inp_files/403510.got.cif
#   From: 2010.06.25/outbox.cif.g09.slc.cpg/sg2_202_cif.got.tgz:403510.got - 2010.06.27 13:26:56.
