data_PCOD8026970
_publ_section_title
;
Structure prediction by ZEFSAII (Michael W. Deem and Ramdas Pophale) SiO2 
 PCOD8026970
Probable space group: P -1
;
_chemical_formula_sum "Si O2"
_cell_formula_units_Z 12
_cell_length_a 15.022729
_cell_length_b 15.583536
_cell_length_c 9.480509
_cell_angle_alpha 36.670713
_cell_angle_beta 27.640864
_cell_angle_gamma 29.838375
_cell_volume 506.844641
_symmetry_space_group_name_H-M "P -1"
_symmetry_group_IT_number 2
_symmetry_cell_setting 'triclinic'
loop_
_space_group_symop_operation_xyz
x,y,z
-x,-y,-z
loop_
_atom_site_type_symbol
_atom_site_label
_atom_site_fract_x
_atom_site_fract_y
_atom_site_fract_z
Si Si1 0.081214 0.578554 0.462799
Si Si2 0.334534 0.691973 0.769364
Si Si3 0.460998 0.187908 0.462489
Si Si4 0.148082 0.578864 0.669672
Si Si5 0.544084 0.825396 0.832177
Si Si6 0.813350 0.193838 0.473742
O O1 0.204793 0.371176 0.595060
O O2 0.077987 0.670833 0.492110
O O3 0.821084 0.678066 0.637589
O O4 0.243999 0.586838 0.109522
O O5 0.349666 0.812634 0.703972
O O6 0.579426 0.564468 0.519818
O O7 0.169849 0.796312 0.731251
O O8 0.548882 0.162109 0.211975
O O9 0.465126 0.020275 0.728975
O O10 0.097008 0.702930 0.708606
O O11 0.000000 0.500000 0.000000
O O12 0.435839 0.756068 0.183707
O O13 0.000000 0.000000 0.500000
#
# Coordination Sequence:
#
# PCOD8026970 Si02
#       6
#     2   2   2   2   2   2
#     4  11  24  45  76 102 142 187 238 291 354 422
#     4  11  25  45  73 102 143 184 243 287 355 421
#     4  10  24  43  73 106 140 185 237 291 352 427
#     4  11  25  47  74 104 141 189 237 288 356 428
#     4  11  25  45  71 103 148 182 238 290 362 416
#     4  12  29  45  69 105 147 184 237 297 356 419
#
# _framework density 23.675892999999999
#
# number of rings (size 3 to 8) (size 9 to 14) (size 15 to 20)
#    0.000    1.000    0.000    6.000   11.667    2.667 
#    0.000    0.000    0.000    0.000    0.000    0.000 
#    0.000    0.000    0.000    0.000    0.000    0.000 
#
# Total GULP energy -148771.800899 kJ/mol
# GULP energy per Si atom -12397.650075 kJ/mol
# Density = 2.362201 g / cm^3
# Si number density = 23.675893 Si / 1000 Ang^3
#
#
#
# Elastic Constant Matrix: (Units=GPa)
#
#
# Indices 1 2 3 4 5 6 
#
# 1 171.5937 54.5099 42.0519 -12.7261 11.0406 15.5384
# 2 54.5099 119.9463 45.5500 -7.4305 -16.2629 6.5849
# 3 42.0519 45.5500 128.8867 -6.1474 -5.9478 -1.5249
# 4 -12.7261 -7.4305 -6.1474 32.1842 -3.3795 -4.1338
# 5 11.0406 -16.2629 -5.9478 -3.3795 39.3943 -6.6288
# 6 15.5384 6.5849 -1.5249 -4.1338 -6.6288 38.0950
#
#
#
# Elastic Compliance Matrix: (Units=1/GPa)
#
#
# Indices 1 2 3 4 5 6 
#
# 1 0.007945 -0.003331 -0.001597 0.001185 -0.004305 -0.003349
# 2 -0.003331 0.011708 -0.002720 0.001494 0.005544 0.000353
# 3 -0.001597 -0.002720 0.009355 0.000873 0.001112 0.001784
# 4 0.001185 0.001494 0.000873 0.032908 0.003834 0.003531
# 5 -0.004305 0.005544 0.001112 0.003834 0.030480 0.006562
# 6 -0.003349 0.000353 0.001784 0.003531 0.006562 0.029152
#
#
# Mechanical properties :
#
#
# Convention : Reuss Voigt Hill
#
# Bulk Modulus (GPa) = 72.91924 78.29450 75.60687
# Shear Modulus (GPa) = 35.35685 40.48902 37.92294
#
# Velocity S-wave (km/s) = 3.86861 4.13987 4.00653
# Velocity P-wave (km/s) = 7.12886 7.48281 7.30798
#
# Compressibility (1/GPa) = 0.01371380
#
# Stress axis : x y z
#
# Youngs Moduli (GPa) = 125.86026 85.40836 106.89293
#
# Poissons Ratio (x) = 0.28447 0.17070
# Poissons Ratio (y) = 0.41920 0.29074
# Poissons Ratio (z) = 0.20099 0.23231
#
# Static dielectric constant tensor:
#      x y z
#    x 5.263080 0.343910 1.027220 
#    y 0.343910 4.202570 0.459560 
#    z 1.027220 0.459560 4.868490 
# 
# 
# High freq. dielectric constant tensor:
#      x y z
#    x 1.960060 0.006030 0.007920 
#    y 0.006030 1.928520 0.000440 
#    z 0.007920 0.000440 1.939170 
# 
# From -- ./inp_files/149642.got.cif
#   From: 2010.06.25/outbox.cif.g09.slc.cpg/sg2_75_cif.got.tgz:149642.got - 2010.06.27 13:26:56.
