data_PCOD8026998
_publ_section_title
;
Structure prediction by ZEFSAII (Michael W. Deem and Ramdas Pophale) SiO2 
 PCOD8026998
Probable space group: P -1
;
_chemical_formula_sum "Si O2"
_cell_formula_units_Z 16
_cell_length_a 16.758179
_cell_length_b 8.097859
_cell_length_c 15.705017
_cell_angle_alpha 109.955956
_cell_angle_beta 26.475490
_cell_angle_gamma 92.637057
_cell_volume 701.250765
_symmetry_space_group_name_H-M "P -1"
_symmetry_group_IT_number 2
_symmetry_cell_setting 'triclinic'
loop_
_space_group_symop_operation_xyz
x,y,z
-x,-y,-z
loop_
_atom_site_type_symbol
_atom_site_label
_atom_site_fract_x
_atom_site_fract_y
_atom_site_fract_z
Si Si1 0.383878 0.725021 0.598300
Si Si2 0.850306 0.565981 0.070387
Si Si3 0.165393 0.717335 0.094644
Si Si4 0.001494 0.187272 0.128502
Si Si5 0.679980 0.635845 0.972416
Si Si6 0.812835 0.918023 0.893755
Si Si7 0.964974 0.756927 0.534776
Si Si8 0.759578 0.091647 0.662076
O O1 0.500000 0.500000 0.500000
O O2 0.579749 0.740243 0.381291
O O3 0.203396 0.932320 0.866007
O O4 0.246367 0.724453 0.650421
O O5 0.930055 0.663475 0.944972
O O6 0.892082 0.349513 0.949792
O O7 0.000000 0.500000 0.000000
O O8 0.308538 0.502133 0.981999
O O9 0.302511 0.817861 0.960774
O O10 0.929990 0.928173 0.395775
O O11 0.987588 0.194821 0.245629
O O12 0.643447 0.862978 0.076774
O O13 0.912111 0.487273 0.666758
O O14 0.475622 0.708846 0.119118
O O15 0.909505 0.780021 0.690093
O O16 0.154782 0.793401 0.345939
O O17 0.743482 0.943232 0.721129
#
# Coordination Sequence:
#
# PCOD8026998 Si02
#       8
#     2   2   2   2   2   2   2   2
#     4  11  24  45  70 100 132 177 227 280 341 408
#     4  12  24  45  72  98 136 181 225 284 343 401
#     4  10  24  44  61  96 137 167 217 283 326 392
#     4  11  25  46  68 101 138 177 227 278 343 412
#     4  11  21  41  67  95 126 174 225 261 336 401
#     4  11  23  42  65  95 135 170 217 277 332 399
#     4   9  20  39  62  93 133 168 212 278 322 391
#     4   9  20  40  67  93 129 173 220 268 331 395
#
# _framework density 22.816374
#
# number of rings (size 3 to 8) (size 9 to 14) (size 15 to 20)
#    0.000    1.500    2.500    2.625    1.750    3.500 
#    2.250    6.250    0.000    0.000    0.000    0.000 
#    0.000    0.000    0.000    0.000    0.000    0.000 
#
# Total GULP energy -198228.788855 kJ/mol
# GULP energy per Si atom -12389.299303 kJ/mol
# Density = 2.276444 g / cm^3
# Si number density = 22.816374 Si / 1000 Ang^3
#
#
#
# Elastic Constant Matrix: (Units=GPa)
#
#
# Indices 1 2 3 4 5 6 
#
# 1 108.9409 54.2684 9.0097 3.1007 -7.5970 -19.3868
# 2 54.2684 171.9683 23.1961 9.8792 -14.0901 -0.2481
# 3 9.0097 23.1961 47.0418 0.7199 -18.3723 -11.4314
# 4 3.1007 9.8792 0.7199 27.2187 3.5371 -1.0221
# 5 -7.5970 -14.0901 -18.3723 3.5371 35.4122 1.6263
# 6 -19.3868 -0.2481 -11.4314 -1.0221 1.6263 37.5084
#
#
#
# Elastic Compliance Matrix: (Units=1/GPa)
#
#
# Indices 1 2 3 4 5 6 
#
# 1 0.012364 -0.004015 0.001973 0.000027 0.001759 0.006890
# 2 -0.004015 0.007756 -0.003472 -0.002492 0.000819 -0.003186
# 3 0.001973 -0.003472 0.030684 -0.001316 0.014648 0.009677
# 4 0.000027 -0.002492 -0.001316 0.038430 -0.005548 0.000884
# 5 0.001759 0.000819 0.014648 -0.005548 0.036929 0.003627
# 6 0.006890 -0.003186 0.009677 0.000884 0.003627 0.033017
#
#
# Mechanical properties :
#
#
# Convention : Reuss Voigt Hill
#
# Bulk Modulus (GPa) = 25.14049 55.65549 40.39799
# Shear Modulus (GPa) = 27.25263 36.12630 31.68947
#
# Velocity S-wave (km/s) = 3.45981 3.98345 3.73083
# Velocity P-wave (km/s) = 5.19643 6.75299 6.02519
#
# Compressibility (1/GPa) = 0.03977648
#
# Stress axis : x y z
#
# Youngs Moduli (GPa) = 80.87722 128.93084 32.58975
#
# Poissons Ratio (x) = 0.51771 -0.06429
# Poissons Ratio (y) = 0.32476 0.11314
# Poissons Ratio (z) = -0.15956 0.44761
#
# Static dielectric constant tensor:
#      x y z
#    x 4.255960 0.086470 0.002810 
#    y 0.086470 4.742060 0.004020 
#    z 0.002810 0.004020 3.762620 
# 
# 
# High freq. dielectric constant tensor:
#      x y z
#    x 1.917300 -0.001640 0.006030 
#    y -0.001640 1.926080 0.006490 
#    z 0.006030 0.006490 1.856710 
# 
# From -- ./inp_files/529875.got.cif
#   From: 2010.06.25/outbox.cif.g09.slc.cpg/sg2_265_cif.got.tgz:529875.got - 2010.06.27 13:26:56.
