data_PCOD8026304
_publ_section_title
;
Structure prediction by ZEFSAII (Michael W. Deem and Ramdas Pophale) SiO2 
 PCOD8026304
Probable space group: P -1
;
_chemical_formula_sum "Si O2"
_cell_formula_units_Z 16
_cell_length_a 13.737396
_cell_length_b 19.692491
_cell_length_c 10.583521
_cell_angle_alpha 42.306044
_cell_angle_beta 32.622791
_cell_angle_gamma 30.073844
_cell_volume 772.869512
_symmetry_space_group_name_H-M "P -1"
_symmetry_group_IT_number 2
_symmetry_cell_setting 'triclinic'
loop_
_space_group_symop_operation_xyz
x,y,z
-x,-y,-z
loop_
_atom_site_type_symbol
_atom_site_label
_atom_site_fract_x
_atom_site_fract_y
_atom_site_fract_z
Si Si1 0.147985 0.364194 0.605062
Si Si2 0.320214 0.695653 0.190723
Si Si3 0.220141 0.129123 0.490017
Si Si4 0.728737 0.392650 0.114211
Si Si5 0.529261 0.151544 0.284041
Si Si6 0.526085 0.261807 0.519880
Si Si7 0.300673 0.023894 0.276386
Si Si8 0.246692 0.734407 0.507364
O O1 0.383640 0.239192 0.445945
O O2 0.247480 0.369942 0.623690
O O3 0.000000 0.500000 0.500000
O O4 0.978571 0.331766 0.860850
O O5 0.526856 0.553972 0.089588
O O6 0.348932 0.679235 0.332825
O O7 0.065410 0.743816 0.362224
O O8 0.325991 0.809192 0.986061
O O9 0.345104 0.181098 0.338382
O O10 0.304029 0.089303 0.308738
O O11 0.280747 0.006345 0.672245
O O12 0.660046 0.309031 0.243443
O O13 0.757694 0.369331 0.266877
O O14 0.564244 0.260655 0.631881
O O15 0.637943 0.113161 0.563288
O O16 0.029214 0.121097 0.382885
O O17 0.500000 0.000000 0.000000
#
# Coordination Sequence:
#
# PCOD8026304 Si02
#       8
#     2   2   2   2   2   2   2   2
#     4  12  24  44  66  96 131 168 221 265 320 387
#     4  11  22  44  66  91 132 168 213 267 317 399
#     4  10  25  42  63  94 126 172 215 264 325 375
#     4  10  24  41  65  96 129 169 209 267 322 384
#     4  11  24  44  63  93 129 170 220 263 319 383
#     4  10  24  41  64  97 127 168 214 270 323 373
#     4  11  21  42  69  97 132 169 218 272 316 385
#     4   9  23  41  64  97 127 169 214 259 332 377
#
# _framework density 20.702069999999999
#
# number of rings (size 3 to 8) (size 9 to 14) (size 15 to 20)
#    0.750    0.750    2.500    1.875    3.500    1.500 
#    9.000    0.625    0.000    0.000    0.000    0.000 
#    0.000    0.000    0.000    0.000    0.000    0.000 
#
# Total GULP energy -198303.374809 kJ/mol
# GULP energy per Si atom -12393.960926 kJ/mol
# Density = 2.065495 g / cm^3
# Si number density = 20.702070 Si / 1000 Ang^3
#
#
#
# Elastic Constant Matrix: (Units=GPa)
#
#
# Indices 1 2 3 4 5 6 
#
# 1 111.1866 27.2577 23.3820 7.8745 -17.0396 -18.1527
# 2 27.2577 66.2684 16.6597 -4.9948 -8.3505 -15.1344
# 3 23.3820 16.6597 103.1827 -5.2308 -7.1725 2.3570
# 4 7.8745 -4.9948 -5.2308 25.5075 0.7169 -4.6658
# 5 -17.0396 -8.3505 -7.1725 0.7169 28.9063 -0.0109
# 6 -18.1527 -15.1344 2.3570 -4.6658 -0.0109 27.7814
#
#
#
# Elastic Compliance Matrix: (Units=1/GPa)
#
#
# Indices 1 2 3 4 5 6 
#
# 1 0.012319 -0.002607 -0.002286 -0.003821 0.006039 0.006184
# 2 -0.002607 0.020030 -0.002329 0.006057 0.003525 0.010424
# 3 -0.002286 -0.002329 0.010798 0.001830 0.000612 -0.003371
# 4 -0.003821 0.006057 0.001830 0.043429 -0.001123 0.007941
# 5 0.006039 0.003525 0.000612 -0.001123 0.039354 0.005641
# 6 0.006184 0.010424 -0.003371 0.007941 0.005641 0.047336
#
#
# Mechanical properties :
#
#
# Convention : Reuss Voigt Hill
#
# Bulk Modulus (GPa) = 34.84059 46.13738 40.48899
# Shear Modulus (GPa) = 25.34477 30.66158 28.00317
#
# Velocity S-wave (km/s) = 3.50274 3.85266 3.68186
# Velocity P-wave (km/s) = 5.76411 6.49041 6.13801
#
# Compressibility (1/GPa) = 0.02870216
#
# Stress axis : x y z
#
# Youngs Moduli (GPa) = 81.17234 49.92628 92.61015
#
# Poissons Ratio (x) = 0.13018 0.21170
# Poissons Ratio (y) = 0.21165 0.21570
# Poissons Ratio (z) = 0.18555 0.11628
#
# Static dielectric constant tensor:
#      x y z
#    x 3.870840 -0.229040 -0.067670 
#    y -0.229040 3.703200 -0.099390 
#    z -0.067670 -0.099390 3.588660 
# 
# 
# High freq. dielectric constant tensor:
#      x y z
#    x 1.818050 -0.018620 -0.004190 
#    y -0.018620 1.808480 -0.009320 
#    z -0.004190 -0.009320 1.801720 
# 
# From -- ./inp_files/457468.got.cif
#   From: 2010.06.25/outbox.cif.g09.slc.cpg/sg2_229_cif.got.tgz:457468.got - 2010.06.27 13:26:56.
