data_PCOD8026944
_publ_section_title
;
Structure prediction by ZEFSAII (Michael W. Deem and Ramdas Pophale) SiO2 
 PCOD8026944
Probable space group: P -1
;
_chemical_formula_sum "Si O2"
_cell_formula_units_Z 16
_cell_length_a 11.422808
_cell_length_b 11.463218
_cell_length_c 7.882393
_cell_angle_alpha 86.387063
_cell_angle_beta 122.041136
_cell_angle_gamma 62.499495
_cell_volume 707.955568
_symmetry_space_group_name_H-M "P -1"
_symmetry_group_IT_number 2
_symmetry_cell_setting 'triclinic'
loop_
_space_group_symop_operation_xyz
x,y,z
-x,-y,-z
loop_
_atom_site_type_symbol
_atom_site_label
_atom_site_fract_x
_atom_site_fract_y
_atom_site_fract_z
Si Si1 0.740200 0.556087 0.048614
Si Si2 0.531159 0.280730 0.909289
Si Si3 0.334130 0.596864 0.254435
Si Si4 0.377086 0.143610 0.609613
Si Si5 0.106740 0.912744 0.749397
Si Si6 0.693884 0.828603 0.836559
Si Si7 0.993409 0.185247 0.804437
Si Si8 0.009082 0.266387 0.428036
O O1 0.587717 0.597738 0.055606
O O2 0.918143 0.432900 0.287894
O O3 0.715382 0.502096 0.857577
O O4 0.734607 0.696711 0.996265
O O5 0.625948 0.326830 0.860846
O O6 0.422610 0.242768 0.722957
O O7 0.698896 0.143887 0.140364
O O8 0.500000 0.500000 0.500000
O O9 0.184389 0.715871 0.247759
O O10 0.342591 0.189081 0.382750
O O11 0.210722 0.173821 0.567331
O O12 0.528582 0.975961 0.770494
O O13 0.074055 0.789563 0.758939
O O14 0.038316 0.024759 0.842903
O O15 0.000000 0.000000 0.500000
O O16 0.858508 0.829035 0.969408
O O17 0.974168 0.254213 0.598314
#
# Coordination Sequence:
#
# PCOD8026944 Si02
#       8
#     2   2   2   2   2   2   2   2
#     4  12  27  45  71 103 143 188 228 289 353 419
#     4  12  25  46  74 102 139 183 239 285 345 415
#     4  12  27  43  68 103 144 184 230 287 351 417
#     4  11  26  48  72 105 138 185 240 287 345 414
#     4  10  24  43  72 105 135 182 232 293 341 408
#     4  11  26  45  72 103 145 181 232 294 350 412
#     4  11  25  46  73 103 138 188 238 287 347 409
#     4  11  25  46  73 105 141 186 233 286 349 423
#
# _framework density 22.600290000000001
#
# number of rings (size 3 to 8) (size 9 to 14) (size 15 to 20)
#    0.000    0.750    2.500    3.375    7.000    8.500 
#    0.000    0.000    0.000    0.000    0.000    0.000 
#    0.000    0.000    0.000    0.000    0.000    0.000 
#
# Total GULP energy -198435.058500 kJ/mol
# GULP energy per Si atom -12402.191156 kJ/mol
# Density = 2.254885 g / cm^3
# Si number density = 22.600290 Si / 1000 Ang^3
#
#
#
# Elastic Constant Matrix: (Units=GPa)
#
#
# Indices 1 2 3 4 5 6 
#
# 1 99.5665 31.1447 13.5831 -12.1323 14.8363 -15.0727
# 2 31.1447 102.8301 30.5776 -14.2367 12.3491 -10.5161
# 3 13.5831 30.5776 105.8564 -10.3523 23.0385 -1.6036
# 4 -12.1323 -14.2367 -10.3523 42.7845 2.8699 7.2505
# 5 14.8363 12.3491 23.0385 2.8699 43.4986 -6.7224
# 6 -15.0727 -10.5161 -1.6036 7.2505 -6.7224 43.7729
#
#
#
# Elastic Compliance Matrix: (Units=1/GPa)
#
#
# Indices 1 2 3 4 5 6 
#
# 1 0.012023 -0.002731 0.000205 0.002320 -0.003183 0.002618
# 2 -0.002731 0.011916 -0.002612 0.002413 -0.001031 0.001269
# 3 0.000205 -0.002612 0.011705 0.002670 -0.005933 -0.001481
# 4 0.002320 0.002413 0.002670 0.026457 -0.005209 -0.003706
# 5 -0.003183 -0.001031 -0.005933 -0.005209 0.028420 0.003666
# 6 0.002618 0.001269 -0.001481 -0.003706 0.003666 0.025174
#
#
# Mechanical properties :
#
#
# Convention : Reuss Voigt Hill
#
# Bulk Modulus (GPa) = 39.41937 50.98488 45.20212
# Shear Modulus (GPa) = 37.19456 41.54104 39.36780
#
# Velocity S-wave (km/s) = 4.06119 4.29193 4.17815
# Velocity P-wave (km/s) = 6.28259 6.86799 6.58180
#
# Compressibility (1/GPa) = 0.02536824
#
# Stress axis : x y z
#
# Youngs Moduli (GPa) = 83.17237 83.91791 85.43459
#
# Poissons Ratio (x) = 0.22922 -0.01755
# Poissons Ratio (y) = 0.22718 0.22316
# Poissons Ratio (z) = -0.01709 0.21920
#
# Static dielectric constant tensor:
#      x y z
#    x 4.059170 0.292290 0.033010 
#    y 0.292290 4.895750 0.096590 
#    z 0.033010 0.096590 4.241880 
# 
# 
# High freq. dielectric constant tensor:
#      x y z
#    x 1.883710 -0.004450 0.007260 
#    y -0.004450 1.904280 -0.002160 
#    z 0.007260 -0.002160 1.916950 
# 
# From -- ./inp_files/262618.got.cif
#   From: 2010.06.25/outbox.cif.g09.slc.cpg/sg2_132_cif.got.tgz:262618.got - 2010.06.27 13:26:56.
