data_PCOD8026503
_publ_section_title
;
Structure prediction by ZEFSAII (Michael W. Deem and Ramdas Pophale) SiO2 
 PCOD8026503
Probable space group: P -1
;
_chemical_formula_sum "Si O2"
_cell_formula_units_Z 16
_cell_length_a 21.014733
_cell_length_b 10.977248
_cell_length_c 12.359987
_cell_angle_alpha 39.352267
_cell_angle_beta 151.842069
_cell_angle_gamma 148.473355
_cell_volume 700.825764
_symmetry_space_group_name_H-M "P -1"
_symmetry_group_IT_number 2
_symmetry_cell_setting 'triclinic'
loop_
_space_group_symop_operation_xyz
x,y,z
-x,-y,-z
loop_
_atom_site_type_symbol
_atom_site_label
_atom_site_fract_x
_atom_site_fract_y
_atom_site_fract_z
Si Si1 0.512399 0.892353 0.265205
Si Si2 0.407098 0.610859 0.680075
Si Si3 0.237040 0.233124 0.851959
Si Si4 0.990043 0.630234 0.500324
Si Si5 0.650088 0.919485 0.224825
Si Si6 0.308635 0.478989 0.401299
Si Si7 0.762555 0.212505 0.583226
Si Si8 0.046167 0.737472 0.963499
O O1 0.539390 0.859017 0.205630
O O2 0.401765 0.637022 0.328594
O O3 0.685673 0.028283 0.496030
O O4 0.424413 0.031463 0.026639
O O5 0.277942 0.350202 0.714249
O O6 0.341850 0.638400 0.447287
O O7 0.392178 0.777190 0.625687
O O8 0.590471 0.682691 0.892178
O O9 0.144004 0.303944 0.748034
O O10 0.121989 0.954473 0.844987
O O11 0.929791 0.451089 0.632652
O O12 0.000000 0.500000 0.500000
O O13 0.166620 0.857970 0.634285
O O14 0.637068 0.680759 0.356344
O O15 0.119689 0.315468 0.196406
O O16 0.817215 0.144944 0.818129
O O17 0.000000 0.500000 0.000000
#
# Coordination Sequence:
#
# PCOD8026503 Si02
#       8
#     2   2   2   2   2   2   2   2
#     4  11  26  45  73  99 141 186 237 291 346 419
#     4  10  24  42  68 100 138 179 231 286 346 419
#     4  10  24  42  67 101 138 180 234 284 349 422
#     4  11  22  45  71  96 137 180 233 288 346 413
#     4  11  25  47  71 104 137 186 236 293 351 413
#     4  12  25  44  69 104 142 185 231 291 352 422
#     4  11  24  44  69 102 137 186 231 285 354 415
#     4  12  25  43  65 101 143 181 225 285 355 416
#
# _framework density 22.830210999999998
#
# number of rings (size 3 to 8) (size 9 to 14) (size 15 to 20)
#    0.000    1.000    3.750    1.875    7.000    2.500 
#    0.000    5.000    0.000    0.000    0.000    0.000 
#    0.000    0.000    0.000    0.000    0.000    0.000 
#
# Total GULP energy -198232.669677 kJ/mol
# GULP energy per Si atom -12389.541855 kJ/mol
# Density = 2.277825 g / cm^3
# Si number density = 22.830211 Si / 1000 Ang^3
#
#
#
# Elastic Constant Matrix: (Units=GPa)
#
#
# Indices 1 2 3 4 5 6 
#
# 1 86.3884 31.3699 32.1198 3.0550 4.6182 13.2238
# 2 31.3699 133.6882 29.3737 -3.1353 3.0458 23.9638
# 3 32.1198 29.3737 108.7968 9.3619 -0.8925 9.0988
# 4 3.0550 -3.1353 9.3619 31.1075 -3.6947 4.6383
# 5 4.6182 3.0458 -0.8925 -3.6947 35.1678 5.4117
# 6 13.2238 23.9638 9.0988 4.6383 5.4117 36.8863
#
#
#
# Elastic Compliance Matrix: (Units=1/GPa)
#
#
# Indices 1 2 3 4 5 6 
#
# 1 0.014062 -0.002069 -0.003355 -0.000354 -0.001386 -0.002622
# 2 -0.002069 0.009330 -0.001676 0.002496 0.000498 -0.005293
# 3 -0.003355 -0.001676 0.010909 -0.003042 0.000558 -0.000099
# 4 -0.000354 0.002496 -0.003042 0.034713 0.004283 -0.005738
# 5 -0.001386 0.000498 0.000558 0.004283 0.029788 -0.004873
# 6 -0.002622 -0.005293 -0.000099 -0.005738 -0.004873 0.032950
#
#
# Mechanical properties :
#
#
# Convention : Reuss Voigt Hill
#
# Bulk Modulus (GPa) = 49.74884 57.17779 53.46332
# Shear Modulus (GPa) = 32.75429 36.36632 34.56030
#
# Velocity S-wave (km/s) = 3.79184 3.99545 3.89498
# Velocity P-wave (km/s) = 6.40381 6.81058 6.61033
#
# Compressibility (1/GPa) = 0.02010097
#
# Stress axis : x y z
#
# Youngs Moduli (GPa) = 71.11238 107.18208 91.66842
#
# Poissons Ratio (x) = 0.22181 0.30750
# Poissons Ratio (y) = 0.14716 0.15364
# Poissons Ratio (z) = 0.23855 0.17964
#
# Static dielectric constant tensor:
#      x y z
#    x 4.103520 0.208410 0.251410 
#    y 0.208410 4.120820 -0.209150 
#    z 0.251410 -0.209150 4.223080 
# 
# 
# High freq. dielectric constant tensor:
#      x y z
#    x 1.896440 0.017830 0.006980 
#    y 0.017830 1.910120 -0.002550 
#    z 0.006980 -0.002550 1.901340 
# 
# From -- ./inp_files/259053.got.cif
#   From: 2010.06.25/outbox.cif.g09.slc.cpg/sg2_130_cif.got.tgz:259053.got - 2010.06.27 13:26:56.
