data_PCOD8026805
_publ_section_title
;
Structure prediction by ZEFSAII (Michael W. Deem and Ramdas Pophale) SiO2 
 PCOD8026805
Probable space group: P -1
;
_chemical_formula_sum "Si O2"
_cell_formula_units_Z 16
_cell_length_a 13.389729
_cell_length_b 9.358527
_cell_length_c 8.954535
_cell_angle_alpha 106.534254
_cell_angle_beta 70.323586
_cell_angle_gamma 134.790844
_cell_volume 747.934686
_symmetry_space_group_name_H-M "P -1"
_symmetry_group_IT_number 2
_symmetry_cell_setting 'triclinic'
loop_
_space_group_symop_operation_xyz
x,y,z
-x,-y,-z
loop_
_atom_site_type_symbol
_atom_site_label
_atom_site_fract_x
_atom_site_fract_y
_atom_site_fract_z
Si Si1 0.427368 0.048679 0.949482
Si Si2 0.211071 0.353386 0.756129
Si Si3 0.610057 0.181008 0.605340
Si Si4 0.484072 0.563690 0.870159
Si Si5 0.004812 0.069310 0.352994
Si Si6 0.698273 0.582157 0.595650
Si Si7 0.116068 0.718926 0.570878
Si Si8 0.859428 0.368308 0.133232
O O1 0.527923 0.158328 0.786461
O O2 0.264646 0.846774 0.943880
O O3 0.428615 0.200928 0.088717
O O4 0.500000 0.000000 0.000000
O O5 0.318203 0.430821 0.864845
O O6 0.272511 0.344111 0.568039
O O7 0.184027 0.501524 0.789831
O O8 0.063409 0.117037 0.784253
O O9 0.677747 0.386084 0.550041
O O10 0.736660 0.179611 0.561950
O O11 0.500000 0.000000 0.500000
O O12 0.554478 0.531231 0.696985
O O13 0.500000 0.500000 0.000000
O O14 0.918890 0.142502 0.402204
O O15 0.175290 0.258474 0.300230
O O16 0.000000 0.000000 0.500000
O O17 0.118301 0.690145 0.737565
O O18 0.000000 0.500000 0.500000
O O19 0.000000 0.500000 0.000000
#
# Coordination Sequence:
#
# PCOD8026805 Si02
#       8
#     2   2   2   2   2   2   2   2
#     4  12  27  48  68 104 143 188 231 290 359 412
#     4  11  24  48  68 104 139 182 237 290 347 419
#     4  12  24  44  75 103 142 179 246 292 337 425
#     4  12  27  43  70  99 142 182 228 287 357 417
#     4  10  24  43  68 104 139 173 235 288 348 412
#     4  11  23  47  69 101 137 184 235 291 346 414
#     4  12  24  45  75 104 137 190 235 290 351 413
#     4  12  28  48  71 104 145 185 237 293 356 425
#
# _framework density 21.392242
#
# number of rings (size 3 to 8) (size 9 to 14) (size 15 to 20)
#    0.000    0.500    6.250    1.125    7.000    3.000 
#    0.000    1.250    0.000    0.000    0.000    0.000 
#    0.000    0.000    0.000    0.000    0.000    0.000 
#
# Total GULP energy -198348.601263 kJ/mol
# GULP energy per Si atom -12396.787579 kJ/mol
# Density = 2.134355 g / cm^3
# Si number density = 21.392242 Si / 1000 Ang^3
#
#
#
# Elastic Constant Matrix: (Units=GPa)
#
#
# Indices 1 2 3 4 5 6 
#
# 1 132.1840 52.7336 33.6348 6.8928 17.0647 -5.1125
# 2 52.7336 152.1935 20.8063 31.1222 21.3109 10.2309
# 3 33.6348 20.8063 77.7569 2.9686 10.8807 7.2101
# 4 6.8928 31.1222 2.9686 42.5463 8.6736 -0.1273
# 5 17.0647 21.3109 10.8807 8.6736 37.9665 1.1392
# 6 -5.1125 10.2309 7.2101 -0.1273 1.1392 49.9966
#
#
#
# Elastic Compliance Matrix: (Units=1/GPa)
#
#
# Indices 1 2 3 4 5 6 
#
# 1 0.009970 -0.003109 -0.003439 0.001338 -0.002122 0.002203
# 2 -0.003109 0.009373 -0.000414 -0.005852 -0.002344 -0.002138
# 3 -0.003439 -0.000414 0.015021 0.000320 -0.002529 -0.002375
# 4 0.001338 -0.005852 0.000320 0.028351 -0.003929 0.001450
# 5 -0.002122 -0.002344 -0.002529 -0.003929 0.030233 -0.000072
# 6 0.002203 -0.002138 -0.002375 0.001450 -0.000072 0.021012
#
#
# Mechanical properties :
#
#
# Convention : Reuss Voigt Hill
#
# Bulk Modulus (GPa) = 48.92267 64.05377 56.48822
# Shear Modulus (GPa) = 37.12047 43.09917 40.10982
#
# Velocity S-wave (km/s) = 4.17013 4.49342 4.33479
# Velocity P-wave (km/s) = 6.79011 7.54511 7.17754
#
# Compressibility (1/GPa) = 0.02044042
#
# Stress axis : x y z
#
# Youngs Moduli (GPa) = 100.30045 106.68914 66.57453
#
# Poissons Ratio (x) = 0.33169 0.22896
# Poissons Ratio (y) = 0.31183 0.02753
# Poissons Ratio (z) = 0.34495 0.04412
#
# Static dielectric constant tensor:
#      x y z
#    x 4.118870 0.095740 0.060830 
#    y 0.095740 4.288400 0.191310 
#    z 0.060830 0.191310 3.650770 
# 
# 
# High freq. dielectric constant tensor:
#      x y z
#    x 1.851870 0.000790 0.005620 
#    y 0.000790 1.862190 0.012850 
#    z 0.005620 0.012850 1.828900 
# 
# From -- ./inp_files/184074.got.cif
#   From: 2010.06.25/outbox.cif.g09.slc.cpg/sg2_93_cif.got.tgz:184074.got - 2010.06.27 13:26:56.
