data_PCOD8026397
_publ_section_title
;
Structure prediction by ZEFSAII (Michael W. Deem and Ramdas Pophale) SiO2 
 PCOD8026397
Probable space group: P -1
;
_chemical_formula_sum "Si O2"
_cell_formula_units_Z 14
_cell_length_a 11.359563
_cell_length_b 15.600049
_cell_length_c 5.291458
_cell_angle_alpha 67.661993
_cell_angle_beta 53.595202
_cell_angle_gamma 66.370740
_cell_volume 678.447766
_symmetry_space_group_name_H-M "P -1"
_symmetry_group_IT_number 2
_symmetry_cell_setting 'triclinic'
loop_
_space_group_symop_operation_xyz
x,y,z
-x,-y,-z
loop_
_atom_site_type_symbol
_atom_site_label
_atom_site_fract_x
_atom_site_fract_y
_atom_site_fract_z
Si Si1 0.374772 0.096039 0.066104
Si Si2 0.082559 0.711054 0.152241
Si Si3 0.624215 0.534688 0.648406
Si Si4 0.272032 0.663832 0.460439
Si Si5 0.786444 0.842137 0.283907
Si Si6 0.558659 0.707673 0.211292
Si Si7 0.805049 0.641270 0.594134
O O1 0.255519 0.097119 0.987565
O O2 0.455682 0.182760 0.821295
O O3 0.295129 0.100766 0.433849
O O4 0.500000 0.000000 0.000000
O O5 0.966278 0.814638 0.143574
O O6 0.985572 0.629284 0.393633
O O7 0.171185 0.710393 0.300406
O O8 0.191624 0.694158 0.793979
O O9 0.690981 0.451811 0.455662
O O10 0.536939 0.637512 0.542536
O O11 0.765042 0.549787 0.618721
O O12 0.500000 0.500000 0.000000
O O13 0.423074 0.703019 0.196897
O O14 0.735890 0.741545 0.419129
O O15 0.725837 0.658988 0.948646
#
# Coordination Sequence:
#
# PCOD8026397 Si02
#       7
#     2   2   2   2   2   2   2
#     4  11  21  39  72  99 114 156 218 265 307 376
#     4  10  24  42  59  92 127 176 202 258 310 371
#     4  12  23  39  61  92 129 171 215 260 313 354
#     4  12  25  37  62  92 127 169 219 246 302 387
#     4   9  20  41  62  88 129 158 195 261 321 351
#     4  11  23  42  62  90 131 163 208 272 316 354
#     4   9  22  39  63  80 125 174 205 248 320 354
#
# _framework density 20.635337
#
# number of rings (size 3 to 8) (size 9 to 14) (size 15 to 20)
#    0.857    0.571    2.857    2.571    4.000    1.143 
#    0.000    0.000    0.000    5.143    0.000    0.000 
#    0.000    0.000    0.000    0.000    0.000    0.000 
#
# Total GULP energy -173462.711594 kJ/mol
# GULP energy per Si atom -12390.193685 kJ/mol
# Density = 2.058837 g / cm^3
# Si number density = 20.635337 Si / 1000 Ang^3
#
#
#
# Elastic Constant Matrix: (Units=GPa)
#
#
# Indices 1 2 3 4 5 6 
#
# 1 105.6649 23.6186 18.6413 -5.9932 13.6305 -17.5714
# 2 23.6186 106.7469 19.2291 11.5043 8.8586 -11.6426
# 3 18.6413 19.2291 80.8408 12.5277 15.7679 -4.3972
# 4 -5.9932 11.5043 12.5277 27.1378 -3.3490 3.2371
# 5 13.6305 8.8586 15.7679 -3.3490 24.1137 2.8722
# 6 -17.5714 -11.6426 -4.3972 3.2371 2.8722 24.3553
#
#
#
# Elastic Compliance Matrix: (Units=1/GPa)
#
#
# Indices 1 2 3 4 5 6 
#
# 1 0.012323 -0.001254 -0.001096 0.001924 -0.006546 0.008609
# 2 -0.001254 0.011424 -0.000140 -0.006383 -0.004993 0.005968
# 3 -0.001096 -0.000140 0.016912 -0.010115 -0.012388 0.005000
# 4 0.001924 -0.006383 -0.010115 0.048018 0.015940 -0.011751
# 5 -0.006546 -0.004993 -0.012388 0.015940 0.059521 -0.018484
# 6 0.008609 0.005968 0.005000 -0.011751 -0.018484 0.054767
#
#
# Mechanical properties :
#
#
# Convention : Reuss Voigt Hill
#
# Bulk Modulus (GPa) = 28.02938 46.24787 37.13862
# Shear Modulus (GPa) = 22.74387 30.57225 26.65806
#
# Velocity S-wave (km/s) = 3.32351 3.85326 3.59815
# Velocity P-wave (km/s) = 5.32356 6.50058 5.94129
#
# Compressibility (1/GPa) = 0.03567686
#
# Stress axis : x y z
#
# Youngs Moduli (GPa) = 81.14989 87.53513 59.12990
#
# Poissons Ratio (x) = 0.10979 0.06483
# Poissons Ratio (y) = 0.10178 0.00830
# Poissons Ratio (z) = 0.08897 0.01229
#
# Static dielectric constant tensor:
#      x y z
#    x 3.817690 -0.078830 -0.016960 
#    y -0.078830 3.645050 0.067270 
#    z -0.016960 0.067270 3.680680 
# 
# 
# High freq. dielectric constant tensor:
#      x y z
#    x 1.811990 -0.007360 0.006330 
#    y -0.007360 1.779520 0.012680 
#    z 0.006330 0.012680 1.805510 
# 
# From -- ./inp_files/75623.got.cif
#   From: 2010.06.25/outbox.cif.g09.slc.cpg/sg2_38_cif.got.tgz:75623.got - 2010.06.27 13:26:56.
