data_PCOD8026342
_publ_section_title
;
Structure prediction by ZEFSAII (Michael W. Deem and Ramdas Pophale) SiO2 
 PCOD8026342
Probable space group: P -1
;
_chemical_formula_sum "Si O2"
_cell_formula_units_Z 16
_cell_length_a 9.289912
_cell_length_b 25.925377
_cell_length_c 15.282015
_cell_angle_alpha 151.798701
_cell_angle_beta 29.669591
_cell_angle_gamma 133.261072
_cell_volume 808.480359
_symmetry_space_group_name_H-M "P -1"
_symmetry_group_IT_number 2
_symmetry_cell_setting 'triclinic'
loop_
_space_group_symop_operation_xyz
x,y,z
-x,-y,-z
loop_
_atom_site_type_symbol
_atom_site_label
_atom_site_fract_x
_atom_site_fract_y
_atom_site_fract_z
Si Si1 0.903054 0.760925 0.558829
Si Si2 0.644916 0.235828 0.366466
Si Si3 0.062832 0.117092 0.631511
Si Si4 0.298009 0.709905 0.772118
Si Si5 0.745938 0.017040 0.087024
Si Si6 0.628904 0.530603 0.566594
Si Si7 0.051222 0.730996 0.241895
Si Si8 0.800848 0.387908 0.659107
O O1 0.650639 0.698415 0.588468
O O2 0.072067 0.762772 0.380061
O O3 0.144773 0.688459 0.395304
O O4 0.738464 0.894841 0.873097
O O5 0.801393 0.240914 0.198424
O O6 0.748867 0.310327 0.493097
O O7 0.271222 0.289896 0.638331
O O8 0.783884 0.098447 0.109823
O O9 0.934992 0.166885 0.677488
O O10 0.425159 0.090153 0.410977
O O11 0.000000 0.000000 0.500000
O O12 0.915457 0.208305 0.920673
O O13 0.248773 0.586288 0.615755
O O14 0.000000 0.000000 0.000000
O O15 0.500000 0.500000 0.500000
O O16 0.902863 0.579313 0.475258
O O17 0.347581 0.618784 0.900334
O O18 0.500000 0.500000 0.000000
#
# Coordination Sequence:
#
# PCOD8026342 Si02
#       8
#     2   2   2   2   2   2   2   2
#     4  11  23  42  68  95 128 167 213 256 320 375
#     4  10  25  43  64  95 131 162 214 259 321 371
#     4  11  22  39  67  92 126 163 217 260 310 367
#     4  11  24  42  68  96 123 171 213 264 310 372
#     4  11  23  42  65  91 131 169 203 261 319 378
#     4  12  23  43  68  91 129 167 217 258 310 378
#     4  10  24  41  67  96 123 168 216 260 308 378
#     4  12  26  43  65  93 132 169 208 263 320 371
#
# _framework density 19.790216000000001
#
# number of rings (size 3 to 8) (size 9 to 14) (size 15 to 20)
#    0.000    1.000    5.000    0.750    5.250    3.000 
#    2.250    0.625    0.000    0.000    0.000    0.000 
#    0.000    0.000    0.000    0.000    0.000    0.000 
#
# Total GULP energy -198411.919742 kJ/mol
# GULP energy per Si atom -12400.744984 kJ/mol
# Density = 1.974517 g / cm^3
# Si number density = 19.790216 Si / 1000 Ang^3
#
#
#
# Elastic Constant Matrix: (Units=GPa)
#
#
# Indices 1 2 3 4 5 6 
#
# 1 119.0999 57.7506 42.4665 -0.4558 -1.3611 -25.7809
# 2 57.7506 131.3937 50.8407 18.5117 1.0276 -26.1175
# 3 42.4665 50.8407 132.1863 5.7138 1.9901 -23.6397
# 4 -0.4558 18.5117 5.7138 33.2201 -5.8832 3.4550
# 5 -1.3611 1.0276 1.9901 -5.8832 27.0873 1.1923
# 6 -25.7809 -26.1175 -23.6397 3.4550 1.1923 41.2026
#
#
#
# Elastic Compliance Matrix: (Units=1/GPa)
#
#
# Indices 1 2 3 4 5 6 
#
# 1 0.011835 -0.004247 -0.001681 0.002688 0.001310 0.003485
# 2 -0.004247 0.012298 -0.002192 -0.007423 -0.002332 0.004570
# 3 -0.001681 -0.002192 0.009571 -0.000963 -0.001053 0.003161
# 4 0.002688 -0.007423 -0.000963 0.036712 0.008765 -0.006908
# 5 0.001310 -0.002332 -0.001053 0.008765 0.039191 -0.003132
# 6 0.003485 0.004570 0.003161 -0.006908 -0.003132 0.031831
#
#
# Mechanical properties :
#
#
# Convention : Reuss Voigt Hill
#
# Bulk Modulus (GPa) = 57.26539 76.08840 66.67690
# Shear Modulus (GPa) = 30.58088 35.74346 33.16217
#
# Velocity S-wave (km/s) = 3.93523 4.25445 4.09795
# Velocity P-wave (km/s) = 7.04607 7.91611 7.49373
#
# Compressibility (1/GPa) = 0.01746255
#
# Stress axis : x y z
#
# Youngs Moduli (GPa) = 84.49554 81.31240 104.48091
#
# Poissons Ratio (x) = 0.34537 0.17565
# Poissons Ratio (y) = 0.35889 0.22905
# Poissons Ratio (z) = 0.14205 0.17826
#
# Static dielectric constant tensor:
#      x y z
#    x 4.167890 -0.064990 0.958790 
#    y -0.064990 4.052390 0.358390 
#    z 0.958790 0.358390 5.691320 
# 
# 
# High freq. dielectric constant tensor:
#      x y z
#    x 1.771360 -0.012760 0.001640 
#    y -0.012760 1.785970 0.007320 
#    z 0.001640 0.007320 1.777720 
# 
# From -- ./inp_files/177376.got.cif
#   From: 2010.06.25/outbox.cif.g09.slc.cpg/sg2_89_cif.got.tgz:177376.got - 2010.06.27 13:26:56.
