data_PCOD8026855
_publ_section_title
;
Structure prediction by ZEFSAII (Michael W. Deem and Ramdas Pophale) SiO2 
 PCOD8026855
Probable space group: P -1
;
_chemical_formula_sum "Si O2"
_cell_formula_units_Z 16
_cell_length_a 9.093099
_cell_length_b 14.958781
_cell_length_c 13.118038
_cell_angle_alpha 119.708795
_cell_angle_beta 118.929491
_cell_angle_gamma 29.548744
_cell_volume 758.518868
_symmetry_space_group_name_H-M "P -1"
_symmetry_group_IT_number 2
_symmetry_cell_setting 'triclinic'
loop_
_space_group_symop_operation_xyz
x,y,z
-x,-y,-z
loop_
_atom_site_type_symbol
_atom_site_label
_atom_site_fract_x
_atom_site_fract_y
_atom_site_fract_z
Si Si1 0.726340 0.800453 0.786732
Si Si2 0.940228 0.751741 0.448271
Si Si3 0.735294 0.468317 0.034602
Si Si4 0.761105 0.586116 0.550142
Si Si5 0.908190 0.862816 0.147154
Si Si6 0.290564 0.039611 0.308123
Si Si7 0.181933 0.879820 0.093005
Si Si8 0.841829 0.183447 0.585984
O O1 0.631656 0.749783 0.659714
O O2 0.037100 0.621487 0.847834
O O3 0.451913 0.964566 0.864662
O O4 0.782736 0.868479 0.770926
O O5 0.634461 0.882733 0.362308
O O6 0.117711 0.554678 0.404351
O O7 0.118166 0.744099 0.438190
O O8 0.909301 0.811650 0.585352
O O9 0.523289 0.674582 0.058512
O O10 0.500000 0.500000 0.000000
O O11 0.939548 0.327373 0.927231
O O12 0.509519 0.660984 0.438929
O O13 0.000000 0.500000 0.500000
O O14 0.991361 0.887935 0.090138
O O15 0.051333 0.840771 0.281008
O O16 0.210053 0.961012 0.225558
O O17 0.000000 0.000000 0.000000
O O18 0.000000 0.000000 0.500000
#
# Coordination Sequence:
#
# PCOD8026855 Si02
#       8
#     2   2   2   2   2   2   2   2
#     4  12  23  46  68 100 135 179 226 277 339 403
#     4  11  24  41  64 102 136 178 223 274 334 404
#     4  10  24  43  69  95 127 176 223 274 338 402
#     4  12  26  41  68 102 140 182 225 277 337 406
#     4  11  24  45  70  95 134 179 224 282 335 404
#     4  11  22  40  69  96 136 174 221 275 334 399
#     4  11  25  45  68  99 132 173 226 279 343 404
#     4  12  24  45  67 100 138 178 226 276 346 396
#
# _framework density 21.093741000000001
#
# number of rings (size 3 to 8) (size 9 to 14) (size 15 to 20)
#    0.000    0.750    3.750    3.750    7.000    1.000 
#    2.250    1.250    0.000    0.000    0.000    0.000 
#    0.000    0.000    0.000    0.000    0.000    0.000 
#
# Total GULP energy -198426.692839 kJ/mol
# GULP energy per Si atom -12401.668302 kJ/mol
# Density = 2.104573 g / cm^3
# Si number density = 21.093741 Si / 1000 Ang^3
#
#
#
# Elastic Constant Matrix: (Units=GPa)
#
#
# Indices 1 2 3 4 5 6 
#
# 1 88.6008 24.5680 12.8831 -7.5220 -16.2874 -3.7077
# 2 24.5680 118.2132 31.9996 -10.8603 -15.0331 -2.1330
# 3 12.8831 31.9996 94.8698 -9.6285 -7.2198 -3.1050
# 4 -7.5220 -10.8603 -9.6285 38.9983 0.6354 5.1524
# 5 -16.2874 -15.0331 -7.2198 0.6354 34.8459 -1.6572
# 6 -3.7077 -2.1330 -3.1050 5.1524 -1.6572 41.8043
#
#
#
# Elastic Compliance Matrix: (Units=1/GPa)
#
#
# Indices 1 2 3 4 5 6 
#
# 1 0.012991 -0.001703 -0.000589 0.001665 0.005234 0.001024
# 2 -0.001703 0.010101 -0.002772 0.001744 0.002958 0.000061
# 3 -0.000589 -0.002772 0.011844 0.001959 0.000970 0.000483
# 4 0.001665 0.001744 0.001959 0.027299 0.001300 -0.002931
# 5 0.005234 0.002958 0.000970 0.001300 0.032684 0.001823
# 6 0.001024 0.000061 0.000483 -0.002931 0.001823 0.024484
#
#
# Mechanical properties :
#
#
# Convention : Reuss Voigt Hill
#
# Bulk Modulus (GPa) = 40.30906 48.95392 44.63149
# Shear Modulus (GPa) = 36.28430 38.61188 37.44809
#
# Velocity S-wave (km/s) = 4.15196 4.28306 4.21802
# Velocity P-wave (km/s) = 6.49123 6.90780 6.70275
#
# Compressibility (1/GPa) = 0.02480832
#
# Stress axis : x y z
#
# Youngs Moduli (GPa) = 76.97727 98.99896 84.43029
#
# Poissons Ratio (x) = 0.16864 0.04971
# Poissons Ratio (y) = 0.13113 0.23401
# Poissons Ratio (z) = 0.04532 0.27439
#
# Static dielectric constant tensor:
#      x y z
#    x 3.852730 0.159750 0.278220 
#    y 0.159750 3.721710 -0.228720 
#    z 0.278220 -0.228720 3.628490 
# 
# 
# High freq. dielectric constant tensor:
#      x y z
#    x 1.823490 -0.002560 0.012160 
#    y -0.002560 1.840800 -0.000060 
#    z 0.012160 -0.000060 1.836510 
# 
# From -- ./inp_files/177355.got.cif
#   From: 2010.06.25/outbox.cif.g09.slc.cpg/sg2_89_cif.got.tgz:177355.got - 2010.06.27 13:26:56.
