data_PCOD8026490
_publ_section_title
;
Structure prediction by ZEFSAII (Michael W. Deem and Ramdas Pophale) SiO2 
 PCOD8026490
Probable space group: P -1
;
_chemical_formula_sum "Si O2"
_cell_formula_units_Z 14
_cell_length_a 9.714536
_cell_length_b 18.921003
_cell_length_c 6.854853
_cell_angle_alpha 128.233391
_cell_angle_beta 47.412993
_cell_angle_gamma 131.977456
_cell_volume 657.046054
_symmetry_space_group_name_H-M "P -1"
_symmetry_group_IT_number 2
_symmetry_cell_setting 'triclinic'
loop_
_space_group_symop_operation_xyz
x,y,z
-x,-y,-z
loop_
_atom_site_type_symbol
_atom_site_label
_atom_site_fract_x
_atom_site_fract_y
_atom_site_fract_z
Si Si1 0.174315 0.178498 0.695168
Si Si2 0.874543 0.468584 0.366543
Si Si3 0.126920 0.828838 0.351523
Si Si4 0.434891 0.404192 0.758562
Si Si5 0.879817 0.049976 0.091059
Si Si6 0.872504 0.606994 0.280631
Si Si7 0.542210 0.911983 0.900839
O O1 0.270856 0.299340 0.828543
O O2 0.352086 0.138551 0.433190
O O3 0.017334 0.139872 0.596705
O O4 0.037817 0.134295 0.941040
O O5 0.640389 0.388118 0.494905
O O6 0.850552 0.559801 0.435739
O O7 0.000000 0.500000 0.500000
O O8 0.980338 0.420909 0.043637
O O9 0.214108 0.902437 0.576425
O O10 0.983761 0.723907 0.405355
O O11 0.321503 0.827842 0.044222
O O12 0.346396 0.426254 0.678094
O O13 0.500000 0.500000 0.000000
O O14 0.691779 0.960023 0.018507
O O15 0.000000 0.000000 0.000000
O O16 0.500000 0.000000 0.000000
#
# Coordination Sequence:
#
# PCOD8026490 Si02
#       7
#     2   2   2   2   2   2   2
#     4  11  25  45  66  99 140 170 221 286 325 392
#     4  11  22  43  64  94 133 167 222 274 323 385
#     4  11  24  43  67  99 131 174 223 267 335 394
#     4  11  23  43  69  95 131 179 220 265 337 391
#     4  12  24  44  68  96 134 174 220 271 333 398
#     4  10  24  42  66  94 131 175 217 273 323 396
#     4  12  23  45  71  94 135 176 217 275 337 393
#
# _framework density 21.307486000000001
#
# number of rings (size 3 to 8) (size 9 to 14) (size 15 to 20)
#    0.000    0.857    4.286    3.000    2.000    0.000 
#    5.143    0.000    0.000    0.000    0.000    0.000 
#    0.000    0.000    0.000    0.000    0.000    0.000 
#
# Total GULP energy -173562.474566 kJ/mol
# GULP energy per Si atom -12397.319612 kJ/mol
# Density = 2.125899 g / cm^3
# Si number density = 21.307486 Si / 1000 Ang^3
#
#
#
# Elastic Constant Matrix: (Units=GPa)
#
#
# Indices 1 2 3 4 5 6 
#
# 1 136.5006 40.1303 16.8618 -4.9521 4.2763 0.2295
# 2 40.1303 80.0414 14.3177 -6.0889 13.9038 -0.2597
# 3 16.8618 14.3177 72.1506 -3.1479 -4.0844 3.1569
# 4 -4.9521 -6.0889 -3.1479 37.8611 3.0749 -0.8216
# 5 4.2763 13.9038 -4.0844 3.0749 39.1079 -7.2394
# 6 0.2295 -0.2597 3.1569 -0.8216 -7.2394 39.9363
#
#
#
# Elastic Compliance Matrix: (Units=1/GPa)
#
#
# Indices 1 2 3 4 5 6 
#
# 1 0.008704 -0.004201 -0.001167 0.000335 0.000411 0.000096
# 2 -0.004201 0.016232 -0.002440 0.002320 -0.005877 -0.000695
# 3 -0.001167 -0.002440 0.014804 0.000478 0.002367 -0.000741
# 4 0.000335 0.002320 0.000478 0.027108 -0.002943 0.000000
# 5 0.000411 -0.005877 0.002367 -0.002943 0.029014 0.004971
# 6 0.000096 -0.000695 -0.000741 0.000000 0.004971 0.025994
#
#
# Mechanical properties :
#
#
# Convention : Reuss Voigt Hill
#
# Bulk Modulus (GPa) = 41.45348 47.92361 44.68854
# Shear Modulus (GPa) = 34.36109 37.87325 36.11717
#
# Velocity S-wave (km/s) = 4.02011 4.22057 4.12156
# Velocity P-wave (km/s) = 6.40668 6.80376 6.60820
#
# Compressibility (1/GPa) = 0.02412343
#
# Stress axis : x y z
#
# Youngs Moduli (GPa) = 114.88597 61.60858 67.54900
#
# Poissons Ratio (x) = 0.25882 0.07882
# Poissons Ratio (y) = 0.48264 0.16484
# Poissons Ratio (z) = 0.13406 0.15034
#
# Static dielectric constant tensor:
#      x y z
#    x -16.406950 -5.353770 -35.680310 
#    y -5.353770 2.491250 -9.359850 
#    z -35.680310 -9.359850 -58.027830 
# 
# 
# High freq. dielectric constant tensor:
#      x y z
#    x 1.849570 0.001930 -0.007250 
#    y 0.001930 1.840470 -0.005800 
#    z -0.007250 -0.005800 1.835110 
# 
# From -- ./inp_files/38294.got.cif
#   From: 2010.06.25/outbox.cif.g09.slc.cpg/sg2_20_cif.got.tgz:38294.got - 2010.06.27 13:26:56.
