data_PCOD8026101
_publ_section_title
;
Structure prediction by ZEFSAII (Michael W. Deem and Ramdas Pophale) SiO2 
 PCOD8026101
Probable space group: P -1
;
_chemical_formula_sum "Si O2"
_cell_formula_units_Z 14
_cell_length_a 15.823392
_cell_length_b 15.609322
_cell_length_c 9.299671
_cell_angle_alpha 50.685971
_cell_angle_beta 69.397712
_cell_angle_gamma 26.134829
_cell_volume 603.753303
_symmetry_space_group_name_H-M "P -1"
_symmetry_group_IT_number 2
_symmetry_cell_setting 'triclinic'
loop_
_space_group_symop_operation_xyz
x,y,z
-x,-y,-z
loop_
_atom_site_type_symbol
_atom_site_label
_atom_site_fract_x
_atom_site_fract_y
_atom_site_fract_z
Si Si1 0.125768 0.094861 0.160073
Si Si2 0.755630 0.089763 0.391022
Si Si3 0.233541 0.285439 0.282293
Si Si4 0.016349 0.318834 0.521214
Si Si5 0.475445 0.025506 0.818999
Si Si6 0.427572 0.823648 0.015018
Si Si7 0.275029 0.617734 0.932109
O O1 0.976293 0.161010 0.112610
O O2 0.939809 0.410189 0.932010
O O3 0.240840 0.940537 0.411173
O O4 0.371191 0.839423 0.189295
O O5 0.788134 0.181616 0.245115
O O6 0.991490 0.757713 0.527593
O O7 0.497526 0.339025 0.209384
O O8 0.093276 0.349401 0.379927
O O9 0.500000 0.000000 0.500000
O O10 0.294074 0.185083 0.184563
O O11 0.195063 0.058497 0.805393
O O12 0.765455 0.623521 0.438516
O O13 0.456305 0.922177 0.887235
O O14 0.500000 0.000000 0.000000
O O15 0.662132 0.496045 0.147554
#
# Coordination Sequence:
#
# PCOD8026101 Si02
#       7
#     2   2   2   2   2   2   2
#     4  12  23  41  68  97 127 171 218 264 325 374
#     4  10  24  44  69  95 126 173 218 267 315 391
#     4  12  22  39  66  91 131 176 207 255 329 382
#     4  11  23  42  61  93 131 165 211 259 319 387
#     4  12  24  37  59  96 129 164 210 262 315 380
#     4  11  23  42  63  95 127 168 215 264 317 385
#     4  10  23  49  67  90 133 168 217 269 325 373
#
# _framework density 23.188276999999999
#
# number of rings (size 3 to 8) (size 9 to 14) (size 15 to 20)
#    0.000    0.857    4.286    3.429    2.000    1.714 
#    0.000    7.857    0.000    0.000    0.000    0.000 
#    0.000    0.000    0.000    0.000    0.000    0.000 
#
# Total GULP energy -173569.934891 kJ/mol
# GULP energy per Si atom -12397.852492 kJ/mol
# Density = 2.313550 g / cm^3
# Si number density = 23.188277 Si / 1000 Ang^3
#
#
#
# Elastic Constant Matrix: (Units=GPa)
#
#
# Indices 1 2 3 4 5 6 
#
# 1 69.2671 15.0576 24.0415 -5.6807 -11.7951 21.6844
# 2 15.0576 80.7577 10.0931 11.3772 -4.3402 -5.7282
# 3 24.0415 10.0931 79.6520 14.7111 -7.1006 1.2973
# 4 -5.6807 11.3772 14.7111 34.7431 8.6498 -0.4430
# 5 -11.7951 -4.3402 -7.1006 8.6498 26.7886 3.0822
# 6 21.6844 -5.7282 1.2973 -0.4430 3.0822 23.4527
#
#
#
# Elastic Compliance Matrix: (Units=1/GPa)
#
#
# Indices 1 2 3 4 5 6 
#
# 1 0.031743 -0.007636 -0.008537 0.008012 0.011584 -0.032113
# 2 -0.007636 0.015369 0.001514 -0.006927 0.000555 0.010526
# 3 -0.008537 0.001514 0.016946 -0.009823 0.003379 0.006697
# 4 0.008012 -0.006927 -0.009823 0.039487 -0.012235 -0.006202
# 5 0.011584 0.000555 0.003379 -0.012235 0.049378 -0.017483
# 6 -0.032113 0.010526 0.006697 -0.006202 -0.017483 0.076712
#
#
# Mechanical properties :
#
#
# Convention : Reuss Voigt Hill
#
# Bulk Modulus (GPa) = 28.78429 36.45125 32.61777
# Shear Modulus (GPa) = 18.48204 29.02919 23.75561
#
# Velocity S-wave (km/s) = 2.82626 3.54205 3.20420
# Velocity P-wave (km/s) = 4.80526 5.69929 5.27126
#
# Compressibility (1/GPa) = 0.03474118
#
# Stress axis : x y z
#
# Youngs Moduli (GPa) = 31.50312 65.06422 59.01090
#
# Poissons Ratio (x) = 0.49680 0.50380
# Poissons Ratio (y) = 0.24054 -0.08937
# Poissons Ratio (z) = 0.26896 -0.09854
#
# Static dielectric constant tensor:
#      x y z
#    x 4.281420 0.040950 0.185720 
#    y 0.040950 4.064180 0.128300 
#    z 0.185720 0.128300 4.343490 
# 
# 
# High freq. dielectric constant tensor:
#      x y z
#    x 1.912280 0.012610 0.003090 
#    y 0.012610 1.921750 0.005500 
#    z 0.003090 0.005500 1.920220 
# 
# From -- ./inp_files/178555.got.cif
#   From: 2010.06.25/outbox.cif.g09.slc.cpg/sg2_90_cif.got.tgz:178555.got - 2010.06.27 13:26:56.
