data_PCOD8026909
_publ_section_title
;
Structure prediction by ZEFSAII (Michael W. Deem and Ramdas Pophale) SiO2 
 PCOD8026909
Probable space group: P -1
;
_chemical_formula_sum "Si O2"
_cell_formula_units_Z 16
_cell_length_a 11.017816
_cell_length_b 9.646990
_cell_length_c 11.932313
_cell_angle_alpha 68.792320
_cell_angle_beta 143.144853
_cell_angle_gamma 103.757885
_cell_volume 706.152794
_symmetry_space_group_name_H-M "P -1"
_symmetry_group_IT_number 2
_symmetry_cell_setting 'triclinic'
loop_
_space_group_symop_operation_xyz
x,y,z
-x,-y,-z
loop_
_atom_site_type_symbol
_atom_site_label
_atom_site_fract_x
_atom_site_fract_y
_atom_site_fract_z
Si Si1 0.849843 0.631146 0.302447
Si Si2 0.801919 0.403258 0.691636
Si Si3 0.448227 0.009542 0.151193
Si Si4 0.994087 0.868983 0.190505
Si Si5 0.331563 0.074108 0.436520
Si Si6 0.452885 0.779376 0.032536
Si Si7 0.796619 0.488650 0.087385
Si Si8 0.639694 0.594607 0.709683
O O1 0.674541 0.689662 0.243199
O O2 0.720279 0.573490 0.119047
O O3 0.000000 0.500000 0.500000
O O4 0.983472 0.763997 0.323474
O O5 0.903198 0.231310 0.807041
O O6 0.747527 0.450524 0.765495
O O7 0.600951 0.417544 0.463134
O O8 0.957407 0.516927 0.726375
O O9 0.606741 0.961350 0.379510
O O10 0.401066 0.872319 0.078510
O O11 0.545743 0.127442 0.108469
O O12 0.234830 0.072617 0.031504
O O13 0.120049 0.007011 0.273379
O O14 0.304116 0.252372 0.349803
O O15 0.500000 0.000000 0.500000
O O16 0.270082 0.676042 0.917011
O O17 0.713460 0.589888 0.892516
#
# Coordination Sequence:
#
# PCOD8026909 Si02
#       8
#     2   2   2   2   2   2   2   2
#     4  10  24  43  71 102 135 177 230 286 339 404
#     4  10  24  44  67 101 140 179 229 282 333 406
#     4  10  26  48  65  99 145 173 231 280 342 405
#     4  10  24  45  68  98 133 184 224 275 340 406
#     4  12  27  42  73  98 137 187 224 279 339 414
#     4  10  24  46  70  99 137 185 220 290 340 404
#     4  11  25  41  73 100 136 179 230 280 346 406
#     4  11  26  44  66 103 142 179 230 285 339 399
#
# _framework density 22.657986000000001
#
# number of rings (size 3 to 8) (size 9 to 14) (size 15 to 20)
#    0.000    1.500    1.250    0.750   15.750    1.500 
#    0.000    1.875    0.000    0.000    0.000    0.000 
#    0.000    0.000    0.000    0.000    0.000    0.000 
#
# Total GULP energy -198394.767148 kJ/mol
# GULP energy per Si atom -12399.672947 kJ/mol
# Density = 2.260642 g / cm^3
# Si number density = 22.657986 Si / 1000 Ang^3
#
#
#
# Elastic Constant Matrix: (Units=GPa)
#
#
# Indices 1 2 3 4 5 6 
#
# 1 73.3840 57.5861 40.9986 2.0905 6.7163 -7.2072
# 2 57.5861 143.2465 64.9165 11.7414 10.4024 10.7713
# 3 40.9986 64.9165 101.7954 2.6652 -8.2429 8.6071
# 4 2.0905 11.7414 2.6652 34.3009 6.7177 11.2466
# 5 6.7163 10.4024 -8.2429 6.7177 36.1308 6.3240
# 6 -7.2072 10.7713 8.6071 11.2466 6.3240 52.5598
#
#
#
# Elastic Compliance Matrix: (Units=1/GPa)
#
#
# Indices 1 2 3 4 5 6 
#
# 1 0.023342 -0.006805 -0.005979 0.000329 -0.004871 0.006090
# 2 -0.006805 0.012685 -0.005365 -0.002359 -0.002856 -0.001806
# 3 -0.005979 -0.005365 0.016480 0.000685 0.006883 -0.003394
# 4 0.000329 -0.002359 0.000685 0.032710 -0.004244 -0.006072
# 5 -0.004871 -0.002856 0.006883 -0.004244 0.032502 -0.004212
# 6 0.006090 -0.001806 -0.003394 -0.006072 -0.004212 0.022593
#
#
# Mechanical properties :
#
#
# Convention : Reuss Voigt Hill
#
# Bulk Modulus (GPa) = 61.70198 71.71427 66.70812
# Shear Modulus (GPa) = 27.47044 34.92662 31.19853
#
# Velocity S-wave (km/s) = 3.48572 3.93042 3.71473
# Velocity P-wave (km/s) = 6.59480 7.23305 6.92129
#
# Compressibility (1/GPa) = 0.01620694
#
# Stress axis : x y z
#
# Youngs Moduli (GPa) = 42.84057 78.83514 60.68053
#
# Poissons Ratio (x) = 0.53649 0.36284
# Poissons Ratio (y) = 0.29154 0.32557
# Poissons Ratio (z) = 0.25616 0.42297
#
# Static dielectric constant tensor:
#      x y z
#    x 4.219020 -0.070720 0.084520 
#    y -0.070720 4.311110 0.111890 
#    z 0.084520 0.111890 3.908170 
# 
# 
# High freq. dielectric constant tensor:
#      x y z
#    x 1.899990 -0.002500 0.007370 
#    y -0.002500 1.905320 0.009830 
#    z 0.007370 0.009830 1.881790 
# 
# From -- ./inp_files/417249.got.cif
#   From: 2010.06.25/outbox.cif.g09.slc.cpg/sg2_209_cif.got.tgz:417249.got - 2010.06.27 13:26:56.
