data_PCOD8026211
_publ_section_title
;
Structure prediction by ZEFSAII (Michael W. Deem and Ramdas Pophale) SiO2 
 PCOD8026211
Probable space group: P -1
;
_chemical_formula_sum "Si O2"
_cell_formula_units_Z 16
_cell_length_a 14.833450
_cell_length_b 8.760113
_cell_length_c 15.329418
_cell_angle_alpha 37.637448
_cell_angle_beta 35.672216
_cell_angle_gamma 46.789116
_cell_volume 704.539395
_symmetry_space_group_name_H-M "P -1"
_symmetry_group_IT_number 2
_symmetry_cell_setting 'triclinic'
loop_
_space_group_symop_operation_xyz
x,y,z
-x,-y,-z
loop_
_atom_site_type_symbol
_atom_site_label
_atom_site_fract_x
_atom_site_fract_y
_atom_site_fract_z
Si Si1 0.220131 0.447627 0.364693
Si Si2 0.409191 0.679628 0.642314
Si Si3 0.914134 0.750511 0.770764
Si Si4 0.547464 0.158780 0.279589
Si Si5 0.973147 0.720420 0.546446
Si Si6 0.585230 0.833708 0.080899
Si Si7 0.858526 0.533498 0.158751
Si Si8 0.284094 0.908782 0.992465
O O1 0.388970 0.349844 0.313669
O O2 0.161929 0.239004 0.439643
O O3 0.102056 0.490675 0.519595
O O4 0.203537 0.706262 0.203596
O O5 0.359893 0.808646 0.717172
O O6 0.503570 0.407876 0.716105
O O7 0.275285 0.618513 0.708171
O O8 0.515295 0.866459 0.426933
O O9 0.892300 0.662255 0.728209
O O10 0.075492 0.592567 0.746315
O O11 0.761519 0.719536 0.964181
O O12 0.932627 0.042654 0.626465
O O13 0.651088 0.224611 0.086861
O O14 0.578874 0.009438 0.091101
O O15 0.500000 0.000000 0.000000
O O16 0.821053 0.832971 0.066436
O O17 0.000000 0.500000 0.000000
#
# Coordination Sequence:
#
# PCOD8026211 Si02
#       8
#     2   2   2   2   2   2   2   2
#     4  11  22  44  65  92 138 165 212 269 324 382
#     4  10  24  43  64  93 131 170 213 262 324 373
#     4  11  22  43  65  98 123 171 218 262 322 381
#     4  11  25  42  65  97 131 171 214 267 322 387
#     4  10  24  40  65  97 124 170 216 261 327 380
#     4  11  23  41  68  93 130 167 216 269 315 379
#     4  11  21  43  66  89 133 167 215 265 311 384
#     4  11  24  40  65  98 124 170 216 260 323 381
#
# _framework density 22.709873000000002
#
# number of rings (size 3 to 8) (size 9 to 14) (size 15 to 20)
#    0.000    1.250    3.750    1.875    3.500    5.000 
#    2.250    1.250    0.000    0.000    0.000    0.000 
#    0.000    0.000    0.000    0.000    0.000    0.000 
#
# Total GULP energy -198237.387702 kJ/mol
# GULP energy per Si atom -12389.836731 kJ/mol
# Density = 2.265818 g / cm^3
# Si number density = 22.709873 Si / 1000 Ang^3
#
#
#
# Elastic Constant Matrix: (Units=GPa)
#
#
# Indices 1 2 3 4 5 6 
#
# 1 89.8078 34.7231 4.3838 -4.4241 11.6404 -7.0589
# 2 34.7231 69.7983 12.0759 -1.8784 3.0942 -4.1171
# 3 4.3838 12.0759 55.8455 -10.0966 3.2203 7.0163
# 4 -4.4241 -1.8784 -10.0966 38.6702 5.4280 9.3243
# 5 11.6404 3.0942 3.2203 5.4280 31.1286 -1.4133
# 6 -7.0589 -4.1171 7.0163 9.3243 -1.4133 45.3331
#
#
#
# Elastic Compliance Matrix: (Units=1/GPa)
#
#
# Indices 1 2 3 4 5 6 
#
# 1 0.014697 -0.007136 0.000957 0.002099 -0.005211 0.000898
# 2 -0.007136 0.018553 -0.004023 -0.001566 0.001585 0.001568
# 3 0.000957 -0.004023 0.020811 0.007054 -0.003568 -0.004999
# 4 0.002099 -0.001566 0.007054 0.030645 -0.007040 -0.007430
# 5 -0.005211 0.001585 -0.003568 -0.007040 0.035623 0.002443
# 6 0.000898 0.001568 -0.004999 -0.007430 0.002443 0.024719
#
#
# Mechanical properties :
#
#
# Convention : Reuss Voigt Hill
#
# Bulk Modulus (GPa) = 29.71353 35.31303 32.51328
# Shear Modulus (GPa) = 28.30091 33.97765 31.13928
#
# Velocity S-wave (km/s) = 3.53398 3.87222 3.70696
# Velocity P-wave (km/s) = 5.45567 5.96452 5.71576
#
# Compressibility (1/GPa) = 0.03365470
#
# Stress axis : x y z
#
# Youngs Moduli (GPa) = 68.04217 53.89864 48.05254
#
# Poissons Ratio (x) = 0.38464 -0.04597
# Poissons Ratio (y) = 0.48557 0.19333
# Poissons Ratio (z) = -0.06509 0.21685
#
# Static dielectric constant tensor:
#      x y z
#    x 2.116310 1.582320 -0.025060 
#    y 1.582320 3.149570 -0.057430 
#    z -0.025060 -0.057430 4.083390 
# 
# 
# High freq. dielectric constant tensor:
#      x y z
#    x 1.905230 0.016200 0.012170 
#    y 0.016200 1.885700 -0.016930 
#    z 0.012170 -0.016930 1.891260 
# 
# From -- ./inp_files/528046.got.cif
#   From: 2010.06.25/outbox.cif.g09.slc.cpg/sg2_265_cif.got.tgz:528046.got - 2010.06.27 13:26:56.
