data_PCOD8026482
_publ_section_title
;
Structure prediction by ZEFSAII (Michael W. Deem and Ramdas Pophale) SiO2 
 PCOD8026482
Probable space group: P -1
;
_chemical_formula_sum "Si O2"
_cell_formula_units_Z 16
_cell_length_a 6.595483
_cell_length_b 16.210269
_cell_length_c 19.214309
_cell_angle_alpha 159.880699
_cell_angle_beta 99.704570
_cell_angle_gamma 81.107051
_cell_volume 696.473137
_symmetry_space_group_name_H-M "P -1"
_symmetry_group_IT_number 2
_symmetry_cell_setting 'triclinic'
loop_
_space_group_symop_operation_xyz
x,y,z
-x,-y,-z
loop_
_atom_site_type_symbol
_atom_site_label
_atom_site_fract_x
_atom_site_fract_y
_atom_site_fract_z
Si Si1 0.701467 0.138318 0.449844
Si Si2 0.032068 0.299977 0.926546
Si Si3 0.030183 0.561948 0.821595
Si Si4 0.258986 0.742682 0.238461
Si Si5 0.612032 0.752501 0.359305
Si Si6 0.534545 0.629204 0.497605
Si Si7 0.251227 0.246100 0.253822
Si Si8 0.156603 0.727915 0.817720
O O1 0.548782 0.143173 0.510367
O O2 0.578480 0.172500 0.397572
O O3 0.866382 0.350792 0.634952
O O4 0.814348 0.882580 0.247686
O O5 0.095632 0.579034 0.141189
O O6 0.028240 0.258326 0.976298
O O7 0.801016 0.275711 0.861596
O O8 0.255706 0.459213 0.769342
O O9 0.037666 0.724757 0.882217
O O10 0.486569 0.657129 0.208137
O O11 0.242905 0.025265 0.481093
O O12 0.375519 0.441005 0.371795
O O13 0.670972 0.760279 0.667706
O O14 0.685964 0.488124 0.343780
O O15 0.008166 0.305615 0.281038
O O16 0.278885 0.978481 0.012612
#
# Coordination Sequence:
#
# PCOD8026482 Si02
#       8
#     2   2   2   2   2   2   2   2
#     4  12  25  45  67 100 138 175 222 279 333 393
#     4  11  26  44  70  99 136 174 226 277 338 394
#     4  12  25  45  67 100 138 175 222 279 333 393
#     4  10  24  44  68 102 130 176 224 284 332 402
#     4  11  24  44  74  93 132 182 222 271 348 394
#     4  11  23  44  70  96 137 174 219 270 329 394
#     4  10  24  42  66 106 130 170 220 272 328 392
#     4  11  23  44  70  96 137 174 219 270 329 394
#
# _framework density 22.97289
#
# number of rings (size 3 to 8) (size 9 to 14) (size 15 to 20)
#    0.000    1.000    5.000    0.750    0.000   11.000 
#    9.000    0.000    0.000    0.000    0.000    0.000 
#    0.000    0.000    0.000    0.000    0.000    0.000 
#
# Total GULP energy -198323.914196 kJ/mol
# GULP energy per Si atom -12395.244637 kJ/mol
# Density = 2.292060 g / cm^3
# Si number density = 22.972890 Si / 1000 Ang^3
#
#
#
# Elastic Constant Matrix: (Units=GPa)
#
#
# Indices 1 2 3 4 5 6 
#
# 1 86.9075 38.2632 49.7570 -15.6994 7.3076 -19.6278
# 2 38.2632 120.8391 32.7885 -16.3785 11.5669 -29.2259
# 3 49.7570 32.7885 84.8977 -8.6907 14.9071 -10.3721
# 4 -15.6994 -16.3785 -8.6907 37.2630 -6.6769 5.1312
# 5 7.3076 11.5669 14.9071 -6.6769 47.6167 -7.5014
# 6 -19.6278 -29.2259 -10.3721 5.1312 -7.5014 40.2217
#
#
#
# Elastic Compliance Matrix: (Units=1/GPa)
#
#
# Indices 1 2 3 4 5 6 
#
# 1 0.020187 -0.001751 -0.010333 0.004928 0.002149 0.005686
# 2 -0.001751 0.011409 -0.002239 0.002799 -0.000397 0.006427
# 3 -0.010333 -0.002239 0.019040 -0.001354 -0.004400 -0.002407
# 4 0.004928 0.002799 -0.001354 0.030314 0.003372 0.000851
# 5 0.002149 -0.000397 -0.004400 0.003372 0.023172 0.003517
# 6 0.005686 0.006427 -0.002407 0.000851 0.003517 0.032234
#
#
# Mechanical properties :
#
#
# Convention : Reuss Voigt Hill
#
# Bulk Modulus (GPa) = 45.47525 59.36241 52.41883
# Shear Modulus (GPa) = 29.01381 36.47599 32.74490
#
# Velocity S-wave (km/s) = 3.55767 3.98902 3.77950
# Velocity P-wave (km/s) = 6.05922 6.86387 6.47406
#
# Compressibility (1/GPa) = 0.02198998
#
# Stress axis : x y z
#
# Youngs Moduli (GPa) = 49.53641 87.64871 52.52210
#
# Poissons Ratio (x) = 0.15346 0.54273
# Poissons Ratio (y) = 0.08673 0.11759
# Poissons Ratio (z) = 0.51188 0.19623
#
# Static dielectric constant tensor:
#      x y z
#    x 4.073880 -0.293770 0.297540 
#    y -0.293770 4.290730 -0.167680 
#    z 0.297540 -0.167680 3.992880 
# 
# 
# High freq. dielectric constant tensor:
#      x y z
#    x 1.900040 -0.019510 0.023380 
#    y -0.019510 1.923090 -0.003210 
#    z 0.023380 -0.003210 1.898620 
# 
# From -- ./inp_files/584023.got.cif
#   From: 2010.06.25/outbox.cif.g09.slc.cpg/sg2_293_cif.got.tgz:584023.got - 2010.06.27 13:26:56.
