data_PCOD8026207
_publ_section_title
;
Structure prediction by ZEFSAII (Michael W. Deem and Ramdas Pophale) SiO2 
 PCOD8026207
Probable space group: P -1
;
_chemical_formula_sum "Si O2"
_cell_formula_units_Z 12
_cell_length_a 17.603604
_cell_length_b 6.671575
_cell_length_c 6.535016
_cell_angle_alpha 66.060385
_cell_angle_beta 123.125200
_cell_angle_gamma 127.883594
_cell_volume 504.436509
_symmetry_space_group_name_H-M "P -1"
_symmetry_group_IT_number 2
_symmetry_cell_setting 'triclinic'
loop_
_space_group_symop_operation_xyz
x,y,z
-x,-y,-z
loop_
_atom_site_type_symbol
_atom_site_label
_atom_site_fract_x
_atom_site_fract_y
_atom_site_fract_z
Si Si1 0.153721 0.276641 0.502256
Si Si2 0.330742 0.632599 0.915978
Si Si3 0.384013 0.058264 0.512279
Si Si4 0.954756 0.289421 0.348531
Si Si5 0.225260 0.687704 0.127732
Si Si6 0.502805 0.500849 0.243326
O O1 0.228045 0.394576 0.761554
O O2 0.048521 0.289617 0.366562
O O3 0.123593 0.985816 0.549722
O O4 0.211772 0.431941 0.318153
O O5 0.293864 0.746727 0.997983
O O6 0.395646 0.849178 0.746936
O O7 0.407560 0.544086 0.157083
O O8 0.480036 0.232081 0.419981
O O9 0.388184 0.264046 0.600450
O O10 0.278882 0.917178 0.278361
O O11 0.888717 0.352152 0.066690
O O12 0.000000 0.500000 0.500000
O O13 0.500000 0.500000 0.000000
#
# Coordination Sequence:
#
# PCOD8026207 Si02
#       6
#     2   2   2   2   2   2
#     4  10  24  42  65  98 128 172 219 262 325 382
#     4  11  23  42  63  94 127 169 215 267 320 382
#     4  10  24  40  65  93 125 169 213 262 328 375
#     4  11  22  44  67  93 134 171 216 268 320 384
#     4  11  23  42  65  94 131 170 216 271 317 384
#     4  11  24  42  64  95 129 168 215 266 319 389
#
# _framework density 23.788920000000001
#
# number of rings (size 3 to 8) (size 9 to 14) (size 15 to 20)
#    0.000    1.333    1.667    3.000    0.000    8.667 
#    3.000    0.000    0.000    0.000    0.000    0.000 
#    0.000    0.000    0.000    0.000    0.000    0.000 
#
# Total GULP energy -148715.338781 kJ/mol
# GULP energy per Si atom -12392.944898 kJ/mol
# Density = 2.373478 g / cm^3
# Si number density = 23.788920 Si / 1000 Ang^3
#
#
#
# Elastic Constant Matrix: (Units=GPa)
#
#
# Indices 1 2 3 4 5 6 
#
# 1 56.4245 12.5246 27.1652 3.7928 -4.5445 0.2308
# 2 12.5246 172.5233 70.3264 17.5602 -13.8530 17.2489
# 3 27.1652 70.3264 148.9022 27.1779 -17.8733 4.2064
# 4 3.7928 17.5602 27.1779 48.5144 7.6107 -3.9351
# 5 -4.5445 -13.8530 -17.8733 7.6107 45.5560 -4.2040
# 6 0.2308 17.2489 4.2064 -3.9351 -4.2040 26.1544
#
#
#
# Elastic Compliance Matrix: (Units=1/GPa)
#
#
# Indices 1 2 3 4 5 6 
#
# 1 0.019458 -0.000015 -0.003581 0.000457 0.000507 0.000564
# 2 -0.000015 0.007787 -0.003134 -0.001596 0.000968 -0.004716
# 3 -0.003581 -0.003134 0.010133 -0.004785 0.003493 0.000310
# 4 0.000457 -0.001596 -0.004785 0.025166 -0.006095 0.004625
# 5 0.000507 0.000968 0.003493 -0.006095 0.024858 0.001874
# 6 0.000564 -0.004716 0.000310 0.004625 0.001874 0.042286
#
#
# Mechanical properties :
#
#
# Convention : Reuss Voigt Hill
#
# Bulk Modulus (GPa) = 41.81044 66.43139 54.12091
# Shear Modulus (GPa) = 33.08589 41.90055 37.49322
#
# Velocity S-wave (km/s) = 3.73340 4.20139 3.97429
# Velocity P-wave (km/s) = 6.01649 7.17785 6.62268
#
# Compressibility (1/GPa) = 0.02391747
#
# Stress axis : x y z
#
# Youngs Moduli (GPa) = 51.39247 128.42500 98.68346
#
# Poissons Ratio (x) = 0.00192 0.35340
# Poissons Ratio (y) = 0.00077 0.30929
# Poissons Ratio (z) = 0.18405 0.40251
#
# Static dielectric constant tensor:
#      x y z
#    x 4.115600 0.111310 0.156430 
#    y 0.111310 4.662040 -0.028710 
#    z 0.156430 -0.028710 4.538500 
# 
# 
# High freq. dielectric constant tensor:
#      x y z
#    x 1.907410 0.014100 -0.000390 
#    y 0.014100 1.957670 0.002990 
#    z -0.000390 0.002990 1.970490 
# 
# From -- ./inp_files/4383.got.cif
#   From: 2010.06.25/outbox.cif.g09.slc.cpg/sg2_3_cif.got.tgz:4383.got - 2010.06.27 13:26:56.
