data_PCOD8026956
_publ_section_title
;
Structure prediction by ZEFSAII (Michael W. Deem and Ramdas Pophale) SiO2 
 PCOD8026956
Probable space group: P -1
;
_chemical_formula_sum "Si O2"
_cell_formula_units_Z 16
_cell_length_a 9.284945
_cell_length_b 14.863480
_cell_length_c 18.745068
_cell_angle_alpha 38.506547
_cell_angle_beta 38.987200
_cell_angle_gamma 27.344847
_cell_volume 708.627906
_symmetry_space_group_name_H-M "P -1"
_symmetry_group_IT_number 2
_symmetry_cell_setting 'triclinic'
loop_
_space_group_symop_operation_xyz
x,y,z
-x,-y,-z
loop_
_atom_site_type_symbol
_atom_site_label
_atom_site_fract_x
_atom_site_fract_y
_atom_site_fract_z
Si Si1 0.221414 0.647721 0.456948
Si Si2 0.633349 0.296005 0.417184
Si Si3 0.851361 0.414015 0.917999
Si Si4 0.330019 0.247879 0.316311
Si Si5 0.746243 0.994616 0.073870
Si Si6 0.864829 0.108314 0.297053
Si Si7 0.372856 0.008099 0.335991
Si Si8 0.741061 0.818260 0.964927
O O1 0.500000 0.500000 0.500000
O O2 0.365825 0.538859 0.390882
O O3 0.916947 0.680134 0.569887
O O4 0.101627 0.866270 0.370303
O O5 0.987760 0.204236 0.350797
O O6 0.618194 0.252529 0.367972
O O7 0.554964 0.195159 0.561655
O O8 0.842765 0.574584 0.786146
O O9 0.080776 0.207255 0.912527
O O10 0.500000 0.500000 0.000000
O O11 0.983073 0.384383 0.966830
O O12 0.456828 0.044095 0.356900
O O13 0.646458 0.185179 0.263781
O O14 0.586268 0.989901 0.205742
O O15 0.469269 0.187349 0.006350
O O16 0.000000 0.000000 0.000000
O O17 0.098814 0.137140 0.176637
O O18 0.500000 0.000000 0.000000
#
# Coordination Sequence:
#
# PCOD8026956 Si02
#       8
#     2   2   2   2   2   2   2   2
#     4  12  25  43  73 108 135 189 236 287 358 428
#     4  11  23  43  72 104 139 187 233 283 361 423
#     4  11  23  46  69 101 134 189 243 284 354 422
#     4  12  25  44  71 100 144 184 231 297 356 421
#     4  11  24  43  69 103 139 185 236 296 357 418
#     4  12  25  48  68 104 148 180 234 297 357 420
#     4  11  22  43  69 101 144 180 228 297 350 419
#     4  10  24  43  72  95 139 192 233 293 357 421
#
# _framework density 22.578845999999999
#
# number of rings (size 3 to 8) (size 9 to 14) (size 15 to 20)
#    0.000    0.750    5.000    2.625    5.250    0.500 
#    2.250    3.750    0.000    0.000    0.000    0.000 
#    0.000    0.000    0.000    0.000    0.000    0.000 
#
# Total GULP energy -198356.694414 kJ/mol
# GULP energy per Si atom -12397.293401 kJ/mol
# Density = 2.252746 g / cm^3
# Si number density = 22.578846 Si / 1000 Ang^3
#
#
#
# Elastic Constant Matrix: (Units=GPa)
#
#
# Indices 1 2 3 4 5 6 
#
# 1 158.2411 43.9888 43.6057 3.6446 0.3457 -16.0985
# 2 43.9888 88.7823 34.6837 8.8320 15.6074 12.0482
# 3 43.6057 34.6837 122.4774 13.3209 7.2870 -1.9431
# 4 3.6446 8.8320 13.3209 40.9432 -2.3566 5.7484
# 5 0.3457 15.6074 7.2870 -2.3566 30.5632 1.7887
# 6 -16.0985 12.0482 -1.9431 5.7484 1.7887 44.4971
#
#
#
# Elastic Compliance Matrix: (Units=1/GPa)
#
#
# Indices 1 2 3 4 5 6 
#
# 1 0.008481 -0.004488 -0.001872 0.000393 0.002435 0.004053
# 2 -0.004488 0.016836 -0.002578 -0.002037 -0.007755 -0.005720
# 3 -0.001872 -0.002578 0.009946 -0.002708 -0.001293 0.000857
# 4 0.000393 -0.002037 -0.002708 0.026352 0.003888 -0.002985
# 5 0.002435 -0.007755 -0.001293 0.003888 0.037205 0.000926
# 6 0.004053 -0.005720 0.000857 -0.002985 0.000926 0.025874
#
#
# Mechanical properties :
#
#
# Convention : Reuss Voigt Hill
#
# Bulk Modulus (GPa) = 57.51060 68.22858 62.86959
# Shear Modulus (GPa) = 33.70033 39.68222 36.69127
#
# Velocity S-wave (km/s) = 3.86756 4.19680 4.03554
# Velocity P-wave (km/s) = 6.74317 7.33264 7.04408
#
# Compressibility (1/GPa) = 0.01738810
#
# Stress axis : x y z
#
# Youngs Moduli (GPa) = 117.91293 59.39572 100.54044
#
# Poissons Ratio (x) = 0.26657 0.18820
# Poissons Ratio (y) = 0.52919 0.25917
# Poissons Ratio (z) = 0.22072 0.15311
#
# Static dielectric constant tensor:
#      x y z
#    x 4.352020 0.014850 0.152610 
#    y 0.014850 4.067550 0.116680 
#    z 0.152610 0.116680 4.106270 
# 
# 
# High freq. dielectric constant tensor:
#      x y z
#    x 1.902770 -0.001500 0.001700 
#    y -0.001500 1.882630 0.019020 
#    z 0.001700 0.019020 1.893590 
# 
# From -- ./inp_files/222428.got.cif
#   From: 2010.06.25/outbox.cif.g09.slc.cpg/sg2_112_cif.got.tgz:222428.got - 2010.06.27 13:26:56.
