data_PCOD8026526
_publ_section_title
;
Structure prediction by ZEFSAII (Michael W. Deem and Ramdas Pophale) SiO2 
 PCOD8026526
Probable space group: P -1
;
_chemical_formula_sum "Si O2"
_cell_formula_units_Z 16
_cell_length_a 8.647703
_cell_length_b 15.283485
_cell_length_c 9.620032
_cell_angle_alpha 38.041575
_cell_angle_beta 109.355090
_cell_angle_gamma 104.012250
_cell_volume 738.838302
_symmetry_space_group_name_H-M "P -1"
_symmetry_group_IT_number 2
_symmetry_cell_setting 'triclinic'
loop_
_space_group_symop_operation_xyz
x,y,z
-x,-y,-z
loop_
_atom_site_type_symbol
_atom_site_label
_atom_site_fract_x
_atom_site_fract_y
_atom_site_fract_z
Si Si1 0.345283 0.264665 0.738867
Si Si2 0.809362 0.011296 0.897730
Si Si3 0.807308 0.496933 0.420544
Si Si4 0.176911 0.946177 0.667341
Si Si5 0.784031 0.767514 0.564171
Si Si6 0.707191 0.203287 0.861346
Si Si7 0.832827 0.210869 0.401375
Si Si8 0.306828 0.484264 0.946360
O O1 0.290935 0.415125 0.600604
O O2 0.311380 0.266531 0.562026
O O3 0.537809 0.234818 0.851296
O O4 0.249974 0.147663 0.945041
O O5 0.702160 0.070752 0.920775
O O6 0.774771 0.111949 0.631696
O O7 0.000000 0.000000 0.000000
O O8 0.762777 0.334169 0.623649
O O9 0.750726 0.549007 0.186036
O O10 0.000000 0.500000 0.500000
O O11 0.254944 0.855635 0.676530
O O12 0.281980 0.083127 0.572481
O O13 0.161434 0.838641 0.927176
O O14 0.000000 0.000000 0.500000
O O15 0.972062 0.787950 0.555299
O O16 0.758063 0.642357 0.821248
O O17 0.775195 0.371471 0.203677
O O18 0.500000 0.500000 0.000000
#
# Coordination Sequence:
#
# PCOD8026526 Si02
#       8
#     2   2   2   2   2   2   2   2
#     4  12  26  43  73 106 138 181 228 293 354 405
#     4  12  22  45  71 100 137 178 235 279 342 416
#     4  12  28  46  73 105 137 188 239 284 344 423
#     4  10  24  42  68 100 131 179 226 278 342 413
#     4  11  24  45  69 100 142 177 229 279 350 415
#     4  12  25  46  70  99 143 177 231 290 346 409
#     4  11  24  44  70  99 133 185 225 280 341 415
#     4  12  28  46  68 102 146 180 228 289 347 411
#
# _framework density 21.655619000000002
#
# number of rings (size 3 to 8) (size 9 to 14) (size 15 to 20)
#    0.000    0.500    3.750    4.125    8.750    0.000 
#    0.000    1.250    0.000    0.000    0.000    0.000 
#    0.000    0.000    0.000    0.000    0.000    0.000 
#
# Total GULP energy -198421.137227 kJ/mol
# GULP energy per Si atom -12401.321077 kJ/mol
# Density = 2.160633 g / cm^3
# Si number density = 21.655619 Si / 1000 Ang^3
#
#
#
# Elastic Constant Matrix: (Units=GPa)
#
#
# Indices 1 2 3 4 5 6 
#
# 1 80.2166 5.0187 20.4937 10.0490 3.1408 1.8817
# 2 5.0187 131.8675 39.2416 15.1316 2.7734 -17.3763
# 3 20.4937 39.2416 135.7281 14.9907 -24.3884 4.4833
# 4 10.0490 15.1316 14.9907 40.6728 -2.9928 1.5598
# 5 3.1408 2.7734 -24.3884 -2.9928 33.9455 -1.7164
# 6 1.8817 -17.3763 4.4833 1.5598 -1.7164 31.9093
#
#
#
# Elastic Compliance Matrix: (Units=1/GPa)
#
#
# Indices 1 2 3 4 5 6 
#
# 1 0.013567 0.000612 -0.002506 -0.002898 -0.003369 -0.000154
# 2 0.000612 0.009715 -0.003339 -0.002991 -0.003225 0.005696
# 3 -0.002506 -0.003339 0.010318 -0.001276 0.007671 -0.002645
# 4 -0.002898 -0.002991 -0.001276 0.027118 0.001860 -0.002504
# 5 -0.003369 -0.003225 0.007671 0.001860 0.035669 -0.000808
# 6 -0.000154 0.005696 -0.002645 -0.002504 -0.000808 0.034900
#
#
# Mechanical properties :
#
#
# Convention : Reuss Voigt Hill
#
# Bulk Modulus (GPa) = 43.22222 53.03558 48.12890
# Shear Modulus (GPa) = 33.45307 40.17606 36.81457
#
# Velocity S-wave (km/s) = 3.93463 4.31191 4.12758
# Velocity P-wave (km/s) = 6.37526 7.02379 6.70737
#
# Compressibility (1/GPa) = 0.02313625
#
# Stress axis : x y z
#
# Youngs Moduli (GPa) = 73.71008 102.93176 96.91830
#
# Poissons Ratio (x) = -0.06304 0.24284
# Poissons Ratio (y) = -0.04514 0.32357
# Poissons Ratio (z) = 0.18469 0.34364
#
# Static dielectric constant tensor:
#      x y z
#    x 41.157240 5.401820 -26.327940 
#    y 5.401820 5.213680 -3.851250 
#    z -26.327940 -3.851250 22.674320 
# 
# 
# High freq. dielectric constant tensor:
#      x y z
#    x 1.839780 -0.008020 0.000090 
#    y -0.008020 1.866750 -0.003840 
#    z 0.000090 -0.003840 1.871110 
# 
# From -- ./inp_files/190843.got.cif
#   From: 2010.06.25/outbox.cif.g09.slc.cpg/sg2_96_cif.got.tgz:190843.got - 2010.06.27 13:26:56.
