data_PCOD8026837
_publ_section_title
;
Structure prediction by ZEFSAII (Michael W. Deem and Ramdas Pophale) SiO2 
 PCOD8026837
Probable space group: P -1
;
_chemical_formula_sum "Si O2"
_cell_formula_units_Z 16
_cell_length_a 5.255689
_cell_length_b 26.196508
_cell_length_c 8.891760
_cell_angle_alpha 33.645000
_cell_angle_beta 89.379401
_cell_angle_gamma 93.475595
_cell_volume 672.856233
_symmetry_space_group_name_H-M "P -1"
_symmetry_group_IT_number 2
_symmetry_cell_setting 'triclinic'
loop_
_space_group_symop_operation_xyz
x,y,z
-x,-y,-z
loop_
_atom_site_type_symbol
_atom_site_label
_atom_site_fract_x
_atom_site_fract_y
_atom_site_fract_z
Si Si1 0.206192 0.425441 0.533605
Si Si2 0.142930 0.229451 0.885950
Si Si3 0.014116 0.447572 0.976848
Si Si4 0.455419 0.032729 0.752836
Si Si5 0.724703 0.269026 0.322786
Si Si6 0.002307 0.850725 0.590201
Si Si7 0.375039 0.835268 0.125363
Si Si8 0.609129 0.604050 0.091586
O O1 0.233206 0.339122 0.634341
O O2 0.450158 0.502606 0.342236
O O3 0.174116 0.388712 0.794998
O O4 0.974250 0.476981 0.345319
O O5 0.069521 0.183114 0.159646
O O6 0.380957 0.186492 0.917753
O O7 0.893228 0.213484 0.819921
O O8 0.776981 0.367073 0.170268
O O9 0.000000 0.500000 0.000000
O O10 0.257954 0.393279 0.080899
O O11 0.220525 0.094010 0.607267
O O12 0.717595 0.089180 0.551624
O O13 0.377494 0.946247 0.854008
O O14 0.500000 0.000000 0.000000
O O15 0.963653 0.233299 0.321138
O O16 0.600113 0.194494 0.626950
O O17 0.525051 0.301191 0.120693
#
# Coordination Sequence:
#
# PCOD8026837 Si02
#       8
#     2   2   2   2   2   2   2   2
#     4  10  24  43  69 101 147 196 244 298 363 434
#     4  12  29  47  76 112 154 193 246 303 374 436
#     4  11  24  41  67 103 149 193 244 305 366 427
#     4  12  27  51  81 111 149 189 249 305 381 435
#     4  11  27  43  75 108 144 195 257 298 366 444
#     4  12  28  49  81 110 147 197 246 308 364 454
#     4  12  29  48  76 111 149 195 241 312 374 448
#     4  10  24  44  70 102 145 196 249 303 359 438
#
# _framework density 23.779225
#
# number of rings (size 3 to 8) (size 9 to 14) (size 15 to 20)
#    0.000    0.750    1.250    3.750   14.000    5.000 
#    0.000    0.000    0.000    0.000    0.000    0.000 
#    0.000    0.000    0.000    0.000    0.000    0.000 
#
# Total GULP energy -198242.732947 kJ/mol
# GULP energy per Si atom -12390.170809 kJ/mol
# Density = 2.372510 g / cm^3
# Si number density = 23.779225 Si / 1000 Ang^3
#
#
#
# Elastic Constant Matrix: (Units=GPa)
#
#
# Indices 1 2 3 4 5 6 
#
# 1 131.7507 59.7429 51.2129 0.3193 25.0382 -23.8453
# 2 59.7429 151.0837 57.8409 -18.4978 12.2555 -19.2632
# 3 51.2129 57.8409 118.6107 -9.1263 13.0319 -7.8548
# 4 0.3193 -18.4978 -9.1263 43.3297 -8.8570 -1.8847
# 5 25.0382 12.2555 13.0319 -8.8570 23.9968 5.7093
# 6 -23.8453 -19.2632 -7.8548 -1.8847 5.7093 43.5941
#
#
#
# Elastic Compliance Matrix: (Units=1/GPa)
#
#
# Indices 1 2 3 4 5 6 
#
# 1 0.014496 -0.002900 -0.002963 -0.004835 -0.015714 0.007963
# 2 -0.002900 0.009627 -0.003082 0.003706 0.000629 0.002191
# 3 -0.002963 -0.003082 0.011337 0.000858 -0.000991 -0.000773
# 4 -0.004835 0.003706 0.000858 0.027509 0.013169 -0.001388
# 5 -0.015714 0.000629 -0.000991 0.013169 0.067123 -0.016717
# 6 0.007963 0.002191 -0.000773 -0.001388 -0.016717 0.030253
#
#
# Mechanical properties :
#
#
# Convention : Reuss Voigt Hill
#
# Bulk Modulus (GPa) = 56.91152 82.11538 69.51345
# Shear Modulus (GPa) = 27.16062 37.69401 32.42732
#
# Velocity S-wave (km/s) = 3.38331 3.98573 3.69681
# Velocity P-wave (km/s) = 6.26479 7.46919 6.89335
#
# Compressibility (1/GPa) = 0.01757114
#
# Stress axis : x y z
#
# Youngs Moduli (GPa) = 68.98476 103.87137 88.20884
#
# Poissons Ratio (x) = 0.30120 0.26137
# Poissons Ratio (y) = 0.20004 0.27183
# Poissons Ratio (z) = 0.20441 0.32009
#
# Static dielectric constant tensor:
#      x y z
#    x 4.556430 -0.044380 0.154870 
#    y -0.044380 4.499450 -0.168270 
#    z 0.154870 -0.168270 4.653130 
# 
# 
# High freq. dielectric constant tensor:
#      x y z
#    x 1.945960 0.000320 0.002350 
#    y 0.000320 1.952260 -0.013920 
#    z 0.002350 -0.013920 1.958750 
# 
# From -- ./inp_files/142912.got.cif
#   From: 2010.06.25/outbox.cif.g09.slc.cpg/sg2_72_cif.got.tgz:142912.got - 2010.06.27 13:26:56.
