data_PCOD8026289
_publ_section_title
;
Structure prediction by ZEFSAII (Michael W. Deem and Ramdas Pophale) SiO2 
 PCOD8026289
Probable space group: P -1
;
_chemical_formula_sum "Si O2"
_cell_formula_units_Z 16
_cell_length_a 14.783801
_cell_length_b 10.631493
_cell_length_c 8.887585
_cell_angle_alpha 118.777887
_cell_angle_beta 97.211834
_cell_angle_gamma 40.758559
_cell_volume 726.223481
_symmetry_space_group_name_H-M "P -1"
_symmetry_group_IT_number 2
_symmetry_cell_setting 'triclinic'
loop_
_space_group_symop_operation_xyz
x,y,z
-x,-y,-z
loop_
_atom_site_type_symbol
_atom_site_label
_atom_site_fract_x
_atom_site_fract_y
_atom_site_fract_z
Si Si1 0.738146 0.479621 0.511497
Si Si2 0.820982 0.213942 0.632833
Si Si3 0.649353 0.406576 0.014428
Si Si4 0.880281 0.063024 0.106576
Si Si5 0.774022 0.964053 0.417784
Si Si6 0.491027 0.180124 0.588756
Si Si7 0.885080 0.743233 0.021683
Si Si8 0.070960 0.495890 0.376415
O O1 0.726277 0.464383 0.679479
O O2 0.840119 0.216959 0.325509
O O3 0.579072 0.687597 0.511213
O O4 0.819554 0.529270 0.534612
O O5 0.777521 0.268644 0.832079
O O6 0.741675 0.172486 0.525686
O O7 0.000000 0.000000 0.500000
O O8 0.500000 0.500000 0.000000
O O9 0.731941 0.220350 0.062014
O O10 0.602611 0.626778 0.184619
O O11 0.948079 0.824522 0.041141
O O12 0.000000 0.000000 0.000000
O O13 0.749745 0.935968 0.225637
O O14 0.943175 0.734737 0.388088
O O15 0.661669 0.024588 0.541547
O O16 0.500000 0.000000 0.500000
O O17 0.836659 0.726145 0.846673
O O18 0.000000 0.500000 0.000000
O O19 0.000000 0.500000 0.500000
#
# Coordination Sequence:
#
# PCOD8026289 Si02
#       8
#     2   2   2   2   2   2   2   2
#     4  11  24  41  66  98 129 179 226 279 339 409
#     4  12  23  43  73 103 136 171 240 287 336 400
#     4  11  26  43  70 101 135 185 230 281 341 411
#     4  11  23  40  68  99 133 176 234 281 335 411
#     4  11  23  43  69  92 138 181 219 286 343 399
#     4  11  26  47  66  98 142 182 223 282 350 418
#     4  10  24  41  64 100 137 175 226 284 355 397
#     4  11  23  40  65  99 135 176 229 282 341 407
#
# _framework density 22.031783999999998
#
# number of rings (size 3 to 8) (size 9 to 14) (size 15 to 20)
#    0.000    1.000    3.750    2.250    1.750    6.500 
#    0.000    1.250    0.000    0.000    0.000    0.000 
#    0.000    0.000    0.000    0.000    0.000    0.000 
#
# Total GULP energy -198240.311230 kJ/mol
# GULP energy per Si atom -12390.019452 kJ/mol
# Density = 2.198164 g / cm^3
# Si number density = 22.031784 Si / 1000 Ang^3
#
#
#
# Elastic Constant Matrix: (Units=GPa)
#
#
# Indices 1 2 3 4 5 6 
#
# 1 131.2369 31.1759 42.0002 9.1323 9.4088 15.0282
# 2 31.1759 66.0967 29.0081 -3.2437 9.3270 13.7919
# 3 42.0002 29.0081 142.2554 -5.1515 4.8524 6.9844
# 4 9.1323 -3.2437 -5.1515 32.0098 1.9616 1.9617
# 5 9.4088 9.3270 4.8524 1.9616 41.0918 1.7997
# 6 15.0282 13.7919 6.9844 1.9617 1.7997 44.6935
#
#
#
# Elastic Compliance Matrix: (Units=1/GPa)
#
#
# Indices 1 2 3 4 5 6 
#
# 1 0.009571 -0.003230 -0.002168 -0.003243 -0.000973 -0.001701
# 2 -0.003230 0.019312 -0.002546 0.002944 -0.003288 -0.004472
# 3 -0.002168 -0.002546 0.008242 0.001677 0.000014 0.000153
# 4 -0.003243 0.002944 0.001677 0.032923 -0.001631 -0.001459
# 5 -0.000973 -0.003288 0.000014 -0.001631 0.025364 0.000390
# 6 -0.001701 -0.004472 0.000153 -0.001459 0.000390 0.024351
#
#
# Mechanical properties :
#
#
# Convention : Reuss Voigt Hill
#
# Bulk Modulus (GPa) = 47.08777 60.43972 53.76374
# Shear Modulus (GPa) = 35.03128 39.38600 37.20864
#
# Velocity S-wave (km/s) = 3.99185 4.23270 4.11403
# Velocity P-wave (km/s) = 6.53189 7.16799 6.85732
#
# Compressibility (1/GPa) = 0.02123694
#
# Stress axis : x y z
#
# Youngs Moduli (GPa) = 104.48098 51.78182 121.33569
#
# Poissons Ratio (x) = 0.16725 0.26305
# Poissons Ratio (y) = 0.33745 0.30893
# Poissons Ratio (z) = 0.22651 0.13184
#
# Static dielectric constant tensor:
#      x y z
#    x 4.531170 0.256510 0.257510 
#    y 0.256510 4.065520 -0.093740 
#    z 0.257510 -0.093740 4.796440 
# 
# 
# High freq. dielectric constant tensor:
#      x y z
#    x 1.866570 0.015960 0.009880 
#    y 0.015960 1.859470 -0.015830 
#    z 0.009880 -0.015830 1.876840 
# 
# From -- ./inp_files/305743.got.cif
#   From: 2010.06.25/outbox.cif.g09.slc.cpg/sg2_153_cif.got.tgz:305743.got - 2010.06.27 13:26:56.
