data_PCOD8026747
_publ_section_title
;
Structure prediction by ZEFSAII (Michael W. Deem and Ramdas Pophale) SiO2 
 PCOD8026747
Probable space group: P -1
;
_chemical_formula_sum "Si O2"
_cell_formula_units_Z 12
_cell_length_a 4.958353
_cell_length_b 14.746620
_cell_length_c 9.383783
_cell_angle_alpha 123.877307
_cell_angle_beta 67.524637
_cell_angle_gamma 94.344668
_cell_volume 517.878348
_symmetry_space_group_name_H-M "P -1"
_symmetry_group_IT_number 2
_symmetry_cell_setting 'triclinic'
loop_
_space_group_symop_operation_xyz
x,y,z
-x,-y,-z
loop_
_atom_site_type_symbol
_atom_site_label
_atom_site_fract_x
_atom_site_fract_y
_atom_site_fract_z
Si Si1 0.367076 0.920575 0.566052
Si Si2 0.728750 0.461584 0.093036
Si Si3 0.184449 0.300572 0.390913
Si Si4 0.265473 0.609863 0.665725
Si Si5 0.269183 0.064594 0.212853
Si Si6 0.314307 0.670136 0.281653
O O1 0.564426 0.909851 0.656751
O O2 0.385925 0.794841 0.390302
O O3 0.028031 0.982914 0.725283
O O4 0.500000 0.000000 0.500000
O O5 0.837512 0.392652 0.152458
O O6 0.493530 0.575481 0.268448
O O7 0.615563 0.373279 0.931484
O O8 0.000000 0.500000 0.000000
O O9 0.538675 0.295422 0.321369
O O10 0.137850 0.177495 0.254782
O O11 0.024802 0.379048 0.364861
O O12 0.026187 0.332137 0.603615
O O13 0.500000 0.500000 0.500000
O O14 0.500000 0.000000 0.000000
#
# Coordination Sequence:
#
# PCOD8026747 Si02
#       6
#     2   2   2   2   2   2
#     4  11  25  47  76 102 141 188 237 293 356 422
#     4  11  25  41  66  98 144 179 229 280 346 416
#     4  11  24  44  68  96 133 182 224 279 348 403
#     4  12  24  40  67  98 133 176 230 275 332 417
#     4  11  25  48  73 103 141 183 235 300 354 415
#     4  10  24  43  66  98 139 185 224 284 351 411
#
# _framework density 23.171465999999999
#
# number of rings (size 3 to 8) (size 9 to 14) (size 15 to 20)
#    0.000    1.000    1.667    4.500    9.333    1.333 
#    3.000    0.000    0.000    0.000    0.000    0.000 
#    0.000    0.000    0.000    0.000    0.000    0.000 
#
# Total GULP energy -148671.903109 kJ/mol
# GULP energy per Si atom -12389.325259 kJ/mol
# Density = 2.311873 g / cm^3
# Si number density = 23.171466 Si / 1000 Ang^3
#
#
#
# Elastic Constant Matrix: (Units=GPa)
#
#
# Indices 1 2 3 4 5 6 
#
# 1 87.7257 15.8902 19.9267 1.4351 -8.1587 9.9378
# 2 15.8902 114.7654 55.0294 -5.3658 -1.3400 13.4555
# 3 19.9267 55.0294 105.8081 2.0865 -13.3328 -0.2276
# 4 1.4351 -5.3658 2.0865 28.5950 -0.5890 -8.1382
# 5 -8.1587 -1.3400 -13.3328 -0.5890 43.4776 -10.5622
# 6 9.9378 13.4555 -0.2276 -8.1382 -10.5622 41.5337
#
#
#
# Elastic Compliance Matrix: (Units=1/GPa)
#
#
# Indices 1 2 3 4 5 6 
#
# 1 0.012362 -0.000518 -0.001909 -0.001356 0.001018 -0.002807
# 2 -0.000518 0.012645 -0.006881 0.001581 -0.002873 -0.004431
# 3 -0.001909 -0.006881 0.014000 -0.001061 0.004614 0.003728
# 4 -0.001356 0.001581 -0.001061 0.037627 0.001836 0.007646
# 5 0.001018 -0.002873 0.004614 0.001836 0.026436 0.007795
# 6 -0.002807 -0.004431 0.003728 0.007646 0.007795 0.029685
#
#
# Mechanical properties :
#
#
# Convention : Reuss Voigt Hill
#
# Bulk Modulus (GPa) = 49.04904 54.44354 51.74629
# Shear Modulus (GPa) = 31.61168 37.21811 34.41489
#
# Velocity S-wave (km/s) = 3.69758 4.01210 3.85805
# Velocity P-wave (km/s) = 6.28039 6.70891 6.49818
#
# Compressibility (1/GPa) = 0.02038776
#
# Stress axis : x y z
#
# Youngs Moduli (GPa) = 80.89529 79.08477 71.42865
#
# Poissons Ratio (x) = 0.04100 0.13639
# Poissons Ratio (y) = 0.04194 0.49153
# Poissons Ratio (z) = 0.15447 0.54421
#
# Static dielectric constant tensor:
#      x y z
#    x 5.082390 -0.681010 -0.363960 
#    y -0.681010 3.647680 0.188260 
#    z -0.363960 0.188260 4.839870 
# 
# 
# High freq. dielectric constant tensor:
#      x y z
#    x 1.926920 0.004280 -0.004310 
#    y 0.004280 1.917370 -0.008690 
#    z -0.004310 -0.008690 1.913060 
# 
# From -- ./inp_files/30220.got.cif
#   From: 2010.06.25/outbox.cif.g09.slc.cpg/sg2_16_cif.got.tgz:30220.got - 2010.06.27 13:26:56.
