data_PCOD8026721
_publ_section_title
;
Structure prediction by ZEFSAII (Michael W. Deem and Ramdas Pophale) SiO2 
 PCOD8026721
Probable space group: P -1
;
_chemical_formula_sum "Si O2"
_cell_formula_units_Z 16
_cell_length_a 23.972899
_cell_length_b 8.984999
_cell_length_c 8.660114
_cell_angle_alpha 128.626311
_cell_angle_beta 29.706980
_cell_angle_gamma 118.168336
_cell_volume 710.228841
_symmetry_space_group_name_H-M "P -1"
_symmetry_group_IT_number 2
_symmetry_cell_setting 'triclinic'
loop_
_space_group_symop_operation_xyz
x,y,z
-x,-y,-z
loop_
_atom_site_type_symbol
_atom_site_label
_atom_site_fract_x
_atom_site_fract_y
_atom_site_fract_z
Si Si1 0.698260 0.884461 0.687542
Si Si2 0.103650 0.359280 0.801425
Si Si3 0.626084 0.975285 0.242227
Si Si4 0.033260 0.353132 0.460652
Si Si5 0.716665 0.219196 0.621221
Si Si6 0.765876 0.612750 0.804631
Si Si7 0.529153 0.297057 0.884095
Si Si8 0.958886 0.062308 0.812630
O O1 0.813181 0.721494 0.306199
O O2 0.701327 0.047418 0.660646
O O3 0.585640 0.790719 0.872959
O O4 0.707076 0.971027 0.895852
O O5 0.168553 0.421922 0.538695
O O6 0.025749 0.205367 0.836257
O O7 0.031194 0.561112 0.170539
O O8 0.629207 0.162422 0.458657
O O9 0.500000 0.000000 0.500000
O O10 0.656282 0.782015 0.149420
O O11 0.166148 0.318863 0.170358
O O12 0.000000 0.500000 0.500000
O O13 0.009596 0.149369 0.319904
O O14 0.736881 0.406342 0.790844
O O15 0.594113 0.304610 0.893378
O O16 0.822585 0.144772 0.202449
O O17 0.500000 0.500000 0.000000
O O18 0.000000 0.000000 0.500000
#
# Coordination Sequence:
#
# PCOD8026721 Si02
#       8
#     2   2   2   2   2   2   2   2
#     4  10  24  43  65  99 136 174 219 289 341 392
#     4  11  23  46  66  94 142 177 235 276 331 414
#     4   9  20  42  67  90 122 171 226 270 329 411
#     4  12  25  40  63  99 136 178 226 282 342 399
#     4  12  24  41  69 100 138 174 221 292 348 386
#     4  11  22  43  65  95 134 179 224 281 335 410
#     4  11  23  45  71  96 128 178 230 273 338 416
#     4  12  25  42  72 100 133 190 232 273 340 415
#
# _framework density 22.527951000000002
#
# number of rings (size 3 to 8) (size 9 to 14) (size 15 to 20)
#    0.000    1.000    2.500    5.250    3.500    1.000 
#    0.000    8.125    0.000    0.000    0.000    0.000 
#    0.000    0.000    0.000    0.000    0.000    0.000 
#
# Total GULP energy -198266.111677 kJ/mol
# GULP energy per Si atom -12391.631980 kJ/mol
# Density = 2.247668 g / cm^3
# Si number density = 22.527951 Si / 1000 Ang^3
#
#
#
# Elastic Constant Matrix: (Units=GPa)
#
#
# Indices 1 2 3 4 5 6 
#
# 1 86.8742 31.2280 24.6309 -0.9012 -31.9427 -11.9634
# 2 31.2280 136.1811 42.5531 9.0722 -15.1953 -4.3871
# 3 24.6309 42.5531 86.1014 16.1268 -22.8241 5.9845
# 4 -0.9012 9.0722 16.1268 37.9144 0.3861 0.5549
# 5 -31.9427 -15.1953 -22.8241 0.3861 38.1849 10.7551
# 6 -11.9634 -4.3871 5.9845 0.5549 10.7551 44.3022
#
#
#
# Elastic Compliance Matrix: (Units=1/GPa)
#
#
# Indices 1 2 3 4 5 6 
#
# 1 0.017509 -0.002379 -0.000751 0.001153 0.012827 0.001466
# 2 -0.002379 0.009114 -0.004103 -0.000497 -0.001118 0.001092
# 3 -0.000751 -0.004103 0.018230 -0.006814 0.010246 -0.005474
# 4 0.001153 -0.000497 -0.006814 0.029435 -0.004115 0.001813
# 5 0.012827 -0.001118 0.010246 -0.004115 0.045158 -0.008942
# 6 0.001466 0.001092 -0.005474 0.001813 -0.008942 0.025964
#
#
# Mechanical properties :
#
#
# Convention : Reuss Voigt Hill
#
# Bulk Modulus (GPa) = 32.90821 56.22008 44.56414
# Shear Modulus (GPa) = 29.41095 38.12995 33.77045
#
# Velocity S-wave (km/s) = 3.61713 4.11854 3.87595
# Velocity P-wave (km/s) = 5.66430 6.90119 6.31311
#
# Compressibility (1/GPa) = 0.03038756
#
# Stress axis : x y z
#
# Youngs Moduli (GPa) = 57.11377 109.71739 54.85549
#
# Poissons Ratio (x) = 0.26099 0.04118
# Poissons Ratio (y) = 0.13586 0.22509
# Poissons Ratio (z) = 0.04287 0.45020
#
# Static dielectric constant tensor:
#      x y z
#    x 4.175810 0.030930 0.010960 
#    y 0.030930 4.160520 0.267330 
#    z 0.010960 0.267330 4.785670 
# 
# 
# High freq. dielectric constant tensor:
#      x y z
#    x 1.892220 -0.002180 -0.017380 
#    y -0.002180 1.890420 0.022590 
#    z -0.017380 0.022590 1.892700 
# 
# From -- ./inp_files/352357.got.cif
#   From: 2010.06.25/outbox.cif.g09.slc.cpg/sg2_177_cif.got.tgz:352357.got - 2010.06.27 13:26:56.
