data_PCOD8026874
_publ_section_title
;
Structure prediction by ZEFSAII (Michael W. Deem and Ramdas Pophale) SiO2 
 PCOD8026874
Probable space group: P -1
;
_chemical_formula_sum "Si O2"
_cell_formula_units_Z 16
_cell_length_a 12.809865
_cell_length_b 14.780366
_cell_length_c 16.208112
_cell_angle_alpha 151.038716
_cell_angle_beta 144.245983
_cell_angle_gamma 55.743885
_cell_volume 741.571781
_symmetry_space_group_name_H-M "P -1"
_symmetry_group_IT_number 2
_symmetry_cell_setting 'triclinic'
loop_
_space_group_symop_operation_xyz
x,y,z
-x,-y,-z
loop_
_atom_site_type_symbol
_atom_site_label
_atom_site_fract_x
_atom_site_fract_y
_atom_site_fract_z
Si Si1 0.578385 0.979783 0.621430
Si Si2 0.895188 0.274223 0.301320
Si Si3 0.996708 0.039490 0.935431
Si Si4 0.939154 0.177649 0.591875
Si Si5 0.530100 0.878102 0.172333
Si Si6 0.735943 0.204836 0.321244
Si Si7 0.603478 0.520659 0.845125
Si Si8 0.603740 0.535198 0.507217
O O1 0.517034 0.733511 0.409924
O O2 0.500000 0.000000 0.500000
O O3 0.827964 0.110299 0.870128
O O4 0.510179 0.103769 0.741815
O O5 0.879420 0.280155 0.393064
O O6 0.000000 0.500000 0.500000
O O7 0.658916 0.122484 0.995873
O O8 0.050184 0.183599 0.315827
O O9 0.227615 0.212335 0.191345
O O10 0.000000 0.000000 0.000000
O O11 0.867850 0.168065 0.444908
O O12 0.740629 0.109251 0.469330
O O13 0.000000 0.000000 0.500000
O O14 0.150552 0.404186 0.932007
O O15 0.548089 0.667439 0.988157
O O16 0.729479 0.416036 0.505828
O O17 0.500000 0.000000 0.000000
O O18 0.548701 0.550317 0.739161
O O19 0.500000 0.500000 0.500000
#
# Coordination Sequence:
#
# PCOD8026874 Si02
#       8
#     2   2   2   2   2   2   2   2
#     4  12  29  45  69 103 143 189 238 290 356 435
#     4  12  23  40  74 102 137 183 237 294 352 413
#     4  12  24  45  68  99 141 182 235 293 350 417
#     4  10  24  43  70 102 142 181 232 294 357 425
#     4  11  23  45  71  99 141 185 236 294 361 416
#     4  12  23  42  72 105 132 181 241 285 346 430
#     4  11  24  48  70 102 146 184 233 301 358 418
#     4  12  26  43  73 106 138 182 242 297 351 419
#
# _framework density 21.575793999999998
#
# number of rings (size 3 to 8) (size 9 to 14) (size 15 to 20)
#    0.000    0.500    5.000    3.000    3.500    4.000 
#    0.000    0.000    0.000    0.000    0.000    0.000 
#    0.000    0.000    0.000    0.000    0.000    0.000 
#
# Total GULP energy -198223.781827 kJ/mol
# GULP energy per Si atom -12388.986364 kJ/mol
# Density = 2.152669 g / cm^3
# Si number density = 21.575794 Si / 1000 Ang^3
#
#
#
# Elastic Constant Matrix: (Units=GPa)
#
#
# Indices 1 2 3 4 5 6 
#
# 1 199.1176 69.5238 56.2760 -7.8917 -15.1118 9.2074
# 2 69.5238 130.9596 43.5278 -21.3937 -12.5738 16.7761
# 3 56.2760 43.5278 97.6060 -14.2321 5.0072 2.4751
# 4 -7.8917 -21.3937 -14.2321 47.7083 -3.6869 -4.3239
# 5 -15.1118 -12.5738 5.0072 -3.6869 45.8847 -0.9772
# 6 9.2074 16.7761 2.4751 -4.3239 -0.9772 38.1886
#
#
#
# Elastic Compliance Matrix: (Units=1/GPa)
#
#
# Indices 1 2 3 4 5 6 
#
# 1 0.006899 -0.002559 -0.003038 -0.000806 0.001829 -0.000387
# 2 -0.002559 0.011367 -0.003116 0.003628 0.002825 -0.003691
# 3 -0.003038 -0.003116 0.013821 0.002102 -0.003165 0.001363
# 4 -0.000806 0.003628 0.002102 0.023373 0.002402 0.001172
# 5 0.001829 0.002825 -0.003165 0.002402 0.023696 -0.000599
# 6 -0.000387 -0.003691 0.001363 0.001172 -0.000599 0.027930
#
#
# Mechanical properties :
#
#
# Convention : Reuss Voigt Hill
#
# Bulk Modulus (GPa) = 68.21088 85.14872 76.67980
# Shear Modulus (GPa) = 38.64001 43.58003 41.11002
#
# Velocity S-wave (km/s) = 4.23649 4.49916 4.36980
# Velocity P-wave (km/s) = 7.45745 8.15724 7.81518
#
# Compressibility (1/GPa) = 0.01466042
#
# Stress axis : x y z
#
# Youngs Moduli (GPa) = 144.94430 87.97283 72.35511
#
# Poissons Ratio (x) = 0.22516 0.21982
# Poissons Ratio (y) = 0.37098 0.22545
# Poissons Ratio (z) = 0.44035 0.27411
#
# Static dielectric constant tensor:
#      x y z
#    x 5.010030 0.864080 -0.498950 
#    y 0.864080 7.219650 -2.942060 
#    z -0.498950 -2.942060 6.823770 
# 
# 
# High freq. dielectric constant tensor:
#      x y z
#    x 1.863840 -0.003490 0.009580 
#    y -0.003490 1.851270 0.001060 
#    z 0.009580 0.001060 1.848240 
# 
# From -- ./inp_files/187832.got.cif
#   From: 2010.06.25/outbox.cif.g09.slc.cpg/sg2_94_cif.got.tgz:187832.got - 2010.06.27 13:26:56.
