data_PCOD8026900
_publ_section_title
;
Structure prediction by ZEFSAII (Michael W. Deem and Ramdas Pophale) SiO2 
 PCOD8026900
Probable space group: P -1
;
_chemical_formula_sum "Si O2"
_cell_formula_units_Z 16
_cell_length_a 12.740458
_cell_length_b 9.496387
_cell_length_c 12.994043
_cell_angle_alpha 129.574361
_cell_angle_beta 131.256653
_cell_angle_gamma 88.372148
_cell_volume 671.318325
_symmetry_space_group_name_H-M "P -1"
_symmetry_group_IT_number 2
_symmetry_cell_setting 'triclinic'
loop_
_space_group_symop_operation_xyz
x,y,z
-x,-y,-z
loop_
_atom_site_type_symbol
_atom_site_label
_atom_site_fract_x
_atom_site_fract_y
_atom_site_fract_z
Si Si1 0.202307 0.774420 0.250796
Si Si2 0.284615 0.277241 0.230518
Si Si3 0.108810 0.718755 0.531117
Si Si4 0.753021 0.607674 0.163261
Si Si5 0.235026 0.181828 0.376535
Si Si6 0.945853 0.208388 0.246410
Si Si7 0.639528 0.902170 0.290823
Si Si8 0.338246 0.518393 0.179762
O O1 0.349884 0.749575 0.294721
O O2 0.183491 0.921880 0.225783
O O3 0.273340 0.922485 0.472229
O O4 0.000000 0.500000 0.000000
O O5 0.500000 0.500000 0.500000
O O6 0.179816 0.211118 0.240935
O O7 0.224811 0.360275 0.137167
O O8 0.234389 0.029462 0.043314
O O9 0.141199 0.792157 0.705209
O O10 0.952693 0.708898 0.374504
O O11 0.046674 0.453750 0.358103
O O12 0.304931 0.927906 0.693981
O O13 0.721868 0.770892 0.276257
O O14 0.587899 0.315407 0.948327
O O15 0.765653 0.647997 0.066569
O O16 0.455408 0.394480 0.647967
O O17 0.102692 0.190403 0.367049
#
# Coordination Sequence:
#
# PCOD8026900 Si02
#       8
#     2   2   2   2   2   2   2   2
#     4  12  25  41  71 108 143 184 239 301 360 423
#     4  10  24  43  70  98 140 190 231 288 358 429
#     4  11  26  46  72 104 144 190 240 307 349 434
#     4  11  24  46  76 104 145 189 240 300 366 425
#     4  11  24  44  70  99 147 185 231 293 359 431
#     4  11  25  47  68 101 144 189 242 289 367 429
#     4  11  25  43  72 107 144 182 241 296 367 426
#     4  11  24  44  71 108 141 182 242 299 354 428
#
# _framework density 23.833698999999999
#
# number of rings (size 3 to 8) (size 9 to 14) (size 15 to 20)
#    0.000    1.000    1.250    4.125    7.000    1.000 
#    2.250    1.250    0.000    0.000    0.000    0.000 
#    0.000    0.000    0.000    0.000    0.000    0.000 
#
# Total GULP energy -198343.546987 kJ/mol
# GULP energy per Si atom -12396.471687 kJ/mol
# Density = 2.377945 g / cm^3
# Si number density = 23.833699 Si / 1000 Ang^3
#
#
#
# Elastic Constant Matrix: (Units=GPa)
#
#
# Indices 1 2 3 4 5 6 
#
# 1 69.3166 7.7799 6.2971 2.8622 -15.7455 0.5861
# 2 7.7799 72.0695 -6.5005 20.1136 6.1076 16.9206
# 3 6.2971 -6.5005 98.0325 15.2278 -14.0571 1.4958
# 4 2.8622 20.1136 15.2278 37.7563 -2.0886 1.0205
# 5 -15.7455 6.1076 -14.0571 -2.0886 32.6620 5.1799
# 6 0.5861 16.9206 1.4958 1.0205 5.1799 45.2723
#
#
#
# Elastic Compliance Matrix: (Units=1/GPa)
#
#
# Indices 1 2 3 4 5 6 
#
# 1 0.016655 -0.002680 -0.000126 0.000695 0.008552 -0.000204
# 2 -0.002680 0.019426 0.002834 -0.011294 -0.003368 -0.006680
# 3 -0.000126 0.002834 0.012006 -0.006045 0.004480 -0.001830
# 4 0.000695 -0.011294 -0.006045 0.034879 0.001528 0.003451
# 5 0.008552 -0.003368 0.004480 0.001528 0.037930 -0.003374
# 6 -0.000204 -0.006680 -0.001830 0.003451 -0.003374 0.024956
#
#
# Mechanical properties :
#
#
# Convention : Reuss Voigt Hill
#
# Bulk Modulus (GPa) = 20.77182 28.28575 24.52879
# Shear Modulus (GPa) = 30.89388 38.59426 34.74407
#
# Velocity S-wave (km/s) = 3.60422 4.02844 3.82222
# Velocity P-wave (km/s) = 5.10439 5.79064 5.45831
#
# Compressibility (1/GPa) = 0.04814214
#
# Stress axis : x y z
#
# Youngs Moduli (GPa) = 60.04364 51.47716 83.29148
#
# Poissons Ratio (x) = 0.13796 0.01049
# Poissons Ratio (y) = 0.16091 -0.23602
# Poissons Ratio (z) = 0.00756 -0.14587
#
# Static dielectric constant tensor:
#      x y z
#    x 4.463260 0.410580 -0.012150 
#    y 0.410580 4.938090 0.294650 
#    z -0.012150 0.294650 4.340190 
# 
# 
# High freq. dielectric constant tensor:
#      x y z
#    x 1.944570 0.015530 -0.004090 
#    y 0.015530 1.945790 0.014920 
#    z -0.004090 0.014920 1.954430 
# 
# From -- ./inp_files/530165.got.cif
#   From: 2010.06.25/outbox.cif.g09.slc.cpg/sg2_266_cif.got.tgz:530165.got - 2010.06.27 13:26:56.
