data_PCOD8026789
_publ_section_title
;
Structure prediction by ZEFSAII (Michael W. Deem and Ramdas Pophale) SiO2 
 PCOD8026789
Probable space group: P -1
;
_chemical_formula_sum "Si O2"
_cell_formula_units_Z 16
_cell_length_a 8.904037
_cell_length_b 14.160506
_cell_length_c 8.687478
_cell_angle_alpha 82.617329
_cell_angle_beta 69.749812
_cell_angle_gamma 41.038892
_cell_volume 658.921992
_symmetry_space_group_name_H-M "P -1"
_symmetry_group_IT_number 2
_symmetry_cell_setting 'triclinic'
loop_
_space_group_symop_operation_xyz
x,y,z
-x,-y,-z
loop_
_atom_site_type_symbol
_atom_site_label
_atom_site_fract_x
_atom_site_fract_y
_atom_site_fract_z
Si Si1 0.128853 0.109235 0.877826
Si Si2 0.036268 0.485671 0.737533
Si Si3 0.371444 0.307270 0.926512
Si Si4 0.666227 0.149756 0.341325
Si Si5 0.624486 0.385555 0.845072
Si Si6 0.733621 0.515308 0.605214
Si Si7 0.846139 0.966788 0.782480
Si Si8 0.511151 0.064311 0.626649
O O1 0.275801 0.141938 0.796810
O O2 0.878253 0.223795 0.846067
O O3 0.280485 0.947806 0.796815
O O4 0.074459 0.129117 0.075075
O O5 0.211335 0.352310 0.824558
O O6 0.175870 0.509681 0.596766
O O7 0.961672 0.438125 0.652215
O O8 0.791305 0.638393 0.875210
O O9 0.436183 0.388743 0.864643
O O10 0.613307 0.134467 0.882894
O O11 0.500814 0.311611 0.303936
O O12 0.514829 0.169394 0.532266
O O13 0.921335 0.073888 0.339123
O O14 0.666613 0.435140 0.672150
O O15 0.500000 0.500000 0.000000
O O16 0.758768 0.941919 0.672653
O O17 0.500000 0.000000 0.500000
#
# Coordination Sequence:
#
# PCOD8026789 Si02
#       8
#     2   2   2   2   2   2   2   2
#     4  11  25  43  68 103 142 181 231 290 346 416
#     4  10  24  43  68 100 136 189 234 278 348 423
#     4  11  24  45  69 103 137 187 232 292 345 421
#     4  11  23  45  71 105 138 183 230 287 358 417
#     4  12  25  43  68 102 144 182 232 291 350 406
#     4  11  24  44  72 101 140 186 232 288 347 422
#     4  12  23  43  74 103 139 181 237 284 354 421
#     4  10  25  45  67 104 142 179 225 293 354 413
#
# _framework density 24.282087000000001
#
# number of rings (size 3 to 8) (size 9 to 14) (size 15 to 20)
#    0.000    1.000    2.500    3.375    5.250    0.500 
#    2.250    6.250    0.000    0.000    0.000    0.000 
#    0.000    0.000    0.000    0.000    0.000    0.000 
#
# Total GULP energy -198402.143784 kJ/mol
# GULP energy per Si atom -12400.133987 kJ/mol
# Density = 2.422682 g / cm^3
# Si number density = 24.282087 Si / 1000 Ang^3
#
#
#
# Elastic Constant Matrix: (Units=GPa)
#
#
# Indices 1 2 3 4 5 6 
#
# 1 114.8937 26.1020 46.7912 -1.6021 -5.8890 -7.2682
# 2 26.1020 103.2604 24.6720 -6.1638 -8.6107 -1.3471
# 3 46.7912 24.6720 117.2755 -13.0535 -13.8560 8.5450
# 4 -1.6021 -6.1638 -13.0535 32.4121 -5.7480 -1.1944
# 5 -5.8890 -8.6107 -13.8560 -5.7480 43.8888 -4.6627
# 6 -7.2682 -1.3471 8.5450 -1.1944 -4.6627 31.8040
#
#
#
# Elastic Compliance Matrix: (Units=1/GPa)
#
#
# Indices 1 2 3 4 5 6 
#
# 1 0.011151 -0.001790 -0.004513 -0.001489 -0.000090 0.003616
# 2 -0.001790 0.010683 -0.001169 0.001817 0.001798 0.000689
# 3 -0.004513 -0.001169 0.011724 0.004693 0.003099 -0.003600
# 4 -0.001489 0.001817 0.004693 0.034135 0.006179 0.000664
# 5 -0.000090 0.001798 0.003099 0.006179 0.025248 0.003157
# 6 0.003616 0.000689 -0.003600 0.000664 0.003157 0.033753
#
#
# Mechanical properties :
#
#
# Convention : Reuss Voigt Hill
#
# Bulk Modulus (GPa) = 53.71749 58.95112 56.33430
# Shear Modulus (GPa) = 33.81944 37.47860 35.64902
#
# Velocity S-wave (km/s) = 3.73604 3.93296 3.83576
# Velocity P-wave (km/s) = 6.38599 6.70482 6.54735
#
# Compressibility (1/GPa) = 0.01861591
#
# Stress axis : x y z
#
# Youngs Moduli (GPa) = 89.67413 93.60350 85.29391
#
# Poissons Ratio (x) = 0.16754 0.38490
# Poissons Ratio (y) = 0.16051 0.09971
# Poissons Ratio (z) = 0.40467 0.10942
#
# Static dielectric constant tensor:
#      x y z
#    x 4.963570 -0.180620 -0.416840 
#    y -0.180620 4.154810 -0.149490 
#    z -0.416840 -0.149490 4.648240 
# 
# 
# High freq. dielectric constant tensor:
#      x y z
#    x 1.969980 -0.015770 -0.013700 
#    y -0.015770 1.952020 -0.007580 
#    z -0.013700 -0.007580 1.973970 
# 
# From -- ./inp_files/207302.got.cif
#   From: 2010.06.25/outbox.cif.g09.slc.cpg/sg2_104_cif.got.tgz:207302.got - 2010.06.27 13:26:56.
