data_PCOD8026512
_publ_section_title
;
Structure prediction by ZEFSAII (Michael W. Deem and Ramdas Pophale) SiO2 
 PCOD8026512
Probable space group: P -1
;
_chemical_formula_sum "Si O2"
_cell_formula_units_Z 14
_cell_length_a 6.751177
_cell_length_b 15.024337
_cell_length_c 14.805267
_cell_angle_alpha 152.125215
_cell_angle_beta 70.021012
_cell_angle_gamma 108.369584
_cell_volume 659.569943
_symmetry_space_group_name_H-M "P -1"
_symmetry_group_IT_number 2
_symmetry_cell_setting 'triclinic'
loop_
_space_group_symop_operation_xyz
x,y,z
-x,-y,-z
loop_
_atom_site_type_symbol
_atom_site_label
_atom_site_fract_x
_atom_site_fract_y
_atom_site_fract_z
Si Si1 0.401319 0.175359 0.125560
Si Si2 0.380538 0.163524 0.780471
Si Si3 0.187221 0.889118 0.417225
Si Si4 0.065098 0.368873 0.453941
Si Si5 0.827649 0.337477 0.147051
Si Si6 0.930653 0.519167 0.924788
Si Si7 0.145827 0.033527 0.871457
O O1 0.295732 0.295686 0.328980
O O2 0.576198 0.311095 0.170955
O O3 0.222916 0.095271 0.013702
O O4 0.500000 0.000000 0.000000
O O5 0.633285 0.163457 0.731079
O O6 0.327621 0.103031 0.836327
O O7 0.278057 0.008341 0.591757
O O8 0.285571 0.367121 0.951602
O O9 0.102448 0.693101 0.298595
O O10 0.000000 0.000000 0.500000
O O11 0.077562 0.489808 0.652265
O O12 0.000000 0.500000 0.500000
O O13 0.896113 0.193198 0.333500
O O14 0.882606 0.380423 0.072481
O O15 0.929210 0.138816 0.980782
O O16 0.000000 0.500000 0.000000
#
# Coordination Sequence:
#
# PCOD8026512 Si02
#       7
#     2   2   2   2   2   2   2
#     4  12  24  44  70  96 133 176 220 272 337 396
#     4  10  24  42  67  93 130 179 214 271 331 389
#     4  11  22  43  64  95 132 168 222 271 323 385
#     4  12  23  45  69  94 136 172 217 278 331 394
#     4  11  25  44  67 100 134 175 224 272 332 397
#     4  11  23  43  68  95 133 174 220 271 326 392
#     4  11  24  44  66  98 135 170 221 274 332 394
#
# _framework density 21.225953000000001
#
# number of rings (size 3 to 8) (size 9 to 14) (size 15 to 20)
#    0.000    0.857    4.286    3.000    2.000    0.000 
#    5.143    0.000    0.000    0.000    0.000    0.000 
#    0.000    0.000    0.000    0.000    0.000    0.000 
#
# Total GULP energy -173642.127753 kJ/mol
# GULP energy per Si atom -12403.009125 kJ/mol
# Density = 2.117764 g / cm^3
# Si number density = 21.225953 Si / 1000 Ang^3
#
#
#
# Elastic Constant Matrix: (Units=GPa)
#
#
# Indices 1 2 3 4 5 6 
#
# 1 81.0160 43.3216 18.1024 7.8059 -14.3263 3.9904
# 2 43.3216 106.9947 32.0028 7.9721 -11.3217 -9.8745
# 3 18.1024 32.0028 99.3878 20.0253 -8.6849 -7.9581
# 4 7.8059 7.9721 20.0253 43.7556 1.6447 -1.1834
# 5 -14.3263 -11.3217 -8.6849 1.6447 46.5614 -0.6499
# 6 3.9904 -9.8745 -7.9581 -1.1834 -0.6499 33.0347
#
#
#
# Elastic Compliance Matrix: (Units=1/GPa)
#
#
# Indices 1 2 3 4 5 6 
#
# 1 0.017000 -0.006569 -0.000648 -0.001784 0.003517 -0.004168
# 2 -0.006569 0.013267 -0.002693 0.000070 0.000758 0.004128
# 3 -0.000648 -0.002693 0.012382 -0.005066 0.001664 0.002107
# 4 -0.001784 0.000070 -0.005066 0.025565 -0.002381 -0.000115
# 5 0.003517 0.000758 0.001664 -0.002381 0.023146 0.000572
# 6 -0.004168 0.004128 0.002107 -0.000115 0.000572 0.032523
#
#
# Mechanical properties :
#
#
# Convention : Reuss Voigt Hill
#
# Bulk Modulus (GPa) = 43.80409 52.69469 48.24939
# Shear Modulus (GPa) = 33.04432 37.60177 35.32304
#
# Velocity S-wave (km/s) = 3.94990 4.21349 4.08382
# Velocity P-wave (km/s) = 6.44081 6.96784 6.70950
#
# Compressibility (1/GPa) = 0.02282892
#
# Stress axis : x y z
#
# Youngs Moduli (GPa) = 58.82445 75.37300 80.76498
#
# Poissons Ratio (x) = 0.49511 0.05234
# Poissons Ratio (y) = 0.38641 0.21751
# Poissons Ratio (z) = 0.03812 0.20298
#
# Static dielectric constant tensor:
#      x y z
#    x 3.803570 0.257830 -0.109930 
#    y 0.257830 3.896530 0.102680 
#    z -0.109930 0.102680 4.066660 
# 
# 
# High freq. dielectric constant tensor:
#      x y z
#    x 1.826020 0.005260 -0.004230 
#    y 0.005260 1.843350 0.003820 
#    z -0.004230 0.003820 1.848150 
# 
# From -- ./inp_files/91122.got.cif
#   From: 2010.06.25/outbox.cif.g09.slc.cpg/sg2_46_cif.got.tgz:91122.got - 2010.06.27 13:26:56.
