data_PCOD8026517
_publ_section_title
;
Structure prediction by ZEFSAII (Michael W. Deem and Ramdas Pophale) SiO2 
 PCOD8026517
Probable space group: P -1
;
_chemical_formula_sum "Si O2"
_cell_formula_units_Z 16
_cell_length_a 11.895806
_cell_length_b 9.671469
_cell_length_c 12.416051
_cell_angle_alpha 59.513636
_cell_angle_beta 93.576531
_cell_angle_gamma 135.239515
_cell_volume 755.178029
_symmetry_space_group_name_H-M "P -1"
_symmetry_group_IT_number 2
_symmetry_cell_setting 'triclinic'
loop_
_space_group_symop_operation_xyz
x,y,z
-x,-y,-z
loop_
_atom_site_type_symbol
_atom_site_label
_atom_site_fract_x
_atom_site_fract_y
_atom_site_fract_z
Si Si1 0.012866 0.454688 0.724249
Si Si2 0.561221 0.464739 0.367465
Si Si3 0.748480 0.686690 0.508959
Si Si4 0.333227 0.094535 0.185978
Si Si5 0.065916 0.292992 0.307066
Si Si6 0.308501 0.426334 0.085455
Si Si7 0.834624 0.693374 0.109065
Si Si8 0.365253 0.975471 0.452147
O O1 0.110520 0.423494 0.807815
O O2 0.155952 0.681935 0.554663
O O3 0.962361 0.547133 0.762332
O O4 0.836953 0.190417 0.758965
O O5 0.700950 0.575351 0.428821
O O6 0.449966 0.503642 0.370472
O O7 0.677016 0.595536 0.212612
O O8 0.391799 0.152595 0.465871
O O9 0.856050 0.667794 0.585721
O O10 0.878448 0.989050 0.389514
O O11 0.271588 0.195627 0.193928
O O12 0.420925 0.085434 0.290073
O O13 0.474685 0.289154 0.020279
O O14 0.219686 0.424428 0.177065
O O15 0.227856 0.393772 0.981524
O O16 0.000000 0.000000 0.000000
O O17 0.500000 0.000000 0.500000
#
# Coordination Sequence:
#
# PCOD8026517 Si02
#       8
#     2   2   2   2   2   2   2   2
#     4  12  26  41  67 104 137 176 225 284 340 394
#     4  11  22  43  68  98 130 184 223 278 330 405
#     4  10  24  42  67  97 140 177 223 272 347 400
#     4  11  25  43  69  99 134 178 233 277 334 407
#     4  11  25  42  66 101 140 175 220 281 339 405
#     4  11  24  45  70  94 135 188 225 273 335 410
#     4  12  24  45  70  99 134 179 232 275 334 405
#     4  12  23  41  67 100 137 167 225 291 336 387
#
# _framework density 21.187055999999998
#
# number of rings (size 3 to 8) (size 9 to 14) (size 15 to 20)
#    0.000    0.750    5.000    1.875    5.250    1.000 
#    0.000    0.000    0.000    0.000    0.000    0.000 
#    0.000    0.000    0.000    0.000    0.000    0.000 
#
# Total GULP energy -198361.756527 kJ/mol
# GULP energy per Si atom -12397.609783 kJ/mol
# Density = 2.113883 g / cm^3
# Si number density = 21.187056 Si / 1000 Ang^3
#
#
#
# Elastic Constant Matrix: (Units=GPa)
#
#
# Indices 1 2 3 4 5 6 
#
# 1 83.6969 12.8644 39.3868 -7.2176 -2.6933 -10.0348
# 2 12.8644 110.3718 47.2598 -22.0914 -1.7950 16.7662
# 3 39.3868 47.2598 98.0744 -9.3544 1.4329 -5.6961
# 4 -7.2176 -22.0914 -9.3544 37.1700 6.1008 5.6255
# 5 -2.6933 -1.7950 1.4329 6.1008 38.0265 3.9424
# 6 -10.0348 16.7662 -5.6961 5.6255 3.9424 32.9411
#
#
#
# Elastic Compliance Matrix: (Units=1/GPa)
#
#
# Indices 1 2 3 4 5 6 
#
# 1 0.015230 0.000686 -0.006173 0.001232 0.000844 0.002911
# 2 0.000686 0.015689 -0.007607 0.009046 0.000736 -0.010725
# 3 -0.006173 -0.007607 0.016476 -0.002121 -0.001636 0.005398
# 4 0.001232 0.009046 -0.002121 0.034124 -0.003848 -0.009963
# 5 0.000844 0.000736 -0.001636 -0.003848 0.027384 -0.003021
# 6 0.002911 -0.010725 0.005398 -0.009963 -0.003021 0.039699
#
#
# Mechanical properties :
#
#
# Convention : Reuss Voigt Hill
#
# Bulk Modulus (GPa) = 47.15124 54.57392 50.86258
# Shear Modulus (GPa) = 27.49407 34.46965 30.98186
#
# Velocity S-wave (km/s) = 3.60624 4.03789 3.82815
# Velocity P-wave (km/s) = 6.29627 6.89590 6.60290
#
# Compressibility (1/GPa) = 0.02120835
#
# Stress axis : x y z
#
# Youngs Moduli (GPa) = 65.66143 63.73892 60.69528
#
# Poissons Ratio (x) = -0.04373 0.37464
# Poissons Ratio (y) = -0.04505 0.46168
# Poissons Ratio (z) = 0.40530 0.48483
#
# Static dielectric constant tensor:
#      x y z
#    x 3.821740 0.203400 0.085300 
#    y 0.203400 3.861440 -0.160890 
#    z 0.085300 -0.160890 3.901290 
# 
# 
# High freq. dielectric constant tensor:
#      x y z
#    x 1.835680 0.015730 -0.003350 
#    y 0.015730 1.837740 -0.007020 
#    z -0.003350 -0.007020 1.828770 
# 
# From -- ./inp_files/343557.got.cif
#   From: 2010.06.25/outbox.cif.g09.slc.cpg/sg2_172_cif.got.tgz:343557.got - 2010.06.27 13:26:56.
