data_PCOD8026235
_publ_section_title
;
Structure prediction by ZEFSAII (Michael W. Deem and Ramdas Pophale) SiO2 
 PCOD8026235
Probable space group: P -1
;
_chemical_formula_sum "Si O2"
_cell_formula_units_Z 14
_cell_length_a 9.433966
_cell_length_b 11.309610
_cell_length_c 11.304792
_cell_angle_alpha 139.683876
_cell_angle_beta 124.436039
_cell_angle_gamma 48.599910
_cell_volume 580.698854
_symmetry_space_group_name_H-M "P -1"
_symmetry_group_IT_number 2
_symmetry_cell_setting 'triclinic'
loop_
_space_group_symop_operation_xyz
x,y,z
-x,-y,-z
loop_
_atom_site_type_symbol
_atom_site_label
_atom_site_fract_x
_atom_site_fract_y
_atom_site_fract_z
Si Si1 0.642841 0.263670 0.764514
Si Si2 0.696259 0.320272 0.093438
Si Si3 0.896242 0.370560 0.811745
Si Si4 0.329180 0.290188 0.200825
Si Si5 0.741642 0.083203 0.174585
Si Si6 0.004570 0.457335 0.335058
Si Si7 0.916971 0.867574 0.494540
O O1 0.444427 0.443572 0.764468
O O2 0.813983 0.321903 0.854905
O O3 0.633078 0.240106 0.883963
O O4 0.706135 0.049073 0.560520
O O5 0.703506 0.175006 0.093790
O O6 0.903212 0.309150 0.153650
O O7 0.727281 0.508474 0.749963
O O8 0.030152 0.162344 0.644380
O O9 0.000000 0.500000 0.000000
O O10 0.554675 0.202861 0.257959
O O11 0.227465 0.348748 0.324324
O O12 0.244199 0.143041 0.990024
O O13 0.924376 0.096718 0.326809
O O14 0.000000 0.500000 0.500000
O O15 0.900752 0.664044 0.369788
#
# Coordination Sequence:
#
# PCOD8026235 Si02
#       7
#     2   2   2   2   2   2   2
#     4  11  24  42  65  98 130 182 217 265 334 399
#     4  11  24  43  68  93 142 172 217 274 332 390
#     4  11  22  43  66  95 137 173 217 274 332 399
#     4  10  24  40  67  98 130 172 224 271 331 386
#     4  11  22  44  69 101 126 175 223 279 326 388
#     4  11  23  40  61  97 130 172 212 278 327 382
#     4  11  24  40  71  98 130 173 229 270 332 389
#
# _framework density 24.108881
#
# number of rings (size 3 to 8) (size 9 to 14) (size 15 to 20)
#    0.000    1.143    2.857    3.857    2.000    5.143 
#    0.000    1.429    0.000    0.000    0.000    0.000 
#    0.000    0.000    0.000    0.000    0.000    0.000 
#
# Total GULP energy -173510.284185 kJ/mol
# GULP energy per Si atom -12393.591728 kJ/mol
# Density = 2.405401 g / cm^3
# Si number density = 24.108881 Si / 1000 Ang^3
#
#
#
# Elastic Constant Matrix: (Units=GPa)
#
#
# Indices 1 2 3 4 5 6 
#
# 1 109.9619 21.3355 11.7600 9.4387 -24.3905 7.7480
# 2 21.3355 59.2615 15.5934 17.8365 -21.1578 -0.7342
# 3 11.7600 15.5934 77.6973 10.6788 -21.4068 2.3844
# 4 9.4387 17.8365 10.6788 39.5562 -1.0017 -6.4365
# 5 -24.3905 -21.1578 -21.4068 -1.0017 49.2212 9.7941
# 6 7.7480 -0.7342 2.3844 -6.4365 9.7941 25.4389
#
#
#
# Elastic Compliance Matrix: (Units=1/GPa)
#
#
# Indices 1 2 3 4 5 6 
#
# 1 0.011591 -0.000853 0.001160 -0.003715 0.007280 -0.007406
# 2 -0.000853 0.024584 0.000072 -0.011641 0.011191 -0.006292
# 3 0.001160 0.000072 0.016066 -0.005504 0.008802 -0.006638
# 4 -0.003715 -0.011641 -0.005504 0.034982 -0.011424 0.014561
# 5 0.007280 0.011191 0.008802 -0.011424 0.036221 -0.019555
# 6 -0.007406 -0.006292 -0.006638 0.014561 -0.019555 0.053219
#
#
# Mechanical properties :
#
#
# Convention : Reuss Voigt Hill
#
# Bulk Modulus (GPa) = 18.86830 38.25539 28.56184
# Shear Modulus (GPa) = 25.83039 36.05870 30.94454
#
# Velocity S-wave (km/s) = 3.27678 3.87157 3.58653
# Velocity P-wave (km/s) = 4.70741 5.99063 5.38736
#
# Compressibility (1/GPa) = 0.05299896
#
# Stress axis : x y z
#
# Youngs Moduli (GPa) = 86.27430 40.67710 62.24464
#
# Poissons Ratio (x) = 0.03469 -0.07223
# Poissons Ratio (y) = 0.07357 -0.00446
# Poissons Ratio (z) = -0.10012 -0.00291
#
# Static dielectric constant tensor:
#      x y z
#    x 4.118290 0.076830 -0.335120 
#    y 0.076830 4.871670 0.321550 
#    z -0.335120 0.321550 4.350750 
# 
# 
# High freq. dielectric constant tensor:
#      x y z
#    x 1.970410 0.009030 -0.015730 
#    y 0.009030 1.953000 0.021520 
#    z -0.015730 0.021520 1.945960 
# 
# From -- ./inp_files/261934.got.cif
#   From: 2010.06.25/outbox.cif.g09.slc.cpg/sg2_131_cif.got.tgz:261934.got - 2010.06.27 13:26:56.
