data_PCOD8026556
_publ_section_title
;
Structure prediction by ZEFSAII (Michael W. Deem and Ramdas Pophale) SiO2 
 PCOD8026556
Probable space group: P -1
;
_chemical_formula_sum "Si O2"
_cell_formula_units_Z 14
_cell_length_a 25.345991
_cell_length_b 5.143904
_cell_length_c 5.134971
_cell_angle_alpha 84.295403
_cell_angle_beta 93.709962
_cell_angle_gamma 112.761554
_cell_volume 614.037715
_symmetry_space_group_name_H-M "P -1"
_symmetry_group_IT_number 2
_symmetry_cell_setting 'triclinic'
loop_
_space_group_symop_operation_xyz
x,y,z
-x,-y,-z
loop_
_atom_site_type_symbol
_atom_site_label
_atom_site_fract_x
_atom_site_fract_y
_atom_site_fract_z
Si Si1 0.714332 0.061490 0.355062
Si Si2 0.107853 0.235033 0.169699
Si Si3 0.157843 0.522443 0.647132
Si Si4 0.658936 0.732485 0.844456
Si Si5 0.566311 0.658393 0.456445
Si Si6 0.378370 0.740108 0.759868
Si Si7 0.060130 0.615035 0.367169
O O1 0.680481 0.265849 0.394743
O O2 0.704364 0.834248 0.609074
O O3 0.780965 0.231729 0.319842
O O4 0.686407 0.909768 0.092894
O O5 0.143077 0.313367 0.907739
O O6 0.062968 0.390280 0.173845
O O7 0.070094 0.904375 0.194208
O O8 0.154938 0.334110 0.407983
O O9 0.110460 0.662848 0.591535
O O10 0.600308 0.768068 0.728802
O O11 0.640320 0.398794 0.944122
O O12 0.500000 0.500000 0.500000
O O13 0.593439 0.448975 0.362964
O O14 0.576772 0.931714 0.247662
O O15 0.000000 0.500000 0.500000
#
# Coordination Sequence:
#
# PCOD8026556 Si02
#       7
#     2   2   2   2   2   2   2
#     4  11  25  46  71  98 139 177 229 278 336 407
#     4  10  24  42  68  98 137 174 230 272 346 392
#     4  10  25  43  68 101 134 181 226 280 339 399
#     4  11  24  45  70 100 133 178 221 278 336 395
#     4  11  26  47  73 103 137 177 226 276 338 405
#     4  11  24  46  67 104 133 180 219 279 335 398
#     4  10  24  44  69 101 137 180 228 281 338 401
#
# _framework density 22.799901999999999
#
# number of rings (size 3 to 8) (size 9 to 14) (size 15 to 20)
#    0.857    0.571    2.857    1.714    6.000    4.571 
#    0.000    0.000    0.000    0.000    0.000    0.000 
#    0.000    0.000    0.000    0.000    0.000    0.000 
#
# Total GULP energy -173433.707056 kJ/mol
# GULP energy per Si atom -12388.121933 kJ/mol
# Density = 2.274801 g / cm^3
# Si number density = 22.799902 Si / 1000 Ang^3
#
#
#
# Elastic Constant Matrix: (Units=GPa)
#
#
# Indices 1 2 3 4 5 6 
#
# 1 147.0932 67.9229 43.9678 -22.1403 -8.1763 33.5169
# 2 67.9229 145.8368 61.9645 -45.5007 -5.8136 2.1373
# 3 43.9678 61.9645 144.6416 -31.8951 -21.3862 3.0098
# 4 -22.1403 -45.5007 -31.8951 50.1775 9.5468 -10.8806
# 5 -8.1763 -5.8136 -21.3862 9.5468 21.5403 -7.2806
# 6 33.5169 2.1373 3.0098 -10.8806 -7.2806 39.2085
#
#
#
# Elastic Compliance Matrix: (Units=1/GPa)
#
#
# Indices 1 2 3 4 5 6 
#
# 1 0.011855 -0.005612 -0.001828 -0.003150 -0.001071 -0.010761
# 2 -0.005612 0.013463 -0.002423 0.010213 -0.003238 0.006483
# 3 -0.001828 -0.002423 0.010317 0.002577 0.008856 0.003263
# 4 -0.003150 0.010213 0.002577 0.032916 -0.007178 0.009740
# 5 -0.001071 -0.003238 0.008856 -0.007178 0.060373 0.009631
# 6 -0.010761 0.006483 0.003263 0.009740 0.009631 0.038591
#
#
# Mechanical properties :
#
#
# Convention : Reuss Voigt Hill
#
# Bulk Modulus (GPa) = 62.86363 87.25359 75.05861
# Shear Modulus (GPa) = 25.96801 39.76636 32.86719
#
# Velocity S-wave (km/s) = 3.37850 4.18083 3.80089
# Velocity P-wave (km/s) = 6.54605 7.85227 7.22872
#
# Compressibility (1/GPa) = 0.01590745
#
# Stress axis : x y z
#
# Youngs Moduli (GPa) = 84.35435 74.27872 96.92610
#
# Poissons Ratio (x) = 0.41687 0.17722
# Poissons Ratio (y) = 0.47342 0.23485
# Poissons Ratio (z) = 0.15423 0.17997
#
# Static dielectric constant tensor:
#      x y z
#    x 4.116700 0.142190 -0.047810 
#    y 0.142190 4.258630 -0.419480 
#    z -0.047810 -0.419480 4.408110 
# 
# 
# High freq. dielectric constant tensor:
#      x y z
#    x 1.883790 0.006440 -0.006910 
#    y 0.006440 1.901970 -0.020070 
#    z -0.006910 -0.020070 1.906910 
# 
# From -- ./inp_files/120809.got.cif
#   From: 2010.06.25/outbox.cif.g09.slc.cpg/sg2_61_cif.got.tgz:120809.got - 2010.06.27 13:26:56.
