data_PCOD8026427
_publ_section_title
;
Structure prediction by ZEFSAII (Michael W. Deem and Ramdas Pophale) SiO2 
 PCOD8026427
Probable space group: P -1
;
_chemical_formula_sum "Si O2"
_cell_formula_units_Z 16
_cell_length_a 9.383146
_cell_length_b 11.016380
_cell_length_c 13.556681
_cell_angle_alpha 62.580032
_cell_angle_beta 61.631526
_cell_angle_gamma 112.118580
_cell_volume 708.511536
_symmetry_space_group_name_H-M "P -1"
_symmetry_group_IT_number 2
_symmetry_cell_setting 'triclinic'
loop_
_space_group_symop_operation_xyz
x,y,z
-x,-y,-z
loop_
_atom_site_type_symbol
_atom_site_label
_atom_site_fract_x
_atom_site_fract_y
_atom_site_fract_z
Si Si1 0.192301 0.714546 0.912709
Si Si2 0.673734 0.994745 0.395264
Si Si3 0.700385 0.906963 0.722337
Si Si4 0.091767 0.242439 0.328220
Si Si5 0.437047 0.620571 0.483657
Si Si6 0.535789 0.287495 0.929567
Si Si7 0.877458 0.271775 0.848486
Si Si8 0.732073 0.885007 0.100808
O O1 0.212212 0.874183 0.793409
O O2 0.460397 0.815667 0.782955
O O3 0.082750 0.656788 0.079105
O O4 0.000000 0.500000 0.000000
O O5 0.898575 0.102916 0.353811
O O6 0.500000 0.000000 0.500000
O O7 0.533903 0.761994 0.497930
O O8 0.725670 0.769419 0.726169
O O9 0.676024 0.893085 0.853981
O O10 0.939919 0.149896 0.516671
O O11 0.263057 0.485145 0.168257
O O12 0.500000 0.500000 0.500000
O O13 0.551538 0.772629 0.295469
O O14 0.139786 0.442121 0.642158
O O15 0.689897 0.251584 0.859636
O O16 0.407934 0.284663 0.879720
O O17 0.757756 0.045622 0.977231
O O18 0.000000 0.000000 0.000000
#
# Coordination Sequence:
#
# PCOD8026427 Si02
#       8
#     2   2   2   2   2   2   2   2
#     4  11  22  41  69 103 145 188 237 301 357 428
#     4  12  23  43  74 108 149 184 245 303 353 432
#     4  10  24  42  64 102 145 182 236 290 367 425
#     4  11  24  43  69 105 142 195 238 301 367 428
#     4  12  27  47  75 110 146 194 245 300 368 435
#     4  11  26  45  71 100 144 187 247 299 365 435
#     4  11  25  45  69 103 140 189 244 291 367 428
#     4  12  27  49  70 103 141 190 241 304 365 437
#
# _framework density 22.582553000000001
#
# number of rings (size 3 to 8) (size 9 to 14) (size 15 to 20)
#    0.000    0.750    3.750    3.750    1.750    4.500 
#    0.000    0.000    0.000    0.000    0.000    0.000 
#    0.000    0.000    0.000    0.000    0.000    0.000 
#
# Total GULP energy -198365.710300 kJ/mol
# GULP energy per Si atom -12397.856894 kJ/mol
# Density = 2.253115 g / cm^3
# Si number density = 22.582553 Si / 1000 Ang^3
#
#
#
# Elastic Constant Matrix: (Units=GPa)
#
#
# Indices 1 2 3 4 5 6 
#
# 1 98.9844 35.1870 48.3480 6.0378 0.3889 5.8119
# 2 35.1870 99.4920 28.3216 -4.7315 -5.8435 3.4720
# 3 48.3480 28.3216 145.7485 17.6849 -4.8942 2.9144
# 4 6.0378 -4.7315 17.6849 34.1318 -7.6685 2.3427
# 5 0.3889 -5.8435 -4.8942 -7.6685 30.2434 1.8094
# 6 5.8119 3.4720 2.9144 2.3427 1.8094 39.9643
#
#
#
# Elastic Compliance Matrix: (Units=1/GPa)
#
#
# Indices 1 2 3 4 5 6 
#
# 1 0.013366 -0.003842 -0.003557 -0.001369 -0.001766 -0.001190
# 2 -0.003842 0.012224 -0.001451 0.003900 0.003212 -0.000771
# 3 -0.003557 -0.001451 0.008824 -0.004130 0.000132 0.000236
# 4 -0.001369 0.003900 -0.004130 0.034389 0.008958 -0.002260
# 5 -0.001766 0.003212 0.000132 0.008958 0.036132 -0.002193
# 6 -0.001190 -0.000771 0.000236 -0.002260 -0.002193 0.025477
#
#
# Mechanical properties :
#
#
# Convention : Reuss Voigt Hill
#
# Bulk Modulus (GPa) = 59.82727 63.10425 61.46576
# Shear Modulus (GPa) = 32.53479 36.35914 34.44696
#
# Velocity S-wave (km/s) = 3.79978 4.01690 3.90985
# Velocity P-wave (km/s) = 6.76767 7.03694 6.90361
#
# Compressibility (1/GPa) = 0.01671479
#
# Stress axis : x y z
#
# Youngs Moduli (GPa) = 74.81760 81.80721 113.33063
#
# Poissons Ratio (x) = 0.31430 0.40307
# Poissons Ratio (y) = 0.28744 0.16443
# Poissons Ratio (z) = 0.26609 0.11869
#
# Static dielectric constant tensor:
#      x y z
#    x 4.150800 -0.093290 0.065260 
#    y -0.093290 3.690250 -0.522790 
#    z 0.065260 -0.522790 3.350340 
# 
# 
# High freq. dielectric constant tensor:
#      x y z
#    x 1.896700 -0.000470 0.001870 
#    y -0.000470 1.885570 0.001320 
#    z 0.001870 0.001320 1.904850 
# 
# From -- ./inp_files/500145.got.cif
#   From: 2010.06.25/outbox.cif.g09.slc.cpg/sg2_251_cif.got.tgz:500145.got - 2010.06.27 13:26:56.
