data_PCOD8026618
_publ_section_title
;
Structure prediction by ZEFSAII (Michael W. Deem and Ramdas Pophale) SiO2 
 PCOD8026618
Probable space group: P -1
;
_chemical_formula_sum "Si O2"
_cell_formula_units_Z 14
_cell_length_a 9.221807
_cell_length_b 11.625384
_cell_length_c 18.080394
_cell_angle_alpha 28.211307
_cell_angle_beta 143.344898
_cell_angle_gamma 132.295956
_cell_volume 543.049459
_symmetry_space_group_name_H-M "P -1"
_symmetry_group_IT_number 2
_symmetry_cell_setting 'triclinic'
loop_
_space_group_symop_operation_xyz
x,y,z
-x,-y,-z
loop_
_atom_site_type_symbol
_atom_site_label
_atom_site_fract_x
_atom_site_fract_y
_atom_site_fract_z
Si Si1 0.019822 0.435875 0.458640
Si Si2 0.231632 0.659097 0.974122
Si Si3 0.514861 0.919757 0.185817
Si Si4 0.554401 0.189907 0.353364
Si Si5 0.908842 0.304585 0.936291
Si Si6 0.806227 0.084475 0.810967
Si Si7 0.883046 0.841140 0.600937
O O1 0.221953 0.210702 0.653707
O O2 0.123749 0.661249 0.333612
O O3 0.000000 0.500000 0.500000
O O4 0.768302 0.353762 0.371165
O O5 0.040203 0.819102 0.752676
O O6 0.474357 0.797547 0.993816
O O7 0.315023 0.386686 0.128694
O O8 0.110677 0.629504 0.021846
O O9 0.313726 0.839550 0.094200
O O10 0.455494 0.889836 0.266958
O O11 0.500000 0.000000 0.500000
O O12 0.623138 0.006825 0.415765
O O13 0.867904 0.560999 0.727545
O O14 0.161280 0.129946 0.117585
O O15 0.000000 0.000000 0.000000
O O16 0.000000 0.000000 0.500000
#
# Coordination Sequence:
#
# PCOD8026618 Si02
#       7
#     2   2   2   2   2   2   2
#     4  12  25  45  74 111 148 193 254 303 366 448
#     4  12  25  50  76 107 151 197 248 311 368 441
#     4  11  24  44  77 111 149 191 247 315 368 432
#     4  12  27  49  75 110 151 197 252 303 371 446
#     4  11  24  48  74 108 147 197 252 297 375 449
#     4  10  24  42  71 105 145 189 241 308 368 429
#     4  12  30  49  74 109 154 195 250 310 373 448
#
# _framework density 25.780338
#
# number of rings (size 3 to 8) (size 9 to 14) (size 15 to 20)
#    0.000    0.571    2.857    4.714    6.000    1.714 
#    0.000    0.000    0.000    0.000    0.000    0.000 
#    0.000    0.000    0.000    0.000    0.000    0.000 
#
# Total GULP energy -173511.111465 kJ/mol
# GULP energy per Si atom -12393.650819 kJ/mol
# Density = 2.572166 g / cm^3
# Si number density = 25.780338 Si / 1000 Ang^3
#
#
#
# Elastic Constant Matrix: (Units=GPa)
#
#
# Indices 1 2 3 4 5 6 
#
# 1 180.6065 20.7873 54.8221 -26.0910 7.2870 5.7864
# 2 20.7873 63.5999 10.8194 -33.3707 17.9666 -1.1992
# 3 54.8221 10.8194 112.3980 -40.1190 1.3307 6.9892
# 4 -26.0910 -33.3707 -40.1190 42.8624 0.5748 -4.2275
# 5 7.2870 17.9666 1.3307 0.5748 51.0673 -9.3344
# 6 5.7864 -1.1992 6.9892 -4.2275 -9.3344 47.6349
#
#
#
# Elastic Compliance Matrix: (Units=1/GPa)
#
#
# Indices 1 2 3 4 5 6 
#
# 1 0.006681 -0.001663 -0.003138 -0.000208 -0.000373 -0.000485
# 2 -0.001663 0.040367 0.012041 0.041912 -0.014697 0.000291
# 3 -0.003138 0.012041 0.018065 0.024365 -0.004665 -0.000718
# 4 -0.000208 0.041912 0.024365 0.078991 -0.015987 0.001383
# 5 -0.000373 -0.014697 -0.004665 -0.015987 0.025839 0.004004
# 6 -0.000485 0.000291 -0.000718 0.001383 0.004004 0.022072
#
#
# Mechanical properties :
#
#
# Convention : Reuss Voigt Hill
#
# Bulk Modulus (GPa) = 12.56394 58.82912 35.69653
# Shear Modulus (GPa) = 24.50181 46.32462 35.41322
#
# Velocity S-wave (km/s) = 3.08621 4.24358 3.71030
# Velocity P-wave (km/s) = 4.19328 6.84686 5.67729
#
# Compressibility (1/GPa) = 0.07959290
#
# Stress axis : x y z
#
# Youngs Moduli (GPa) = 149.66734 24.77298 55.35493
#
# Poissons Ratio (x) = 0.04119 0.17373
# Poissons Ratio (y) = 0.24885 -0.66653
# Poissons Ratio (z) = 0.46972 -0.29829
#
# Static dielectric constant tensor:
#      x y z
#    x 6.692080 -0.313020 1.654460 
#    y -0.313020 4.999660 -0.664320 
#    z 1.654460 -0.664320 7.728160 
# 
# 
# High freq. dielectric constant tensor:
#      x y z
#    x 2.048880 0.009310 0.011670 
#    y 0.009310 2.058090 -0.019660 
#    z 0.011670 -0.019660 2.038180 
# 
# From -- ./inp_files/559614.got.cif
#   From: 2010.06.25/outbox.cif.g09.slc.cpg/sg2_280_cif.got.tgz:559614.got - 2010.06.27 13:26:56.
