data_PCOD8026065
_publ_section_title
;
Structure prediction by ZEFSAII (Michael W. Deem and Ramdas Pophale) SiO2 
 PCOD8026065
Probable space group: P -1
;
_chemical_formula_sum "Si O2"
_cell_formula_units_Z 14
_cell_length_a 16.477216
_cell_length_b 10.568385
_cell_length_c 18.158459
_cell_angle_alpha 48.212818
_cell_angle_beta 16.325661
_cell_angle_gamma 48.535676
_cell_volume 658.863176
_symmetry_space_group_name_H-M "P -1"
_symmetry_group_IT_number 2
_symmetry_cell_setting 'triclinic'
loop_
_space_group_symop_operation_xyz
x,y,z
-x,-y,-z
loop_
_atom_site_type_symbol
_atom_site_label
_atom_site_fract_x
_atom_site_fract_y
_atom_site_fract_z
Si Si1 0.299064 0.696029 0.276954
Si Si2 0.022840 0.864675 0.811390
Si Si3 0.504517 0.661172 0.548954
Si Si4 0.482028 0.719168 0.273432
Si Si5 0.678381 0.630183 0.836413
Si Si6 0.979271 0.151427 0.017294
Si Si7 0.140531 0.045956 0.504029
O O1 0.444478 0.695998 0.228935
O O2 0.029272 0.576372 0.554380
O O3 0.166878 0.886589 0.292869
O O4 0.561324 0.630838 0.020706
O O5 0.306210 0.725742 0.626415
O O6 0.792666 0.778140 0.996992
O O7 0.105579 0.029438 0.629586
O O8 0.906114 0.919553 0.974097
O O9 0.538074 0.458689 0.599800
O O10 0.825100 0.712338 0.238976
O O11 0.347553 0.751510 0.724269
O O12 0.230593 0.858543 0.466761
O O13 0.626516 0.818462 0.769515
O O14 0.500000 0.500000 0.000000
O O15 0.000000 0.000000 0.000000
#
# Coordination Sequence:
#
# PCOD8026065 Si02
#       7
#     2   2   2   2   2   2   2
#     4  10  25  42  70 101 130 184 218 282 336 394
#     4  10  24  40  71  99 136 181 219 283 338 397
#     4  10  25  42  70 101 130 184 218 282 336 394
#     4  12  24  44  64 106 142 172 232 270 346 400
#     4  10  23  48  69  97 136 175 232 277 334 398
#     4  10  23  48  69  97 136 175 232 277 334 398
#     4  10  24  40  71  99 136 181 219 283 338 397
#
# _framework density 21.248722000000001
#
# number of rings (size 3 to 8) (size 9 to 14) (size 15 to 20)
#    1.714    0.000    0.000    3.429    4.000    2.286 
#    2.571    2.857    0.000    0.000    0.000    0.000 
#    0.000    0.000    0.000    0.000    0.000    0.000 
#
# Total GULP energy -173459.238613 kJ/mol
# GULP energy per Si atom -12389.945615 kJ/mol
# Density = 2.120036 g / cm^3
# Si number density = 21.248722 Si / 1000 Ang^3
#
#
#
# Elastic Constant Matrix: (Units=GPa)
#
#
# Indices 1 2 3 4 5 6 
#
# 1 126.0232 33.4132 56.7730 -24.4138 -1.2639 0.4580
# 2 33.4132 36.5041 25.9228 -18.9362 -9.8622 0.7546
# 3 56.7730 25.9228 116.2376 -17.3496 25.7555 5.7214
# 4 -24.4138 -18.9362 -17.3496 27.2489 2.5056 -3.5299
# 5 -1.2639 -9.8622 25.7555 2.5056 30.7092 3.0895
# 6 0.4580 0.7546 5.7214 -3.5299 3.0895 31.9899
#
#
#
# Elastic Compliance Matrix: (Units=1/GPa)
#
#
# Indices 1 2 3 4 5 6 
#
# 1 0.012300 -0.004759 -0.004911 0.004482 0.002625 0.001055
# 2 -0.004759 0.065917 -0.014916 0.029388 0.030941 0.001435
# 3 -0.004911 -0.014916 0.018774 -0.001061 -0.020544 -0.001069
# 4 0.004482 0.029388 -0.001061 0.060735 0.004988 0.005652
# 5 0.002625 0.030941 -0.020544 0.004988 0.059663 -0.002305
# 6 0.001055 0.001435 -0.001069 0.005652 -0.002305 0.032248
#
#
# Mechanical properties :
#
#
# Convention : Reuss Voigt Hill
#
# Bulk Modulus (GPa) = 20.91206 56.77586 38.84396
# Shear Modulus (GPa) = 15.88571 28.83332 22.35952
#
# Velocity S-wave (km/s) = 2.73721 3.68767 3.24740
# Velocity P-wave (km/s) = 4.45563 6.70146 5.69044
#
# Compressibility (1/GPa) = 0.04781929
#
# Stress axis : x y z
#
# Youngs Moduli (GPa) = 81.30230 15.17066 53.26393
#
# Poissons Ratio (x) = 0.07220 0.26157
# Poissons Ratio (y) = 0.38692 0.79449
# Poissons Ratio (z) = 0.39925 0.22629
#
# Static dielectric constant tensor:
#      x y z
#    x 3.825650 -0.106250 0.218110 
#    y -0.106250 3.628330 -0.013100 
#    z 0.218110 -0.013100 3.954660 
# 
# 
# High freq. dielectric constant tensor:
#      x y z
#    x 1.831410 -0.007600 0.017310 
#    y -0.007600 1.811360 -0.000110 
#    z 0.017310 -0.000110 1.842700 
# 
# From -- ./inp_files/572843.got.cif
#   From: 2010.06.25/outbox.cif.g09.slc.cpg/sg2_287_cif.got.tgz:572843.got - 2010.06.27 13:26:56.
