data_PCOD8026949
_publ_section_title
;
Structure prediction by ZEFSAII (Michael W. Deem and Ramdas Pophale) SiO2 
 PCOD8026949
Probable space group: P -1
;
_chemical_formula_sum "Si O2"
_cell_formula_units_Z 16
_cell_length_a 14.349804
_cell_length_b 8.146211
_cell_length_c 15.869206
_cell_angle_alpha 141.493359
_cell_angle_beta 43.762630
_cell_angle_gamma 148.480380
_cell_volume 595.082019
_symmetry_space_group_name_H-M "P -1"
_symmetry_group_IT_number 2
_symmetry_cell_setting 'triclinic'
loop_
_space_group_symop_operation_xyz
x,y,z
-x,-y,-z
loop_
_atom_site_type_symbol
_atom_site_label
_atom_site_fract_x
_atom_site_fract_y
_atom_site_fract_z
Si Si1 0.324972 0.098175 0.956236
Si Si2 0.544720 0.021334 0.883552
Si Si3 0.203286 0.211999 0.935474
Si Si4 0.799338 0.015538 0.322849
Si Si5 0.827425 0.490256 0.361603
Si Si6 0.448856 0.153129 0.433614
Si Si7 0.180854 0.354255 0.265660
Si Si8 0.800416 0.882394 0.669522
O O1 0.191497 0.097400 0.102006
O O2 0.500000 0.500000 0.000000
O O3 0.372924 0.869992 0.872940
O O4 0.242714 0.979686 0.865681
O O5 0.630354 0.848587 0.745846
O O6 0.695973 0.439873 0.934883
O O7 0.500000 0.000000 0.000000
O O8 0.259676 0.288751 0.829673
O O9 0.000000 0.000000 0.000000
O O10 0.868074 0.328134 0.340629
O O11 0.969324 0.157562 0.326570
O O12 0.631274 0.886070 0.436929
O O13 0.628488 0.208069 0.336268
O O14 0.818728 0.761857 0.521101
O O15 0.005278 0.722995 0.277674
O O16 0.500000 0.500000 0.500000
O O17 0.304579 0.771722 0.324777
O O18 0.247729 0.373214 0.324181
#
# Coordination Sequence:
#
# PCOD8026949 Si02
#       8
#     2   2   2   2   2   2   2   2
#     4  10  24  43  72 107 146 199 247 301 370 441
#     4  11  24  44  75 109 148 199 248 312 368 443
#     4  11  24  47  72 109 148 200 249 300 378 448
#     4  12  26  48  78 108 154 200 248 315 382 452
#     4  11  27  45  74 109 151 196 244 312 378 453
#     4  12  29  47  75 115 145 197 259 317 382 452
#     4  12  25  49  77 105 154 197 249 315 385 445
#     4  11  25  47  75 109 154 196 250 304 383 453
#
# _framework density 26.887049999999999
#
# number of rings (size 3 to 8) (size 9 to 14) (size 15 to 20)
#    0.000    0.750    3.750    2.250   10.500    0.000 
#    0.000    3.750    0.000    0.000    0.000    0.000 
#    0.000    0.000    0.000    0.000    0.000    0.000 
#
# Total GULP energy -198225.137567 kJ/mol
# GULP energy per Si atom -12389.071098 kJ/mol
# Density = 2.682585 g / cm^3
# Si number density = 26.887050 Si / 1000 Ang^3
#
#
#
# Elastic Constant Matrix: (Units=GPa)
#
#
# Indices 1 2 3 4 5 6 
#
# 1 180.0013 19.8802 29.9950 -2.4627 -19.1248 2.0024
# 2 19.8802 70.7331 -2.4795 -1.4516 -9.2315 1.0113
# 3 29.9950 -2.4795 85.0032 -4.8757 -10.9787 4.6168
# 4 -2.4627 -1.4516 -4.8757 40.8836 0.0099 -2.7675
# 5 -19.1248 -9.2315 -10.9787 0.0099 51.7761 -0.7113
# 6 2.0024 1.0113 4.6168 -2.7675 -0.7113 39.9258
#
#
#
# Elastic Compliance Matrix: (Units=1/GPa)
#
#
# Indices 1 2 3 4 5 6 
#
# 1 0.006244 -0.001618 -0.002041 0.000075 0.001585 -0.000003
# 2 -0.001618 0.014965 0.001365 0.000571 0.002355 -0.000374
# 3 -0.002041 0.001365 0.012961 0.001383 0.002219 -0.001296
# 4 0.000075 0.000571 0.001383 0.024754 0.000439 0.001546
# 5 0.001585 0.002355 0.002219 0.000439 0.020790 0.000005
# 6 -0.000003 -0.000374 -0.001296 0.001546 0.000005 0.025313
#
#
# Mechanical properties :
#
#
# Convention : Reuss Voigt Hill
#
# Bulk Modulus (GPa) = 33.80693 47.83655 40.82174
# Shear Modulus (GPa) = 41.84969 45.73991 43.79480
#
# Velocity S-wave (km/s) = 3.94953 4.12902 4.04027
# Velocity P-wave (km/s) = 5.77922 6.36883 6.08118
#
# Compressibility (1/GPa) = 0.02957973
#
# Stress axis : x y z
#
# Youngs Moduli (GPa) = 160.15827 66.82433 77.15622
#
# Poissons Ratio (x) = 0.10812 0.15750
# Poissons Ratio (y) = 0.25914 -0.10529
# Poissons Ratio (z) = 0.32693 -0.09119
#
# Static dielectric constant tensor:
#      x y z
#    x 5.876290 0.500940 -0.673130 
#    y 0.500940 5.450500 0.005920 
#    z -0.673130 0.005920 4.761230 
# 
# 
# High freq. dielectric constant tensor:
#      x y z
#    x 2.089380 0.003450 -0.010540 
#    y 0.003450 2.077850 -0.002270 
#    z -0.010540 -0.002270 2.103680 
# 
# From -- ./inp_files/572936.got.cif
#   From: 2010.06.25/outbox.cif.g09.slc.cpg/sg2_287_cif.got.tgz:572936.got - 2010.06.27 13:26:56.
