data_PCOD8026363
_publ_section_title
;
Structure prediction by ZEFSAII (Michael W. Deem and Ramdas Pophale) SiO2 
 PCOD8026363
Probable space group: P -1
;
_chemical_formula_sum "Si O2"
_cell_formula_units_Z 16
_cell_length_a 11.818336
_cell_length_b 9.390541
_cell_length_c 11.653645
_cell_angle_alpha 57.276135
_cell_angle_beta 92.522418
_cell_angle_gamma 129.762731
_cell_volume 739.754984
_symmetry_space_group_name_H-M "P -1"
_symmetry_group_IT_number 2
_symmetry_cell_setting 'triclinic'
loop_
_space_group_symop_operation_xyz
x,y,z
-x,-y,-z
loop_
_atom_site_type_symbol
_atom_site_label
_atom_site_fract_x
_atom_site_fract_y
_atom_site_fract_z
Si Si1 0.770399 0.524586 0.907518
Si Si2 0.062579 0.381782 0.580966
Si Si3 0.994914 0.797924 0.584757
Si Si4 0.409796 0.860124 0.402879
Si Si5 0.460709 0.363170 0.845069
Si Si6 0.372525 0.116977 0.443122
Si Si7 0.123965 0.094763 0.068995
Si Si8 0.436768 0.006608 0.876960
O O1 0.607510 0.450980 0.893173
O O2 0.863746 0.727790 0.924758
O O3 0.893268 0.620258 0.766172
O O4 0.717134 0.276556 0.053587
O O5 0.240677 0.589626 0.561689
O O6 0.000000 0.500000 0.500000
O O7 0.097679 0.338783 0.478375
O O8 0.939478 0.136539 0.760717
O O9 0.177183 0.918221 0.539110
O O10 0.000000 0.000000 0.500000
O O11 0.566181 0.930027 0.428563
O O12 0.413384 0.061998 0.350727
O O13 0.415094 0.849933 0.270497
O O14 0.534316 0.602539 0.675324
O O15 0.395095 0.157730 0.835216
O O16 0.306523 0.249409 0.965498
O O17 0.000000 0.000000 0.000000
O O18 0.500000 0.000000 0.000000
#
# Coordination Sequence:
#
# PCOD8026363 Si02
#       8
#     2   2   2   2   2   2   2   2
#     4  11  24  44  70  97 135 177 228 278 336 414
#     4  12  25  42  71 102 133 182 232 285 327 412
#     4  12  23  45  71 101 131 176 233 278 341 402
#     4  11  25  44  67  98 138 176 225 274 344 398
#     4  11  23  43  70  97 134 176 228 276 338 406
#     4  11  24  44  69  99 135 179 219 281 338 405
#     4  12  27  44  66 101 141 179 223 284 352 408
#     4  10  24  41  68  99 129 175 223 279 327 409
#
# _framework density 21.628782999999999
#
# number of rings (size 3 to 8) (size 9 to 14) (size 15 to 20)
#    0.000    0.750    3.750    3.375    5.250    2.500 
#    0.000    1.250    0.000    0.000    0.000    0.000 
#    0.000    0.000    0.000    0.000    0.000    0.000 
#
# Total GULP energy -198361.994069 kJ/mol
# GULP energy per Si atom -12397.624629 kJ/mol
# Density = 2.157956 g / cm^3
# Si number density = 21.628783 Si / 1000 Ang^3
#
#
#
# Elastic Constant Matrix: (Units=GPa)
#
#
# Indices 1 2 3 4 5 6 
#
# 1 92.3904 40.3145 37.0603 6.6470 4.5460 0.1568
# 2 40.3145 121.8688 45.3877 -0.6512 12.5250 -14.8135
# 3 37.0603 45.3877 118.2993 -9.0150 -11.6069 -5.4268
# 4 6.6470 -0.6512 -9.0150 42.3399 -12.4691 0.8502
# 5 4.5460 12.5250 -11.6069 -12.4691 25.7333 -6.7955
# 6 0.1568 -14.8135 -5.4268 0.8502 -6.7955 41.1391
#
#
#
# Elastic Compliance Matrix: (Units=1/GPa)
#
#
# Indices 1 2 3 4 5 6 
#
# 1 0.014610 -0.002764 -0.004680 -0.005215 -0.006572 -0.002646
# 2 -0.002764 0.011958 -0.004624 -0.002813 -0.008142 0.002420
# 3 -0.004680 -0.004624 0.013690 0.007502 0.013476 0.002230
# 4 -0.005215 -0.002813 0.007502 0.032468 0.022197 0.002992
# 5 -0.006572 -0.008142 0.013476 0.022197 0.063154 0.008844
# 6 -0.002646 0.002420 0.002230 0.002992 0.008844 0.026882
#
#
# Mechanical properties :
#
#
# Convention : Reuss Voigt Hill
#
# Bulk Modulus (GPa) = 62.03110 64.23151 63.13130
# Shear Modulus (GPa) = 26.00476 35.82885 30.91680
#
# Velocity S-wave (km/s) = 3.47121 4.07447 3.78488
# Velocity P-wave (km/s) = 6.69387 7.20394 6.95359
#
# Compressibility (1/GPa) = 0.01612094
#
# Stress axis : x y z
#
# Youngs Moduli (GPa) = 68.44547 83.62645 73.04771
#
# Poissons Ratio (x) = 0.23115 0.34188
# Poissons Ratio (y) = 0.18919 0.33778
# Poissons Ratio (z) = 0.32034 0.38670
#
# Static dielectric constant tensor:
#      x y z
#    x 3.849010 -0.292680 0.043870 
#    y -0.292680 4.405240 -0.304800 
#    z 0.043870 -0.304800 3.872350 
# 
# 
# High freq. dielectric constant tensor:
#      x y z
#    x 1.845540 -0.017290 -0.010390 
#    y -0.017290 1.866840 -0.012890 
#    z -0.010390 -0.012890 1.854370 
# 
# From -- ./inp_files/419179.got.cif
#   From: 2010.06.25/outbox.cif.g09.slc.cpg/sg2_210_cif.got.tgz:419179.got - 2010.06.27 13:26:56.
