data_PCOD8026221
_publ_section_title
;
Structure prediction by ZEFSAII (Michael W. Deem and Ramdas Pophale) SiO2 
 PCOD8026221
Probable space group: P -1
;
_chemical_formula_sum "Si O2"
_cell_formula_units_Z 16
_cell_length_a 11.684510
_cell_length_b 12.874118
_cell_length_c 8.958318
_cell_angle_alpha 133.503398
_cell_angle_beta 54.253344
_cell_angle_gamma 113.392052
_cell_volume 793.271802
_symmetry_space_group_name_H-M "P -1"
_symmetry_group_IT_number 2
_symmetry_cell_setting 'triclinic'
loop_
_space_group_symop_operation_xyz
x,y,z
-x,-y,-z
loop_
_atom_site_type_symbol
_atom_site_label
_atom_site_fract_x
_atom_site_fract_y
_atom_site_fract_z
Si Si1 0.860982 0.002696 0.706189
Si Si2 0.501687 0.996802 0.320904
Si Si3 0.228489 0.501321 0.834806
Si Si4 0.632805 0.793066 0.580129
Si Si5 0.995567 0.744093 0.747081
Si Si6 0.988840 0.501844 0.264223
Si Si7 0.823516 0.006666 0.065883
Si Si8 0.621883 0.213391 0.005560
O O1 0.773256 0.858203 0.609203
O O2 0.767350 0.139824 0.871649
O O3 0.000000 0.000000 0.500000
O O4 0.909539 0.011314 0.849276
O O5 0.434104 0.849225 0.169885
O O6 0.500000 0.000000 0.500000
O O7 0.405882 0.127439 0.465028
O O8 0.659990 0.012307 0.157313
O O9 0.331669 0.367994 0.644031
O O10 0.152100 0.503111 0.733636
O O11 0.121462 0.510632 0.062749
O O12 0.344607 0.622672 0.879109
O O13 0.499708 0.813306 0.808627
O O14 0.001145 0.642925 0.788685
O O15 0.985882 0.643970 0.509262
O O16 0.131855 0.849120 0.735528
O O17 0.863178 0.856384 0.969896
#
# Coordination Sequence:
#
# PCOD8026221 Si02
#       8
#     2   2   2   2   2   2   2   2
#     4  11  23  38  72  99 130 166 220 270 324 373
#     4  11  25  42  66  93 133 168 209 266 325 391
#     4  11  25  40  70  90 129 168 225 265 321 370
#     4  11  23  45  64  96 129 170 217 267 319 387
#     4  10  24  40  66  90 136 166 208 262 334 382
#     4  10  24  44  59  99 130 169 209 277 316 385
#     4  11  22  41  68  99 126 170 216 266 326 379
#     4  11  23  45  64  96 129 170 217 267 319 387
#
# _framework density 20.169630999999999
#
# number of rings (size 3 to 8) (size 9 to 14) (size 15 to 20)
#    0.000    1.250    2.500    2.625   10.500    2.000 
#    0.000    0.625    0.000    0.000    0.000    0.000 
#    0.000    0.000    0.000    0.000    0.000    0.000 
#
# Total GULP energy -198395.187608 kJ/mol
# GULP energy per Si atom -12399.699225 kJ/mol
# Density = 2.012372 g / cm^3
# Si number density = 20.169631 Si / 1000 Ang^3
#
#
#
# Elastic Constant Matrix: (Units=GPa)
#
#
# Indices 1 2 3 4 5 6 
#
# 1 122.3387 56.8843 51.7736 6.7028 15.5052 10.7940
# 2 56.8843 111.8210 63.9514 19.4384 20.6662 16.1658
# 3 51.7736 63.9514 97.1071 2.0899 11.4073 10.1066
# 4 6.7028 19.4384 2.0899 45.5427 6.2068 8.2725
# 5 15.5052 20.6662 11.4073 6.2068 34.8369 -13.6350
# 6 10.7940 16.1658 10.1066 8.2725 -13.6350 24.8095
#
#
#
# Elastic Compliance Matrix: (Units=1/GPa)
#
#
# Indices 1 2 3 4 5 6 
#
# 1 0.011867 -0.002591 -0.003575 0.001066 -0.004705 -0.004960
# 2 -0.002591 0.020622 -0.009029 -0.003518 -0.013270 -0.014752
# 3 -0.003575 -0.009029 0.018247 0.003837 -0.000267 -0.001421
# 4 0.001066 -0.003518 0.003837 0.027097 -0.010070 -0.014304
# 5 -0.004705 -0.013270 -0.000267 -0.010070 0.058729 0.046437
# 6 -0.004960 -0.014752 -0.001421 -0.014304 0.046437 0.082947
#
#
# Mechanical properties :
#
#
# Convention : Reuss Voigt Hill
#
# Bulk Modulus (GPa) = 49.15105 75.16506 62.15806
# Shear Modulus (GPa) = 19.47951 31.61499 25.54725
#
# Velocity S-wave (km/s) = 3.11108 3.96340 3.56282
# Velocity P-wave (km/s) = 6.10957 7.63493 6.91444
#
# Compressibility (1/GPa) = 0.02034545
#
# Stress axis : x y z
#
# Youngs Moduli (GPa) = 84.26569 48.49264 54.80401
#
# Poissons Ratio (x) = 0.12565 0.19591
# Poissons Ratio (y) = 0.21835 0.49484
# Poissons Ratio (z) = 0.30122 0.43786
#
# Static dielectric constant tensor:
#      x y z
#    x 3.844080 0.055110 -0.001160 
#    y 0.055110 3.809860 0.112940 
#    z -0.001160 0.112940 3.801560 
# 
# 
# High freq. dielectric constant tensor:
#      x y z
#    x 1.800210 -0.000030 0.004010 
#    y -0.000030 1.792750 0.009170 
#    z 0.004010 0.009170 1.788540 
# 
# From -- ./inp_files/261412.got.cif
#   From: 2010.06.25/outbox.cif.g09.slc.cpg/sg2_131_cif.got.tgz:261412.got - 2010.06.27 13:26:56.
