data_PCOD8026756
_publ_section_title
;
Structure prediction by ZEFSAII (Michael W. Deem and Ramdas Pophale) SiO2 
 PCOD8026756
Probable space group: P -1
;
_chemical_formula_sum "Si O2"
_cell_formula_units_Z 14
_cell_length_a 6.788214
_cell_length_b 15.739787
_cell_length_c 16.246502
_cell_angle_alpha 154.451786
_cell_angle_beta 120.796345
_cell_angle_gamma 58.978423
_cell_volume 636.338412
_symmetry_space_group_name_H-M "P -1"
_symmetry_group_IT_number 2
_symmetry_cell_setting 'triclinic'
loop_
_space_group_symop_operation_xyz
x,y,z
-x,-y,-z
loop_
_atom_site_type_symbol
_atom_site_label
_atom_site_fract_x
_atom_site_fract_y
_atom_site_fract_z
Si Si1 0.562282 0.694631 0.861298
Si Si2 0.426120 0.730935 0.197880
Si Si3 0.396778 0.297548 0.300571
Si Si4 0.023676 0.092192 0.836617
Si Si5 0.063031 0.827223 0.926774
Si Si6 0.723049 0.046802 0.479954
Si Si7 0.330953 0.770927 0.546190
O O1 0.515153 0.803191 0.856361
O O2 0.323076 0.713483 0.876343
O O3 0.665256 0.462863 0.668983
O O4 0.756083 0.794540 0.038245
O O5 0.373790 0.781367 0.326172
O O6 0.195421 0.786621 0.146006
O O7 0.629650 0.843159 0.304682
O O8 0.500000 0.500000 0.000000
O O9 0.500000 0.500000 0.500000
O O10 0.486690 0.177378 0.297907
O O11 0.115913 0.330902 0.266761
O O12 0.079156 0.871542 0.614964
O O13 0.976085 0.073265 0.905806
O O14 0.000000 0.000000 0.000000
O O15 0.620207 0.125090 0.438233
O O16 0.000000 0.000000 0.500000
#
# Coordination Sequence:
#
# PCOD8026756 Si02
#       7
#     2   2   2   2   2   2   2
#     4  10  24  43  67 102 135 179 225 266 331 401
#     4  11  28  47  71  98 134 173 222 282 340 396
#     4   9  21  42  61  97 137 174 214 269 325 385
#     4  11  25  43  66 101 134 175 219 277 340 387
#     4  11  23  40  68  99 135 176 230 268 321 405
#     4  11  26  48  68 103 129 171 229 277 334 403
#     4  11  23  43  71  93 139 176 218 277 332 390
#
# _framework density 22.000871
#
# number of rings (size 3 to 8) (size 9 to 14) (size 15 to 20)
#    0.000    1.429    1.429    1.714    8.000    5.143 
#    5.143    0.000    0.000    0.000    0.000    0.000 
#    0.000    0.000    0.000    0.000    0.000    0.000 
#
# Total GULP energy -173550.725626 kJ/mol
# GULP energy per Si atom -12396.480402 kJ/mol
# Density = 2.195080 g / cm^3
# Si number density = 22.000871 Si / 1000 Ang^3
#
#
#
# Elastic Constant Matrix: (Units=GPa)
#
#
# Indices 1 2 3 4 5 6 
#
# 1 171.3680 63.5481 70.8885 1.8069 1.1462 -4.4437
# 2 63.5481 136.0732 52.9933 -8.8961 -16.7806 8.9479
# 3 70.8885 52.9933 118.2605 13.4987 -14.2423 1.6407
# 4 1.8069 -8.8961 13.4987 38.1634 -7.2909 -10.3199
# 5 1.1462 -16.7806 -14.2423 -7.2909 37.4884 -6.3217
# 6 -4.4437 8.9479 1.6407 -10.3199 -6.3217 39.4464
#
#
#
# Elastic Compliance Matrix: (Units=1/GPa)
#
#
# Indices 1 2 3 4 5 6 
#
# 1 0.008743 -0.002803 -0.004389 0.000318 -0.002887 0.001424
# 2 -0.002803 0.010745 -0.003088 0.004370 0.004442 -0.000769
# 3 -0.004389 -0.003088 0.013385 -0.005083 0.002637 -0.001258
# 4 0.000318 0.004370 -0.005083 0.033009 0.007982 0.009171
# 5 -0.002887 0.004442 0.002637 0.007982 0.032287 0.005820
# 6 0.001424 -0.000769 -0.001258 0.009171 0.005820 0.029070
#
#
# Mechanical properties :
#
#
# Convention : Reuss Voigt Hill
#
# Bulk Modulus (GPa) = 81.20504 88.95128 85.07816
# Shear Modulus (GPa) = 32.91571 38.90443 35.91007
#
# Velocity S-wave (km/s) = 3.87215 4.20969 4.04445
# Velocity P-wave (km/s) = 7.54861 8.00920 7.78231
#
# Compressibility (1/GPa) = 0.01231451
#
# Stress axis : x y z
#
# Youngs Moduli (GPa) = 114.37624 93.07000 74.70816
#
# Poissons Ratio (x) = 0.26086 0.32787
# Poissons Ratio (y) = 0.32058 0.23068
# Poissons Ratio (z) = 0.50196 0.28738
#
# Static dielectric constant tensor:
#      x y z
#    x 4.186890 0.148510 -0.044710 
#    y 0.148510 4.291160 -0.300190 
#    z -0.044710 -0.300190 4.348050 
# 
# 
# High freq. dielectric constant tensor:
#      x y z
#    x 1.870130 0.003200 -0.004580 
#    y 0.003200 1.871650 -0.014070 
#    z -0.004580 -0.014070 1.870540 
# 
# From -- ./inp_files/484662.got.cif
#   From: 2010.06.25/outbox.cif.g09.slc.cpg/sg2_243_cif.got.tgz:484662.got - 2010.06.27 13:26:56.
