data_PCOD8026829
_publ_section_title
;
Structure prediction by ZEFSAII (Michael W. Deem and Ramdas Pophale) SiO2 
 PCOD8026829
Probable space group: P -1
;
_chemical_formula_sum "Si O2"
_cell_formula_units_Z 16
_cell_length_a 14.696590
_cell_length_b 5.049392
_cell_length_c 16.694963
_cell_angle_alpha 73.611814
_cell_angle_beta 31.710466
_cell_angle_gamma 86.509617
_cell_volume 583.997859
_symmetry_space_group_name_H-M "P -1"
_symmetry_group_IT_number 2
_symmetry_cell_setting 'triclinic'
loop_
_space_group_symop_operation_xyz
x,y,z
-x,-y,-z
loop_
_atom_site_type_symbol
_atom_site_label
_atom_site_fract_x
_atom_site_fract_y
_atom_site_fract_z
Si Si1 0.888167 0.973274 0.699057
Si Si2 0.664136 0.360222 0.836320
Si Si3 0.742910 0.984831 0.546480
Si Si4 0.145196 0.297678 0.089107
Si Si5 0.546214 0.276007 0.095988
Si Si6 0.279383 0.215268 0.834785
Si Si7 0.061930 0.369811 0.858076
Si Si8 0.700027 0.531776 0.476454
O O1 0.807562 0.218428 0.706270
O O2 0.104009 0.071792 0.503612
O O3 0.768524 0.656700 0.782855
O O4 0.910723 0.968299 0.780965
O O5 0.533970 0.448313 0.863832
O O6 0.539347 0.146162 0.020718
O O7 0.572287 0.969265 0.732951
O O8 0.686313 0.760763 0.533842
O O9 0.816377 0.325298 0.434045
O O10 0.246302 0.601344 0.036288
O O11 0.289287 0.260169 0.919433
O O12 0.970374 0.329473 0.169705
O O13 0.488814 0.305076 0.635514
O O14 0.182981 0.423097 0.844054
O O15 0.140824 0.879123 0.952340
O O16 0.186579 0.292139 0.701078
#
# Coordination Sequence:
#
# PCOD8026829 Si02
#       8
#     2   2   2   2   2   2   2   2
#     4  11  24  42  70  97 138 184 225 288 347 415
#     4  10  25  44  66 102 135 179 232 283 350 411
#     4  12  25  43  72 101 138 184 237 284 351 419
#     4  11  22  43  68  96 135 185 230 288 346 422
#     4  10  24  43  68  99 137 180 230 289 342 424
#     4  11  25  44  73 103 141 188 238 288 357 416
#     4  11  25  46  69 105 143 186 235 295 350 420
#     4  12  26  47  69 110 140 188 237 292 347 418
#
# _framework density 27.397359999999999
#
# number of rings (size 3 to 8) (size 9 to 14) (size 15 to 20)
#    0.000    1.000    2.500    3.000    7.000    6.500 
#    0.000    1.250    0.000    0.000    0.000    0.000 
#    0.000    0.000    0.000    0.000    0.000    0.000 
#
# Total GULP energy -198292.372802 kJ/mol
# GULP energy per Si atom -12393.273300 kJ/mol
# Density = 2.733500 g / cm^3
# Si number density = 27.397360 Si / 1000 Ang^3
#
#
#
# Elastic Constant Matrix: (Units=GPa)
#
#
# Indices 1 2 3 4 5 6 
#
# 1 64.7542 3.5339 -12.2283 -2.2813 -5.2925 -4.6413
# 2 3.5339 77.0467 -1.7299 10.3400 -0.7575 -14.2839
# 3 -12.2283 -1.7299 104.5515 -3.3389 -6.5997 9.3780
# 4 -2.2813 10.3400 -3.3389 26.0423 -5.9523 3.7190
# 5 -5.2925 -0.7575 -6.5997 -5.9523 43.4915 12.7237
# 6 -4.6413 -14.2839 9.3780 3.7190 12.7237 30.8654
#
#
#
# Elastic Compliance Matrix: (Units=1/GPa)
#
#
# Indices 1 2 3 4 5 6 
#
# 1 0.016215 -0.001069 0.002152 0.002762 0.002705 -0.000158
# 2 -0.001069 0.016177 -0.001393 -0.009241 -0.004454 0.010699
# 3 0.002152 -0.001393 0.010684 0.003853 0.004055 -0.005703
# 4 0.002762 -0.009241 0.003853 0.047761 0.011885 -0.015686
# 5 0.002705 -0.004454 0.004055 0.011885 0.030419 -0.016858
# 6 -0.000158 0.010699 -0.005703 -0.015686 -0.016858 0.047898
#
#
# Mechanical properties :
#
#
# Convention : Reuss Voigt Hill
#
# Bulk Modulus (GPa) = 23.55425 25.05598 24.30511
# Shear Modulus (GPa) = 27.18502 37.19828 32.19165
#
# Velocity S-wave (km/s) = 3.15342 3.68874 3.43153
# Velocity P-wave (km/s) = 4.67703 5.22567 4.95895
#
# Compressibility (1/GPa) = 0.04245518
#
# Stress axis : x y z
#
# Youngs Moduli (GPa) = 61.67210 61.81718 93.59952
#
# Poissons Ratio (x) = 0.06607 -0.20142
# Poissons Ratio (y) = 0.06591 0.13041
# Poissons Ratio (z) = -0.13271 0.08613
#
# Static dielectric constant tensor:
#      x y z
#    x 5.210500 -0.260910 -0.012100 
#    y -0.260910 4.504340 -0.021940 
#    z -0.012100 -0.021940 5.328330 
# 
# 
# High freq. dielectric constant tensor:
#      x y z
#    x 2.109390 -0.012170 -0.002670 
#    y -0.012170 2.082800 0.001030 
#    z -0.002670 0.001030 2.117750 
# 
# From -- ./inp_files/46665.got.cif
#   From: 2010.06.25/outbox.cif.g09.slc.cpg/sg2_24_cif.got.tgz:46665.got - 2010.06.27 13:26:56.
