data_PCOD8026814
_publ_section_title
;
Structure prediction by ZEFSAII (Michael W. Deem and Ramdas Pophale) SiO2 
 PCOD8026814
Probable space group: P -1
;
_chemical_formula_sum "Si O2"
_cell_formula_units_Z 14
_cell_length_a 9.355069
_cell_length_b 8.900232
_cell_length_c 12.491719
_cell_angle_alpha 122.946543
_cell_angle_beta 98.499411
_cell_angle_gamma 49.095072
_cell_volume 623.076411
_symmetry_space_group_name_H-M "P -1"
_symmetry_group_IT_number 2
_symmetry_cell_setting 'triclinic'
loop_
_space_group_symop_operation_xyz
x,y,z
-x,-y,-z
loop_
_atom_site_type_symbol
_atom_site_label
_atom_site_fract_x
_atom_site_fract_y
_atom_site_fract_z
Si Si1 0.537428 0.049529 0.908260
Si Si2 0.474365 0.252307 0.373518
Si Si3 0.335215 0.555968 0.076657
Si Si4 0.153808 0.116435 0.596497
Si Si5 0.083487 0.034929 0.122884
Si Si6 0.150287 0.456168 0.586341
Si Si7 0.727835 0.345692 0.659423
O O1 0.584057 0.860898 0.753174
O O2 0.726451 0.019245 0.919898
O O3 0.339495 0.338286 0.968170
O O4 0.500000 0.000000 0.000000
O O5 0.351898 0.344951 0.506234
O O6 0.413864 0.485262 0.392699
O O7 0.710097 0.037139 0.342982
O O8 0.397147 0.526971 0.196573
O O9 0.130554 0.836649 0.137730
O O10 0.500000 0.500000 0.000000
O O11 0.208159 0.258969 0.604582
O O12 0.918891 0.315854 0.677058
O O13 0.195949 0.922771 0.441484
O O14 0.931309 0.300091 0.266765
O O15 0.000000 0.000000 0.000000
O O16 0.000000 0.500000 0.500000
#
# Coordination Sequence:
#
# PCOD8026814 Si02
#       7
#     2   2   2   2   2   2   2
#     4  11  23  45  68  99 140 183 232 295 354 419
#     4  12  25  44  72 104 139 183 237 289 352 423
#     4  10  24  43  68  93 139 187 227 282 356 418
#     4  11  26  41  73 103 137 183 231 289 355 417
#     4  11  26  45  71 102 138 189 237 287 357 425
#     4  12  23  47  73  99 143 184 234 292 349 417
#     4  11  23  46  67 102 144 179 228 297 351 414
#
# _framework density 22.469155000000001
#
# number of rings (size 3 to 8) (size 9 to 14) (size 15 to 20)
#    0.000    0.857    4.286    1.714    6.000    3.429 
#    0.000    1.429    0.000    0.000    0.000    0.000 
#    0.000    0.000    0.000    0.000    0.000    0.000 
#
# Total GULP energy -173573.868815 kJ/mol
# GULP energy per Si atom -12398.133487 kJ/mol
# Density = 2.241801 g / cm^3
# Si number density = 22.469155 Si / 1000 Ang^3
#
#
#
# Elastic Constant Matrix: (Units=GPa)
#
#
# Indices 1 2 3 4 5 6 
#
# 1 53.3503 29.5930 31.1911 -3.5173 -12.5152 6.7676
# 2 29.5930 160.6928 45.5057 3.6418 -10.4759 18.4015
# 3 31.1911 45.5057 144.5656 9.5015 -7.6553 12.4805
# 4 -3.5173 3.6418 9.5015 41.9322 8.4250 12.4343
# 5 -12.5152 -10.4759 -7.6553 8.4250 35.7259 -6.0134
# 6 6.7676 18.4015 12.4805 12.4343 -6.0134 43.7511
#
#
#
# Elastic Compliance Matrix: (Units=1/GPa)
#
#
# Indices 1 2 3 4 5 6 
#
# 1 0.024473 -0.002858 -0.004107 0.002381 0.006083 -0.001253
# 2 -0.002858 0.007463 -0.001517 0.000010 0.000489 -0.002199
# 3 -0.004107 -0.001517 0.008478 -0.002046 0.000328 -0.000518
# 4 0.002381 0.000010 -0.002046 0.028787 -0.007915 -0.009058
# 5 0.006083 0.000489 0.000328 -0.007915 0.033139 0.005564
# 6 -0.001253 -0.002199 -0.000518 -0.009058 0.005564 0.027462
#
#
# Mechanical properties :
#
#
# Convention : Reuss Voigt Hill
#
# Bulk Modulus (GPa) = 42.64542 63.46534 53.05538
# Shear Modulus (GPa) = 32.34544 41.10312 36.72428
#
# Velocity S-wave (km/s) = 3.79825 4.28169 4.04720
# Velocity P-wave (km/s) = 6.18518 7.26296 6.74563
#
# Compressibility (1/GPa) = 0.02344918
#
# Stress axis : x y z
#
# Youngs Moduli (GPa) = 40.86105 134.00205 117.95845
#
# Poissons Ratio (x) = 0.38296 0.48444
# Poissons Ratio (y) = 0.11678 0.17898
# Poissons Ratio (z) = 0.16781 0.20332
#
# Static dielectric constant tensor:
#      x y z
#    x 3.951990 0.300380 0.080220 
#    y 0.300380 4.861160 0.327780 
#    z 0.080220 0.327780 4.340740 
# 
# 
# High freq. dielectric constant tensor:
#      x y z
#    x 1.870360 0.019960 -0.002800 
#    y 0.019960 1.903220 0.013920 
#    z -0.002800 0.013920 1.895490 
# 
# From -- ./inp_files/243098.got.cif
#   From: 2010.06.25/outbox.cif.g09.slc.cpg/sg2_122_cif.got.tgz:243098.got - 2010.06.27 13:26:56.
