data_PCOD8026549
_publ_section_title
;
Structure prediction by ZEFSAII (Michael W. Deem and Ramdas Pophale) SiO2 
 PCOD8026549
Probable space group: P -1
;
_chemical_formula_sum "Si O2"
_cell_formula_units_Z 16
_cell_length_a 16.853234
_cell_length_b 15.181268
_cell_length_c 15.428517
_cell_angle_alpha 26.860180
_cell_angle_beta 31.812539
_cell_angle_gamma 28.131685
_cell_volume 803.245078
_symmetry_space_group_name_H-M "P -1"
_symmetry_group_IT_number 2
_symmetry_cell_setting 'triclinic'
loop_
_space_group_symop_operation_xyz
x,y,z
-x,-y,-z
loop_
_atom_site_type_symbol
_atom_site_label
_atom_site_fract_x
_atom_site_fract_y
_atom_site_fract_z
Si Si1 0.886774 0.798137 0.427504
Si Si2 0.832359 0.809872 0.662515
Si Si3 0.013121 0.284715 0.221457
Si Si4 0.601151 0.309756 0.190880
Si Si5 0.610184 0.111424 0.826574
Si Si6 0.684171 0.295417 0.446310
Si Si7 0.244596 0.516025 0.249223
Si Si8 0.591865 0.608501 0.092487
O O1 0.922333 0.783828 0.509271
O O2 0.814622 0.636367 0.611208
O O3 0.075994 0.716878 0.280288
O O4 0.735413 0.050673 0.319399
O O5 0.984393 0.686049 0.702347
O O6 0.705128 0.075922 0.568693
O O7 0.725227 0.679760 0.871295
O O8 0.861361 0.239584 0.378111
O O9 0.187391 0.062956 0.222251
O O10 0.000000 0.500000 0.000000
O O11 0.410789 0.354170 0.299350
O O12 0.558188 0.473908 0.168646
O O13 0.694732 0.363308 0.980675
O O14 0.553460 0.327827 0.621639
O O15 0.587478 0.170419 0.899337
O O16 0.500000 0.000000 0.000000
O O17 0.648535 0.481423 0.244070
#
# Coordination Sequence:
#
# PCOD8026549 Si02
#       8
#     2   2   2   2   2   2   2   2
#     4  11  22  43  69  93 129 164 209 262 324 385
#     4  11  21  38  63  88 125 163 207 258 314 372
#     4  11  22  39  61  88 125 169 210 257 311 370
#     4  11  23  42  67  95 130 163 208 265 324 379
#     4  11  21  37  60  87 122 161 213 253 304 375
#     4  11  22  40  62  84 124 171 200 258 319 362
#     4  10  24  42  68  97 125 165 207 260 329 395
#     4  12  22  39  63  90 124 163 209 261 315 368
#
# _framework density 19.919201000000001
#
# number of rings (size 3 to 8) (size 9 to 14) (size 15 to 20)
#    0.000    1.000    6.250    2.625    0.000    2.000 
#    0.000    1.250    2.750    0.000    0.000    0.000 
#    0.000    0.000    0.000    0.000    0.000    0.000 
#
# Total GULP energy -198281.273315 kJ/mol
# GULP energy per Si atom -12392.579582 kJ/mol
# Density = 1.987386 g / cm^3
# Si number density = 19.919201 Si / 1000 Ang^3
#
#
#
# Elastic Constant Matrix: (Units=GPa)
#
#
# Indices 1 2 3 4 5 6 
#
# 1 95.5793 37.0418 8.7122 17.3049 19.1459 1.1108
# 2 37.0418 53.4214 20.3705 7.3981 16.5486 0.4060
# 3 8.7122 20.3705 76.1022 6.0654 11.2334 -7.3798
# 4 17.3049 7.3981 6.0654 34.8478 -0.5777 2.8767
# 5 19.1459 16.5486 11.2334 -0.5777 33.8290 4.4787
# 6 1.1108 0.4060 -7.3798 2.8767 4.4787 35.8239
#
#
#
# Elastic Compliance Matrix: (Units=1/GPa)
#
#
# Indices 1 2 3 4 5 6 
#
# 1 0.016221 -0.009435 0.002140 -0.006622 -0.005557 0.001271
# 2 -0.009435 0.029840 -0.005795 -0.000740 -0.007311 -0.000266
# 3 0.002140 -0.005795 0.015684 -0.002960 -0.004163 0.003988
# 4 -0.006622 -0.000740 -0.002960 0.033075 0.006164 -0.003823
# 5 -0.005557 -0.007311 -0.004163 0.006164 0.038553 -0.005917
# 6 0.001271 -0.000266 0.003988 -0.003823 -0.005917 0.029746
#
#
# Mechanical properties :
#
#
# Convention : Reuss Voigt Hill
#
# Bulk Modulus (GPa) = 28.11759 39.70577 33.91168
# Shear Modulus (GPa) = 24.85671 31.49872 28.17771
#
# Velocity S-wave (km/s) = 3.53636 3.98090 3.76520
# Velocity P-wave (km/s) = 5.55166 6.41146 5.99699
#
# Compressibility (1/GPa) = 0.03556492
#
# Stress axis : x y z
#
# Youngs Moduli (GPa) = 61.64783 33.51221 63.76100
#
# Poissons Ratio (x) = 0.31618 -0.13643
# Poissons Ratio (y) = 0.58163 0.36949
# Poissons Ratio (z) = -0.13191 0.19420
#
# Static dielectric constant tensor:
#      x y z
#    x 3.934660 -0.031890 0.420840 
#    y -0.031890 3.843220 -0.303680 
#    z 0.420840 -0.303680 4.162330 
# 
# 
# High freq. dielectric constant tensor:
#      x y z
#    x 1.776880 0.012760 0.006470 
#    y 0.012760 1.781180 -0.006100 
#    z 0.006470 -0.006100 1.800870 
# 
# From -- ./inp_files/221649.got.cif
#   From: 2010.06.25/outbox.cif.g09.slc.cpg/sg2_111_cif.got.tgz:221649.got - 2010.06.27 13:26:56.
