data_PCOD8026298
_publ_section_title
;
Structure prediction by ZEFSAII (Michael W. Deem and Ramdas Pophale) SiO2 
 PCOD8026298
Probable space group: P -1
;
_chemical_formula_sum "Si O2"
_cell_formula_units_Z 16
_cell_length_a 28.130912
_cell_length_b 6.449425
_cell_length_c 12.324150
_cell_angle_alpha 54.920723
_cell_angle_beta 26.030558
_cell_angle_gamma 48.475016
_cell_volume 733.126516
_symmetry_space_group_name_H-M "P -1"
_symmetry_group_IT_number 2
_symmetry_cell_setting 'triclinic'
loop_
_space_group_symop_operation_xyz
x,y,z
-x,-y,-z
loop_
_atom_site_type_symbol
_atom_site_label
_atom_site_fract_x
_atom_site_fract_y
_atom_site_fract_z
Si Si1 0.445318 0.178476 0.833308
Si Si2 0.322630 0.874703 0.679170
Si Si3 0.835786 0.579301 0.043208
Si Si4 0.238838 0.866843 0.615174
Si Si5 0.608637 0.567788 0.731554
Si Si6 0.767247 0.568358 0.943648
Si Si7 0.057579 0.689020 0.516743
Si Si8 0.737203 0.605995 0.667727
O O1 0.532779 0.307750 0.562451
O O2 0.554475 0.887092 0.717918
O O3 0.347517 0.175649 0.947812
O O4 0.380131 0.301063 0.043676
O O5 0.281585 0.914207 0.628603
O O6 0.269788 0.187752 0.742514
O O7 0.264686 0.699384 0.917779
O O8 0.860473 0.261760 0.125168
O O9 0.794106 0.639993 0.985919
O O10 0.959412 0.603993 0.797756
O O11 0.339270 0.618188 0.422983
O O12 0.211040 0.153811 0.521047
O O13 0.704456 0.506468 0.650923
O O14 0.500000 0.500000 0.000000
O O15 0.880433 0.511336 0.651853
O O16 0.156435 0.654140 0.416658
O O17 0.000000 0.000000 0.500000
#
# Coordination Sequence:
#
# PCOD8026298 Si02
#       8
#     2   2   2   2   2   2   2   2
#     4  11  21  39  63  96 133 167 204 264 319 381
#     4  11  21  41  64  94 134 168 209 264 321 379
#     4  11  23  42  68  91 126 175 217 264 315 376
#     4  11  22  41  64  95 131 167 214 259 315 382
#     4  12  22  39  65  98 132 167 209 257 320 387
#     4  10  24  41  64  95 126 168 218 260 322 381
#     4  11  24  47  69  90 128 169 215 276 316 368
#     4  11  24  43  65  97 130 170 214 258 323 379
#
# _framework density 21.824339999999999
#
# number of rings (size 3 to 8) (size 9 to 14) (size 15 to 20)
#    0.000    1.000    5.000    1.875    0.000    2.000 
#    4.500    2.500    0.000    0.000    0.000    0.000 
#    0.000    0.000    0.000    0.000    0.000    0.000 
#
# Total GULP energy -198218.340785 kJ/mol
# GULP energy per Si atom -12388.646299 kJ/mol
# Density = 2.177467 g / cm^3
# Si number density = 21.824340 Si / 1000 Ang^3
#
#
#
# Elastic Constant Matrix: (Units=GPa)
#
#
# Indices 1 2 3 4 5 6 
#
# 1 94.5006 41.6271 26.5652 13.4328 3.5632 -4.7705
# 2 41.6271 73.2182 30.6686 -2.0293 -10.3545 -4.8591
# 3 26.5652 30.6686 132.2597 -0.3143 -5.1195 -0.9657
# 4 13.4328 -2.0293 -0.3143 32.7704 4.0331 -1.7569
# 5 3.5632 -10.3545 -5.1195 4.0331 31.1423 4.0528
# 6 -4.7705 -4.8591 -0.9657 -1.7569 4.0528 32.7482
#
#
#
# Elastic Compliance Matrix: (Units=1/GPa)
#
#
# Indices 1 2 3 4 5 6 
#
# 1 0.016283 -0.009479 -0.001255 -0.006659 -0.004506 0.001129
# 2 -0.009479 0.021393 -0.002766 0.004375 0.007036 0.001076
# 3 -0.001255 -0.002766 0.008476 0.000325 0.000628 -0.000403
# 4 -0.006659 0.004375 0.000325 0.033905 -0.002355 0.001799
# 5 -0.004506 0.007036 0.000628 -0.002355 0.035916 -0.004165
# 6 0.001129 0.001076 -0.000403 0.001799 -0.004165 0.031460
#
#
# Mechanical properties :
#
#
# Convention : Reuss Voigt Hill
#
# Bulk Modulus (GPa) = 52.20948 55.30002 53.75475
# Shear Modulus (GPa) = 27.65201 32.74001 30.19601
#
# Velocity S-wave (km/s) = 3.56339 3.87739 3.72370
# Velocity P-wave (km/s) = 6.39569 6.74086 6.57055
#
# Compressibility (1/GPa) = 0.01915361
#
# Stress axis : x y z
#
# Youngs Moduli (GPa) = 61.41192 46.74347 117.97422
#
# Poissons Ratio (x) = 0.44308 0.14801
# Poissons Ratio (y) = 0.58213 0.32634
# Poissons Ratio (z) = 0.07705 0.12930
#
# Static dielectric constant tensor:
#      x y z
#    x 1.428140 8.111510 -11.844370 
#    y 8.111510 -23.973180 40.408630 
#    z -11.844370 40.408630 -54.886070 
# 
# 
# High freq. dielectric constant tensor:
#      x y z
#    x 1.852500 -0.004080 0.011120 
#    y -0.004080 1.846740 -0.018830 
#    z 0.011120 -0.018830 1.882070 
# 
# From -- ./inp_files/68510.got.cif
#   From: 2010.06.25/outbox.cif.g09.slc.cpg/sg2_35_cif.got.tgz:68510.got - 2010.06.27 13:26:56.
