data_PCOD8026135
_publ_section_title
;
Structure prediction by ZEFSAII (Michael W. Deem and Ramdas Pophale) SiO2 
 PCOD8026135
Probable space group: P -1
;
_chemical_formula_sum "Si O2"
_cell_formula_units_Z 14
_cell_length_a 21.752131
_cell_length_b 13.077645
_cell_length_c 21.138752
_cell_angle_alpha 151.750448
_cell_angle_beta 166.859297
_cell_angle_gamma 28.799628
_cell_volume 637.438763
_symmetry_space_group_name_H-M "P -1"
_symmetry_group_IT_number 2
_symmetry_cell_setting 'triclinic'
loop_
_space_group_symop_operation_xyz
x,y,z
-x,-y,-z
loop_
_atom_site_type_symbol
_atom_site_label
_atom_site_fract_x
_atom_site_fract_y
_atom_site_fract_z
Si Si1 0.273454 0.922079 0.545760
Si Si2 0.593817 0.355092 0.587688
Si Si3 0.420066 0.284665 0.966138
Si Si4 0.959572 0.407035 0.789517
Si Si5 0.929439 0.909158 0.691676
Si Si6 0.069664 0.756783 0.462379
Si Si7 0.510142 0.360845 0.871331
O O1 0.422700 0.705622 0.537471
O O2 0.088310 0.831237 0.363664
O O3 0.483124 0.061402 0.865204
O O4 0.090477 0.088760 0.404266
O O5 0.285419 0.399803 0.329015
O O6 0.778985 0.146983 0.695581
O O7 0.750857 0.557242 0.871039
O O8 0.112431 0.298849 0.691783
O O9 0.617699 0.275246 0.218899
O O10 0.443344 0.498614 0.066130
O O11 0.965652 0.407347 0.719867
O O12 0.777371 0.723941 0.468761
O O13 0.247947 0.851911 0.998289
O O14 0.000000 0.000000 0.500000
O O15 0.500000 0.500000 0.000000
#
# Coordination Sequence:
#
# PCOD8026135 Si02
#       7
#     2   2   2   2   2   2   2
#     4  10  24  38  68 101 135 162 210 271 331 383
#     4  10  24  40  65  98 131 168 214 264 328 374
#     4  12  26  42  67  97 135 164 220 262 324 391
#     4  12  23  42  66  90 138 171 217 255 315 397
#     4  10  24  38  63  99 130 162 209 261 336 376
#     4  12  27  44  65  93 133 182 209 260 315 382
#     4  12  22  40  66  95 131 169 206 272 331 375
#
# _framework density 21.962893999999999
#
# number of rings (size 3 to 8) (size 9 to 14) (size 15 to 20)
#    0.857    0.000    2.857    4.286    4.000    2.286 
#    0.000    0.000    0.000   17.143    0.000    0.000 
#    0.000    0.000    0.000    0.000    0.000    0.000 
#
# Total GULP energy -173603.676019 kJ/mol
# GULP energy per Si atom -12400.262573 kJ/mol
# Density = 2.191291 g / cm^3
# Si number density = 21.962894 Si / 1000 Ang^3
#
#
#
# Elastic Constant Matrix: (Units=GPa)
#
#
# Indices 1 2 3 4 5 6 
#
# 1 106.3632 31.1081 18.4706 7.6954 -8.1733 0.1122
# 2 31.1081 48.1177 9.3106 8.7220 -0.8103 9.2519
# 3 18.4706 9.3106 73.4293 0.4090 -11.4105 -7.0935
# 4 7.6954 8.7220 0.4090 33.3194 -0.8057 2.5497
# 5 -8.1733 -0.8103 -11.4105 -0.8057 40.5662 8.0604
# 6 0.1122 9.2519 -7.0935 2.5497 8.0604 37.3505
#
#
#
# Elastic Compliance Matrix: (Units=1/GPa)
#
#
# Indices 1 2 3 4 5 6 
#
# 1 0.012083 -0.007534 -0.001721 -0.000854 0.001539 0.001229
# 2 -0.007534 0.028399 -0.002409 -0.005133 -0.000330 -0.007048
# 3 -0.001721 -0.002409 0.015133 0.000716 0.003338 0.002707
# 4 -0.000854 -0.005133 0.000716 0.031632 0.000735 -0.000908
# 5 0.001539 -0.000330 0.003338 0.000735 0.026931 -0.005151
# 6 0.001229 -0.007048 0.002707 -0.000908 -0.005151 0.030203
#
#
# Mechanical properties :
#
#
# Convention : Reuss Voigt Hill
#
# Bulk Modulus (GPa) = 30.97344 38.40989 34.69166
# Shear Modulus (GPa) = 28.01526 33.51529 30.76527
#
# Velocity S-wave (km/s) = 3.57539 3.91064 3.74677
# Velocity P-wave (km/s) = 5.58371 6.15770 5.87772
#
# Compressibility (1/GPa) = 0.03228573
#
# Stress axis : x y z
#
# Youngs Moduli (GPa) = 82.76136 35.21196 66.07951
#
# Poissons Ratio (x) = 0.26529 0.11375
# Poissons Ratio (y) = 0.62354 0.15921
# Poissons Ratio (z) = 0.14247 0.08484
#
# Static dielectric constant tensor:
#      x y z
#    x 4.034150 0.063900 -0.043100 
#    y 0.063900 3.948830 0.069080 
#    z -0.043100 0.069080 3.955850 
# 
# 
# High freq. dielectric constant tensor:
#      x y z
#    x 1.848060 0.006300 0.003240 
#    y 0.006300 1.863630 0.001200 
#    z 0.003240 0.001200 1.869250 
# 
# From -- ./inp_files/583368.got.cif
#   From: 2010.06.25/outbox.cif.g09.slc.cpg/sg2_292_cif.got.tgz:583368.got - 2010.06.27 13:26:56.
