data_PCOD8026578
_publ_section_title
;
Structure prediction by ZEFSAII (Michael W. Deem and Ramdas Pophale) SiO2 
 PCOD8026578
Probable space group: P -1
;
_chemical_formula_sum "Si O2"
_cell_formula_units_Z 16
_cell_length_a 7.859805
_cell_length_b 19.101488
_cell_length_c 8.839148
_cell_angle_alpha 128.111003
_cell_angle_beta 129.291172
_cell_angle_gamma 60.412866
_cell_volume 796.484710
_symmetry_space_group_name_H-M "P -1"
_symmetry_group_IT_number 2
_symmetry_cell_setting 'triclinic'
loop_
_space_group_symop_operation_xyz
x,y,z
-x,-y,-z
loop_
_atom_site_type_symbol
_atom_site_label
_atom_site_fract_x
_atom_site_fract_y
_atom_site_fract_z
Si Si1 0.471919 0.808149 0.299573
Si Si2 0.490489 0.493060 0.736456
Si Si3 0.557552 0.039710 0.927218
Si Si4 0.817896 0.018820 0.547822
Si Si5 0.678526 0.616689 0.245060
Si Si6 0.298783 0.790584 0.852063
Si Si7 0.795242 0.398606 0.534909
Si Si8 0.143436 0.083749 0.273802
O O1 0.253996 0.872482 0.330408
O O2 0.547736 0.718908 0.322661
O O3 0.662226 0.868552 0.487329
O O4 0.423974 0.776042 0.062198
O O5 0.361971 0.428253 0.677562
O O6 0.711095 0.440884 0.705997
O O7 0.307802 0.536961 0.572137
O O8 0.570132 0.568338 0.984761
O O9 0.384722 0.029247 0.683801
O O10 0.790146 0.984977 0.920480
O O11 0.574554 0.145404 0.097271
O O12 0.500000 0.000000 0.000000
O O13 0.925889 0.974427 0.703038
O O14 0.000000 0.000000 0.500000
O O15 0.938281 0.614855 0.350170
O O16 0.299447 0.694950 0.647204
O O17 0.045982 0.839473 0.795413
#
# Coordination Sequence:
#
# PCOD8026578 Si02
#       8
#     2   2   2   2   2   2   2   2
#     4  11  22  41  62  91 125 164 211 259 309 373
#     4  10  24  42  69  97 126 165 207 263 325 392
#     4  11  23  38  61  91 124 164 215 260 310 372
#     4  11  23  40  61  89 127 170 213 260 311 371
#     4  11  22  44  68  93 131 165 208 262 325 383
#     4  12  22  39  66  89 125 166 210 259 316 366
#     4  11  23  42  68  97 129 163 211 262 323 383
#     4  11  22  41  62  83 125 169 206 258 309 366
#
# _framework density 20.088272
#
# number of rings (size 3 to 8) (size 9 to 14) (size 15 to 20)
#    0.000    1.000    5.000    2.625    1.750    3.000 
#    0.000    0.000    2.750    0.000    0.000    0.000 
#    0.000    0.000    0.000    0.000    0.000    0.000 
#
# Total GULP energy -198378.792827 kJ/mol
# GULP energy per Si atom -12398.674552 kJ/mol
# Density = 2.004255 g / cm^3
# Si number density = 20.088272 Si / 1000 Ang^3
#
#
#
# Elastic Constant Matrix: (Units=GPa)
#
#
# Indices 1 2 3 4 5 6 
#
# 1 100.7665 46.9935 20.5478 9.8224 -12.8953 18.6599
# 2 46.9935 120.3826 26.9529 16.0068 -8.0680 5.5714
# 3 20.5478 26.9529 69.2752 6.6809 -2.8079 9.3764
# 4 9.8224 16.0068 6.6809 35.4075 -0.8454 0.0293
# 5 -12.8953 -8.0680 -2.8079 -0.8454 27.7196 -4.3314
# 6 18.6599 5.5714 9.3764 0.0293 -4.3314 28.8725
#
#
#
# Elastic Compliance Matrix: (Units=1/GPa)
#
#
# Indices 1 2 3 4 5 6 
#
# 1 0.014299 -0.004493 -0.001175 -0.001612 0.004022 -0.007388
# 2 -0.004493 0.011120 -0.002893 -0.003211 0.001046 0.001858
# 3 -0.001175 -0.002893 0.016597 -0.001504 -0.000399 -0.004131
# 4 -0.001612 -0.003211 -0.001504 0.030409 -0.000592 0.002030
# 5 0.004022 0.001046 -0.000399 -0.000592 0.038682 0.003132
# 6 -0.007388 0.001858 -0.004131 0.002030 0.003132 0.040860
#
#
# Mechanical properties :
#
#
# Convention : Reuss Voigt Hill
#
# Bulk Modulus (GPa) = 40.17037 53.26809 46.71923
# Shear Modulus (GPa) = 28.18710 31.46192 29.82451
#
# Velocity S-wave (km/s) = 3.74994 3.96180 3.85733
# Velocity P-wave (km/s) = 6.22814 6.89220 6.56857
#
# Compressibility (1/GPa) = 0.02489397
#
# Stress axis : x y z
#
# Youngs Moduli (GPa) = 69.93699 89.93162 60.25122
#
# Poissons Ratio (x) = 0.40406 0.07078
# Poissons Ratio (y) = 0.31423 0.17431
# Poissons Ratio (z) = 0.08216 0.26017
#
# Static dielectric constant tensor:
#      x y z
#    x 3.538980 0.151640 -0.033940 
#    y 0.151640 3.764410 0.084200 
#    z -0.033940 0.084200 3.803490 
# 
# 
# High freq. dielectric constant tensor:
#      x y z
#    x 1.775250 -0.002140 0.008080 
#    y -0.002140 1.793090 -0.003560 
#    z 0.008080 -0.003560 1.801800 
# 
# From -- ./inp_files/218405.got.cif
#   From: 2010.06.25/outbox.cif.g09.slc.cpg/sg2_110_cif.got.tgz:218405.got - 2010.06.27 13:26:56.
