data_PCOD8026247
_publ_section_title
;
Structure prediction by ZEFSAII (Michael W. Deem and Ramdas Pophale) SiO2 
 PCOD8026247
Probable space group: P -1
;
_chemical_formula_sum "Si O2"
_cell_formula_units_Z 10
_cell_length_a 10.963079
_cell_length_b 9.096238
_cell_length_c 9.102517
_cell_angle_alpha 92.430938
_cell_angle_beta 63.839655
_cell_angle_gamma 141.054737
_cell_volume 433.452843
_symmetry_space_group_name_H-M "P -1"
_symmetry_group_IT_number 2
_symmetry_cell_setting 'triclinic'
loop_
_space_group_symop_operation_xyz
x,y,z
-x,-y,-z
loop_
_atom_site_type_symbol
_atom_site_label
_atom_site_fract_x
_atom_site_fract_y
_atom_site_fract_z
Si Si1 0.247220 0.159455 0.454069
Si Si2 0.026920 0.539719 0.240644
Si Si3 0.166621 0.814913 0.906348
Si Si4 0.348800 0.909030 0.350441
Si Si5 0.266001 0.212915 0.788822
O O1 0.223566 0.180597 0.636909
O O2 0.508076 0.471715 0.265805
O O3 0.262535 0.998927 0.414954
O O4 0.000000 0.000000 0.500000
O O5 0.038300 0.402228 0.125583
O O6 0.772105 0.301617 0.464642
O O7 0.266967 0.767011 0.230749
O O8 0.035138 0.690199 0.132532
O O9 0.348934 0.837239 0.794509
O O10 0.337093 0.114379 0.801230
O O11 0.000000 0.000000 0.000000
#
# Coordination Sequence:
#
# PCOD8026247 Si02
#       5
#     2   2   2   2   2
#     4  11  28  47  70 101 142 184 227 280 347 410
#     4  10  24  40  70 100 136 168 232 278 346 386
#     4  11  24  43  71 100 132 177 229 282 335 403
#     4  11  24  43  71 100 132 177 229 282 335 403
#     4  11  28  47  70 101 142 184 227 280 347 410
#
# _framework density 23.070561999999999
#
# number of rings (size 3 to 8) (size 9 to 14) (size 15 to 20)
#    0.000    1.200    2.000    1.200   14.000    0.800 
#    0.000    0.000    0.000    0.000    0.000    0.000 
#    0.000    0.000    0.000    0.000    0.000    0.000 
#
# Total GULP energy -123910.725603 kJ/mol
# GULP energy per Si atom -12391.072560 kJ/mol
# Density = 2.301805 g / cm^3
# Si number density = 23.070562 Si / 1000 Ang^3
#
#
#
# Elastic Constant Matrix: (Units=GPa)
#
#
# Indices 1 2 3 4 5 6 
#
# 1 105.9815 56.2858 52.6985 -1.9246 0.3134 -2.6294
# 2 56.2858 133.7273 60.9174 -14.3905 12.5018 1.1647
# 3 52.6985 60.9174 122.7348 -7.8778 19.6444 6.5735
# 4 -1.9246 -14.3905 -7.8778 37.4476 -0.0791 7.7551
# 5 0.3134 12.5018 19.6444 -0.0791 53.0028 1.0541
# 6 -2.6294 1.1647 6.5735 7.7551 1.0541 29.4072
#
#
#
# Elastic Compliance Matrix: (Units=1/GPa)
#
#
# Indices 1 2 3 4 5 6 
#
# 1 0.014070 -0.004362 -0.004618 -0.002549 0.002593 0.003042
# 2 -0.004362 0.011320 -0.003228 0.003657 -0.001422 -0.001030
# 3 -0.004618 -0.003228 0.012653 0.001896 -0.003829 -0.003476
# 4 -0.002549 0.003657 0.001896 0.030177 -0.001332 -0.008707
# 5 0.002593 -0.001422 -0.003829 -0.001332 0.020589 0.000757
# 6 0.003042 -0.001030 -0.003476 -0.008707 0.000757 0.037364
#
#
# Mechanical properties :
#
#
# Convention : Reuss Voigt Hill
#
# Bulk Modulus (GPa) = 73.38017 78.02743 75.70380
# Shear Modulus (GPa) = 32.23081 36.80765 34.51923
#
# Velocity S-wave (km/s) = 3.74177 3.99863 3.87233
# Velocity P-wave (km/s) = 7.10941 7.43057 7.27176
#
# Compressibility (1/GPa) = 0.01362766
#
# Stress axis : x y z
#
# Youngs Moduli (GPa) = 71.07472 88.34214 79.03036
#
# Poissons Ratio (x) = 0.38531 0.36495
# Poissons Ratio (y) = 0.30999 0.25512
# Poissons Ratio (z) = 0.32821 0.28518
#
# Static dielectric constant tensor:
#      x y z
#    x 4.280980 -0.294450 0.392000 
#    y -0.294450 4.600670 -0.060040 
#    z 0.392000 -0.060040 4.243760 
# 
# 
# High freq. dielectric constant tensor:
#      x y z
#    x 1.891610 0.001470 0.027130 
#    y 0.001470 1.930770 -0.011950 
#    z 0.027130 -0.011950 1.922890 
# 
# From -- ./inp_files/167491.got.cif
#   From: 2010.06.25/outbox.cif.g09.slc.cpg/sg2_84_cif.got.tgz:167491.got - 2010.06.27 13:26:56.
