data_PCOD8026975
_publ_section_title
;
Structure prediction by ZEFSAII (Michael W. Deem and Ramdas Pophale) SiO2 
 PCOD8026975
Probable space group: P -1
;
_chemical_formula_sum "Si O2"
_cell_formula_units_Z 14
_cell_length_a 11.030134
_cell_length_b 11.949006
_cell_length_c 8.609568
_cell_angle_alpha 92.746791
_cell_angle_beta 40.418281
_cell_angle_gamma 111.028083
_cell_volume 637.378348
_symmetry_space_group_name_H-M "P -1"
_symmetry_group_IT_number 2
_symmetry_cell_setting 'triclinic'
loop_
_space_group_symop_operation_xyz
x,y,z
-x,-y,-z
loop_
_atom_site_type_symbol
_atom_site_label
_atom_site_fract_x
_atom_site_fract_y
_atom_site_fract_z
Si Si1 0.982904 0.367827 0.564660
Si Si2 0.722812 0.191443 0.292368
Si Si3 0.350153 0.361585 0.059033
Si Si4 0.843844 0.615552 0.259031
Si Si5 0.518760 0.660118 0.419297
Si Si6 0.483486 0.167632 0.026312
Si Si7 0.463991 0.993527 0.284296
O O1 0.103375 0.328381 0.314972
O O2 0.100260 0.383680 0.615497
O O3 0.000000 0.500000 0.500000
O O4 0.739013 0.256286 0.807838
O O5 0.531475 0.223543 0.515120
O O6 0.733838 0.113216 0.426505
O O7 0.662743 0.096018 0.199930
O O8 0.947100 0.319522 0.050477
O O9 0.500000 0.500000 0.000000
O O10 0.408156 0.358639 0.823624
O O11 0.373499 0.254458 0.125692
O O12 0.703130 0.686205 0.368414
O O13 0.701535 0.469167 0.328379
O O14 0.436314 0.077798 0.917274
O O15 0.379632 0.071710 0.267638
#
# Coordination Sequence:
#
# PCOD8026975 Si02
#       7
#     2   2   2   2   2   2   2
#     4  12  25  42  72 104 134 178 227 283 355 409
#     4  11  23  47  68  96 140 185 232 275 343 402
#     4  12  24  43  71 102 137 175 224 290 344 405
#     4  11  25  42  69 105 137 179 223 285 358 404
#     4  11  25  43  67 106 141 172 228 287 348 413
#     4  11  23  47  69 100 143 175 237 280 340 400
#     4  10  24  43  73  95 136 196 227 281 325 411
#
# _framework density 21.964974999999999
#
# number of rings (size 3 to 8) (size 9 to 14) (size 15 to 20)
#    0.000    0.857    5.714    0.429    4.000    2.286 
#    0.000    8.571    0.000    0.000    0.000    0.000 
#    0.000    0.000    0.000    0.000    0.000    0.000 
#
# Total GULP energy -173596.547443 kJ/mol
# GULP energy per Si atom -12399.753389 kJ/mol
# Density = 2.191498 g / cm^3
# Si number density = 21.964975 Si / 1000 Ang^3
#
#
#
# Elastic Constant Matrix: (Units=GPa)
#
#
# Indices 1 2 3 4 5 6 
#
# 1 135.2769 66.1269 65.1788 2.5649 15.2411 -17.9313
# 2 66.1269 125.6069 45.8868 10.0347 11.1008 -27.3251
# 3 65.1788 45.8868 119.9212 -0.5347 14.2197 -16.5971
# 4 2.5649 10.0347 -0.5347 22.5821 -9.3177 5.9841
# 5 15.2411 11.1008 14.2197 -9.3177 39.9246 -0.0525
# 6 -17.9313 -27.3251 -16.5971 5.9841 -0.0525 35.9374
#
#
#
# Elastic Compliance Matrix: (Units=1/GPa)
#
#
# Indices 1 2 3 4 5 6 
#
# 1 0.012005 -0.004290 -0.004564 -0.000531 -0.001887 0.000706
# 2 -0.004290 0.013888 -0.001227 -0.009917 -0.004089 0.009498
# 3 -0.004564 -0.001227 0.011864 -0.000161 -0.002176 0.002292
# 4 -0.000531 -0.009917 -0.000161 0.060568 0.017129 -0.017940
# 5 -0.001887 -0.004089 -0.002176 0.017129 0.031667 -0.007862
# 6 0.000706 0.009498 0.002292 -0.017940 -0.007862 0.039434
#
#
# Mechanical properties :
#
#
# Convention : Reuss Voigt Hill
#
# Bulk Modulus (GPa) = 56.83892 81.68778 69.26335
# Shear Modulus (GPa) = 25.58173 33.26299 29.42236
#
# Velocity S-wave (km/s) = 3.41641 3.89571 3.66391
# Velocity P-wave (km/s) = 6.44172 7.58328 7.03569
#
# Compressibility (1/GPa) = 0.01759358
#
# Stress axis : x y z
#
# Youngs Moduli (GPa) = 83.30195 72.00502 84.29093
#
# Poissons Ratio (x) = 0.30888 0.38471
# Poissons Ratio (y) = 0.35734 0.10347
# Poissons Ratio (z) = 0.38019 0.08838
#
# Static dielectric constant tensor:
#      x y z
#    x 4.094410 -0.153920 0.209430 
#    y -0.153920 4.128220 -0.184110 
#    z 0.209430 -0.184110 4.136580 
# 
# 
# High freq. dielectric constant tensor:
#      x y z
#    x 1.865940 -0.007700 0.021470 
#    y -0.007700 1.870150 -0.008850 
#    z 0.021470 -0.008850 1.861710 
# 
# From -- ./inp_files/258434.got.cif
#   From: 2010.06.25/outbox.cif.g09.slc.cpg/sg2_130_cif.got.tgz:258434.got - 2010.06.27 13:26:56.
