data_PCOD8026357
_publ_section_title
;
Structure prediction by ZEFSAII (Michael W. Deem and Ramdas Pophale) SiO2 
 PCOD8026357
Probable space group: P -1
;
_chemical_formula_sum "Si O2"
_cell_formula_units_Z 12
_cell_length_a 11.712750
_cell_length_b 11.557256
_cell_length_c 6.974691
_cell_angle_alpha 70.905447
_cell_angle_beta 102.353172
_cell_angle_gamma 140.614281
_cell_volume 564.940956
_symmetry_space_group_name_H-M "P -1"
_symmetry_group_IT_number 2
_symmetry_cell_setting 'triclinic'
loop_
_space_group_symop_operation_xyz
x,y,z
-x,-y,-z
loop_
_atom_site_type_symbol
_atom_site_label
_atom_site_fract_x
_atom_site_fract_y
_atom_site_fract_z
Si Si1 0.272157 0.269684 0.437747
Si Si2 0.473205 0.102876 0.046439
Si Si3 0.237350 0.650010 0.641294
Si Si4 0.598542 0.380123 0.619958
Si Si5 0.107761 0.767165 0.302755
Si Si6 0.011143 0.956564 0.236037
O O1 0.466999 0.362989 0.461850
O O2 0.266017 0.413194 0.349055
O O3 0.157206 0.130175 0.653420
O O4 0.194175 0.158841 0.271944
O O5 0.614725 0.231367 0.202513
O O6 0.266526 0.939373 0.127697
O O7 0.499081 0.232891 0.836728
O O8 0.500000 0.000000 0.000000
O O9 0.307806 0.640523 0.478403
O O10 0.193615 0.755335 0.512053
O O11 0.049304 0.435233 0.755239
O O12 0.013190 0.811386 0.329706
O O13 0.000000 0.000000 0.000000
#
# Coordination Sequence:
#
# PCOD8026357 Si02
#       6
#     2   2   2   2   2   2
#     4  10  24  41  68  93 133 176 215 271 324 393
#     4  12  26  42  69 102 130 176 223 268 335 401
#     4  11  25  46  69  97 139 171 216 285 329 388
#     4  11  23  46  66  98 132 173 222 269 332 389
#     4  11  24  46  68  99 136 174 217 278 336 380
#     4  11  23  42  66  99 130 173 221 267 326 394
#
# _framework density 21.241159
#
# number of rings (size 3 to 8) (size 9 to 14) (size 15 to 20)
#    0.000    1.000    3.333    2.500    4.667    0.667 
#    0.000    4.167    0.000    0.000    0.000    0.000 
#    0.000    0.000    0.000    0.000    0.000    0.000 
#
# Total GULP energy -148781.487302 kJ/mol
# GULP energy per Si atom -12398.457275 kJ/mol
# Density = 2.119281 g / cm^3
# Si number density = 21.241159 Si / 1000 Ang^3
#
#
#
# Elastic Constant Matrix: (Units=GPa)
#
#
# Indices 1 2 3 4 5 6 
#
# 1 84.1246 17.3256 24.7329 4.2875 15.5712 -9.2159
# 2 17.3256 118.9331 55.3130 -6.8528 7.6961 -6.3108
# 3 24.7329 55.3130 113.3838 -5.9818 7.9225 -6.3822
# 4 4.2875 -6.8528 -5.9818 32.0683 -1.8586 -6.0543
# 5 15.5712 7.6961 7.9225 -1.8586 21.6452 -10.6177
# 6 -9.2159 -6.3108 -6.3822 -6.0543 -10.6177 40.0489
#
#
#
# Elastic Compliance Matrix: (Units=1/GPa)
#
#
# Indices 1 2 3 4 5 6 
#
# 1 0.014673 -0.000570 -0.002411 -0.003136 -0.009826 -0.000177
# 2 -0.000570 0.011049 -0.005060 0.001563 -0.001175 0.000728
# 3 -0.002411 -0.005060 0.011963 0.001583 -0.000367 0.000696
# 4 -0.003136 0.001563 0.001583 0.033959 0.007410 0.006875
# 5 -0.009826 -0.001175 -0.000367 0.007410 0.061817 0.015004
# 6 -0.000177 0.000728 0.000696 0.006875 0.015004 0.030172
#
#
# Mechanical properties :
#
#
# Convention : Reuss Voigt Hill
#
# Bulk Modulus (GPa) = 46.29452 56.79828 51.54640
# Shear Modulus (GPa) = 26.74991 33.35715 30.05353
#
# Velocity S-wave (km/s) = 3.55257 3.96713 3.76556
# Velocity P-wave (km/s) = 6.21850 6.91245 6.57464
#
# Compressibility (1/GPa) = 0.02160083
#
# Stress axis : x y z
#
# Youngs Moduli (GPa) = 68.15359 90.50319 83.59420
#
# Poissons Ratio (x) = 0.05161 0.20157
# Poissons Ratio (y) = 0.03887 0.42302
# Poissons Ratio (z) = 0.16434 0.45798
#
# Static dielectric constant tensor:
#      x y z
#    x 3.069960 0.451820 0.486090 
#    y 0.451820 4.133480 -0.588390 
#    z 0.486090 -0.588390 3.387840 
# 
# 
# High freq. dielectric constant tensor:
#      x y z
#    x 1.844250 -0.003430 0.000040 
#    y -0.003430 1.853870 -0.011110 
#    z 0.000040 -0.011110 1.818910 
# 
# From -- ./inp_files/18605.got.cif
#   From: 2010.06.25/outbox.cif.g09.slc.cpg/sg2_10_cif.got.tgz:18605.got - 2010.06.27 13:26:56.
