data_PCOD8026243
_publ_section_title
;
Structure prediction by ZEFSAII (Michael W. Deem and Ramdas Pophale) SiO2 
 PCOD8026243
Probable space group: P -1
;
_chemical_formula_sum "Si O2"
_cell_formula_units_Z 12
_cell_length_a 8.365216
_cell_length_b 19.225443
_cell_length_c 7.218620
_cell_angle_alpha 30.852177
_cell_angle_beta 127.165578
_cell_angle_gamma 125.107555
_cell_volume 469.882225
_symmetry_space_group_name_H-M "P -1"
_symmetry_group_IT_number 2
_symmetry_cell_setting 'triclinic'
loop_
_space_group_symop_operation_xyz
x,y,z
-x,-y,-z
loop_
_atom_site_type_symbol
_atom_site_label
_atom_site_fract_x
_atom_site_fract_y
_atom_site_fract_z
Si Si1 0.177490 0.011294 0.447102
Si Si2 0.945762 0.638881 0.226727
Si Si3 0.444583 0.284718 0.126272
Si Si4 0.891718 0.348260 0.302210
Si Si5 0.922881 0.844490 0.397995
Si Si6 0.500072 0.877974 0.131543
O O1 0.073748 0.987962 0.222663
O O2 0.330600 0.151956 0.242442
O O3 0.307415 0.884285 0.851195
O O4 0.000000 0.000000 0.500000
O O5 0.000000 0.500000 0.500000
O O6 0.101494 0.687944 0.391219
O O7 0.716500 0.607016 0.226923
O O8 0.943937 0.756588 0.802887
O O9 0.666125 0.339438 0.072250
O O10 0.508403 0.258795 0.441957
O O11 0.014662 0.238322 0.543916
O O12 0.000000 0.500000 0.000000
O O13 0.698544 0.884470 0.126994
O O14 0.500000 0.000000 0.000000
#
# Coordination Sequence:
#
# PCOD8026243 Si02
#       6
#     2   2   2   2   2   2
#     4  11  19  39  72 101 136 171 221 277 340 406
#     4  11  23  47  71  96 135 183 230 281 332 403
#     4  10  24  40  69 101 133 179 227 273 343 404
#     4  12  27  46  64 100 142 176 234 281 327 401
#     4  11  23  43  71 102 134 182 219 284 342 392
#     4   9  18  38  69 100 132 176 221 270 338 408
#
# _framework density 25.538315999999998
#
# number of rings (size 3 to 8) (size 9 to 14) (size 15 to 20)
#    0.000    1.333    6.667    1.000    0.000    3.333 
#    3.000    5.833    0.000    1.000    0.000    0.000 
#    0.000    0.000    0.000    0.000    0.000    0.000 
#
# Total GULP energy -148700.830371 kJ/mol
# GULP energy per Si atom -12391.735864 kJ/mol
# Density = 2.548019 g / cm^3
# Si number density = 25.538316 Si / 1000 Ang^3
#
#
#
# Elastic Constant Matrix: (Units=GPa)
#
#
# Indices 1 2 3 4 5 6 
#
# 1 134.9726 80.2629 43.2067 -11.1547 44.1859 8.3720
# 2 80.2629 166.3962 38.7683 4.3798 27.5015 7.5593
# 3 43.2067 38.7683 87.4385 -4.3114 34.5286 7.9258
# 4 -11.1547 4.3798 -4.3114 46.1230 1.5319 3.6178
# 5 44.1859 27.5015 34.5286 1.5319 59.8530 3.5851
# 6 8.3720 7.5593 7.9258 3.6178 3.5851 58.4934
#
#
#
# Elastic Compliance Matrix: (Units=1/GPa)
#
#
# Indices 1 2 3 4 5 6 
#
# 1 0.013544 -0.005127 -0.001434 0.003927 -0.006862 -0.000904
# 2 -0.005127 0.008831 -0.001819 -0.002271 0.000839 -0.000072
# 3 -0.001434 -0.001819 0.016053 0.001679 -0.007327 -0.001390
# 4 0.003927 -0.002271 0.001679 0.023249 -0.003316 -0.001731
# 5 -0.006862 0.000839 -0.007327 -0.003316 0.025669 0.000498
# 6 -0.000904 -0.000072 -0.001390 -0.001731 0.000498 0.017499
#
#
# Mechanical properties :
#
#
# Convention : Reuss Voigt Hill
#
# Bulk Modulus (GPa) = 46.14959 79.25367 62.70163
# Shear Modulus (GPa) = 38.81113 47.99851 43.40482
#
# Velocity S-wave (km/s) = 3.90259 4.33999 4.12709
# Velocity P-wave (km/s) = 6.19814 7.49764 6.87865
#
# Compressibility (1/GPa) = 0.02166866
#
# Stress axis : x y z
#
# Youngs Moduli (GPa) = 73.83439 113.23787 62.29171
#
# Poissons Ratio (x) = 0.58058 0.08933
# Poissons Ratio (y) = 0.37855 0.11329
# Poissons Ratio (z) = 0.10588 0.20595
#
# Static dielectric constant tensor:
#      x y z
#    x 4.876960 0.564320 0.104720 
#    y 0.564320 6.005260 0.224150 
#    z 0.104720 0.224150 5.365980 
# 
# 
# High freq. dielectric constant tensor:
#      x y z
#    x 2.023350 0.010030 0.011740 
#    y 0.010030 2.020780 0.024120 
#    z 0.011740 0.024120 2.032550 
# 
# From -- ./inp_files/222920.got.cif
#   From: 2010.06.25/outbox.cif.g09.slc.cpg/sg2_112_cif.got.tgz:222920.got - 2010.06.27 13:26:56.
