data_PCOD8026144
_publ_section_title
;
Structure prediction by ZEFSAII (Michael W. Deem and Ramdas Pophale) SiO2 
 PCOD8026144
Probable space group: P -1
;
_chemical_formula_sum "Si O2"
_cell_formula_units_Z 16
_cell_length_a 9.100293
_cell_length_b 22.202000
_cell_length_c 6.781037
_cell_angle_alpha 125.950706
_cell_angle_beta 106.068328
_cell_angle_gamma 47.720933
_cell_volume 804.469332
_symmetry_space_group_name_H-M "P -1"
_symmetry_group_IT_number 2
_symmetry_cell_setting 'triclinic'
loop_
_space_group_symop_operation_xyz
x,y,z
-x,-y,-z
loop_
_atom_site_type_symbol
_atom_site_label
_atom_site_fract_x
_atom_site_fract_y
_atom_site_fract_z
Si Si1 0.016809 0.392800 0.678667
Si Si2 0.230277 0.260403 0.149561
Si Si3 0.768457 0.608032 0.895020
Si Si4 0.001209 0.952513 0.605934
Si Si5 0.693192 0.128346 0.105115
Si Si6 0.054216 0.769991 0.151813
Si Si7 0.345287 0.701440 0.777539
Si Si8 0.685758 0.400891 0.772664
O O1 0.107288 0.304034 0.391869
O O2 0.928444 0.490082 0.708507
O O3 0.842467 0.413931 0.790146
O O4 0.200586 0.361045 0.824965
O O5 0.197412 0.347340 0.187460
O O6 0.464668 0.171896 0.114752
O O7 0.143605 0.219168 0.913707
O O8 0.540979 0.649240 0.887697
O O9 0.211481 0.902624 0.700708
O O10 0.978064 0.873834 0.394196
O O11 0.000000 0.000000 0.500000
O O12 0.811314 0.033898 0.827015
O O13 0.710662 0.205795 0.178362
O O14 0.211519 0.688176 0.209756
O O15 0.157211 0.740349 0.919205
O O16 0.391992 0.620346 0.485817
O O17 0.500000 0.500000 0.000000
#
# Coordination Sequence:
#
# PCOD8026144 Si02
#       8
#     2   2   2   2   2   2   2   2
#     4  11  23  41  61  92 133 176 218 266 320 378
#     4  11  24  41  65  94 134 168 214 271 324 386
#     4  10  24  39  63  92 129 175 222 263 316 378
#     4  11  23  44  72  96 129 165 218 268 331 389
#     4  10  24  43  68 100 125 167 216 271 325 396
#     4  12  24  42  68  97 132 174 214 273 323 385
#     4  11  23  42  67  96 128 173 221 264 322 386
#     4  12  26  41  64  98 137 176 220 266 319 384
#
# _framework density 19.888888000000001
#
# number of rings (size 3 to 8) (size 9 to 14) (size 15 to 20)
#    0.000    1.000    5.000    1.125    3.500    5.500 
#    0.000    0.625    0.000    0.000    0.000    0.000 
#    0.000    0.000    0.000    0.000    0.000    0.000 
#
# Total GULP energy -198490.555420 kJ/mol
# GULP energy per Si atom -12405.659714 kJ/mol
# Density = 1.984362 g / cm^3
# Si number density = 19.888888 Si / 1000 Ang^3
#
#
#
# Elastic Constant Matrix: (Units=GPa)
#
#
# Indices 1 2 3 4 5 6 
#
# 1 110.3234 47.3338 46.8515 2.5476 8.7615 -12.5569
# 2 47.3338 120.1270 50.9591 -7.6892 8.2700 -11.6455
# 3 46.8515 50.9591 125.7354 14.0296 11.9609 -5.5217
# 4 2.5476 -7.6892 14.0296 33.2276 2.0781 2.8598
# 5 8.7615 8.2700 11.9609 2.0781 33.5377 -0.4643
# 6 -12.5569 -11.6455 -5.5217 2.8598 -0.4643 29.4862
#
#
#
# Elastic Compliance Matrix: (Units=1/GPa)
#
#
# Indices 1 2 3 4 5 6 
#
# 1 0.012169 -0.003189 -0.002896 -0.000663 -0.001271 0.003424
# 2 -0.003189 0.011799 -0.003915 0.004504 -0.000930 0.002117
# 3 -0.002896 -0.003915 0.011402 -0.005359 -0.002014 -0.000157
# 4 -0.000663 0.004504 -0.005359 0.033764 -0.001157 -0.002800
# 5 -0.001271 -0.000930 -0.002014 -0.001157 0.031159 -0.000683
# 6 0.003424 0.002117 -0.000157 -0.002800 -0.000683 0.036440
#
#
# Mechanical properties :
#
#
# Convention : Reuss Voigt Hill
#
# Bulk Modulus (GPa) = 65.06638 71.83051 68.44845
# Shear Modulus (GPa) = 30.89128 33.31972 32.10550
#
# Velocity S-wave (km/s) = 3.94533 4.09748 4.02212
# Velocity P-wave (km/s) = 7.31711 7.65376 7.48733
#
# Compressibility (1/GPa) = 0.01536892
#
# Stress axis : x y z
#
# Youngs Moduli (GPa) = 82.17869 84.74946 87.70501
#
# Poissons Ratio (x) = 0.27027 0.25404
# Poissons Ratio (y) = 0.26207 0.34336
# Poissons Ratio (z) = 0.23803 0.33179
#
# Static dielectric constant tensor:
#      x y z
#    x 3.553850 -0.025840 0.103500 
#    y -0.025840 3.723710 -0.100590 
#    z 0.103500 -0.100590 3.638640 
# 
# 
# High freq. dielectric constant tensor:
#      x y z
#    x 1.776800 0.000640 0.008020 
#    y 0.000640 1.783330 -0.007880 
#    z 0.008020 -0.007880 1.784520 
# 
# From -- ./inp_files/37770.got.cif
#   From: 2010.06.25/outbox.cif.g09.slc.cpg/sg2_19_cif.got.tgz:37770.got - 2010.06.27 13:26:56.
