data_PCOD8026322
_publ_section_title
;
Structure prediction by ZEFSAII (Michael W. Deem and Ramdas Pophale) SiO2 
 PCOD8026322
Probable space group: P -1
;
_chemical_formula_sum "Si O2"
_cell_formula_units_Z 16
_cell_length_a 23.002781
_cell_length_b 8.529108
_cell_length_c 9.370583
_cell_angle_alpha 31.496430
_cell_angle_beta 49.346198
_cell_angle_gamma 57.823493
_cell_volume 727.457691
_symmetry_space_group_name_H-M "P -1"
_symmetry_group_IT_number 2
_symmetry_cell_setting 'triclinic'
loop_
_space_group_symop_operation_xyz
x,y,z
-x,-y,-z
loop_
_atom_site_type_symbol
_atom_site_label
_atom_site_fract_x
_atom_site_fract_y
_atom_site_fract_z
Si Si1 0.944478 0.241652 0.849569
Si Si2 0.479650 0.022388 0.677514
Si Si3 0.731983 0.647286 0.883056
Si Si4 0.581670 0.375895 0.431678
Si Si5 0.190885 0.786326 0.120747
Si Si6 0.815108 0.298142 0.233025
Si Si7 0.219041 0.465610 0.606050
Si Si8 0.613715 0.424058 0.644278
O O1 0.888503 0.146277 0.882432
O O2 0.000000 0.500000 0.500000
O O3 0.895886 0.325170 0.001022
O O4 0.000000 0.000000 0.000000
O O5 0.560304 0.110892 0.559445
O O6 0.410714 0.249228 0.622262
O O7 0.500000 0.000000 0.500000
O O8 0.449614 0.711425 0.039274
O O9 0.754469 0.388620 0.936807
O O10 0.769914 0.973796 0.527929
O O11 0.639650 0.623571 0.067692
O O12 0.763782 0.559484 0.054674
O O13 0.500000 0.500000 0.500000
O O14 0.616785 0.246942 0.624009
O O15 0.179774 0.574102 0.440596
O O16 0.225217 0.107431 0.870808
O O17 0.831097 0.392525 0.297859
O O18 0.306122 0.592621 0.390498
#
# Coordination Sequence:
#
# PCOD8026322 Si02
#       8
#     2   2   2   2   2   2   2   2
#     4  11  23  47  74 101 139 178 220 265 328 411
#     4  11  25  43  60  92 128 170 236 286 351 397
#     4  11  23  43  66  97 132 180 236 272 333 407
#     4  10  24  41  66  91 131 177 235 284 341 403
#     4  11  25  43  68 106 135 177 218 283 332 395
#     4  11  24  43  72 101 133 180 224 267 330 410
#     4  12  24  42  68  98 144 166 231 276 338 392
#     4  11  24  42  63  88 129 182 217 284 344 396
#
# _framework density 21.994406999999999
#
# number of rings (size 3 to 8) (size 9 to 14) (size 15 to 20)
#    0.000    1.000    1.250    6.000    7.000    2.000 
#    0.000    3.750    0.000    0.000    0.000    0.000 
#    0.000    0.000    0.000    0.000    0.000    0.000 
#
# Total GULP energy -198286.587724 kJ/mol
# GULP energy per Si atom -12392.911733 kJ/mol
# Density = 2.194435 g / cm^3
# Si number density = 21.994407 Si / 1000 Ang^3
#
#
#
# Elastic Constant Matrix: (Units=GPa)
#
#
# Indices 1 2 3 4 5 6 
#
# 1 104.7178 40.1309 29.5079 15.8736 1.0379 2.5523
# 2 40.1309 102.5444 44.3126 14.8240 -7.8039 13.7708
# 3 29.5079 44.3126 138.3343 13.5612 -12.3073 -1.5782
# 4 15.8736 14.8240 13.5612 39.1178 -6.2953 3.5642
# 5 1.0379 -7.8039 -12.3073 -6.2953 36.8900 2.0113
# 6 2.5523 13.7708 -1.5782 3.5642 2.0113 41.4400
#
#
#
# Elastic Compliance Matrix: (Units=1/GPa)
#
#
# Indices 1 2 3 4 5 6 
#
# 1 0.011898 -0.003979 -0.001116 -0.003369 -0.002175 0.000942
# 2 -0.003979 0.013696 -0.003251 -0.001750 0.001864 -0.004370
# 3 -0.001116 -0.003251 0.008820 -0.001186 0.002002 0.001490
# 4 -0.003369 -0.001750 -0.001186 0.028886 0.004365 -0.001952
# 5 -0.002175 0.001864 0.002002 0.004365 0.029096 -0.002197
# 6 0.000942 -0.004370 0.001490 -0.001952 -0.002197 0.025857
#
#
# Mechanical properties :
#
#
# Convention : Reuss Voigt Hill
#
# Bulk Modulus (GPa) = 56.42725 63.72215 60.07470
# Shear Modulus (GPa) = 35.49862 38.93257 37.21559
#
# Velocity S-wave (km/s) = 4.02180 4.21183 4.11791
# Velocity P-wave (km/s) = 6.87586 7.25862 7.06983
#
# Compressibility (1/GPa) = 0.01772193
#
# Stress axis : x y z
#
# Youngs Moduli (GPa) = 84.04651 73.01616 113.38346
#
# Poissons Ratio (x) = 0.29055 0.12651
# Poissons Ratio (y) = 0.33444 0.36858
# Poissons Ratio (z) = 0.09378 0.23736
#
# Static dielectric constant tensor:
#      x y z
#    x 4.136570 0.379050 0.113500 
#    y 0.379050 4.353180 -0.020970 
#    z 0.113500 -0.020970 3.953610 
# 
# 
# High freq. dielectric constant tensor:
#      x y z
#    x 1.866920 0.008870 0.010970 
#    y 0.008870 1.862920 0.006370 
#    z 0.010970 0.006370 1.874460 
# 
# From -- ./inp_files/351960.got.cif
#   From: 2010.06.25/outbox.cif.g09.slc.cpg/sg2_176_cif.got.tgz:351960.got - 2010.06.27 13:26:56.
