data_PCOD8026440
_publ_section_title
;
Structure prediction by ZEFSAII (Michael W. Deem and Ramdas Pophale) SiO2 
 PCOD8026440
Probable space group: P -1
;
_chemical_formula_sum "Si O2"
_cell_formula_units_Z 16
_cell_length_a 10.872542
_cell_length_b 12.083547
_cell_length_c 7.666141
_cell_angle_alpha 115.320206
_cell_angle_beta 95.204112
_cell_angle_gamma 105.349640
_cell_volume 853.576510
_symmetry_space_group_name_H-M "P -1"
_symmetry_group_IT_number 2
_symmetry_cell_setting 'triclinic'
loop_
_space_group_symop_operation_xyz
x,y,z
-x,-y,-z
loop_
_atom_site_type_symbol
_atom_site_label
_atom_site_fract_x
_atom_site_fract_y
_atom_site_fract_z
Si Si1 0.444097 0.371286 0.297142
Si Si2 0.701495 0.592983 0.005601
Si Si3 0.044238 0.185371 0.778919
Si Si4 0.462447 0.663507 0.067046
Si Si5 0.381165 0.094556 0.193393
Si Si6 0.438419 0.049618 0.771389
Si Si7 0.098028 0.923320 0.990112
Si Si8 0.147047 0.943866 0.628772
O O1 0.500000 0.500000 0.500000
O O2 0.407850 0.246838 0.337185
O O3 0.313660 0.374192 0.178538
O O4 0.551195 0.361166 0.161281
O O5 0.847599 0.673073 0.141922
O O6 0.593592 0.635047 0.131775
O O7 0.667038 0.437153 0.924866
O O8 0.968308 0.189840 0.953704
O O9 0.943728 0.158266 0.587232
O O10 0.113851 0.076628 0.723478
O O11 0.479379 0.812665 0.215605
O O12 0.474724 0.043877 0.294181
O O13 0.230349 0.015637 0.162040
O O14 0.408832 0.077782 0.983862
O O15 0.298626 0.981280 0.613321
O O16 0.127028 0.873903 0.770422
O O17 0.000000 0.000000 0.000000
#
# Coordination Sequence:
#
# PCOD8026440 Si02
#       8
#     2   2   2   2   2   2   2   2
#     4   9  16  29  46  73 101 123 161 204 250 298
#     4   9  16  31  46  70  99 125 166 200 250 287
#     4  10  17  30  47  71 104 127 168 211 247 300
#     4   8  16  30  48  69  97 131 157 209 245 289
#     4   9  17  29  51  77  98 133 159 208 261 287
#     4   9  15  31  53  73 102 125 170 206 246 310
#     4   9  17  31  45  72 103 126 165 207 252 300
#     4   9  17  29  48  74  95 135 162 207 259 292
#
# _framework density 18.744658000000001
#
# number of rings (size 3 to 8) (size 9 to 14) (size 15 to 20)
#    0.750    2.250    1.250    1.500    0.000    0.000 
#   11.250    0.625    0.000    0.750    3.250    3.500 
#    0.000    0.000    0.000    0.000    0.000    0.000 
#
# Total GULP energy -198235.911692 kJ/mol
# GULP energy per Si atom -12389.744481 kJ/mol
# Density = 1.870199 g / cm^3
# Si number density = 18.744658 Si / 1000 Ang^3
#
#
#
# Elastic Constant Matrix: (Units=GPa)
#
#
# Indices 1 2 3 4 5 6 
#
# 1 86.6348 54.7943 40.2194 12.6916 30.2205 9.6844
# 2 54.7943 131.9993 44.8030 18.1861 21.5430 21.4018
# 3 40.2194 44.8030 83.5496 12.2902 26.5737 9.5423
# 4 12.6916 18.1861 12.2902 21.1136 8.6701 6.4004
# 5 30.2205 21.5430 26.5737 8.6701 27.1381 2.0496
# 6 9.6844 21.4018 9.5423 6.4004 2.0496 27.8656
#
#
#
# Elastic Compliance Matrix: (Units=1/GPa)
#
#
# Indices 1 2 3 4 5 6 
#
# 1 0.022609 -0.005449 -0.001732 0.000534 -0.019192 -0.001791
# 2 -0.005449 0.012150 -0.002997 -0.004234 0.001128 -0.005522
# 3 -0.001732 -0.002997 0.019329 -0.001111 -0.014081 -0.002424
# 4 0.000534 -0.004234 -0.001111 0.060177 -0.014669 -0.009296
# 5 -0.019192 0.001128 -0.014081 -0.014669 0.075160 0.008467
# 6 -0.001791 -0.005522 -0.002424 -0.009296 0.008467 0.043092
#
#
# Mechanical properties :
#
#
# Convention : Reuss Voigt Hill
#
# Bulk Modulus (GPa) = 29.64575 64.64635 47.14605
# Shear Modulus (GPa) = 18.93102 26.04792 22.48947
#
# Velocity S-wave (km/s) = 3.18141 3.73180 3.46754
# Velocity P-wave (km/s) = 5.41711 7.28912 6.42169
#
# Compressibility (1/GPa) = 0.03373165
#
# Stress axis : x y z
#
# Youngs Moduli (GPa) = 44.22969 82.30787 51.73614
#
# Poissons Ratio (x) = 0.44846 0.08961
# Poissons Ratio (y) = 0.24099 0.15508
# Poissons Ratio (z) = 0.07661 0.24671
#
# Static dielectric constant tensor:
#      x y z
#    x 3.255610 0.154360 0.134650 
#    y 0.154360 3.510080 -0.191770 
#    z 0.134650 -0.191770 3.226150 
# 
# 
# High freq. dielectric constant tensor:
#      x y z
#    x 1.693910 0.018980 0.020060 
#    y 0.018980 1.717040 -0.009110 
#    z 0.020060 -0.009110 1.704140 
# 
# From -- ./inp_files/254609.got.cif
#   From: 2010.06.25/outbox.cif.g09.slc.cpg/sg2_128_cif.got.tgz:254609.got - 2010.06.27 13:26:56.
