data_PCOD8026209
_publ_section_title
;
Structure prediction by ZEFSAII (Michael W. Deem and Ramdas Pophale) SiO2 
 PCOD8026209
Probable space group: P -1
;
_chemical_formula_sum "Si O2"
_cell_formula_units_Z 14
_cell_length_a 8.631381
_cell_length_b 20.772646
_cell_length_c 8.290205
_cell_angle_alpha 113.556938
_cell_angle_beta 58.716041
_cell_angle_gamma 150.585917
_cell_volume 618.927647
_symmetry_space_group_name_H-M "P -1"
_symmetry_group_IT_number 2
_symmetry_cell_setting 'triclinic'
loop_
_space_group_symop_operation_xyz
x,y,z
-x,-y,-z
loop_
_atom_site_type_symbol
_atom_site_label
_atom_site_fract_x
_atom_site_fract_y
_atom_site_fract_z
Si Si1 0.348453 0.277708 0.043887
Si Si2 0.334551 0.502079 0.707299
Si Si3 0.182677 0.962391 0.473721
Si Si4 0.699224 0.260229 0.998164
Si Si5 0.355687 0.013925 0.796476
Si Si6 0.155729 0.590744 0.356008
Si Si7 0.487158 0.797803 0.610182
O O1 0.384560 0.363474 0.205545
O O2 0.532961 0.276766 0.040854
O O3 0.526070 0.344049 0.838164
O O4 0.949107 0.128185 0.091256
O O5 0.500000 0.500000 0.500000
O O6 0.073492 0.374108 0.834548
O O7 0.138192 0.495834 0.702656
O O8 0.311197 0.926155 0.331705
O O9 0.784760 0.838444 0.524107
O O10 0.238016 0.999173 0.667933
O O11 0.380292 0.080877 0.370563
O O12 0.449052 0.113874 0.944608
O O13 0.753306 0.280490 0.181353
O O14 0.281983 0.707303 0.471488
O O15 0.000000 0.500000 0.500000
#
# Coordination Sequence:
#
# PCOD8026209 Si02
#       7
#     2   2   2   2   2   2   2
#     4  11  23  43  70  96 131 175 221 264 326 396
#     4  11  26  45  69  95 129 173 227 268 321 391
#     4  10  24  40  65  93 138 167 216 267 329 379
#     4  11  23  42  69  96 133 174 220 264 329 394
#     4  11  24  41  69  99 130 172 225 269 319 386
#     4  11  24  43  68  92 131 175 218 266 329 386
#     4  11  23  42  65  96 136 172 213 264 337 389
#
# _framework density 22.619768000000001
#
# number of rings (size 3 to 8) (size 9 to 14) (size 15 to 20)
#    0.000    1.143    1.429    5.571   10.000    0.571 
#    2.571    1.429    0.000    0.000    0.000    0.000 
#    0.000    0.000    0.000    0.000    0.000    0.000 
#
# Total GULP energy -173641.734382 kJ/mol
# GULP energy per Si atom -12402.981027 kJ/mol
# Density = 2.256828 g / cm^3
# Si number density = 22.619768 Si / 1000 Ang^3
#
#
#
# Elastic Constant Matrix: (Units=GPa)
#
#
# Indices 1 2 3 4 5 6 
#
# 1 47.6531 6.6730 13.9868 -7.8745 7.3227 -7.6839
# 2 6.6730 133.6124 56.8826 2.2298 0.1308 -11.1298
# 3 13.9868 56.8826 151.6162 -6.5202 9.9530 -17.5253
# 4 -7.8745 2.2298 -6.5202 52.2094 -7.5259 5.5902
# 5 7.3227 0.1308 9.9530 -7.5259 32.7148 -1.4715
# 6 -7.6839 -11.1298 -17.5253 5.5902 -1.4715 22.9145
#
#
#
# Elastic Compliance Matrix: (Units=1/GPa)
#
#
# Indices 1 2 3 4 5 6 
#
# 1 0.023291 -0.000269 -0.000973 0.002147 -0.004146 0.006145
# 2 -0.000269 0.009064 -0.003228 -0.000931 0.000888 0.002127
# 3 -0.000973 -0.003228 0.008561 0.000280 -0.002109 0.004450
# 4 0.002147 -0.000931 0.000280 0.020585 0.003981 -0.004284
# 5 -0.004146 0.000888 -0.002109 0.003981 0.032985 -0.001425
# 6 0.006145 0.002127 0.004450 -0.004284 -0.001425 0.051091
#
#
# Mechanical properties :
#
#
# Convention : Reuss Voigt Hill
#
# Bulk Modulus (GPa) = 31.27301 54.21852 42.74577
# Shear Modulus (GPa) = 30.27069 38.59037 34.43053
#
# Velocity S-wave (km/s) = 3.66217 4.13491 3.90570
# Velocity P-wave (km/s) = 5.63360 6.84238 6.26720
#
# Compressibility (1/GPa) = 0.03197645
#
# Stress axis : x y z
#
# Youngs Moduli (GPa) = 42.93495 110.32715 116.80403
#
# Poissons Ratio (x) = 0.02967 0.11364
# Poissons Ratio (y) = 0.01155 0.37706
# Poissons Ratio (z) = 0.04177 0.35615
#
# Static dielectric constant tensor:
#      x y z
#    x 3.845600 0.051710 0.134170 
#    y 0.051710 4.270000 -0.129230 
#    z 0.134170 -0.129230 4.353580 
# 
# 
# High freq. dielectric constant tensor:
#      x y z
#    x 1.868080 -0.006740 0.009430 
#    y -0.006740 1.898900 -0.004910 
#    z 0.009430 -0.004910 1.908010 
# 
# From -- ./inp_files/158433.got.cif
#   From: 2010.06.25/outbox.cif.g09.slc.cpg/sg2_80_cif.got.tgz:158433.got - 2010.06.27 13:26:56.
