data_PCOD8026640
_publ_section_title
;
Structure prediction by ZEFSAII (Michael W. Deem and Ramdas Pophale) SiO2 
 PCOD8026640
Probable space group: P -1
;
_chemical_formula_sum "Si O2"
_cell_formula_units_Z 14
_cell_length_a 11.150986
_cell_length_b 10.780320
_cell_length_c 8.437137
_cell_angle_alpha 89.669106
_cell_angle_beta 142.783908
_cell_angle_gamma 78.828520
_cell_volume 579.499991
_symmetry_space_group_name_H-M "P -1"
_symmetry_group_IT_number 2
_symmetry_cell_setting 'triclinic'
loop_
_space_group_symop_operation_xyz
x,y,z
-x,-y,-z
loop_
_atom_site_type_symbol
_atom_site_label
_atom_site_fract_x
_atom_site_fract_y
_atom_site_fract_z
Si Si1 0.464999 0.000744 0.212918
Si Si2 0.195187 0.159946 0.195002
Si Si3 0.298762 0.400678 0.332156
Si Si4 0.223082 0.673155 0.127560
Si Si5 0.876137 0.325170 0.335191
Si Si6 0.270183 0.393167 0.672726
Si Si7 0.361846 0.840010 0.829981
O O1 0.658254 0.886678 0.494817
O O2 0.276568 0.055453 0.140882
O O3 0.564861 0.110392 0.256176
O O4 0.358066 0.945322 0.960728
O O5 0.214412 0.296990 0.154857
O O6 0.948501 0.194368 0.980474
O O7 0.173238 0.540806 0.121726
O O8 0.548272 0.347032 0.560898
O O9 0.245587 0.405877 0.460105
O O10 0.225222 0.683673 0.941788
O O11 0.760328 0.464231 0.292091
O O12 0.855786 0.196689 0.412262
O O13 0.117771 0.315153 0.576695
O O14 0.494235 0.305120 0.969402
#
# Coordination Sequence:
#
# PCOD8026640 Si02
#       7
#     2   2   2   2   2   2   2
#     4  10  24  42  72  90 132 180 224 256 328 376
#     4  11  22  45  63  94 131 173 214 276 311 392
#     4  11  23  39  65  98 134 165 218 268 333 389
#     4  11  23  39  68  98 130 170 213 273 334 387
#     4  11  23  39  68  98 130 170 213 273 334 387
#     4  11  23  39  65  98 134 165 218 268 333 389
#     4  11  22  45  63  94 131 173 214 276 311 392
#
# _framework density 24.158757999999999
#
# number of rings (size 3 to 8) (size 9 to 14) (size 15 to 20)
#    0.000    1.143    4.286    0.857    2.000    2.286 
#    0.000   15.714    0.000    0.000    0.000    0.000 
#    0.000    0.000    0.000    0.000    0.000    0.000 
#
# Total GULP energy -173547.001641 kJ/mol
# GULP energy per Si atom -12396.214403 kJ/mol
# Density = 2.410377 g / cm^3
# Si number density = 24.158758 Si / 1000 Ang^3
#
#
#
# Elastic Constant Matrix: (Units=GPa)
#
#
# Indices 1 2 3 4 5 6 
#
# 1 112.4234 62.8234 11.2640 -9.6904 12.5457 9.9908
# 2 62.8234 68.2871 14.3282 -4.7693 17.6105 7.6263
# 3 11.2640 14.3282 40.6193 -15.9568 12.4340 -11.9724
# 4 -9.6904 -4.7693 -15.9568 32.5252 0.5346 10.3495
# 5 12.5457 17.6105 12.4340 0.5346 27.1960 -5.3732
# 6 9.9908 7.6263 -11.9724 10.3495 -5.3732 51.7445
#
#
#
# Elastic Compliance Matrix: (Units=1/GPa)
#
#
# Indices 1 2 3 4 5 6 
#
# 1 0.018970 -0.017799 0.001852 0.004343 0.001583 -0.001315
# 2 -0.017799 0.036027 -0.005306 -0.001034 -0.013521 -0.004298
# 3 0.001852 -0.005306 0.038618 0.017581 -0.014564 0.004331
# 4 0.004343 -0.001034 0.017581 0.042723 -0.011467 -0.006354
# 5 0.001583 -0.013521 -0.014564 -0.011467 0.052886 0.006103
# 6 -0.001315 -0.004298 0.004331 -0.006354 0.006103 0.023120
#
#
# Mechanical properties :
#
#
# Convention : Reuss Voigt Hill
#
# Bulk Modulus (GPa) = 19.56617 44.24012 31.90314
# Shear Modulus (GPa) = 18.38994 31.15409 24.77202
#
# Velocity S-wave (km/s) = 2.76200 3.59494 3.20564
# Velocity P-wave (km/s) = 4.27646 5.96518 5.18997
#
# Compressibility (1/GPa) = 0.05110862
#
# Stress axis : x y z
#
# Youngs Moduli (GPa) = 52.71419 27.75698 25.89436
#
# Poissons Ratio (x) = 0.49404 -0.04795
# Poissons Ratio (y) = 0.93825 0.13741
# Poissons Ratio (z) = -0.09762 0.14729
#
# Static dielectric constant tensor:
#      x y z
#    x 4.625720 0.186860 0.168440 
#    y 0.186860 4.366920 -0.141780 
#    z 0.168440 -0.141780 4.073080 
# 
# 
# High freq. dielectric constant tensor:
#      x y z
#    x 1.975430 0.006260 0.015350 
#    y 0.006260 1.960530 -0.006840 
#    z 0.015350 -0.006840 1.941020 
# 
# From -- ./inp_files/258671.got.cif
#   From: 2010.06.25/outbox.cif.g09.slc.cpg/sg2_130_cif.got.tgz:258671.got - 2010.06.27 13:26:56.
