data_PCOD8026318
_publ_section_title
;
Structure prediction by ZEFSAII (Michael W. Deem and Ramdas Pophale) SiO2 
 PCOD8026318
Probable space group: P -1
;
_chemical_formula_sum "Si O2"
_cell_formula_units_Z 16
_cell_length_a 12.067499
_cell_length_b 5.241427
_cell_length_c 29.460745
_cell_angle_alpha 98.532889
_cell_angle_beta 156.989820
_cell_angle_gamma 81.809115
_cell_volume 720.253917
_symmetry_space_group_name_H-M "P -1"
_symmetry_group_IT_number 2
_symmetry_cell_setting 'triclinic'
loop_
_space_group_symop_operation_xyz
x,y,z
-x,-y,-z
loop_
_atom_site_type_symbol
_atom_site_label
_atom_site_fract_x
_atom_site_fract_y
_atom_site_fract_z
Si Si1 0.340102 0.269138 0.954794
Si Si2 0.876804 0.962719 0.001602
Si Si3 0.942043 0.605112 0.683770
Si Si4 0.423153 0.492846 0.086300
Si Si5 0.316200 0.496219 0.600792
Si Si6 0.851535 0.009899 0.728031
Si Si7 0.569814 0.641487 0.459655
Si Si8 0.650534 0.984980 0.745089
O O1 0.034533 0.264491 0.814591
O O2 0.500000 0.500000 0.000000
O O3 0.303159 0.326687 0.994991
O O4 0.500000 0.000000 0.000000
O O5 0.698239 0.219438 0.952740
O O6 0.137118 0.932160 0.133537
O O7 0.685397 0.701242 0.920203
O O8 0.000000 0.000000 0.000000
O O9 0.238800 0.456004 0.784495
O O10 0.827440 0.676811 0.592412
O O11 0.701343 0.470617 0.619260
O O12 0.026152 0.851908 0.751875
O O13 0.325995 0.518126 0.549629
O O14 0.470611 0.238096 0.669783
O O15 0.000000 0.500000 0.500000
O O16 0.455661 0.750757 0.681852
O O17 0.540349 0.079067 0.592028
O O18 0.817745 0.872511 0.760666
#
# Coordination Sequence:
#
# PCOD8026318 Si02
#       8
#     2   2   2   2   2   2   2   2
#     4  12  24  38  67 103 141 174 226 287 343 421
#     4  12  28  49  70  99 140 188 237 294 359 415
#     4  11  23  42  66 100 145 182 228 290 354 432
#     4  12  26  44  70 105 135 183 241 286 353 429
#     4  11  24  45  73 102 133 181 244 288 339 411
#     4  11  22  40  66  96 140 182 224 277 359 422
#     4  10  24  41  65  99 140 188 225 285 364 413
#     4  11  24  44  71  97 136 179 228 293 353 412
#
# _framework density 22.214389000000001
#
# number of rings (size 3 to 8) (size 9 to 14) (size 15 to 20)
#    0.000    0.750    3.750    3.375    3.500    2.000 
#    0.000    0.000    0.000    0.000    0.000    0.000 
#    0.000    0.000    0.000    0.000    0.000    0.000 
#
# Total GULP energy -198295.668146 kJ/mol
# GULP energy per Si atom -12393.479259 kJ/mol
# Density = 2.216383 g / cm^3
# Si number density = 22.214389 Si / 1000 Ang^3
#
#
#
# Elastic Constant Matrix: (Units=GPa)
#
#
# Indices 1 2 3 4 5 6 
#
# 1 109.2383 14.4138 54.6142 -7.9692 -1.0746 5.4560
# 2 14.4138 101.6871 35.0288 -4.1442 7.3163 13.1080
# 3 54.6142 35.0288 134.6908 -4.9412 -1.6166 -2.5707
# 4 -7.9692 -4.1442 -4.9412 35.1076 8.1120 8.1433
# 5 -1.0746 7.3163 -1.6166 8.1120 40.1518 5.7541
# 6 5.4560 13.1080 -2.5707 8.1433 5.7541 29.2442
#
#
#
# Elastic Compliance Matrix: (Units=1/GPa)
#
#
# Indices 1 2 3 4 5 6 
#
# 1 0.011965 0.000631 -0.004979 0.002977 -0.000056 -0.003771
# 2 0.000631 0.011988 -0.003407 0.002989 -0.002016 -0.006226
# 3 -0.004979 -0.003407 0.010366 -0.001034 0.000607 0.003536
# 4 0.002977 0.002989 -0.001034 0.033025 -0.005738 -0.010053
# 5 -0.000056 -0.002016 0.000607 -0.005738 0.026844 -0.002717
# 6 -0.003771 -0.006226 0.003536 -0.010053 -0.002717 0.041333
#
#
# Mechanical properties :
#
#
# Convention : Reuss Voigt Hill
#
# Bulk Modulus (GPa) = 53.16676 61.52553 57.34614
# Shear Modulus (GPa) = 31.78606 37.00467 34.39536
#
# Velocity S-wave (km/s) = 3.78680 4.08585 3.93916
# Velocity P-wave (km/s) = 6.56546 7.07214 6.82350
#
# Compressibility (1/GPa) = 0.01880875
#
# Stress axis : x y z
#
# Youngs Moduli (GPa) = 83.57430 83.41944 96.46792
#
# Poissons Ratio (x) = -0.05260 0.48032
# Poissons Ratio (y) = -0.05270 0.32863
# Poissons Ratio (z) = 0.41613 0.28418
#
# Static dielectric constant tensor:
#      x y z
#    x 4.022590 0.065770 0.149610 
#    y 0.065770 3.356190 0.159220 
#    z 0.149610 0.159220 4.042420 
# 
# 
# High freq. dielectric constant tensor:
#      x y z
#    x 1.877640 0.006170 -0.001960 
#    y 0.006170 1.874720 0.000460 
#    z -0.001960 0.000460 1.882260 
# 
# From -- ./inp_files/441964.got.cif
#   From: 2010.06.25/outbox.cif.g09.slc.cpg/sg2_221_cif.got.tgz:441964.got - 2010.06.27 13:26:56.
