data_PCOD8026468
_publ_section_title
;
Structure prediction by ZEFSAII (Michael W. Deem and Ramdas Pophale) SiO2 
 PCOD8026468
Probable space group: P -1
;
_chemical_formula_sum "Si O2"
_cell_formula_units_Z 16
_cell_length_a 18.088990
_cell_length_b 8.493489
_cell_length_c 7.995944
_cell_angle_alpha 107.227662
_cell_angle_beta 88.296197
_cell_angle_gamma 139.984505
_cell_volume 714.563237
_symmetry_space_group_name_H-M "P -1"
_symmetry_group_IT_number 2
_symmetry_cell_setting 'triclinic'
loop_
_space_group_symop_operation_xyz
x,y,z
-x,-y,-z
loop_
_atom_site_type_symbol
_atom_site_label
_atom_site_fract_x
_atom_site_fract_y
_atom_site_fract_z
Si Si1 0.854120 0.169130 0.155000
Si Si2 0.863377 0.702022 0.907342
Si Si3 0.129445 0.642558 0.278723
Si Si4 0.717034 0.150841 0.365873
Si Si5 0.700733 0.815899 0.745985
Si Si6 0.456208 0.443959 0.798933
Si Si7 0.745055 0.562273 0.523272
Si Si8 0.230317 0.262627 0.772347
O O1 0.768246 0.177629 0.191412
O O2 0.992226 0.465812 0.206208
O O3 0.850715 0.043123 0.278969
O O4 0.791028 0.954189 0.942096
O O5 0.853958 0.490282 0.878151
O O6 0.832725 0.689226 0.713544
O O7 0.779159 0.632575 0.034862
O O8 0.000000 0.000000 0.000000
O O9 0.161168 0.648998 0.467357
O O10 0.225207 0.950506 0.320426
O O11 0.671393 0.260734 0.398691
O O12 0.609413 0.842811 0.341309
O O13 0.573721 0.681081 0.750528
O O14 0.663843 0.574827 0.590097
O O15 0.370199 0.452227 0.797059
O O16 0.500000 0.500000 0.000000
O O17 0.813347 0.729523 0.395993
#
# Coordination Sequence:
#
# PCOD8026468 Si02
#       8
#     2   2   2   2   2   2   2   2
#     4  11  21  44  67  97 137 181 225 280 343 409
#     4  11  22  45  66 101 146 181 223 287 340 406
#     4  11  24  40  67 100 138 175 230 280 343 412
#     4  10  24  42  65  99 135 175 226 284 342 406
#     4  12  23  43  70  97 134 185 230 278 345 402
#     4  11  22  45  73  93 137 183 233 282 337 413
#     4  11  25  43  65 105 139 176 233 279 345 407
#     4  11  23  42  71  98 137 181 227 276 351 394
#
# _framework density 22.391300999999999
#
# number of rings (size 3 to 8) (size 9 to 14) (size 15 to 20)
#    0.000    1.000    5.000    2.250    1.750    3.000 
#    0.000    3.750    0.000    0.000    0.000    0.000 
#    0.000    0.000    0.000    0.000    0.000    0.000 
#
# Total GULP energy -198243.822208 kJ/mol
# GULP energy per Si atom -12390.238888 kJ/mol
# Density = 2.234034 g / cm^3
# Si number density = 22.391301 Si / 1000 Ang^3
#
#
#
# Elastic Constant Matrix: (Units=GPa)
#
#
# Indices 1 2 3 4 5 6 
#
# 1 87.2843 50.9932 34.2774 1.7947 -19.0207 4.6289
# 2 50.9932 104.1284 32.1384 -1.6898 -10.9799 13.2257
# 3 34.2774 32.1384 112.8324 -8.7966 -5.1149 -5.5921
# 4 1.7947 -1.6898 -8.7966 37.3006 -10.1104 -1.7018
# 5 -19.0207 -10.9799 -5.1149 -10.1104 37.8621 5.0419
# 6 4.6289 13.2257 -5.5921 -1.7018 5.0419 32.0221
#
#
#
# Elastic Compliance Matrix: (Units=1/GPa)
#
#
# Indices 1 2 3 4 5 6 
#
# 1 0.018534 -0.007127 -0.003372 -0.000198 0.006925 -0.001425
# 2 -0.007127 0.014610 -0.002169 0.000581 0.001258 -0.005550
# 3 -0.003372 -0.002169 0.010855 0.002614 -0.000627 0.003517
# 4 -0.000198 0.000581 0.002614 0.029733 0.008293 0.000520
# 5 0.006925 0.001258 -0.000627 0.008293 0.033240 -0.006423
# 6 -0.001425 -0.005550 0.003517 0.000520 -0.006423 0.035380
#
#
# Mechanical properties :
#
#
# Convention : Reuss Voigt Hill
#
# Bulk Modulus (GPa) = 53.58700 59.89587 56.74144
# Shear Modulus (GPa) = 28.75044 33.89270 31.32157
#
# Velocity S-wave (km/s) = 3.58718 3.89479 3.74415
# Velocity P-wave (km/s) = 6.41414 6.85810 6.63983
#
# Compressibility (1/GPa) = 0.01866124
#
# Stress axis : x y z
#
# Youngs Moduli (GPa) = 53.95499 68.44477 92.12583
#
# Poissons Ratio (x) = 0.48783 0.31069
# Poissons Ratio (y) = 0.38456 0.19982
# Poissons Ratio (z) = 0.18196 0.14846
#
# Static dielectric constant tensor:
#      x y z
#    x 4.649090 -0.063970 -0.598240 
#    y -0.063970 3.958400 -0.002500 
#    z -0.598240 -0.002500 4.723130 
# 
# 
# High freq. dielectric constant tensor:
#      x y z
#    x 1.876750 -0.008810 -0.013810 
#    y -0.008810 1.859180 -0.001840 
#    z -0.013810 -0.001840 1.900400 
# 
# From -- ./inp_files/218832.got.cif
#   From: 2010.06.25/outbox.cif.g09.slc.cpg/sg2_110_cif.got.tgz:218832.got - 2010.06.27 13:26:56.
