data_PCOD8026505
_publ_section_title
;
Structure prediction by ZEFSAII (Michael W. Deem and Ramdas Pophale) SiO2 
 PCOD8026505
Probable space group: P -1
;
_chemical_formula_sum "Si O2"
_cell_formula_units_Z 14
_cell_length_a 11.904523
_cell_length_b 5.056301
_cell_length_c 13.703394
_cell_angle_alpha 109.364132
_cell_angle_beta 43.432151
_cell_angle_gamma 101.997188
_cell_volume 534.308968
_symmetry_space_group_name_H-M "P -1"
_symmetry_group_IT_number 2
_symmetry_cell_setting 'triclinic'
loop_
_space_group_symop_operation_xyz
x,y,z
-x,-y,-z
loop_
_atom_site_type_symbol
_atom_site_label
_atom_site_fract_x
_atom_site_fract_y
_atom_site_fract_z
Si Si1 0.838427 0.655412 0.232756
Si Si2 0.421533 0.455762 0.146884
Si Si3 0.045304 0.185203 0.137083
Si Si4 0.772274 0.990574 0.696991
Si Si5 0.645333 0.757245 0.174055
Si Si6 0.040303 0.700374 0.589009
Si Si7 0.317119 0.071287 0.456249
O O1 0.731090 0.638961 0.202264
O O2 0.717144 0.711526 0.407919
O O3 0.932567 0.353387 0.149230
O O4 0.973050 0.886544 0.167949
O O5 0.352668 0.147345 0.164589
O O6 0.554962 0.499575 0.151725
O O7 0.275141 0.697412 0.273129
O O8 0.500000 0.500000 0.000000
O O9 0.045491 0.365737 0.260652
O O10 0.226126 0.133064 0.972662
O O11 0.759933 0.799095 0.581358
O O12 0.948017 0.988578 0.638133
O O13 0.512245 0.008486 0.315443
O O14 0.000000 0.500000 0.500000
O O15 0.227176 0.778723 0.499494
#
# Coordination Sequence:
#
# PCOD8026505 Si02
#       7
#     2   2   2   2   2   2   2
#     4  11  25  47  68  96 133 179 225 272 333 402
#     4  11  25  42  65 100 135 171 216 271 336 393
#     4  11  26  44  70  99 132 177 228 274 330 398
#     4  11  23  41  65  96 132 174 219 267 324 399
#     4  11  24  45  70  99 135 174 221 283 334 389
#     4  11  22  43  68  98 136 180 221 271 331 402
#     4  10  24  42  67 102 134 175 225 276 333 395
#
# _framework density 26.202069999999999
#
# number of rings (size 3 to 8) (size 9 to 14) (size 15 to 20)
#    0.000    1.143    0.000    5.571    0.000   13.714 
#    0.000    4.286    0.000    0.000    0.000    0.000 
#    0.000    0.000    0.000    0.000    0.000    0.000 
#
# Total GULP energy -173524.967613 kJ/mol
# GULP energy per Si atom -12394.640544 kJ/mol
# Density = 2.614243 g / cm^3
# Si number density = 26.202070 Si / 1000 Ang^3
#
#
#
# Elastic Constant Matrix: (Units=GPa)
#
#
# Indices 1 2 3 4 5 6 
#
# 1 131.7570 -6.9872 33.9131 1.4748 3.4167 -13.3831
# 2 -6.9872 41.5365 8.2793 -13.6018 -3.4627 -11.1703
# 3 33.9131 8.2793 167.3720 -9.7873 -3.6178 -3.4816
# 4 1.4748 -13.6018 -9.7873 26.1247 -3.7457 10.3009
# 5 3.4167 -3.4627 -3.6178 -3.7457 41.2341 0.1611
# 6 -13.3831 -11.1703 -3.4816 10.3009 0.1611 28.8031
#
#
#
# Elastic Compliance Matrix: (Units=1/GPa)
#
#
# Indices 1 2 3 4 5 6 
#
# 1 0.008859 0.002597 -0.001957 -0.002260 -0.000915 0.005700
# 2 0.002597 0.031601 -0.001074 0.012986 0.003490 0.008668
# 3 -0.001957 -0.001074 0.006573 0.002741 0.000904 -0.001517
# 4 -0.002260 0.012986 0.002741 0.052876 0.006379 -0.014628
# 5 -0.000915 0.003490 0.000904 0.006379 0.025285 -0.001385
# 6 0.005700 0.008668 -0.001517 -0.014628 -0.001385 0.045785
#
#
# Mechanical properties :
#
#
# Convention : Reuss Voigt Hill
#
# Bulk Modulus (GPa) = 21.66176 45.67510 33.66843
# Shear Modulus (GPa) = 26.70444 39.59643 33.15044
#
# Velocity S-wave (km/s) = 3.19591 3.89163 3.56080
# Velocity P-wave (km/s) = 4.68013 6.13700 5.45740
#
# Compressibility (1/GPa) = 0.04616430
#
# Stress axis : x y z
#
# Youngs Moduli (GPa) = 112.87748 31.64471 152.14612
#
# Poissons Ratio (x) = -0.08218 0.29773
# Poissons Ratio (y) = -0.29313 0.16344
# Poissons Ratio (z) = 0.22089 0.03399
#
# Static dielectric constant tensor:
#      x y z
#    x 5.150250 0.028140 0.273980 
#    y 0.028140 4.916730 0.525170 
#    z 0.273980 0.525170 5.522140 
# 
# 
# High freq. dielectric constant tensor:
#      x y z
#    x 2.059340 -0.010970 0.010220 
#    y -0.010970 2.023020 -0.008720 
#    z 0.010220 -0.008720 2.074730 
# 
# From -- ./inp_files/509899.got.cif
#   From: 2010.06.25/outbox.cif.g09.slc.cpg/sg2_255_cif.got.tgz:509899.got - 2010.06.27 13:26:56.
