data_PCOD8026071
_publ_section_title
;
Structure prediction by ZEFSAII (Michael W. Deem and Ramdas Pophale) SiO2 
 PCOD8026071
Probable space group: P -1
;
_chemical_formula_sum "Si O2"
_cell_formula_units_Z 16
_cell_length_a 11.128765
_cell_length_b 24.759727
_cell_length_c 5.907126
_cell_angle_alpha 55.433305
_cell_angle_beta 122.474574
_cell_angle_gamma 150.875797
_cell_volume 648.877469
_symmetry_space_group_name_H-M "P -1"
_symmetry_group_IT_number 2
_symmetry_cell_setting 'triclinic'
loop_
_space_group_symop_operation_xyz
x,y,z
-x,-y,-z
loop_
_atom_site_type_symbol
_atom_site_label
_atom_site_fract_x
_atom_site_fract_y
_atom_site_fract_z
Si Si1 0.902700 0.073542 0.028458
Si Si2 0.616214 0.756694 0.150207
Si Si3 0.200329 0.565186 0.857599
Si Si4 0.167672 0.245939 0.257954
Si Si5 0.008993 0.398215 0.716739
Si Si6 0.544404 0.168310 0.991057
Si Si7 0.264192 0.397760 0.661713
Si Si8 0.159876 0.821424 0.528145
O O1 0.777064 0.094000 0.771384
O O2 0.101969 0.124468 0.923167
O O3 0.691214 0.937502 0.155663
O O4 0.036368 0.136180 0.253133
O O5 0.616902 0.705770 0.482728
O O6 0.471883 0.669672 0.998832
O O7 0.488043 0.775959 0.043053
O O8 0.163316 0.608782 0.536409
O O9 0.161020 0.480700 0.894186
O O10 0.000000 0.500000 0.000000
O O11 0.955541 0.199753 0.300383
O O12 0.299055 0.348256 0.981594
O O13 0.208778 0.442826 0.641144
O O14 0.804733 0.266390 0.886362
O O15 0.583763 0.122711 0.314823
O O16 0.500000 0.500000 0.500000
O O17 0.035417 0.300141 0.497992
#
# Coordination Sequence:
#
# PCOD8026071 Si02
#       8
#     2   2   2   2   2   2   2   2
#     4  10  25  45  74 104 143 192 231 300 359 420
#     4  11  25  46  74 107 145 189 236 293 362 436
#     4  11  25  48  72 105 148 191 230 302 366 421
#     4  10  24  49  67 108 144 186 242 290 370 418
#     4  11  26  47  74 109 140 190 243 294 359 429
#     4  12  23  48  73 105 145 182 246 293 352 434
#     4  11  25  48  75 103 145 193 242 298 351 430
#     4  10  23  48  70 106 142 187 242 295 360 420
#
# _framework density 24.657969999999999
#
# number of rings (size 3 to 8) (size 9 to 14) (size 15 to 20)
#    0.000    1.250    2.500    1.500    1.750    5.500 
#   11.250    0.625    0.000    0.000    0.000    0.000 
#    0.000    0.000    0.000    0.000    0.000    0.000 
#
# Total GULP energy -198438.258807 kJ/mol
# GULP energy per Si atom -12402.391175 kJ/mol
# Density = 2.460185 g / cm^3
# Si number density = 24.657970 Si / 1000 Ang^3
#
#
#
# Elastic Constant Matrix: (Units=GPa)
#
#
# Indices 1 2 3 4 5 6 
#
# 1 136.0386 48.5390 30.9894 4.3038 -7.4305 -7.4484
# 2 48.5390 165.8942 45.0710 14.6970 -13.3898 -11.6282
# 3 30.9894 45.0710 91.3382 23.1060 2.1182 -1.8815
# 4 4.3038 14.6970 23.1060 31.4496 -0.0230 -2.1562
# 5 -7.4305 -13.3898 2.1182 -0.0230 39.4894 11.9277
# 6 -7.4484 -11.6282 -1.8815 -2.1562 11.9277 28.4315
#
#
#
# Elastic Compliance Matrix: (Units=1/GPa)
#
#
# Indices 1 2 3 4 5 6 
#
# 1 0.008615 -0.001867 -0.002381 0.001521 0.000777 0.001125
# 2 -0.001867 0.007732 -0.002915 -0.001107 0.001949 0.001579
# 3 -0.002381 -0.002915 0.015740 -0.009922 -0.002090 -0.000650
# 4 0.001521 -0.001107 -0.009922 0.039560 -0.000258 0.002398
# 5 0.000777 0.001949 -0.002090 -0.000258 0.029759 -0.011642
# 6 0.001125 0.001579 -0.000650 0.002398 -0.011642 0.041136
#
#
# Mechanical properties :
#
#
# Convention : Reuss Voigt Hill
#
# Bulk Modulus (GPa) = 56.30278 71.38555 63.84416
# Shear Modulus (GPa) = 30.71488 37.78554 34.25021
#
# Velocity S-wave (km/s) = 3.53319 3.91882 3.73099
# Velocity P-wave (km/s) = 6.28710 7.03486 6.67147
#
# Compressibility (1/GPa) = 0.01776111
#
# Stress axis : x y z
#
# Youngs Moduli (GPa) = 116.07143 129.33075 63.53406
#
# Poissons Ratio (x) = 0.24145 0.15130
# Poissons Ratio (y) = 0.21670 0.18518
# Poissons Ratio (z) = 0.27640 0.37696
#
# Static dielectric constant tensor:
#      x y z
#    x 4.836780 0.171060 0.741250 
#    y 0.171060 4.759800 0.572850 
#    z 0.741250 0.572850 5.639370 
# 
# 
# High freq. dielectric constant tensor:
#      x y z
#    x 1.988550 -0.006380 0.004830 
#    y -0.006380 1.981420 0.008380 
#    z 0.004830 0.008380 1.980850 
# 
# From -- ./inp_files/84257.got.cif
#   From: 2010.06.25/outbox.cif.g09.slc.cpg/sg2_43_cif.got.tgz:84257.got - 2010.06.27 13:26:56.
