data_PCOD8026002
_publ_section_title
;
Structure prediction by ZEFSAII (Michael W. Deem and Ramdas Pophale) SiO2 
 PCOD8026002
Probable space group: P -1
;
_chemical_formula_sum "Si O2"
_cell_formula_units_Z 14
_cell_length_a 5.444948
_cell_length_b 17.076365
_cell_length_c 8.573514
_cell_angle_alpha 120.512502
_cell_angle_beta 57.360360
_cell_angle_gamma 117.004084
_cell_volume 560.189902
_symmetry_space_group_name_H-M "P -1"
_symmetry_group_IT_number 2
_symmetry_cell_setting 'triclinic'
loop_
_space_group_symop_operation_xyz
x,y,z
-x,-y,-z
loop_
_atom_site_type_symbol
_atom_site_label
_atom_site_fract_x
_atom_site_fract_y
_atom_site_fract_z
Si Si1 0.770670 0.245273 0.162986
Si Si2 0.342440 0.935123 0.352091
Si Si3 0.679936 0.880045 0.583325
Si Si4 0.728214 0.575417 0.275187
Si Si5 0.094392 0.601765 0.494929
Si Si6 0.311550 0.630077 0.951127
Si Si7 0.348747 0.206376 0.818813
O O1 0.503480 0.167891 0.253923
O O2 0.978083 0.316724 0.288950
O O3 0.620334 0.306364 0.161283
O O4 0.988154 0.191524 0.941867
O O5 0.538108 0.861258 0.161770
O O6 0.023683 0.873530 0.463306
O O7 0.500000 0.000000 0.500000
O O8 0.316207 0.008723 0.299041
O O9 0.544709 0.824175 0.415574
O O10 0.463641 0.627867 0.388003
O O11 0.575176 0.463396 0.215585
O O12 0.922794 0.605122 0.395268
O O13 0.952923 0.601298 0.077694
O O14 0.000000 0.500000 0.500000
O O15 0.486213 0.685333 0.095432
#
# Coordination Sequence:
#
# PCOD8026002 Si02
#       7
#     2   2   2   2   2   2   2
#     4  12  27  40  72 106 144 185 253 293 366 425
#     4   9  21  45  75  97 139 183 231 285 382 434
#     4  10  23  47  71 103 138 186 229 303 361 445
#     4  11  27  46  72  97 151 201 246 305 369 421
#     4  12  25  47  70 105 147 199 248 304 360 432
#     4  11  26  43  67 104 139 190 246 300 360 433
#     4  11  24  44  68 105 141 183 236 302 356 446
#
# _framework density 24.991523999999998
#
# number of rings (size 3 to 8) (size 9 to 14) (size 15 to 20)
#    0.000    1.143    1.429    3.000    8.000    4.000 
#    0.000   10.000    0.000    0.000    0.000    0.000 
#    0.000    0.000    0.000    0.000    0.000    0.000 
#
# Total GULP energy -173606.155362 kJ/mol
# GULP energy per Si atom -12400.439669 kJ/mol
# Density = 2.493464 g / cm^3
# Si number density = 24.991524 Si / 1000 Ang^3
#
#
#
# Elastic Constant Matrix: (Units=GPa)
#
#
# Indices 1 2 3 4 5 6 
#
# 1 104.8153 14.0286 10.4870 2.1847 -5.0768 -2.3482
# 2 14.0286 94.8971 23.1424 -21.9391 -5.7741 -3.5466
# 3 10.4870 23.1424 71.2660 -3.1810 -9.2801 -14.3546
# 4 2.1847 -21.9391 -3.1810 43.2784 -0.2886 2.7602
# 5 -5.0768 -5.7741 -9.2801 -0.2886 37.1680 9.3382
# 6 -2.3482 -3.5466 -14.3546 2.7602 9.3382 34.0803
#
#
#
# Elastic Compliance Matrix: (Units=1/GPa)
#
#
# Indices 1 2 3 4 5 6 
#
# 1 0.009902 -0.001491 -0.000916 -0.001318 0.000880 0.000007
# 2 -0.001491 0.013259 -0.003877 0.006599 0.001249 -0.001233
# 3 -0.000916 -0.003877 0.016878 -0.001062 0.001920 0.006202
# 4 -0.001318 0.006599 -0.001062 0.026601 0.001386 -0.002385
# 5 0.000880 0.001249 0.001920 0.001386 0.029519 -0.007201
# 6 0.000007 -0.001233 0.006202 -0.002385 -0.007201 0.033993
#
#
# Mechanical properties :
#
#
# Convention : Reuss Voigt Hill
#
# Bulk Modulus (GPa) = 36.40295 40.69936 38.55115
# Shear Modulus (GPa) = 32.92129 37.79339 35.35734
#
# Velocity S-wave (km/s) = 3.63340 3.89298 3.76543
# Velocity P-wave (km/s) = 5.67449 6.04382 5.86206
#
# Compressibility (1/GPa) = 0.02747030
#
# Stress axis : x y z
#
# Youngs Moduli (GPa) = 100.98910 75.41913 59.24981
#
# Poissons Ratio (x) = 0.11248 0.05425
# Poissons Ratio (y) = 0.15061 0.22973
# Poissons Ratio (z) = 0.09247 0.29243
#
# Static dielectric constant tensor:
#      x y z
#    x 4.833730 -0.324060 -0.127330 
#    y -0.324060 5.063330 0.360190 
#    z -0.127330 0.360190 4.524670 
# 
# 
# High freq. dielectric constant tensor:
#      x y z
#    x 2.000500 0.006360 -0.008090 
#    y 0.006360 2.001940 0.014470 
#    z -0.008090 0.014470 1.985440 
# 
# From -- ./inp_files/49193.got.cif
#   From: 2010.06.25/outbox.cif.g09.slc.cpg/sg2_25_cif.got.tgz:49193.got - 2010.06.27 13:26:56.
