data_PCOD8026074
_publ_section_title
;
Structure prediction by ZEFSAII (Michael W. Deem and Ramdas Pophale) SiO2 
 PCOD8026074
Probable space group: P -1
;
_chemical_formula_sum "Si O2"
_cell_formula_units_Z 16
_cell_length_a 8.788613
_cell_length_b 11.452278
_cell_length_c 13.931102
_cell_angle_alpha 111.866503
_cell_angle_beta 51.108401
_cell_angle_gamma 74.331446
_cell_volume 725.669630
_symmetry_space_group_name_H-M "P -1"
_symmetry_group_IT_number 2
_symmetry_cell_setting 'triclinic'
loop_
_space_group_symop_operation_xyz
x,y,z
-x,-y,-z
loop_
_atom_site_type_symbol
_atom_site_label
_atom_site_fract_x
_atom_site_fract_y
_atom_site_fract_z
Si Si1 0.829472 0.206305 0.545599
Si Si2 0.123238 0.361581 0.124862
Si Si3 0.492676 0.647793 0.466991
Si Si4 0.410447 0.972654 0.621748
Si Si5 0.040428 0.816410 0.837802
Si Si6 0.627882 0.505108 0.854689
Si Si7 0.406853 0.904868 0.280506
Si Si8 0.140883 0.828815 0.022656
O O1 0.701943 0.310524 0.529365
O O2 0.802379 0.319504 0.676510
O O3 0.670244 0.150205 0.617299
O O4 0.149293 0.030225 0.348467
O O5 0.166912 0.470522 0.198685
O O6 0.803524 0.478086 0.262802
O O7 0.172596 0.203315 0.108155
O O8 0.326407 0.277556 0.928369
O O9 0.342897 0.654673 0.622080
O O10 0.506650 0.788178 0.526691
O O11 0.536848 0.981404 0.668181
O O12 0.085146 0.130199 0.806110
O O13 0.500000 0.000000 0.500000
O O14 0.099929 0.800285 0.922361
O O15 0.890582 0.005717 0.911786
O O16 0.500000 0.500000 0.000000
O O17 0.417623 0.657109 0.908303
#
# Coordination Sequence:
#
# PCOD8026074 Si02
#       8
#     2   2   2   2   2   2   2   2
#     4  11  25  43  63 100 146 176 223 291 350 410
#     4  12  25  44  70 101 135 183 234 283 339 419
#     4  11  25  43  71  99 135 183 232 290 342 402
#     4  11  22  38  69 102 134 178 229 282 352 417
#     4  10  23  48  70  97 137 187 238 279 336 414
#     4  12  27  43  68 104 143 176 227 293 353 408
#     4  11  24  41  66 100 139 182 227 281 352 417
#     4  10  24  44  71 100 139 182 227 289 340 411
#
# _framework density 22.048603
#
# number of rings (size 3 to 8) (size 9 to 14) (size 15 to 20)
#    0.000    1.000    3.750    1.875    7.000    1.000 
#    0.000    1.250    0.000    0.000    0.000    0.000 
#    0.000    0.000    0.000    0.000    0.000    0.000 
#
# Total GULP energy -198273.778018 kJ/mol
# GULP energy per Si atom -12392.111126 kJ/mol
# Density = 2.199842 g / cm^3
# Si number density = 22.048603 Si / 1000 Ang^3
#
#
#
# Elastic Constant Matrix: (Units=GPa)
#
#
# Indices 1 2 3 4 5 6 
#
# 1 100.5639 28.8738 16.6212 -8.1006 5.7828 22.4016
# 2 28.8738 60.7652 19.7358 -12.9645 -9.5457 1.1646
# 3 16.6212 19.7358 110.4290 -5.5463 -1.5618 -3.6466
# 4 -8.1006 -12.9645 -5.5463 32.2145 3.8174 -2.9439
# 5 5.7828 -9.5457 -1.5618 3.8174 37.3505 3.4571
# 6 22.4016 1.1646 -3.6466 -2.9439 3.4571 43.3649
#
#
#
# Elastic Compliance Matrix: (Units=1/GPa)
#
#
# Indices 1 2 3 4 5 6 
#
# 1 0.013694 -0.006417 -0.001160 0.000431 -0.003231 -0.006712
# 2 -0.006417 0.022606 -0.002580 0.006584 0.005761 0.002479
# 3 -0.001160 -0.002580 0.009765 0.000524 -0.000268 0.001547
# 4 0.000431 0.006584 0.000524 0.034331 -0.002069 0.002140
# 5 -0.003231 0.005761 -0.000268 -0.002069 0.029035 -0.000963
# 6 -0.006712 0.002479 0.001547 0.002140 -0.000963 0.026813
#
#
# Mechanical properties :
#
#
# Convention : Reuss Voigt Hill
#
# Bulk Modulus (GPa) = 38.83493 44.69107 41.76300
# Shear Modulus (GPa) = 30.27676 36.35445 33.31561
#
# Velocity S-wave (km/s) = 3.70967 4.06499 3.89139
# Velocity P-wave (km/s) = 6.00003 6.50734 6.25883
#
# Compressibility (1/GPa) = 0.02575001
#
# Stress axis : x y z
#
# Youngs Moduli (GPa) = 73.02495 44.23549 102.40713
#
# Poissons Ratio (x) = 0.28387 0.11879
# Poissons Ratio (y) = 0.46862 0.26424
# Poissons Ratio (z) = 0.08471 0.11414
#
# Static dielectric constant tensor:
#      x y z
#    x 3.869980 -0.164180 0.244700 
#    y -0.164180 2.792560 0.325610 
#    z 0.244700 0.325610 4.100190 
# 
# 
# High freq. dielectric constant tensor:
#      x y z
#    x 1.867620 0.027510 0.008960 
#    y 0.027510 1.867470 0.000620 
#    z 0.008960 0.000620 1.883140 
# 
# From -- ./inp_files/381809.got.cif
#   From: 2010.06.25/outbox.cif.g09.slc.cpg/sg2_191_cif.got.tgz:381809.got - 2010.06.27 13:26:56.
