data_PCOD8026252
_publ_section_title
;
Structure prediction by ZEFSAII (Michael W. Deem and Ramdas Pophale) SiO2 
 PCOD8026252
Probable space group: P -1
;
_chemical_formula_sum "Si O2"
_cell_formula_units_Z 14
_cell_length_a 9.188621
_cell_length_b 12.202644
_cell_length_c 10.090598
_cell_angle_alpha 75.369950
_cell_angle_beta 117.593856
_cell_angle_gamma 59.060317
_cell_volume 656.817346
_symmetry_space_group_name_H-M "P -1"
_symmetry_group_IT_number 2
_symmetry_cell_setting 'triclinic'
loop_
_space_group_symop_operation_xyz
x,y,z
-x,-y,-z
loop_
_atom_site_type_symbol
_atom_site_label
_atom_site_fract_x
_atom_site_fract_y
_atom_site_fract_z
Si Si1 0.209089 0.951979 0.688734
Si Si2 0.432649 0.632301 0.031712
Si Si3 0.046886 0.164022 0.071061
Si Si4 0.083674 0.769507 0.303897
Si Si5 0.581704 0.859987 0.673430
Si Si6 0.435383 0.781525 0.424043
Si Si7 0.779469 0.531737 0.430505
O O1 0.378096 0.944066 0.672067
O O2 0.370409 0.775314 0.879917
O O3 0.000000 0.000000 0.500000
O O4 0.104129 0.090424 0.710253
O O5 0.669152 0.536603 0.248629
O O6 0.500000 0.500000 0.000000
O O7 0.214153 0.703785 0.011384
O O8 0.167558 0.226484 0.127306
O O9 0.205118 0.982040 0.254844
O O10 0.026839 0.152433 0.910636
O O11 0.338835 0.706138 0.443923
O O12 0.130213 0.613663 0.391080
O O13 0.610566 0.732761 0.633605
O O14 0.500000 0.000000 0.500000
O O15 0.579741 0.707435 0.369920
O O16 0.000000 0.500000 0.500000
#
# Coordination Sequence:
#
# PCOD8026252 Si02
#       7
#     2   2   2   2   2   2   2
#     4  12  23  44  74 106 132 183 234 282 345 413
#     4  12  27  46  72 102 145 177 228 290 346 413
#     4  11  24  45  71 106 132 184 231 284 348 405
#     4  12  24  44  73  96 140 183 235 276 343 417
#     4  10  24  40  70 102 136 173 227 286 339 403
#     4  11  22  47  71  97 140 182 230 281 346 413
#     4  12  30  44  66 105 143 184 229 290 346 402
#
# _framework density 21.314907000000002
#
# number of rings (size 3 to 8) (size 9 to 14) (size 15 to 20)
#    0.000    0.571    4.286    3.429    8.000    0.571 
#    0.000    1.429    0.000    0.000    0.000    0.000 
#    0.000    0.000    0.000    0.000    0.000    0.000 
#
# Total GULP energy -173671.962479 kJ/mol
# GULP energy per Si atom -12405.140177 kJ/mol
# Density = 2.126639 g / cm^3
# Si number density = 21.314907 Si / 1000 Ang^3
#
#
#
# Elastic Constant Matrix: (Units=GPa)
#
#
# Indices 1 2 3 4 5 6 
#
# 1 188.2541 50.5233 50.8590 17.1635 8.6504 2.1107
# 2 50.5233 118.0302 40.9384 28.2915 10.7757 -9.2432
# 3 50.8590 40.9384 70.5584 15.7939 0.0357 -4.7927
# 4 17.1635 28.2915 15.7939 44.3907 4.6937 -1.5353
# 5 8.6504 10.7757 0.0357 4.6937 35.8964 8.3003
# 6 2.1107 -9.2432 -4.7927 -1.5353 8.3003 37.0916
#
#
#
# Elastic Compliance Matrix: (Units=1/GPa)
#
#
# Indices 1 2 3 4 5 6 
#
# 1 0.006901 -0.001466 -0.004154 -0.000194 -0.000941 -0.001092
# 2 -0.001466 0.012614 -0.004867 -0.005265 -0.003470 0.003157
# 3 -0.004154 -0.004867 0.020706 -0.002898 0.002589 0.001000
# 4 -0.000194 -0.005265 -0.002898 0.027185 -0.001895 -0.000126
# 5 -0.000941 -0.003470 0.002589 -0.001895 0.031110 -0.007517
# 6 -0.001092 0.003157 0.001000 -0.000126 -0.007517 0.029615
#
#
# Mechanical properties :
#
#
# Convention : Reuss Voigt Hill
#
# Bulk Modulus (GPa) = 51.95763 73.49824 62.72793
# Shear Modulus (GPa) = 32.15010 39.11054 35.63032
#
# Velocity S-wave (km/s) = 3.88795 4.28821 4.09297
# Velocity P-wave (km/s) = 6.67712 7.68604 7.19928
#
# Compressibility (1/GPa) = 0.01924645
#
# Stress axis : x y z
#
# Youngs Moduli (GPa) = 144.90988 79.27582 48.29523
#
# Poissons Ratio (x) = 0.11625 0.20060
# Poissons Ratio (y) = 0.21250 0.23506
# Poissons Ratio (z) = 0.60190 0.38585
#
# Static dielectric constant tensor:
#      x y z
#    x 4.378360 0.320930 0.215470 
#    y 0.320930 4.125250 0.427450 
#    z 0.215470 0.427450 3.994810 
# 
# 
# High freq. dielectric constant tensor:
#      x y z
#    x 1.851490 0.002330 -0.001730 
#    y 0.002330 1.844920 0.020300 
#    z -0.001730 0.020300 1.834670 
# 
# From -- ./inp_files/157532.got.cif
#   From: 2010.06.25/outbox.cif.g09.slc.cpg/sg2_79_cif.got.tgz:157532.got - 2010.06.27 13:26:56.
