data_PCOD8026431
_publ_section_title
;
Structure prediction by ZEFSAII (Michael W. Deem and Ramdas Pophale) SiO2 
 PCOD8026431
Probable space group: P -1
;
_chemical_formula_sum "Si O2"
_cell_formula_units_Z 16
_cell_length_a 8.977363
_cell_length_b 11.581881
_cell_length_c 18.262481
_cell_angle_alpha 141.354465
_cell_angle_beta 48.939250
_cell_angle_gamma 103.034915
_cell_volume 708.156921
_symmetry_space_group_name_H-M "P -1"
_symmetry_group_IT_number 2
_symmetry_cell_setting 'triclinic'
loop_
_space_group_symop_operation_xyz
x,y,z
-x,-y,-z
loop_
_atom_site_type_symbol
_atom_site_label
_atom_site_fract_x
_atom_site_fract_y
_atom_site_fract_z
Si Si1 0.371941 0.915663 0.041692
Si Si2 0.114720 0.168331 0.879683
Si Si3 0.455012 0.290882 0.850425
Si Si4 0.890340 0.147096 0.375377
Si Si5 0.864118 0.799611 0.540844
Si Si6 0.631097 0.381293 0.219340
Si Si7 0.456163 0.730927 0.658689
Si Si8 0.663592 0.539742 0.869710
O O1 0.442005 0.694094 0.864726
O O2 0.485850 0.809791 0.033050
O O3 0.079374 0.137773 0.251576
O O4 0.500000 0.000000 0.000000
O O5 0.255966 0.275449 0.865341
O O6 0.061511 0.097385 0.783188
O O7 0.279535 0.937874 0.762264
O O8 0.876417 0.352810 0.099798
O O9 0.537758 0.411025 0.830337
O O10 0.697241 0.033992 0.664448
O O11 0.312271 0.450906 0.046748
O O12 0.601379 0.352776 0.555751
O O13 0.984729 0.159724 0.429874
O O14 0.706277 0.714730 0.581587
O O15 0.065962 0.595024 0.319966
O O16 0.675222 0.221826 0.196040
O O17 0.500000 0.500000 0.500000
#
# Coordination Sequence:
#
# PCOD8026431 Si02
#       8
#     2   2   2   2   2   2   2   2
#     4  11  24  38  64  97 131 169 210 264 327 386
#     4  10  24  42  64  89 131 176 219 265 322 380
#     4  10  24  45  67  93 128 169 225 271 313 384
#     4  11  22  42  62  96 134 163 220 263 324 390
#     4  11  23  40  69  94 130 167 217 271 324 379
#     4  11  23  39  61  91 134 174 211 261 326 388
#     4  11  23  39  61  97 134 170 214 267 320 390
#     4  11  23  42  69  95 127 170 220 268 325 379
#
# _framework density 22.593862999999999
#
# number of rings (size 3 to 8) (size 9 to 14) (size 15 to 20)
#    0.000    1.250    3.750    1.500    5.250    1.000 
#    0.000    3.125    0.000    0.000    0.000    0.000 
#    0.000    0.000    0.000    0.000    0.000    0.000 
#
# Total GULP energy -198244.815176 kJ/mol
# GULP energy per Si atom -12390.300949 kJ/mol
# Density = 2.254244 g / cm^3
# Si number density = 22.593863 Si / 1000 Ang^3
#
#
#
# Elastic Constant Matrix: (Units=GPa)
#
#
# Indices 1 2 3 4 5 6 
#
# 1 92.9371 21.7858 22.8942 -5.9337 -5.7973 18.5529
# 2 21.7858 81.3452 17.4406 0.4009 -12.2885 20.3852
# 3 22.8942 17.4406 133.7244 -9.9199 -14.1594 11.4407
# 4 -5.9337 0.4009 -9.9199 25.0349 -1.3366 1.2858
# 5 -5.7973 -12.2885 -14.1594 -1.3366 29.5793 -9.4214
# 6 18.5529 20.3852 11.4407 1.2858 -9.4214 30.7415
#
#
#
# Elastic Compliance Matrix: (Units=1/GPa)
#
#
# Indices 1 2 3 4 5 6 
#
# 1 0.012916 -0.001664 -0.001299 0.002870 -0.000740 -0.006555
# 2 -0.001664 0.015362 -0.000732 -0.000354 0.003165 -0.007925
# 3 -0.001299 -0.000732 0.008479 0.003293 0.003329 -0.001004
# 4 0.002870 -0.000354 0.003293 0.042269 0.002739 -0.003651
# 5 -0.000740 0.003165 0.003329 0.002739 0.039603 0.009131
# 6 -0.006555 -0.007925 -0.001004 -0.003651 0.009131 0.045065
#
#
# Mechanical properties :
#
#
# Convention : Reuss Voigt Hill
#
# Bulk Modulus (GPa) = 34.05167 48.02756 41.03961
# Shear Modulus (GPa) = 27.64399 33.46354 30.55376
#
# Velocity S-wave (km/s) = 3.50168 3.85267 3.68136
# Velocity P-wave (km/s) = 5.60829 6.41044 6.02274
#
# Compressibility (1/GPa) = 0.02936714
#
# Stress axis : x y z
#
# Youngs Moduli (GPa) = 77.42579 65.09655 117.94536
#
# Poissons Ratio (x) = 0.10831 0.15319
# Poissons Ratio (y) = 0.12882 0.08631
# Poissons Ratio (z) = 0.10056 0.04763
#
# Static dielectric constant tensor:
#      x y z
#    x 4.309250 0.163390 -0.004640 
#    y 0.163390 3.930220 -0.170770 
#    z -0.004640 -0.170770 4.212620 
# 
# 
# High freq. dielectric constant tensor:
#      x y z
#    x 1.893190 0.010430 0.001780 
#    y 0.010430 1.870140 -0.012930 
#    z 0.001780 -0.012930 1.903790 
# 
# From -- ./inp_files/279070.got.cif
#   From: 2010.06.25/outbox.cif.g09.slc.cpg/sg2_140_cif.got.tgz:279070.got - 2010.06.27 13:26:56.
