data_PCOD8026772
_publ_section_title
;
Structure prediction by ZEFSAII (Michael W. Deem and Ramdas Pophale) SiO2 
 PCOD8026772
Probable space group: P -1
;
_chemical_formula_sum "Si O2"
_cell_formula_units_Z 16
_cell_length_a 17.510097
_cell_length_b 9.027408
_cell_length_c 11.844515
_cell_angle_alpha 100.574762
_cell_angle_beta 139.872115
_cell_angle_gamma 111.110941
_cell_volume 727.277463
_symmetry_space_group_name_H-M "P -1"
_symmetry_group_IT_number 2
_symmetry_cell_setting 'triclinic'
loop_
_space_group_symop_operation_xyz
x,y,z
-x,-y,-z
loop_
_atom_site_type_symbol
_atom_site_label
_atom_site_fract_x
_atom_site_fract_y
_atom_site_fract_z
Si Si1 0.726818 0.988425 0.101588
Si Si2 0.141929 0.344247 0.674601
Si Si3 0.167150 0.365959 0.968997
Si Si4 0.201403 0.894752 0.402436
Si Si5 0.303619 0.218764 0.746376
Si Si6 0.579056 0.912941 0.548779
Si Si7 0.333401 0.246489 0.210251
Si Si8 0.535329 0.089932 0.928091
O O1 0.959727 0.233372 0.387860
O O2 0.669723 0.894653 0.153445
O O3 0.647588 0.071313 0.986012
O O4 0.628108 0.762981 0.877709
O O5 0.094922 0.294050 0.748083
O O6 0.149380 0.179560 0.618269
O O7 0.339092 0.631136 0.905143
O O8 0.033120 0.352266 0.884497
O O9 0.390844 0.634505 0.257184
O O10 0.155683 0.188261 0.992009
O O11 0.242052 0.098808 0.535796
O O12 0.260817 0.936626 0.346430
O O13 0.323158 0.892058 0.606404
O O14 0.500000 0.500000 0.000000
O O15 0.694091 0.942003 0.783537
O O16 0.500000 0.000000 0.500000
O O17 0.500000 0.500000 0.500000
O O18 0.500000 0.000000 0.000000
#
# Coordination Sequence:
#
# PCOD8026772 Si02
#       8
#     2   2   2   2   2   2   2   2
#     4  12  23  40  68  99 133 179 229 273 351 409
#     4  12  22  41  68 101 141 178 215 293 356 401
#     4  11  22  44  71  99 132 176 231 282 340 406
#     4  12  24  41  72  97 135 176 232 279 338 411
#     4  12  21  37  65  98 133 172 217 278 343 398
#     4  11  25  48  70  93 138 184 226 279 340 401
#     4  10  24  43  67  95 132 184 230 275 325 403
#     4  12  23  41  60 104 141 172 220 279 354 414
#
# _framework density 21.999856000000001
#
# number of rings (size 3 to 8) (size 9 to 14) (size 15 to 20)
#    0.000    0.500    6.250    2.250    1.750    1.000 
#    0.000    0.000    0.000    0.000    0.000    0.000 
#    0.000    0.000    0.000    0.000    0.000    0.000 
#
# Total GULP energy -198232.193948 kJ/mol
# GULP energy per Si atom -12389.512122 kJ/mol
# Density = 2.194978 g / cm^3
# Si number density = 21.999856 Si / 1000 Ang^3
#
#
#
# Elastic Constant Matrix: (Units=GPa)
#
#
# Indices 1 2 3 4 5 6 
#
# 1 134.1284 40.2997 25.2249 -17.6865 7.5734 -5.4376
# 2 40.2997 103.3302 20.6906 -30.5410 6.9863 -8.7482
# 3 25.2249 20.6906 77.4453 -22.8845 7.5587 -2.2193
# 4 -17.6865 -30.5410 -22.8845 37.8493 -8.4842 7.5697
# 5 7.5734 6.9863 7.5587 -8.4842 42.3257 -4.8025
# 6 -5.4376 -8.7482 -2.2193 7.5697 -4.8025 45.3511
#
#
#
# Elastic Compliance Matrix: (Units=1/GPa)
#
#
# Indices 1 2 3 4 5 6 
#
# 1 0.008773 -0.002838 -0.001890 0.000470 -0.000639 0.000266
# 2 -0.002838 0.013667 0.000134 0.009698 0.000252 0.000711
# 3 -0.001890 0.000134 0.016219 0.009035 -0.000884 -0.001009
# 4 0.000470 0.009698 0.009035 0.041785 0.004610 -0.004117
# 5 -0.000639 0.000252 -0.000884 0.004610 0.024986 0.001805
# 6 0.000266 0.000711 -0.001009 -0.004117 0.001805 0.023048
#
#
# Mechanical properties :
#
#
# Convention : Reuss Voigt Hill
#
# Bulk Modulus (GPa) = 33.93191 54.14823 44.04007
# Shear Modulus (GPa) = 33.90058 40.35114 37.12586
#
# Velocity S-wave (km/s) = 3.92975 4.28735 4.11244
# Velocity P-wave (km/s) = 6.00398 7.01248 6.52773
#
# Compressibility (1/GPa) = 0.02947078
#
# Stress axis : x y z
#
# Youngs Moduli (GPa) = 113.99073 73.16799 61.65476
#
# Poissons Ratio (x) = 0.20768 0.11654
# Poissons Ratio (y) = 0.32355 -0.00829
# Poissons Ratio (z) = 0.21547 -0.00983
#
# Static dielectric constant tensor:
#      x y z
#    x 4.256240 -0.385860 0.157710 
#    y -0.385860 4.353540 -0.417410 
#    z 0.157710 -0.417410 4.104640 
# 
# 
# High freq. dielectric constant tensor:
#      x y z
#    x 1.876060 -0.017320 0.007670 
#    y -0.017320 1.857820 -0.019150 
#    z 0.007670 -0.019150 1.865580 
# 
# From -- ./inp_files/258140.got.cif
#   From: 2010.06.25/outbox.cif.g09.slc.cpg/sg2_130_cif.got.tgz:258140.got - 2010.06.27 13:26:56.
