data_PCOD8026168
_publ_section_title
;
Structure prediction by ZEFSAII (Michael W. Deem and Ramdas Pophale) SiO2 
 PCOD8026168
Probable space group: P -1
;
_chemical_formula_sum "Si O2"
_cell_formula_units_Z 16
_cell_length_a 13.683561
_cell_length_b 17.384128
_cell_length_c 25.403201
_cell_angle_alpha 160.170447
_cell_angle_beta 20.518362
_cell_angle_gamma 151.558637
_cell_volume 718.418989
_symmetry_space_group_name_H-M "P -1"
_symmetry_group_IT_number 2
_symmetry_cell_setting 'triclinic'
loop_
_space_group_symop_operation_xyz
x,y,z
-x,-y,-z
loop_
_atom_site_type_symbol
_atom_site_label
_atom_site_fract_x
_atom_site_fract_y
_atom_site_fract_z
Si Si1 0.292785 0.132513 0.505031
Si Si2 0.064020 0.702788 0.941376
Si Si3 0.353341 0.641978 0.119896
Si Si4 0.564205 0.466422 0.506421
Si Si5 0.170639 0.841053 0.682149
Si Si6 0.097897 0.507228 0.014790
Si Si7 0.872492 0.556927 0.737672
Si Si8 0.364979 0.754879 0.418179
O O1 0.433310 0.240007 0.451502
O O2 0.511236 0.142629 0.449247
O O3 0.224069 0.875543 0.358732
O O4 0.013659 0.263972 0.751764
O O5 0.904003 0.484281 0.858009
O O6 0.398542 0.676214 0.752128
O O7 0.005278 0.711214 0.039331
O O8 0.964842 0.910942 0.090636
O O9 0.500000 0.500000 0.000000
O O10 0.600221 0.685062 0.980708
O O11 0.500000 0.500000 0.500000
O O12 0.894557 0.473593 0.354227
O O13 0.166479 0.748439 0.565086
O O14 0.987225 0.693853 0.718414
O O15 0.429133 0.465647 0.820695
O O16 0.000000 0.500000 0.000000
O O17 0.803750 0.304361 0.588119
O O18 0.500000 0.000000 0.500000
#
# Coordination Sequence:
#
# PCOD8026168 Si02
#       8
#     2   2   2   2   2   2   2   2
#     4  10  24  39  70 103 136 183 229 290 346 413
#     4  11  23  44  69 102 138 183 236 289 344 422
#     4  12  23  42  71 105 135 182 245 282 343 419
#     4  10  24  44  65  98 151 179 226 285 360 411
#     4  11  22  43  72  98 140 184 232 287 353 417
#     4  11  22  41  68 101 135 174 232 289 350 400
#     4  11  26  44  70 105 137 187 234 287 357 420
#     4  12  23  46  74 102 135 185 237 290 347 422
#
# _framework density 22.271125999999999
#
# number of rings (size 3 to 8) (size 9 to 14) (size 15 to 20)
#    0.000    1.000    5.000    1.125    1.750    3.000 
#    0.000    4.375    0.000    0.000    0.000    0.000 
#    0.000    0.000    0.000    0.000    0.000    0.000 
#
# Total GULP energy -198266.448180 kJ/mol
# GULP energy per Si atom -12391.653011 kJ/mol
# Density = 2.222044 g / cm^3
# Si number density = 22.271126 Si / 1000 Ang^3
#
#
#
# Elastic Constant Matrix: (Units=GPa)
#
#
# Indices 1 2 3 4 5 6 
#
# 1 115.1816 33.2461 17.5687 14.2716 5.4104 -8.8717
# 2 33.2461 70.8647 39.2451 11.2777 6.3716 1.4532
# 3 17.5687 39.2451 128.4710 10.5410 1.2181 12.0564
# 4 14.2716 11.2777 10.5410 33.7747 -5.6762 -1.1543
# 5 5.4104 6.3716 1.2181 -5.6762 39.9508 -1.0518
# 6 -8.8717 1.4532 12.0564 -1.1543 -1.0518 35.1562
#
#
#
# Elastic Compliance Matrix: (Units=1/GPa)
#
#
# Indices 1 2 3 4 5 6 
#
# 1 0.010610 -0.004387 -0.000107 -0.003075 -0.001098 0.002762
# 2 -0.004387 0.019854 -0.005097 -0.003694 -0.002952 -0.000389
# 3 -0.000107 -0.005097 0.009766 -0.001368 0.000251 -0.003203
# 4 -0.003075 -0.003694 -0.001368 0.033589 0.005849 0.001124
# 5 -0.001098 -0.002952 0.000251 0.005849 0.026493 0.000743
# 6 0.002762 -0.000389 -0.003203 0.001124 0.000743 0.030315
#
#
# Mechanical properties :
#
#
# Convention : Reuss Voigt Hill
#
# Bulk Modulus (GPa) = 47.51291 54.95967 51.23629
# Shear Modulus (GPa) = 31.88259 36.74017 34.31138
#
# Velocity S-wave (km/s) = 3.78771 4.06603 3.92933
# Velocity P-wave (km/s) = 6.36468 6.83919 6.60620
#
# Compressibility (1/GPa) = 0.02104691
#
# Stress axis : x y z
#
# Youngs Moduli (GPa) = 94.25250 50.36865 102.39513
#
# Poissons Ratio (x) = 0.22095 0.01099
# Poissons Ratio (y) = 0.41345 0.52194
# Poissons Ratio (z) = 0.01012 0.25675
#
# Static dielectric constant tensor:
#      x y z
#    x 4.323370 -0.122400 0.026870 
#    y -0.122400 4.144810 -0.172410 
#    z 0.026870 -0.172410 4.721390 
# 
# 
# High freq. dielectric constant tensor:
#      x y z
#    x 1.891260 -0.023020 -0.005450 
#    y -0.023020 1.853260 -0.012030 
#    z -0.005450 -0.012030 1.890810 
# 
# From -- ./inp_files/354351.got.cif
#   From: 2010.06.25/outbox.cif.g09.slc.cpg/sg2_178_cif.got.tgz:354351.got - 2010.06.27 13:26:56.
