data_PCOD8026661
_publ_section_title
;
Structure prediction by ZEFSAII (Michael W. Deem and Ramdas Pophale) SiO2 
 PCOD8026661
Probable space group: P -1
;
_chemical_formula_sum "Si O2"
_cell_formula_units_Z 14
_cell_length_a 14.362481
_cell_length_b 5.254401
_cell_length_c 8.282813
_cell_angle_alpha 121.026675
_cell_angle_beta 95.934745
_cell_angle_gamma 91.879922
_cell_volume 530.045866
_symmetry_space_group_name_H-M "P -1"
_symmetry_group_IT_number 2
_symmetry_cell_setting 'triclinic'
loop_
_space_group_symop_operation_xyz
x,y,z
-x,-y,-z
loop_
_atom_site_type_symbol
_atom_site_label
_atom_site_fract_x
_atom_site_fract_y
_atom_site_fract_z
Si Si1 0.313089 0.301931 0.921810
Si Si2 0.451900 0.220866 0.180812
Si Si3 0.283697 0.088890 0.311541
Si Si4 0.025757 0.837619 0.668486
Si Si5 0.125165 0.794771 0.362485
Si Si6 0.855943 0.822624 0.950652
Si Si7 0.651515 0.376794 0.302423
O O1 0.333023 0.517709 0.844614
O O2 0.322993 0.956025 0.771603
O O3 0.385137 0.407469 0.117364
O O4 0.206669 0.341765 0.970520
O O5 0.388865 0.043948 0.253300
O O6 0.541801 0.416360 0.339361
O O7 0.500000 0.000000 0.000000
O O8 0.215862 0.029330 0.127824
O O9 0.283477 0.419773 0.495525
O O10 0.237545 0.858986 0.364428
O O11 0.103857 0.939715 0.578820
O O12 0.000000 0.500000 0.500000
O O13 0.935638 0.027183 0.716349
O O14 0.072014 0.910826 0.875941
O O15 0.093317 0.436094 0.221258
#
# Coordination Sequence:
#
# PCOD8026661 Si02
#       7
#     2   2   2   2   2   2   2
#     4  10  24  42  75 102 152 192 247 303 370 428
#     4   9  21  44  67 104 144 196 243 302 365 427
#     4  11  25  42  70 104 143 189 247 300 359 443
#     4  11  26  49  74 102 144 184 238 310 374 443
#     4  11  26  45  73 104 141 189 243 298 376 444
#     4  11  26  44  71 107 144 191 242 302 371 445
#     4  11  23  44  69 107 147 199 246 307 363 432
#
# _framework density 26.41281
#
# number of rings (size 3 to 8) (size 9 to 14) (size 15 to 20)
#    0.000    1.429    0.000    3.000   12.000    4.571 
#    2.571    3.571    0.000    0.000    0.000    0.000 
#    0.000    0.000    0.000    0.000    0.000    0.000 
#
# Total GULP energy -173465.308213 kJ/mol
# GULP energy per Si atom -12390.379158 kJ/mol
# Density = 2.635269 g / cm^3
# Si number density = 26.412810 Si / 1000 Ang^3
#
#
#
# Elastic Constant Matrix: (Units=GPa)
#
#
# Indices 1 2 3 4 5 6 
#
# 1 80.5750 -2.8496 43.5124 -4.6053 -15.3155 26.2146
# 2 -2.8496 53.5941 7.6747 14.9267 -0.0297 5.1598
# 3 43.5124 7.6747 118.2771 21.2164 15.6489 2.2320
# 4 -4.6053 14.9267 21.2164 44.3808 5.1307 -9.8684
# 5 -15.3155 -0.0297 15.6489 5.1307 57.3544 -10.0618
# 6 26.2146 5.1598 2.2320 -9.8684 -10.0618 36.8646
#
#
#
# Elastic Compliance Matrix: (Units=1/GPa)
#
#
# Indices 1 2 3 4 5 6 
#
# 1 0.024072 0.003554 -0.010031 0.002089 0.006401 -0.014702
# 2 0.003554 0.022039 -0.001213 -0.008223 0.000703 -0.007548
# 3 -0.010031 -0.001213 0.013928 -0.005913 -0.005351 0.003416
# 4 0.002089 -0.008223 -0.005913 0.030086 0.000937 0.008333
# 5 0.006401 0.000703 -0.005351 0.000937 0.020802 0.001603
# 6 -0.014702 -0.007548 0.003416 0.008333 0.001603 0.041099
#
#
# Mechanical properties :
#
#
# Convention : Reuss Voigt Hill
#
# Bulk Modulus (GPa) = 22.39182 38.79123 30.59153
# Shear Modulus (GPa) = 27.42852 41.32723 34.37788
#
# Velocity S-wave (km/s) = 3.22600 3.95988 3.61163
# Velocity P-wave (km/s) = 4.72992 5.96874 5.38508
#
# Compressibility (1/GPa) = 0.04465917
#
# Stress axis : x y z
#
# Youngs Moduli (GPa) = 41.54140 45.37460 71.79942
#
# Poissons Ratio (x) = -0.16124 0.72019
# Poissons Ratio (y) = -0.14762 0.08708
# Poissons Ratio (z) = 0.41668 0.05503
#
# Static dielectric constant tensor:
#      x y z
#    x 5.748040 0.525740 -0.045920 
#    y 0.525740 4.399860 -0.252620 
#    z -0.045920 -0.252620 5.100290 
# 
# 
# High freq. dielectric constant tensor:
#      x y z
#    x 2.075120 0.025550 -0.012470 
#    y 0.025550 2.033450 -0.007520 
#    z -0.012470 -0.007520 2.073670 
# 
# From -- ./inp_files/289333.got.cif
#   From: 2010.06.25/outbox.cif.g09.slc.cpg/sg2_145_cif.got.tgz:289333.got - 2010.06.27 13:26:56.
