data_PCOD8026628
_publ_section_title
;
Structure prediction by ZEFSAII (Michael W. Deem and Ramdas Pophale) SiO2 
 PCOD8026628
Probable space group: P -1
;
_chemical_formula_sum "Si O2"
_cell_formula_units_Z 14
_cell_length_a 9.098716
_cell_length_b 17.051255
_cell_length_c 9.337354
_cell_angle_alpha 53.840705
_cell_angle_beta 51.367880
_cell_angle_gamma 35.453643
_cell_volume 645.699998
_symmetry_space_group_name_H-M "P -1"
_symmetry_group_IT_number 2
_symmetry_cell_setting 'triclinic'
loop_
_space_group_symop_operation_xyz
x,y,z
-x,-y,-z
loop_
_atom_site_type_symbol
_atom_site_label
_atom_site_fract_x
_atom_site_fract_y
_atom_site_fract_z
Si Si1 0.037560 0.633634 0.741186
Si Si2 0.296752 0.650566 0.025801
Si Si3 0.988117 0.074213 0.791921
Si Si4 0.318550 0.911629 0.488952
Si Si5 0.898522 0.754963 0.391452
Si Si6 0.429456 0.329212 0.930302
Si Si7 0.934686 0.186118 0.291195
O O1 0.004640 0.657341 0.567364
O O2 0.280758 0.472515 0.791745
O O3 0.111149 0.709115 0.685289
O O4 0.764733 0.691683 0.912012
O O5 0.458297 0.678763 0.973734
O O6 0.115431 0.659393 0.239365
O O7 0.500000 0.500000 0.000000
O O8 0.098298 0.765781 0.902949
O O9 0.675725 0.210339 0.806109
O O10 0.145748 0.115570 0.687387
O O11 0.126854 0.977724 0.673915
O O12 0.000000 0.000000 0.000000
O O13 0.622635 0.810744 0.450825
O O14 0.280263 0.820364 0.536396
O O15 0.227011 0.032207 0.308351
#
# Coordination Sequence:
#
# PCOD8026628 Si02
#       7
#     2   2   2   2   2   2   2
#     4  11  22  45  70  99 128 175 227 276 317 401
#     4  11  23  45  66  95 134 175 209 277 334 391
#     4  11  22  39  68  98 132 176 217 271 325 394
#     4  11  24  44  64 100 132 178 220 270 330 395
#     4  11  24  42  71  95 129 178 222 269 330 391
#     4  10  24  42  71  97 134 173 224 268 338 385
#     4  11  24  43  67  92 142 169 218 279 326 385
#
# _framework density 21.681895000000001
#
# number of rings (size 3 to 8) (size 9 to 14) (size 15 to 20)
#    0.000    1.143    2.857    3.857    2.000    4.000 
#    5.143    2.857    0.000    0.000    0.000    0.000 
#    0.000    0.000    0.000    0.000    0.000    0.000 
#
# Total GULP energy -173620.705481 kJ/mol
# GULP energy per Si atom -12401.478963 kJ/mol
# Density = 2.163255 g / cm^3
# Si number density = 21.681895 Si / 1000 Ang^3
#
#
#
# Elastic Constant Matrix: (Units=GPa)
#
#
# Indices 1 2 3 4 5 6 
#
# 1 123.0022 68.9419 58.9542 -4.4611 0.6664 -18.6056
# 2 68.9419 112.0235 64.0802 0.7825 -8.7388 -7.8510
# 3 58.9542 64.0802 112.8907 -21.8132 5.1284 -11.0913
# 4 -4.4611 0.7825 -21.8132 35.4844 -11.5743 -0.6810
# 5 0.6664 -8.7388 5.1284 -11.5743 37.6141 -10.8316
# 6 -18.6056 -7.8510 -11.0913 -0.6810 -10.8316 33.2060
#
#
#
# Elastic Compliance Matrix: (Units=1/GPa)
#
#
# Indices 1 2 3 4 5 6 
#
# 1 0.014082 -0.006482 -0.003118 0.000195 0.000289 0.005414
# 2 -0.006482 0.017624 -0.007827 -0.004905 0.003465 -0.001050
# 3 -0.003118 -0.007827 0.017147 0.010268 -0.000295 0.002244
# 4 0.000195 -0.004905 0.010268 0.038427 0.011250 0.006837
# 5 0.000289 0.003465 -0.000295 0.011250 0.034444 0.012348
# 6 0.005414 -0.001050 0.002244 0.006837 0.012348 0.037818
#
#
# Mechanical properties :
#
#
# Convention : Reuss Voigt Hill
#
# Bulk Modulus (GPa) = 71.43484 81.31877 76.37680
# Shear Modulus (GPa) = 25.11745 31.65691 28.38718
#
# Velocity S-wave (km/s) = 3.40730 3.82522 3.62229
# Velocity P-wave (km/s) = 6.96404 7.55623 7.26617
#
# Compressibility (1/GPa) = 0.01399877
#
# Stress axis : x y z
#
# Youngs Moduli (GPa) = 71.01174 56.73927 58.31770
#
# Poissons Ratio (x) = 0.36780 0.18184
# Poissons Ratio (y) = 0.46032 0.45647
# Poissons Ratio (z) = 0.22142 0.44412
#
# Static dielectric constant tensor:
#      x y z
#    x 4.127160 -0.097030 0.051920 
#    y -0.097030 3.973770 -0.243910 
#    z 0.051920 -0.243910 4.017910 
# 
# 
# High freq. dielectric constant tensor:
#      x y z
#    x 1.862960 -0.006530 0.002800 
#    y -0.006530 1.849890 -0.019670 
#    z 0.002800 -0.019670 1.855260 
# 
# From -- ./inp_files/211830.got.cif
#   From: 2010.06.25/outbox.cif.g09.slc.cpg/sg2_106_cif.got.tgz:211830.got - 2010.06.27 13:26:56.
