data_PCOD8026099
_publ_section_title
;
Structure prediction by ZEFSAII (Michael W. Deem and Ramdas Pophale) SiO2 
 PCOD8026099
Probable space group: P -1
;
_chemical_formula_sum "Si O2"
_cell_formula_units_Z 16
_cell_length_a 9.459328
_cell_length_b 11.880564
_cell_length_c 14.650795
_cell_angle_alpha 124.484044
_cell_angle_beta 48.577645
_cell_angle_gamma 142.396109
_cell_volume 750.182384
_symmetry_space_group_name_H-M "P -1"
_symmetry_group_IT_number 2
_symmetry_cell_setting 'triclinic'
loop_
_space_group_symop_operation_xyz
x,y,z
-x,-y,-z
loop_
_atom_site_type_symbol
_atom_site_label
_atom_site_fract_x
_atom_site_fract_y
_atom_site_fract_z
Si Si1 0.999400 0.405626 0.871162
Si Si2 0.415982 0.113173 0.967047
Si Si3 0.262066 0.259627 0.747417
Si Si4 0.237685 0.135195 0.247605
Si Si5 0.477596 0.345374 0.889460
Si Si6 0.983583 0.435306 0.329537
Si Si7 0.794333 0.565374 0.590486
Si Si8 0.684625 0.227239 0.199939
O O1 0.178568 0.366387 0.797473
O O2 0.115975 0.556152 0.811625
O O3 0.714003 0.217948 0.884233
O O4 0.000000 0.500000 0.000000
O O5 0.352865 0.178360 0.937810
O O6 0.260212 0.893918 0.925555
O O7 0.350284 0.157600 0.109472
O O8 0.284502 0.265537 0.850401
O O9 0.532228 0.356829 0.630538
O O10 0.058300 0.048785 0.704408
O O11 0.263537 0.305091 0.340214
O O12 0.397246 0.131505 0.254226
O O13 0.756744 0.432792 0.779310
O O14 0.500000 0.500000 0.000000
O O15 0.012914 0.356991 0.371236
O O16 0.913571 0.556390 0.444648
O O17 0.744918 0.248174 0.291791
#
# Coordination Sequence:
#
# PCOD8026099 Si02
#       8
#     2   2   2   2   2   2   2   2
#     4  12  20  39  62  90 139 172 207 259 324 386
#     4  12  24  39  63 102 136 166 210 265 328 386
#     4  11  24  41  63  96 127 172 219 262 320 378
#     4  12  24  40  65  99 131 173 212 260 328 384
#     4  11  24  42  67  98 131 168 212 267 324 383
#     4  10  24  45  69  92 125 178 217 262 322 376
#     4  10  23  49  65  87 132 173 221 267 312 376
#     4  12  24  39  66  99 130 170 213 263 323 385
#
# _framework density 21.328147999999999
#
# number of rings (size 3 to 8) (size 9 to 14) (size 15 to 20)
#    0.000    0.750    5.000    3.375    3.500    1.000 
#    2.250    2.500    0.000    0.000    0.000    0.000 
#    0.000    0.000    0.000    0.000    0.000    0.000 
#
# Total GULP energy -198395.993922 kJ/mol
# GULP energy per Si atom -12399.749620 kJ/mol
# Density = 2.127960 g / cm^3
# Si number density = 21.328148 Si / 1000 Ang^3
#
#
#
# Elastic Constant Matrix: (Units=GPa)
#
#
# Indices 1 2 3 4 5 6 
#
# 1 81.8997 41.2756 34.2081 2.4927 -6.3550 -1.1746
# 2 41.2756 99.7632 33.0717 4.5485 -2.2226 10.8126
# 3 34.2081 33.0717 114.0065 4.0272 -14.6344 7.6178
# 4 2.4927 4.5485 4.0272 25.0597 -1.1953 -2.3878
# 5 -6.3550 -2.2226 -14.6344 -1.1953 27.5346 9.8289
# 6 -1.1746 10.8126 7.6178 -2.3878 9.8289 32.4278
#
#
#
# Elastic Compliance Matrix: (Units=1/GPa)
#
#
# Indices 1 2 3 4 5 6 
#
# 1 0.016842 -0.006202 -0.003449 0.000346 0.000352 0.003407
# 2 -0.006202 0.013761 -0.001701 -0.002035 0.000354 -0.004670
# 3 -0.003449 -0.001701 0.011496 -0.001294 0.006684 -0.004379
# 4 0.000346 -0.002035 -0.001294 0.040820 -0.000480 0.004147
# 5 0.000352 0.000354 0.006684 -0.000480 0.045492 -0.015499
# 6 0.003407 -0.004670 -0.004379 0.004147 -0.015499 0.038550
#
#
# Mechanical properties :
#
#
# Convention : Reuss Voigt Hill
#
# Bulk Modulus (GPa) = 51.56272 56.97559 54.26916
# Shear Modulus (GPa) = 25.49318 29.47869 27.48594
#
# Velocity S-wave (km/s) = 3.46104 3.72176 3.59376
# Velocity P-wave (km/s) = 6.34035 6.72610 6.53608
#
# Compressibility (1/GPa) = 0.01939386
#
# Stress axis : x y z
#
# Youngs Moduli (GPa) = 59.37541 72.67116 86.98509
#
# Poissons Ratio (x) = 0.45070 0.30002
# Poissons Ratio (y) = 0.36824 0.14800
# Poissons Ratio (z) = 0.20479 0.12365
#
# Static dielectric constant tensor:
#      x y z
#    x 4.111860 0.145610 0.015110 
#    y 0.145610 3.673560 0.090620 
#    z 0.015110 0.090620 3.711150 
# 
# 
# High freq. dielectric constant tensor:
#      x y z
#    x 1.857550 0.009940 -0.005750 
#    y 0.009940 1.829780 0.007470 
#    z -0.005750 0.007470 1.820170 
# 
# From -- ./inp_files/433819.got.cif
#   From: 2010.06.25/outbox.cif.g09.slc.cpg/sg2_217_cif.got.tgz:433819.got - 2010.06.27 13:26:56.
