data_PCOD8026911
_publ_section_title
;
Structure prediction by ZEFSAII (Michael W. Deem and Ramdas Pophale) SiO2 
 PCOD8026911
Probable space group: P -1
;
_chemical_formula_sum "Si O2"
_cell_formula_units_Z 16
_cell_length_a 12.954138
_cell_length_b 22.815145
_cell_length_c 5.304782
_cell_angle_alpha 71.239274
_cell_angle_beta 109.809078
_cell_angle_gamma 153.935441
_cell_volume 647.555398
_symmetry_space_group_name_H-M "P -1"
_symmetry_group_IT_number 2
_symmetry_cell_setting 'triclinic'
loop_
_space_group_symop_operation_xyz
x,y,z
-x,-y,-z
loop_
_atom_site_type_symbol
_atom_site_label
_atom_site_fract_x
_atom_site_fract_y
_atom_site_fract_z
Si Si1 0.803268 0.163445 0.758919
Si Si2 0.359947 0.856743 0.852129
Si Si3 0.061308 0.981772 0.862969
Si Si4 0.691775 0.299463 0.164598
Si Si5 0.817078 0.740357 0.997615
Si Si6 0.469255 0.412393 0.547284
Si Si7 0.394147 0.195810 0.476837
Si Si8 0.787670 0.461437 0.669168
O O1 0.784910 0.189685 0.443082
O O2 0.070920 0.271544 0.852560
O O3 0.621313 0.015548 0.835642
O O4 0.766536 0.190820 0.924420
O O5 0.359286 0.781881 0.957593
O O6 0.842271 0.881513 0.626937
O O7 0.036944 0.897121 0.012498
O O8 0.328485 0.124434 0.775875
O O9 0.000000 0.000000 0.000000
O O10 0.459757 0.182994 0.317798
O O11 0.937908 0.405285 0.366435
O O12 0.726656 0.384351 0.954585
O O13 0.640470 0.669671 0.173987
O O14 0.693876 0.680998 0.703735
O O15 0.500000 0.500000 0.500000
O O16 0.714975 0.496597 0.611853
O O17 0.622474 0.354180 0.455351
#
# Coordination Sequence:
#
# PCOD8026911 Si02
#       8
#     2   2   2   2   2   2   2   2
#     4  10  24  43  71 103 147 185 243 302 360 450
#     4  10  24  47  67 107 145 189 241 301 368 436
#     4  11  25  42  72 108 149 188 234 314 374 453
#     4  11  26  44  76 101 144 200 242 315 364 448
#     4  12  26  47  77 109 145 195 253 308 379 446
#     4  12  28  51  75 108 148 201 249 316 368 452
#     4  11  23  44  69 106 141 187 240 298 382 437
#     4  11  26  48  68 107 147 188 259 303 374 438
#
# _framework density 24.708310999999998
#
# number of rings (size 3 to 8) (size 9 to 14) (size 15 to 20)
#    0.000    1.000    1.250    3.750   10.500    2.000 
#    0.000    0.000    0.000    0.000    0.000    0.000 
#    0.000    0.000    0.000    0.000    0.000    0.000 
#
# Total GULP energy -198260.714107 kJ/mol
# GULP energy per Si atom -12391.294632 kJ/mol
# Density = 2.465207 g / cm^3
# Si number density = 24.708311 Si / 1000 Ang^3
#
#
#
# Elastic Constant Matrix: (Units=GPa)
#
#
# Indices 1 2 3 4 5 6 
#
# 1 149.6279 38.7035 33.9045 5.5228 9.3542 -1.9008
# 2 38.7035 57.0499 10.4886 -3.7053 -2.8860 -8.6154
# 3 33.9045 10.4886 96.2834 7.7515 -21.7208 -7.4825
# 4 5.5228 -3.7053 7.7515 31.3049 1.9767 -2.0866
# 5 9.3542 -2.8860 -21.7208 1.9767 39.2926 1.4395
# 6 -1.9008 -8.6154 -7.4825 -2.0866 1.4395 50.2503
#
#
#
# Elastic Compliance Matrix: (Units=1/GPa)
#
#
# Indices 1 2 3 4 5 6 
#
# 1 0.009452 -0.006231 -0.003684 -0.001278 -0.004637 -0.001180
# 2 -0.006231 0.022648 0.000406 0.003739 0.003045 0.003776
# 3 -0.003684 0.000406 0.013998 -0.003212 0.008747 0.001631
# 4 -0.001278 0.003739 -0.003212 0.033700 -0.002950 0.001598
# 5 -0.004637 0.003045 0.008747 -0.002950 0.031739 0.000617
# 6 -0.001180 0.003776 0.001631 0.001598 0.000617 0.020795
#
#
# Mechanical properties :
#
#
# Convention : Reuss Voigt Hill
#
# Bulk Modulus (GPa) = 36.92803 52.12828 44.52816
# Shear Modulus (GPa) = 31.17702 38.82720 35.00211
#
# Velocity S-wave (km/s) = 3.55604 3.96842 3.76787
# Velocity P-wave (km/s) = 5.64257 6.49161 6.08193
#
# Compressibility (1/GPa) = 0.02707970
#
# Stress axis : x y z
#
# Youngs Moduli (GPa) = 105.79954 44.15432 71.44088
#
# Poissons Ratio (x) = 0.27511 0.26322
# Poissons Ratio (y) = 0.65920 -0.02902
# Poissons Ratio (z) = 0.38981 -0.01794
#
# Static dielectric constant tensor:
#      x y z
#    x 4.697290 0.230380 0.128710 
#    y 0.230380 4.947250 0.034840 
#    z 0.128710 0.034840 4.533280 
# 
# 
# High freq. dielectric constant tensor:
#      x y z
#    x 2.000350 0.004320 0.007300 
#    y 0.004320 1.986420 0.009940 
#    z 0.007300 0.009940 1.978910 
# 
# From -- ./inp_files/83213.got.cif
#   From: 2010.06.25/outbox.cif.g09.slc.cpg/sg2_42_cif.got.tgz:83213.got - 2010.06.27 13:26:56.
