data_PCOD8026798
_publ_section_title
;
Structure prediction by ZEFSAII (Michael W. Deem and Ramdas Pophale) SiO2 
 PCOD8026798
Probable space group: P -1
;
_chemical_formula_sum "Si O2"
_cell_formula_units_Z 16
_cell_length_a 25.308086
_cell_length_b 16.616754
_cell_length_c 14.018482
_cell_angle_alpha 159.134164
_cell_angle_beta 157.790877
_cell_angle_gamma 22.779058
_cell_volume 719.297097
_symmetry_space_group_name_H-M "P -1"
_symmetry_group_IT_number 2
_symmetry_cell_setting 'triclinic'
loop_
_space_group_symop_operation_xyz
x,y,z
-x,-y,-z
loop_
_atom_site_type_symbol
_atom_site_label
_atom_site_fract_x
_atom_site_fract_y
_atom_site_fract_z
Si Si1 0.398183 0.283030 0.169134
Si Si2 0.909608 0.595868 0.105082
Si Si3 0.379248 0.031298 0.544562
Si Si4 0.394785 0.457513 0.151606
Si Si5 0.808520 0.600331 0.523789
Si Si6 0.381352 0.444609 0.677704
Si Si7 0.080878 0.763429 0.439744
Si Si8 0.836146 0.177633 0.962270
O O1 0.350224 0.443486 0.170557
O O2 0.486168 0.415592 0.524474
O O3 0.256243 0.274002 0.979301
O O4 0.500000 0.000000 0.000000
O O5 0.025887 0.416983 0.182600
O O6 0.975597 0.789564 0.387664
O O7 0.896620 0.465133 0.842741
O O8 0.280690 0.170189 0.441096
O O9 0.522648 0.770827 0.474613
O O10 0.260008 0.984534 0.361868
O O11 0.456024 0.190310 0.904695
O O12 0.233643 0.628044 0.023868
O O13 0.708896 0.660573 0.519898
O O14 0.836986 0.331893 0.229338
O O15 0.257157 0.695503 0.694934
O O16 0.500000 0.500000 0.000000
O O17 0.000000 0.000000 0.500000
O O18 0.000000 0.000000 0.000000
#
# Coordination Sequence:
#
# PCOD8026798 Si02
#       8
#     2   2   2   2   2   2   2   2
#     4  11  25  46  71  98 137 179 238 284 339 421
#     4  10  25  45  67 100 135 182 227 282 347 415
#     4  11  24  44  72  97 142 175 229 297 341 413
#     4  10  26  44  65 106 129 186 229 282 357 396
#     4  10  24  43  68 102 131 182 230 278 357 407
#     4  11  23  45  72 103 135 180 236 289 345 411
#     4  10  25  47  69 101 140 181 227 284 354 415
#     4  11  25  42  67 101 139 180 226 283 344 415
#
# _framework density 22.243939000000001
#
# number of rings (size 3 to 8) (size 9 to 14) (size 15 to 20)
#    0.000    1.500    1.250    1.125   10.500    3.000 
#    6.750    0.000    0.000    0.000    0.000    0.000 
#    0.000    0.000    0.000    0.000    0.000    0.000 
#
# Total GULP energy -198312.444862 kJ/mol
# GULP energy per Si atom -12394.527804 kJ/mol
# Density = 2.219331 g / cm^3
# Si number density = 22.243939 Si / 1000 Ang^3
#
#
#
# Elastic Constant Matrix: (Units=GPa)
#
#
# Indices 1 2 3 4 5 6 
#
# 1 111.5280 66.2030 32.3662 -13.6506 13.6294 -14.7034
# 2 66.2030 142.4751 51.5655 -15.9113 11.9023 -13.2844
# 3 32.3662 51.5655 111.8845 -14.9102 -0.9148 -15.6158
# 4 -13.6506 -15.9113 -14.9102 33.0205 5.2830 -2.5247
# 5 13.6294 11.9023 -0.9148 5.2830 34.8962 -9.1675
# 6 -14.7034 -13.2844 -15.6158 -2.5247 -9.1675 47.4183
#
#
#
# Elastic Compliance Matrix: (Units=1/GPa)
#
#
# Indices 1 2 3 4 5 6 
#
# 1 0.013289 -0.005018 -0.000835 0.003408 -0.003506 0.001944
# 2 -0.005018 0.010979 -0.003335 0.002063 -0.002154 0.000115
# 3 -0.000835 -0.003335 0.011607 0.003194 0.002128 0.003211
# 4 0.003408 0.002063 0.003194 0.035414 -0.006438 0.003328
# 5 -0.003506 -0.002154 0.002128 -0.006438 0.033123 0.005071
# 6 0.001944 0.000115 0.003211 0.003328 0.005071 0.023939
#
#
# Mechanical properties :
#
#
# Convention : Reuss Voigt Hill
#
# Bulk Modulus (GPa) = 57.14327 74.01743 65.58035
# Shear Modulus (GPa) = 32.77394 37.45053 35.11224
#
# Velocity S-wave (km/s) = 3.84264 4.10766 3.97735
# Velocity P-wave (km/s) = 6.74040 7.47293 7.11610
#
# Compressibility (1/GPa) = 0.01749987
#
# Stress axis : x y z
#
# Youngs Moduli (GPa) = 75.24874 91.08658 86.15159
#
# Poissons Ratio (x) = 0.45709 0.07192
# Poissons Ratio (y) = 0.37761 0.28730
# Poissons Ratio (z) = 0.06281 0.30375
#
# Static dielectric constant tensor:
#      x y z
#    x 4.393930 -0.008460 0.076220 
#    y -0.008460 3.981450 -0.310620 
#    z 0.076220 -0.310620 4.491180 
# 
# 
# High freq. dielectric constant tensor:
#      x y z
#    x 1.886560 0.009830 -0.011040 
#    y 0.009830 1.877290 -0.013620 
#    z -0.011040 -0.013620 1.875200 
# 
# From -- ./inp_files/370458.got.cif
#   From: 2010.06.25/outbox.cif.g09.slc.cpg/sg2_186_cif.got.tgz:370458.got - 2010.06.27 13:26:56.
