data_PCOD8026509
_publ_section_title
;
Structure prediction by ZEFSAII (Michael W. Deem and Ramdas Pophale) SiO2 
 PCOD8026509
Probable space group: P -1
;
_chemical_formula_sum "Si O2"
_cell_formula_units_Z 16
_cell_length_a 10.495223
_cell_length_b 8.584494
_cell_length_c 17.678229
_cell_angle_alpha 75.173238
_cell_angle_beta 138.290637
_cell_angle_gamma 72.964746
_cell_volume 674.716205
_symmetry_space_group_name_H-M "P -1"
_symmetry_group_IT_number 2
_symmetry_cell_setting 'triclinic'
loop_
_space_group_symop_operation_xyz
x,y,z
-x,-y,-z
loop_
_atom_site_type_symbol
_atom_site_label
_atom_site_fract_x
_atom_site_fract_y
_atom_site_fract_z
Si Si1 0.307683 0.447999 0.478865
Si Si2 0.849248 0.289258 0.169120
Si Si3 0.470595 0.095375 0.707646
Si Si4 0.377447 0.756596 0.510094
Si Si5 0.412538 0.917664 0.082096
Si Si6 0.793774 0.666963 0.143184
Si Si7 0.315964 0.360653 0.187543
Si Si8 0.902064 0.202011 0.030169
O O1 0.271711 0.316075 0.533231
O O2 0.379145 0.561781 0.544582
O O3 0.532733 0.264736 0.534108
O O4 0.994562 0.668581 0.275254
O O5 0.953001 0.403378 0.222584
O O6 0.937693 0.215552 0.131694
O O7 0.500000 0.500000 0.000000
O O8 0.049903 0.039388 0.339071
O O9 0.369045 0.204621 0.734410
O O10 0.451014 0.914979 0.707894
O O11 0.798958 0.952786 0.860680
O O12 0.611797 0.677277 0.684982
O O13 0.539271 0.779816 0.075068
O O14 0.169560 0.940931 0.994557
O O15 0.301228 0.172752 0.992731
O O16 0.351620 0.519199 0.150607
O O17 0.000000 0.500000 0.000000
#
# Coordination Sequence:
#
# PCOD8026509 Si02
#       8
#     2   2   2   2   2   2   2   2
#     4  11  25  42  72 104 140 188 232 302 354 417
#     4  12  24  45  71 103 147 186 236 288 358 428
#     4  11  23  41  68 102 138 183 231 298 351 419
#     4  11  25  45  70 107 146 180 246 291 355 429
#     4  11  24  43  65 100 142 184 243 281 349 428
#     4  11  26  41  69 100 140 193 233 289 350 430
#     4  10  24  42  67 108 142 184 229 298 360 415
#     4  11  22  42  69 104 137 184 239 292 356 413
#
# _framework density 23.713674000000001
#
# number of rings (size 3 to 8) (size 9 to 14) (size 15 to 20)
#    0.000    1.000    2.500    3.375   10.500    1.500 
#    0.000    0.625    0.000    0.000    0.000    0.000 
#    0.000    0.000    0.000    0.000    0.000    0.000 
#
# Total GULP energy -198212.428822 kJ/mol
# GULP energy per Si atom -12388.276801 kJ/mol
# Density = 2.365970 g / cm^3
# Si number density = 23.713674 Si / 1000 Ang^3
#
#
#
# Elastic Constant Matrix: (Units=GPa)
#
#
# Indices 1 2 3 4 5 6 
#
# 1 63.6490 22.2599 22.9858 -4.1348 -18.6300 13.8648
# 2 22.2599 121.2358 37.8711 10.0582 -19.0581 3.9866
# 3 22.9858 37.8711 112.4812 2.5860 -15.6128 -5.7158
# 4 -4.1348 10.0582 2.5860 38.4803 -0.0392 -7.8114
# 5 -18.6300 -19.0581 -15.6128 -0.0392 40.0636 3.1564
# 6 13.8648 3.9866 -5.7158 -7.8114 3.1564 21.8125
#
#
#
# Elastic Compliance Matrix: (Units=1/GPa)
#
#
# Indices 1 2 3 4 5 6 
#
# 1 0.024674 -0.000867 -0.004160 -0.000565 0.010888 -0.018393
# 2 -0.000867 0.010293 -0.002897 -0.003361 0.003662 -0.003822
# 3 -0.004160 -0.002897 0.011088 0.000846 0.000512 0.006308
# 4 -0.000565 -0.003361 0.000846 0.029182 -0.002449 0.012000
# 5 0.010888 0.003662 0.000512 -0.002449 0.032995 -0.013107
# 6 -0.018393 -0.003822 0.006308 0.012000 -0.013107 0.066083
#
#
# Mechanical properties :
#
#
# Convention : Reuss Voigt Hill
#
# Bulk Modulus (GPa) = 33.10682 51.51105 42.30893
# Shear Modulus (GPa) = 24.97098 34.35453 29.66276
#
# Velocity S-wave (km/s) = 3.24855 3.81034 3.54060
# Velocity P-wave (km/s) = 5.29737 6.41307 5.88173
#
# Compressibility (1/GPa) = 0.03020526
#
# Stress axis : x y z
#
# Youngs Moduli (GPa) = 40.52864 97.15582 90.18647
#
# Poissons Ratio (x) = 0.08427 0.37522
# Poissons Ratio (y) = 0.03515 0.26126
# Poissons Ratio (z) = 0.16862 0.28145
#
# Static dielectric constant tensor:
#      x y z
#    x 4.305450 0.168440 -0.328050 
#    y 0.168440 4.589900 -0.097230 
#    z -0.328050 -0.097230 4.231500 
# 
# 
# High freq. dielectric constant tensor:
#      x y z
#    x 1.918520 0.008010 -0.027700 
#    y 0.008010 1.957260 0.003370 
#    z -0.027700 0.003370 1.932680 
# 
# From -- ./inp_files/565951.got.cif
#   From: 2010.06.25/outbox.cif.g09.slc.cpg/sg2_283_cif.got.tgz:565951.got - 2010.06.27 13:26:56.
