data_PCOD8026941
_publ_section_title
;
Structure prediction by ZEFSAII (Michael W. Deem and Ramdas Pophale) SiO2 
 PCOD8026941
Probable space group: P -1
;
_chemical_formula_sum "Si O2"
_cell_formula_units_Z 16
_cell_length_a 10.412954
_cell_length_b 11.570422
_cell_length_c 11.634325
_cell_angle_alpha 33.950977
_cell_angle_beta 67.658721
_cell_angle_gamma 64.771651
_cell_volume 707.193016
_symmetry_space_group_name_H-M "P -1"
_symmetry_group_IT_number 2
_symmetry_cell_setting 'triclinic'
loop_
_space_group_symop_operation_xyz
x,y,z
-x,-y,-z
loop_
_atom_site_type_symbol
_atom_site_label
_atom_site_fract_x
_atom_site_fract_y
_atom_site_fract_z
Si Si1 0.535170 0.787132 0.946343
Si Si2 0.712140 0.332551 0.233597
Si Si3 0.252810 0.909993 0.351508
Si Si4 0.030236 0.226382 0.837023
Si Si5 0.295894 0.976224 0.694016
Si Si6 0.027595 0.833706 0.851534
Si Si7 0.777988 0.598930 0.539835
Si Si8 0.590885 0.346456 0.685758
O O1 0.644434 0.938922 0.769294
O O2 0.391423 0.869489 0.855921
O O3 0.608169 0.556307 0.064834
O O4 0.498722 0.782052 0.098587
O O5 0.649316 0.148028 0.340827
O O6 0.729568 0.279320 0.406211
O O7 0.867283 0.341173 0.118489
O O8 0.287889 0.816994 0.288620
O O9 0.088324 0.030206 0.306656
O O10 0.055330 0.251642 0.945059
O O11 0.898660 0.414989 0.698574
O O12 0.169318 0.268742 0.690776
O O13 0.000000 0.000000 0.000000
O O14 0.291291 0.228343 0.481821
O O15 0.129141 0.966678 0.774040
O O16 0.651132 0.496910 0.626963
O O17 0.500000 0.500000 0.500000
#
# Coordination Sequence:
#
# PCOD8026941 Si02
#       8
#     2   2   2   2   2   2   2   2
#     4  12  26  48  72 102 142 191 241 291 354 417
#     4  10  25  49  70 102 145 184 242 290 351 426
#     4  12  26  46  73 103 143 187 234 294 358 430
#     4  11  21  42  67 106 138 181 229 288 353 417
#     4  10  24  46  72 104 138 184 235 295 348 419
#     4  10  24  43  72 102 144 175 235 296 345 425
#     4  11  25  41  73 102 142 183 230 295 358 408
#     4  12  26  45  69 103 142 183 238 290 356 428
#
# _framework density 22.624659000000001
#
# number of rings (size 3 to 8) (size 9 to 14) (size 15 to 20)
#    0.750    0.250    2.500    3.375    5.250    2.000 
#    0.000    0.000    0.000    0.000    0.000    0.000 
#    0.000    0.000    0.000    0.000    0.000    0.000 
#
# Total GULP energy -198326.842266 kJ/mol
# GULP energy per Si atom -12395.427642 kJ/mol
# Density = 2.257316 g / cm^3
# Si number density = 22.624659 Si / 1000 Ang^3
#
#
#
# Elastic Constant Matrix: (Units=GPa)
#
#
# Indices 1 2 3 4 5 6 
#
# 1 97.1399 -3.2908 17.8027 -3.8766 14.2571 -4.4353
# 2 -3.2908 107.9409 22.7894 -10.7970 -5.2789 -5.9126
# 3 17.8027 22.7894 89.0207 -4.8980 9.0212 -5.6581
# 4 -3.8766 -10.7970 -4.8980 40.8916 0.8111 3.8218
# 5 14.2571 -5.2789 9.0212 0.8111 33.3518 -5.5593
# 6 -4.4353 -5.9126 -5.6581 3.8218 -5.5593 26.6163
#
#
#
# Elastic Compliance Matrix: (Units=1/GPa)
#
#
# Indices 1 2 3 4 5 6 
#
# 1 0.011350 0.000690 -0.001929 0.001051 -0.004143 0.000618
# 2 0.000690 0.010318 -0.002770 0.002225 0.002365 0.001993
# 3 -0.001929 -0.002770 0.012721 0.000566 -0.002888 0.001083
# 4 0.001051 0.002225 0.000566 0.025534 -0.001400 -0.003169
# 5 -0.004143 0.002365 -0.002888 -0.001400 0.034033 0.006530
# 6 0.000618 0.001993 0.001083 -0.003169 0.006530 0.040166
#
#
# Mechanical properties :
#
#
# Convention : Reuss Voigt Hill
#
# Bulk Modulus (GPa) = 37.92316 40.96711 39.44514
# Shear Modulus (GPa) = 33.12823 37.29197 35.21010
#
# Velocity S-wave (km/s) = 3.83071 4.06432 3.94924
# Velocity P-wave (km/s) = 6.03026 6.33810 6.18609
#
# Compressibility (1/GPa) = 0.02636911
#
# Stress axis : x y z
#
# Youngs Moduli (GPa) = 88.10836 96.92241 78.61107
#
# Poissons Ratio (x) = -0.06685 0.15167
# Poissons Ratio (y) = -0.06077 0.21774
# Poissons Ratio (z) = 0.16999 0.26846
#
# Static dielectric constant tensor:
#      x y z
#    x 3.772490 -0.122740 -0.040180 
#    y -0.122740 4.269710 -0.046440 
#    z -0.040180 -0.046440 4.011190 
# 
# 
# High freq. dielectric constant tensor:
#      x y z
#    x 1.885320 -0.008130 0.012580 
#    y -0.008130 1.904670 -0.003500 
#    z 0.012580 -0.003500 1.888070 
# 
# From -- ./inp_files/427222.got.cif
#   From: 2010.06.25/outbox.cif.g09.slc.cpg/sg2_214_cif.got.tgz:427222.got - 2010.06.27 13:26:56.
