data_PCOD8026769
_publ_section_title
;
Structure prediction by ZEFSAII (Michael W. Deem and Ramdas Pophale) SiO2 
 PCOD8026769
Probable space group: P -1
;
_chemical_formula_sum "Si O2"
_cell_formula_units_Z 14
_cell_length_a 4.993636
_cell_length_b 9.402932
_cell_length_c 12.633438
_cell_angle_alpha 90.508545
_cell_angle_beta 84.253941
_cell_angle_gamma 99.164201
_cell_volume 582.671529
_symmetry_space_group_name_H-M "P -1"
_symmetry_group_IT_number 2
_symmetry_cell_setting 'triclinic'
loop_
_space_group_symop_operation_xyz
x,y,z
-x,-y,-z
loop_
_atom_site_type_symbol
_atom_site_label
_atom_site_fract_x
_atom_site_fract_y
_atom_site_fract_z
Si Si1 0.503258 0.612290 0.246608
Si Si2 0.029463 0.599297 0.102866
Si Si3 0.620480 0.664654 0.634773
Si Si4 0.093801 0.857502 0.957503
Si Si5 0.444722 0.919778 0.334349
Si Si6 0.361933 0.142871 0.178630
Si Si7 0.785625 0.173260 0.443111
O O1 0.301606 0.584207 0.155100
O O2 0.397080 0.507194 0.349654
O O3 0.546771 0.776329 0.286782
O O4 0.784919 0.567225 0.195908
O O5 0.035243 0.758522 0.060979
O O6 0.000000 0.500000 0.000000
O O7 0.521170 0.724921 0.749600
O O8 0.417311 0.707729 0.553895
O O9 0.917855 0.746569 0.595744
O O10 0.412221 0.874016 0.918300
O O11 0.908202 0.810008 0.861887
O O12 0.000000 0.000000 0.000000
O O13 0.222215 0.883134 0.436209
O O14 0.296790 0.992998 0.245851
O O15 0.698430 0.036458 0.367622
#
# Coordination Sequence:
#
# PCOD8026769 Si02
#       7
#     2   2   2   2   2   2   2
#     4  12  25  42  68  97 129 168 218 268 314 380
#     4  12  25  43  64  93 131 171 212 264 324 379
#     4  11  23  42  65  93 126 171 213 257 320 381
#     4  12  23  38  60  88 121 160 208 260 313 370
#     4  10  24  43  67  98 130 167 216 265 319 379
#     4  11  22  39  61  86 123 164 206 255 313 379
#     4  10  24  43  67  94 132 172 208 261 324 386
#
# _framework density 24.027258
#
# number of rings (size 3 to 8) (size 9 to 14) (size 15 to 20)
#    0.000    0.857    0.000    7.714    0.000   10.857 
#    0.000    0.000    0.000    0.000    0.000    0.000 
#    0.000    0.000    0.000    0.000    0.000    0.000 
#
# Total GULP energy -173610.436978 kJ/mol
# GULP energy per Si atom -12400.745498 kJ/mol
# Density = 2.397257 g / cm^3
# Si number density = 24.027258 Si / 1000 Ang^3
#
#
#
# Elastic Constant Matrix: (Units=GPa)
#
#
# Indices 1 2 3 4 5 6 
#
# 1 108.3101 23.5631 36.4898 -13.5471 -6.5366 -1.3336
# 2 23.5631 112.7004 21.9472 -22.3939 -6.1638 -1.1002
# 3 36.4898 21.9472 66.8568 -17.1607 -14.3000 17.9452
# 4 -13.5471 -22.3939 -17.1607 51.2938 -1.6126 -6.0264
# 5 -6.5366 -6.1638 -14.3000 -1.6126 35.0826 -5.2246
# 6 -1.3336 -1.1002 17.9452 -6.0264 -5.2246 18.5265
#
#
#
# Elastic Compliance Matrix: (Units=1/GPa)
#
#
# Indices 1 2 3 4 5 6 
#
# 1 0.012724 -0.000517 -0.009162 0.001273 0.000124 0.010209
# 2 -0.000517 0.010567 -0.003328 0.004058 0.001414 0.005532
# 3 -0.009162 -0.003328 0.030684 0.003330 0.006238 -0.027736
# 4 0.001273 0.004058 0.003330 0.023554 0.004280 0.005976
# 5 0.000124 0.001414 0.006238 0.004280 0.032188 0.004520
# 6 0.010209 0.005532 -0.027736 0.005976 0.004520 0.085125
#
#
# Mechanical properties :
#
#
# Convention : Reuss Voigt Hill
#
# Bulk Modulus (GPa) = 35.76231 50.20751 42.98491
# Shear Modulus (GPa) = 21.72250 34.70505 28.21377
#
# Velocity S-wave (km/s) = 3.01005 3.80465 3.43044
# Velocity P-wave (km/s) = 5.19585 6.34365 5.79823
#
# Compressibility (1/GPa) = 0.02796240
#
# Stress axis : x y z
#
# Youngs Moduli (GPa) = 78.58981 94.63573 32.59025
#
# Poissons Ratio (x) = 0.04890 0.29859
# Poissons Ratio (y) = 0.04061 0.10845
# Poissons Ratio (z) = 0.72004 0.31491
#
# Static dielectric constant tensor:
#      x y z
#    x 4.585310 -0.169730 0.356750 
#    y -0.169730 4.534640 -0.220790 
#    z 0.356750 -0.220790 4.435920 
# 
# 
# High freq. dielectric constant tensor:
#      x y z
#    x 1.948590 -0.007170 0.001530 
#    y -0.007170 1.960530 -0.014180 
#    z 0.001530 -0.014180 1.963680 
# 
# From -- ./inp_files/360665.got.cif
#   From: 2010.06.25/outbox.cif.g09.slc.cpg/sg2_181_cif.got.tgz:360665.got - 2010.06.27 13:26:56.
