data_PCOD8026808
_publ_section_title
;
Structure prediction by ZEFSAII (Michael W. Deem and Ramdas Pophale) SiO2 
 PCOD8026808
Probable space group: P -1
;
_chemical_formula_sum "Si O2"
_cell_formula_units_Z 16
_cell_length_a 9.315671
_cell_length_b 6.277802
_cell_length_c 14.239949
_cell_angle_alpha 60.299421
_cell_angle_beta 74.105319
_cell_angle_gamma 89.241588
_cell_volume 688.202838
_symmetry_space_group_name_H-M "P -1"
_symmetry_group_IT_number 2
_symmetry_cell_setting 'triclinic'
loop_
_space_group_symop_operation_xyz
x,y,z
-x,-y,-z
loop_
_atom_site_type_symbol
_atom_site_label
_atom_site_fract_x
_atom_site_fract_y
_atom_site_fract_z
Si Si1 0.950448 0.680830 0.646975
Si Si2 0.456383 0.664417 0.886122
Si Si3 0.760408 0.956328 0.759702
Si Si4 0.046419 0.841253 0.159574
Si Si5 0.487376 0.292320 0.340270
Si Si6 0.723894 0.195271 0.463727
Si Si7 0.750959 0.472935 0.571967
Si Si8 0.882993 0.262266 0.039630
O O1 0.108026 0.869724 0.574953
O O2 0.832701 0.751121 0.730683
O O3 0.999794 0.413873 0.720845
O O4 0.873898 0.675163 0.557795
O O5 0.580020 0.908194 0.815574
O O6 0.478499 0.569899 0.795927
O O7 0.286365 0.708624 0.912079
O O8 0.500000 0.500000 0.000000
O O9 0.825973 0.972285 0.849672
O O10 0.803322 0.215537 0.645808
O O11 0.110036 0.768469 0.065445
O O12 0.910037 0.002839 0.138758
O O13 0.642040 0.235088 0.371786
O O14 0.415250 0.485480 0.375392
O O15 0.370869 0.032135 0.410808
O O16 0.745504 0.453931 0.463765
O O17 0.000000 0.500000 0.000000
#
# Coordination Sequence:
#
# PCOD8026808 Si02
#       8
#     2   2   2   2   2   2   2   2
#     4  11  23  42  72 100 143 182 228 286 349 410
#     4  12  25  46  74  98 141 186 224 291 352 407
#     4  11  24  45  68 104 142 178 232 288 341 423
#     4  10  24  43  68 105 135 181 236 282 345 424
#     4  11  26  46  67 104 140 185 232 286 356 409
#     4  11  25  45  70 100 143 187 231 291 342 418
#     4  11  22  45  69 102 141 176 241 279 346 422
#     4  11  25  46  70 101 141 179 234 291 350 411
#
# _framework density 23.248961000000001
#
# number of rings (size 3 to 8) (size 9 to 14) (size 15 to 20)
#    0.000    1.000    2.500    3.000    5.250    5.500 
#    4.500    0.000    0.000    0.000    0.000    0.000 
#    0.000    0.000    0.000    0.000    0.000    0.000 
#
# Total GULP energy -198225.700421 kJ/mol
# GULP energy per Si atom -12389.106276 kJ/mol
# Density = 2.319605 g / cm^3
# Si number density = 23.248961 Si / 1000 Ang^3
#
#
#
# Elastic Constant Matrix: (Units=GPa)
#
#
# Indices 1 2 3 4 5 6 
#
# 1 170.9525 48.6506 44.0883 15.6295 -25.7243 10.9828
# 2 48.6506 109.0366 38.8776 17.5371 -0.5415 4.0987
# 3 44.0883 38.8776 96.5117 12.9538 -0.8382 7.4632
# 4 15.6295 17.5371 12.9538 31.5571 1.3723 10.3572
# 5 -25.7243 -0.5415 -0.8382 1.3723 32.1772 7.1153
# 6 10.9828 4.0987 7.4632 10.3572 7.1153 39.9432
#
#
#
# Elastic Compliance Matrix: (Units=1/GPa)
#
#
# Indices 1 2 3 4 5 6 
#
# 1 0.008635 -0.002643 -0.002442 -0.001261 0.007434 -0.002644
# 2 -0.002643 0.012163 -0.003225 -0.004575 -0.002163 0.001653
# 3 -0.002442 -0.003225 0.013095 -0.002100 -0.001433 -0.000645
# 4 -0.001261 -0.004575 -0.002100 0.038592 -0.000875 -0.008643
# 5 0.007434 -0.002163 -0.001433 -0.000875 0.038807 -0.008240
# 6 -0.002644 0.001653 -0.000645 -0.008643 -0.008240 0.029422
#
#
# Mechanical properties :
#
#
# Convention : Reuss Voigt Hill
#
# Bulk Modulus (GPa) = 57.88907 71.08154 64.48531
# Shear Modulus (GPa) = 30.65735 37.06111 33.85923
#
# Velocity S-wave (km/s) = 3.63527 3.99695 3.82039
# Velocity P-wave (km/s) = 6.52487 7.20703 6.87441
#
# Compressibility (1/GPa) = 0.01727442
#
# Stress axis : x y z
#
# Youngs Moduli (GPa) = 115.80344 82.21385 76.36395
#
# Poissons Ratio (x) = 0.21731 0.18646
# Poissons Ratio (y) = 0.30609 0.24626
# Poissons Ratio (z) = 0.28276 0.26513
#
# Static dielectric constant tensor:
#      x y z
#    x 4.490320 0.208220 0.300630 
#    y 0.208220 4.423520 0.156010 
#    z 0.300630 0.156010 4.267440 
# 
# 
# High freq. dielectric constant tensor:
#      x y z
#    x 1.936100 0.003880 0.018060 
#    y 0.003880 1.918950 0.011920 
#    z 0.018060 0.011920 1.913910 
# 
# From -- ./inp_files/488150.got.cif
#   From: 2010.06.25/outbox.cif.g09.slc.cpg/sg2_245_cif.got.tgz:488150.got - 2010.06.27 13:26:56.
