data_PCOD8026339
_publ_section_title
;
Structure prediction by ZEFSAII (Michael W. Deem and Ramdas Pophale) SiO2 
 PCOD8026339
Probable space group: P -1
;
_chemical_formula_sum "Si O2"
_cell_formula_units_Z 16
_cell_length_a 11.699218
_cell_length_b 15.758458
_cell_length_c 9.216018
_cell_angle_alpha 78.223631
_cell_angle_beta 136.332313
_cell_angle_gamma 135.519563
_cell_volume 628.202664
_symmetry_space_group_name_H-M "P -1"
_symmetry_group_IT_number 2
_symmetry_cell_setting 'triclinic'
loop_
_space_group_symop_operation_xyz
x,y,z
-x,-y,-z
loop_
_atom_site_type_symbol
_atom_site_label
_atom_site_fract_x
_atom_site_fract_y
_atom_site_fract_z
Si Si1 0.173962 0.252029 0.941040
Si Si2 0.540180 0.557282 0.315476
Si Si3 0.920055 0.164800 0.445163
Si Si4 0.636668 0.975649 0.714414
Si Si5 0.866534 0.369532 0.729620
Si Si6 0.687438 0.389621 0.177436
Si Si7 0.824580 0.535637 0.745494
Si Si8 0.539512 0.897241 0.975267
O O1 0.913617 0.157426 0.615469
O O2 0.257313 0.376079 0.061493
O O3 0.480446 0.347431 0.120918
O O4 0.979107 0.106820 0.923928
O O5 0.809862 0.614089 0.606901
O O6 0.457498 0.586413 0.358824
O O7 0.717555 0.684509 0.305931
O O8 0.778450 0.194192 0.254940
O O9 0.759646 0.014223 0.271329
O O10 0.414598 0.796577 0.550594
O O11 0.672806 0.997011 0.914300
O O12 0.500000 0.000000 0.500000
O O13 0.803043 0.444132 0.652015
O O14 0.190552 0.499739 0.890151
O O15 0.886469 0.341274 0.922753
O O16 0.504037 0.224631 0.017097
O O17 0.000000 0.500000 0.500000
#
# Coordination Sequence:
#
# PCOD8026339 Si02
#       8
#     2   2   2   2   2   2   2   2
#     4  12  27  44  74 108 147 193 243 303 366 434
#     4  11  24  42  70 103 146 186 249 292 361 435
#     4  11  25  45  71 105 143 197 244 299 360 436
#     4  12  26  45  74 110 149 190 244 301 370 435
#     4  11  24  45  74 100 145 193 238 298 367 431
#     4  12  25  49  73 107 144 195 247 298 361 439
#     4  10  24  41  67 107 137 188 238 306 354 427
#     4  11  26  45  73 104 150 193 242 299 363 433
#
# _framework density 25.469487000000001
#
# number of rings (size 3 to 8) (size 9 to 14) (size 15 to 20)
#    0.000    0.750    2.500    4.125    5.250    4.000 
#    0.000    0.000    0.000    0.000    0.000    0.000 
#    0.000    0.000    0.000    0.000    0.000    0.000 
#
# Total GULP energy -198303.347107 kJ/mol
# GULP energy per Si atom -12393.959194 kJ/mol
# Density = 2.541152 g / cm^3
# Si number density = 25.469487 Si / 1000 Ang^3
#
#
#
# Elastic Constant Matrix: (Units=GPa)
#
#
# Indices 1 2 3 4 5 6 
#
# 1 126.7951 34.3171 22.4857 29.2093 7.9522 16.8222
# 2 34.3171 86.9326 14.8859 24.9230 0.6196 27.5991
# 3 22.4857 14.8859 91.4710 13.9694 -15.1505 16.1008
# 4 29.2093 24.9230 13.9694 39.1338 12.8414 8.1819
# 5 7.9522 0.6196 -15.1505 12.8414 39.9479 -0.2186
# 6 16.8222 27.5991 16.1008 8.1819 -0.2186 42.5684
#
#
#
# Elastic Compliance Matrix: (Units=1/GPa)
#
#
# Indices 1 2 3 4 5 6 
#
# 1 0.010056 -0.001782 -0.001241 -0.005422 -0.000709 -0.001311
# 2 -0.001782 0.017700 0.001276 -0.009618 0.003604 -0.009387
# 3 -0.001241 0.001276 0.014051 -0.006489 0.007618 -0.004365
# 4 -0.005422 -0.009618 -0.006489 0.042364 -0.014836 0.002614
# 5 -0.000709 0.003604 0.007618 -0.014836 0.032766 -0.001918
# 6 -0.001311 -0.009387 -0.004365 0.002614 -0.001918 0.031234
#
#
# Mechanical properties :
#
#
# Convention : Reuss Voigt Hill
#
# Bulk Modulus (GPa) = 26.10031 49.84179 37.97105
# Shear Modulus (GPa) = 30.40690 39.89736 35.15213
#
# Velocity S-wave (km/s) = 3.45897 3.96217 3.71909
# Velocity P-wave (km/s) = 5.12080 6.36737 5.77780
#
# Compressibility (1/GPa) = 0.03831372
#
# Stress axis : x y z
#
# Youngs Moduli (GPa) = 99.43936 56.49726 71.16910
#
# Poissons Ratio (x) = 0.10066 0.08831
# Poissons Ratio (y) = 0.17717 -0.09079
# Poissons Ratio (z) = 0.12339 -0.07207
#
# Static dielectric constant tensor:
#      x y z
#    x 4.803860 0.333390 0.014860 
#    y 0.333390 4.776760 -0.287490 
#    z 0.014860 -0.287490 4.667310 
# 
# 
# High freq. dielectric constant tensor:
#      x y z
#    x 2.034700 0.019290 -0.000130 
#    y 0.019290 2.007430 -0.014380 
#    z -0.000130 -0.014380 2.028140 
# 
# From -- ./inp_files/279441.got.cif
#   From: 2010.06.25/outbox.cif.g09.slc.cpg/sg2_140_cif.got.tgz:279441.got - 2010.06.27 13:26:56.
