data_PCOD8026398
_publ_section_title
;
Structure prediction by ZEFSAII (Michael W. Deem and Ramdas Pophale) SiO2 
 PCOD8026398
Probable space group: P -1
;
_chemical_formula_sum "Si O2"
_cell_formula_units_Z 14
_cell_length_a 9.402029
_cell_length_b 6.595960
_cell_length_c 16.257131
_cell_angle_alpha 123.680537
_cell_angle_beta 123.687967
_cell_angle_gamma 47.575191
_cell_volume 591.933088
_symmetry_space_group_name_H-M "P -1"
_symmetry_group_IT_number 2
_symmetry_cell_setting 'triclinic'
loop_
_space_group_symop_operation_xyz
x,y,z
-x,-y,-z
loop_
_atom_site_type_symbol
_atom_site_label
_atom_site_fract_x
_atom_site_fract_y
_atom_site_fract_z
Si Si1 0.901569 0.888030 0.852697
Si Si2 0.519547 0.735557 0.879859
Si Si3 0.175825 0.234991 0.775466
Si Si4 0.201938 0.315242 0.620335
Si Si5 0.755690 0.013555 0.010364
Si Si6 0.933657 0.935038 0.607745
Si Si7 0.385821 0.819950 0.311365
O O1 0.046114 0.551555 0.845596
O O2 0.761418 0.920217 0.738542
O O3 0.756843 0.062196 0.923186
O O4 0.031784 0.031198 0.900661
O O5 0.570366 0.472488 0.780868
O O6 0.350628 0.032140 0.848491
O O7 0.428006 0.721827 0.936551
O O8 0.721948 0.748769 0.957137
O O9 0.267048 0.250872 0.721469
O O10 0.036241 0.116755 0.678219
O O11 0.091513 0.159774 0.513031
O O12 0.408087 0.194074 0.608527
O O13 0.062039 0.656581 0.643101
O O14 0.714666 0.138736 0.623270
#
# Coordination Sequence:
#
# PCOD8026398 Si02
#       7
#     2   2   2   2   2   2   2
#     4  11  24  40  67  92 136 172 223 266 332 381
#     4  11  24  40  67  92 136 172 223 266 332 381
#     4  12  23  45  68 100 132 180 214 277 325 400
#     4  11  24  44  69 100 136 171 218 275 329 392
#     4  10  24  42  60 100 130 176 216 280 316 390
#     4  11  24  44  69 100 136 171 218 275 329 392
#     4  12  23  45  68 100 132 180 214 277 325 400
#
# _framework density 23.651323999999999
#
# number of rings (size 3 to 8) (size 9 to 14) (size 15 to 20)
#    0.000    0.857    2.857    4.286    0.000    6.857 
#    0.000    1.429    0.000    0.000    0.000    0.000 
#    0.000    0.000    0.000    0.000    0.000    0.000 
#
# Total GULP energy -173532.510699 kJ/mol
# GULP energy per Si atom -12395.179336 kJ/mol
# Density = 2.359749 g / cm^3
# Si number density = 23.651324 Si / 1000 Ang^3
#
#
#
# Elastic Constant Matrix: (Units=GPa)
#
#
# Indices 1 2 3 4 5 6 
#
# 1 130.0618 8.2906 24.8346 12.4112 5.2290 -6.6656
# 2 8.2906 84.9540 19.0003 16.8432 -1.7696 -8.3060
# 3 24.8346 19.0003 72.4569 7.0126 5.1332 3.4891
# 4 12.4112 16.8432 7.0126 16.5886 2.8782 1.5697
# 5 5.2290 -1.7696 5.1332 2.8782 49.3848 5.1404
# 6 -6.6656 -8.3060 3.4891 1.5697 5.1404 20.4492
#
#
#
# Elastic Compliance Matrix: (Units=1/GPa)
#
#
# Indices 1 2 3 4 5 6 
#
# 1 0.009183 0.001806 -0.003064 -0.007769 -0.000658 0.005011
# 2 0.001806 0.016939 -0.003832 -0.017963 0.000895 0.009276
# 3 -0.003064 -0.003832 0.016169 -0.000005 -0.000965 -0.005071
# 4 -0.007769 -0.017963 -0.000005 0.086375 -0.003226 -0.015647
# 5 -0.000658 0.000895 -0.000965 -0.003226 0.021134 -0.004751
# 6 0.005011 0.009276 -0.005071 -0.015647 -0.004751 0.057564
#
#
# Mechanical properties :
#
#
# Convention : Reuss Voigt Hill
#
# Bulk Modulus (GPa) = 31.14261 43.52483 37.33372
# Shear Modulus (GPa) = 21.90587 32.97434 27.44010
#
# Velocity S-wave (km/s) = 3.04666 3.73793 3.40986
# Velocity P-wave (km/s) = 5.05689 6.08869 5.59662
#
# Compressibility (1/GPa) = 0.03211035
#
# Stress axis : x y z
#
# Youngs Moduli (GPa) = 108.89453 59.03540 61.84509
#
# Poissons Ratio (x) = -0.10659 0.18948
# Poissons Ratio (y) = -0.19661 0.23701
# Poissons Ratio (z) = 0.33363 0.22625
#
# Static dielectric constant tensor:
#      x y z
#    x 4.492370 -0.145900 0.064030 
#    y -0.145900 3.967070 0.078620 
#    z 0.064030 0.078620 4.243270 
# 
# 
# High freq. dielectric constant tensor:
#      x y z
#    x 1.950150 -0.007940 0.000170 
#    y -0.007940 1.907740 0.012220 
#    z 0.000170 0.012220 1.952650 
# 
# From -- ./inp_files/137420.got.cif
#   From: 2010.06.25/outbox.cif.g09.slc.cpg/sg2_69_cif.got.tgz:137420.got - 2010.06.27 13:26:56.
