data_PCOD8026319
_publ_section_title
;
Structure prediction by ZEFSAII (Michael W. Deem and Ramdas Pophale) SiO2 
 PCOD8026319
Probable space group: P -1
;
_chemical_formula_sum "Si O2"
_cell_formula_units_Z 16
_cell_length_a 20.208711
_cell_length_b 23.392287
_cell_length_c 9.032610
_cell_angle_alpha 29.877818
_cell_angle_beta 37.152858
_cell_angle_gamma 19.146780
_cell_volume 691.254427
_symmetry_space_group_name_H-M "P -1"
_symmetry_group_IT_number 2
_symmetry_cell_setting 'triclinic'
loop_
_space_group_symop_operation_xyz
x,y,z
-x,-y,-z
loop_
_atom_site_type_symbol
_atom_site_label
_atom_site_fract_x
_atom_site_fract_y
_atom_site_fract_z
Si Si1 0.100884 0.085311 0.677350
Si Si2 0.678684 0.149481 0.900505
Si Si3 0.351933 0.165289 0.764383
Si Si4 0.288967 0.687995 0.751031
Si Si5 0.696279 0.544416 0.931184
Si Si6 0.738873 0.257160 0.997123
Si Si7 0.952698 0.417677 0.015389
Si Si8 0.477941 0.122574 0.155690
O O1 0.890021 0.205354 0.752501
O O2 0.085288 0.225120 0.324269
O O3 0.151949 0.047662 0.845220
O O4 0.269229 0.864720 0.780340
O O5 0.771787 0.171746 0.587948
O O6 0.484162 0.360283 0.871404
O O7 0.611311 0.111752 0.992332
O O8 0.390756 0.259942 0.422546
O O9 0.418143 0.008107 0.886171
O O10 0.112468 0.371416 0.773801
O O11 0.500000 0.000000 0.000000
O O12 0.521393 0.503822 0.798746
O O13 0.231957 0.608679 0.979041
O O14 0.179020 0.813592 0.820256
O O15 0.877291 0.413175 0.016867
O O16 0.764463 0.635146 0.957654
O O17 0.500000 0.000000 0.500000
#
# Coordination Sequence:
#
# PCOD8026319 Si02
#       8
#     2   2   2   2   2   2   2   2
#     4  11  24  44  65 101 143 182 227 288 354 416
#     4  11  23  42  72 100 141 184 228 287 351 413
#     4  12  27  47  74 106 142 185 235 296 353 419
#     4  11  24  42  71 101 135 188 233 284 344 420
#     4  11  23  44  68 103 140 183 231 285 352 412
#     4  10  24  41  65  99 143 176 235 279 348 414
#     4  11  26  45  75 101 142 188 234 293 355 415
#     4  11  25  48  74 103 140 184 240 287 353 419
#
# _framework density 23.146326999999999
#
# number of rings (size 3 to 8) (size 9 to 14) (size 15 to 20)
#    0.000    1.000    3.750    3.000    5.250    4.000 
#    0.000    0.000    0.000    0.000    0.000    0.000 
#    0.000    0.000    0.000    0.000    0.000    0.000 
#
# Total GULP energy -198353.130115 kJ/mol
# GULP energy per Si atom -12397.070632 kJ/mol
# Density = 2.309364 g / cm^3
# Si number density = 23.146327 Si / 1000 Ang^3
#
#
#
# Elastic Constant Matrix: (Units=GPa)
#
#
# Indices 1 2 3 4 5 6 
#
# 1 107.4453 16.4280 47.9939 -3.7576 4.1016 18.2023
# 2 16.4280 53.3172 10.6155 4.4629 -7.3449 4.2556
# 3 47.9939 10.6155 117.2181 -0.3109 14.2133 16.5235
# 4 -3.7576 4.4629 -0.3109 28.5945 -2.2367 -0.3000
# 5 4.1016 -7.3449 14.2133 -2.2367 44.1651 -5.5576
# 6 18.2023 4.2556 16.5235 -0.3000 -5.5576 37.2479
#
#
#
# Elastic Compliance Matrix: (Units=1/GPa)
#
#
# Indices 1 2 3 4 5 6 
#
# 1 0.012376 -0.002929 -0.004154 0.001942 -0.000700 -0.003959
# 2 -0.002929 0.020703 -0.001185 -0.003319 0.003948 0.000154
# 3 -0.004154 -0.001185 0.011295 -0.000580 -0.003908 -0.003433
# 4 0.001942 -0.003319 -0.000580 0.035841 0.001291 0.000169
# 5 -0.000700 0.003948 -0.003908 0.001291 0.025369 0.005420
# 6 -0.003959 0.000154 -0.003433 0.000169 0.005420 0.031097
#
#
# Mechanical properties :
#
#
# Convention : Reuss Voigt Hill
#
# Bulk Modulus (GPa) = 35.92070 47.56172 41.74121
# Shear Modulus (GPa) = 30.76980 35.53105 33.15042
#
# Velocity S-wave (km/s) = 3.64999 3.92224 3.78856
# Velocity P-wave (km/s) = 5.77200 6.41130 6.10003
#
# Compressibility (1/GPa) = 0.02783910
#
# Stress axis : x y z
#
# Youngs Moduli (GPa) = 80.80369 48.30126 88.53164
#
# Poissons Ratio (x) = 0.14148 0.36774
# Poissons Ratio (y) = 0.23668 0.10490
# Poissons Ratio (z) = 0.33564 0.05723
#
# Static dielectric constant tensor:
#      x y z
#    x 4.028960 0.038650 0.167010 
#    y 0.038650 4.286190 0.080540 
#    z 0.167010 0.080540 4.035630 
# 
# 
# High freq. dielectric constant tensor:
#      x y z
#    x 1.922590 -0.004040 0.009120 
#    y -0.004040 1.916200 0.003630 
#    z 0.009120 0.003630 1.910480 
# 
# From -- ./inp_files/294525.got.cif
#   From: 2010.06.25/outbox.cif.g09.slc.cpg/sg2_148_cif.got.tgz:294525.got - 2010.06.27 13:26:56.
