data_PCOD8026077
_publ_section_title
;
Structure prediction by ZEFSAII (Michael W. Deem and Ramdas Pophale) SiO2 
 PCOD8026077
Probable space group: P -1
;
_chemical_formula_sum "Si O2"
_cell_formula_units_Z 14
_cell_length_a 11.580940
_cell_length_b 11.730764
_cell_length_c 6.593306
_cell_angle_alpha 71.167749
_cell_angle_beta 58.049004
_cell_angle_gamma 49.458847
_cell_volume 577.258489
_symmetry_space_group_name_H-M "P -1"
_symmetry_group_IT_number 2
_symmetry_cell_setting 'triclinic'
loop_
_space_group_symop_operation_xyz
x,y,z
-x,-y,-z
loop_
_atom_site_type_symbol
_atom_site_label
_atom_site_fract_x
_atom_site_fract_y
_atom_site_fract_z
Si Si1 0.180595 0.223678 0.707649
Si Si2 0.826781 0.438350 0.029944
Si Si3 0.178176 0.804385 0.623454
Si Si4 0.532743 0.618329 0.466847
Si Si5 0.369630 0.983250 0.016843
Si Si6 0.060720 0.113926 0.533744
Si Si7 0.615248 0.677720 0.763025
O O1 0.304922 0.081260 0.814574
O O2 0.081943 0.193960 0.651575
O O3 0.290883 0.261903 0.466861
O O4 0.026725 0.367487 0.896186
O O5 0.814642 0.299322 0.145537
O O6 0.713045 0.566761 0.234634
O O7 0.749271 0.523075 0.841884
O O8 0.363964 0.771059 0.445236
O O9 0.114603 0.771389 0.493944
O O10 0.052634 0.979930 0.699678
O O11 0.500000 0.500000 0.500000
O O12 0.531643 0.636060 0.697643
O O13 0.467098 0.808465 0.968497
O O14 0.210641 0.043660 0.271415
O O15 0.500000 0.000000 0.000000
#
# Coordination Sequence:
#
# PCOD8026077 Si02
#       7
#     2   2   2   2   2   2   2
#     4  12  27  46  75 111 143 189 248 295 368 431
#     4  11  26  47  70 110 143 194 237 297 364 428
#     4  10  23  48  71 102 147 194 237 304 352 427
#     4  10  25  47  69 102 150 188 241 290 354 436
#     4  12  26  48  76 109 143 191 239 303 370 427
#     4  11  24  47  75 107 148 186 246 304 356 430
#     4  12  27  45  77 107 146 193 241 301 364 427
#
# _framework density 24.252568
#
# number of rings (size 3 to 8) (size 9 to 14) (size 15 to 20)
#    0.000    0.857    2.857    2.571    8.000    3.429 
#   10.286    0.000    0.000    0.000    0.000    0.000 
#    0.000    0.000    0.000    0.000    0.000    0.000 
#
# Total GULP energy -173503.028521 kJ/mol
# GULP energy per Si atom -12393.073466 kJ/mol
# Density = 2.419737 g / cm^3
# Si number density = 24.252568 Si / 1000 Ang^3
#
#
#
# Elastic Constant Matrix: (Units=GPa)
#
#
# Indices 1 2 3 4 5 6 
#
# 1 80.5144 24.7504 7.7635 -1.1155 24.6849 -12.6745
# 2 24.7504 101.3111 27.7205 -21.1500 9.4302 -20.3597
# 3 7.7635 27.7205 77.9359 -3.3784 -2.6891 -6.3676
# 4 -1.1155 -21.1500 -3.3784 51.0473 -5.5557 0.1840
# 5 24.6849 9.4302 -2.6891 -5.5557 39.3831 10.8438
# 6 -12.6745 -20.3597 -6.3676 0.1840 10.8438 39.8237
#
#
#
# Elastic Compliance Matrix: (Units=1/GPa)
#
#
# Indices 1 2 3 4 5 6 
#
# 1 0.018705 -0.001557 -0.001157 -0.001882 -0.014126 0.008827
# 2 -0.001557 0.014313 -0.004262 0.005153 -0.003999 0.007206
# 3 -0.001157 -0.004262 0.014457 -0.000510 0.002946 -0.001035
# 4 -0.001882 0.005153 -0.000510 0.021939 0.002698 0.001118
# 5 -0.014126 -0.003999 0.002946 0.002698 0.040496 -0.017109
# 6 0.008827 0.007206 -0.001035 0.001118 -0.017109 0.036092
#
#
# Mechanical properties :
#
#
# Convention : Reuss Voigt Hill
#
# Bulk Modulus (GPa) = 29.83025 42.24780 36.03902
# Shear Modulus (GPa) = 29.21775 39.35262 34.28518
#
# Velocity S-wave (km/s) = 3.47468 4.03254 3.76396
# Velocity P-wave (km/s) = 5.33146 6.25617 5.81223
#
# Compressibility (1/GPa) = 0.03352302
#
# Stress axis : x y z
#
# Youngs Moduli (GPa) = 53.46217 69.86574 69.17002
#
# Poissons Ratio (x) = 0.10879 0.08005
# Poissons Ratio (y) = 0.08324 0.29478
# Poissons Ratio (z) = 0.06187 0.29775
#
# Static dielectric constant tensor:
#      x y z
#    x 5.148020 -1.159530 -0.180270 
#    y -1.159530 5.745180 0.215500 
#    z -0.180270 0.215500 4.602810 
# 
# 
# High freq. dielectric constant tensor:
#      x y z
#    x 1.966170 -0.022440 -0.004930 
#    y -0.022440 1.975820 -0.004250 
#    z -0.004930 -0.004250 1.961550 
# 
# From -- ./inp_files/69666.got.cif
#   From: 2010.06.25/outbox.cif.g09.slc.cpg/sg2_35_cif.got.tgz:69666.got - 2010.06.27 13:26:56.
