data_PCOD8026762
_publ_section_title
;
Structure prediction by ZEFSAII (Michael W. Deem and Ramdas Pophale) SiO2 
 PCOD8026762
Probable space group: P -1
;
_chemical_formula_sum "Si O2"
_cell_formula_units_Z 16
_cell_length_a 13.709710
_cell_length_b 18.085974
_cell_length_c 8.853523
_cell_angle_alpha 82.903844
_cell_angle_beta 86.220308
_cell_angle_gamma 158.668510
_cell_volume 685.632743
_symmetry_space_group_name_H-M "P -1"
_symmetry_group_IT_number 2
_symmetry_cell_setting 'triclinic'
loop_
_space_group_symop_operation_xyz
x,y,z
-x,-y,-z
loop_
_atom_site_type_symbol
_atom_site_label
_atom_site_fract_x
_atom_site_fract_y
_atom_site_fract_z
Si Si1 0.828854 0.660419 0.955618
Si Si2 0.924674 0.665292 0.458983
Si Si3 0.831132 0.409336 0.895265
Si Si4 0.776951 0.754380 0.719017
Si Si5 0.150095 0.951763 0.135733
Si Si6 0.816225 0.193209 0.298686
Si Si7 0.162179 0.685627 0.357294
Si Si8 0.754056 0.782498 0.387128
O O1 0.804140 0.691367 0.797898
O O2 0.993762 0.702799 0.887632
O O3 0.496371 0.400108 0.126163
O O4 0.032905 0.853892 0.003739
O O5 0.575591 0.436105 0.596874
O O6 0.125226 0.811407 0.554421
O O7 0.926514 0.585008 0.399033
O O8 0.076991 0.831288 0.284064
O O9 0.747623 0.278899 0.827743
O O10 0.063925 0.635652 0.731921
O O11 0.520150 0.228472 0.020314
O O12 0.000000 0.500000 0.000000
O O13 0.693810 0.687986 0.566256
O O14 0.094579 0.029304 0.631608
O O15 0.981026 0.904708 0.218344
O O16 0.454894 0.928134 0.361858
O O17 0.000000 0.500000 0.500000
#
# Coordination Sequence:
#
# PCOD8026762 Si02
#       8
#     2   2   2   2   2   2   2   2
#     4  11  24  43  70 103 149 188 240 301 362 425
#     4  12  27  45  77 105 149 202 240 302 366 438
#     4  12  29  49  79 110 144 194 243 309 370 426
#     4  10  24  43  67 103 146 198 234 300 359 436
#     4  12  26  46  71 111 149 189 244 305 360 436
#     4  12  27  49  74 108 145 195 246 299 371 431
#     4  12  28  51  75 109 148 190 252 299 365 443
#     4  11  25  45  70 107 147 192 248 288 371 440
#
# _framework density 23.336107999999999
#
# number of rings (size 3 to 8) (size 9 to 14) (size 15 to 20)
#    0.000    0.500    3.750    3.000   10.500    3.500 
#    0.000    0.000    0.000    0.000    0.000    0.000 
#    0.000    0.000    0.000    0.000    0.000    0.000 
#
# Total GULP energy -198480.218834 kJ/mol
# GULP energy per Si atom -12405.013677 kJ/mol
# Density = 2.328299 g / cm^3
# Si number density = 23.336108 Si / 1000 Ang^3
#
#
#
# Elastic Constant Matrix: (Units=GPa)
#
#
# Indices 1 2 3 4 5 6 
#
# 1 89.4096 43.5152 26.9965 -6.8947 -27.6956 5.2195
# 2 43.5152 139.6948 41.8708 -5.3281 -1.0845 15.5470
# 3 26.9965 41.8708 84.1270 -5.8786 -17.1741 12.5373
# 4 -6.8947 -5.3281 -5.8786 46.2899 -1.1397 -0.7277
# 5 -27.6956 -1.0845 -17.1741 -1.1397 41.4658 -1.8796
# 6 5.2195 15.5470 12.5373 -0.7277 -1.8796 35.1862
#
#
#
# Elastic Compliance Matrix: (Units=1/GPa)
#
#
# Indices 1 2 3 4 5 6 
#
# 1 0.017573 -0.005163 -0.000669 0.002228 0.011412 0.000569
# 2 -0.005163 0.010230 -0.004092 -0.000275 -0.005000 -0.002569
# 3 -0.000669 -0.004092 0.015972 0.001550 0.005949 -0.003434
# 4 0.002228 -0.000275 0.001550 0.022165 0.002725 -0.000158
# 5 0.011412 -0.005000 0.005949 0.002725 0.034159 0.000278
# 6 0.000569 -0.002569 -0.003434 -0.000158 0.000278 0.030706
#
#
# Mechanical properties :
#
#
# Convention : Reuss Voigt Hill
#
# Bulk Modulus (GPa) = 41.79190 59.77739 50.78465
# Shear Modulus (GPa) = 31.52017 37.97830 34.74923
#
# Velocity S-wave (km/s) = 3.67918 4.03854 3.86304
# Velocity P-wave (km/s) = 5.99967 6.88606 6.45809
#
# Compressibility (1/GPa) = 0.02392808
#
# Stress axis : x y z
#
# Youngs Moduli (GPa) = 56.90527 97.75326 62.60844
#
# Poissons Ratio (x) = 0.50473 0.04186
# Poissons Ratio (y) = 0.29382 0.25617
# Poissons Ratio (z) = 0.03805 0.39996
#
# Static dielectric constant tensor:
#      x y z
#    x 4.305860 0.039040 -0.286310 
#    y 0.039040 4.263370 0.080520 
#    z -0.286310 0.080520 4.458090 
# 
# 
# High freq. dielectric constant tensor:
#      x y z
#    x 1.925570 0.003450 -0.011130 
#    y 0.003450 1.927360 0.001320 
#    z -0.011130 0.001320 1.936420 
# 
# From -- ./inp_files/319350.got.cif
#   From: 2010.06.25/outbox.cif.g09.slc.cpg/sg2_160_cif.got.tgz:319350.got - 2010.06.27 13:26:56.
