data_PCOD8026156
_publ_section_title
;
Structure prediction by ZEFSAII (Michael W. Deem and Ramdas Pophale) SiO2 
 PCOD8026156
Probable space group: P -1
;
_chemical_formula_sum "Si O2"
_cell_formula_units_Z 14
_cell_length_a 29.294637
_cell_length_b 5.145242
_cell_length_c 5.274789
_cell_angle_alpha 59.068414
_cell_angle_beta 111.978592
_cell_angle_gamma 106.638420
_cell_volume 627.995063
_symmetry_space_group_name_H-M "P -1"
_symmetry_group_IT_number 2
_symmetry_cell_setting 'triclinic'
loop_
_space_group_symop_operation_xyz
x,y,z
-x,-y,-z
loop_
_atom_site_type_symbol
_atom_site_label
_atom_site_fract_x
_atom_site_fract_y
_atom_site_fract_z
Si Si1 0.980653 0.324110 0.797947
Si Si2 0.280413 0.166315 0.133255
Si Si3 0.370094 0.232253 0.974866
Si Si4 0.828958 0.804498 0.238939
Si Si5 0.134911 0.838087 0.365925
Si Si6 0.325233 0.626206 0.339541
Si Si7 0.481000 0.323991 0.299029
O O1 0.000000 0.500000 0.500000
O O2 0.921818 0.298977 0.689413
O O3 0.000000 0.500000 0.000000
O O4 0.000000 0.000000 0.000000
O O5 0.325401 0.358770 0.975617
O O6 0.228477 0.145257 0.892328
O O7 0.280497 0.372493 0.281821
O O8 0.296710 0.826511 0.381537
O O9 0.370321 0.442367 0.620508
O O10 0.421630 0.284473 0.202410
O O11 0.353241 0.869439 0.073334
O O12 0.855371 0.962665 0.460295
O O13 0.832593 0.443374 0.429537
O O14 0.853232 0.949775 0.960098
O O15 0.500000 0.500000 0.500000
O O16 0.500000 0.000000 0.500000
O O17 0.500000 0.500000 0.000000
#
# Coordination Sequence:
#
# PCOD8026156 Si02
#       7
#     2   2   2   2   2   2   2
#     4  12  24  44  72  99 135 178 233 278 334 396
#     4  10  26  40  68  93 129 175 218 267 325 396
#     4  10  26  42  70  92 133 165 226 263 329 392
#     4  12  26  43  69  96 144 173 226 270 345 396
#     4  12  26  45  67 103 137 181 220 285 334 396
#     4  10  24  39  67  92 128 162 226 261 326 376
#     4  12  28  47  71 101 135 175 219 278 341 396
#
# _framework density 22.293171000000001
#
# number of rings (size 3 to 8) (size 9 to 14) (size 15 to 20)
#    0.857    0.000    0.000    6.000   10.000    0.000 
#    0.000    0.000    0.000    0.000    0.000    0.000 
#    0.000    0.000    0.000    0.000    0.000    0.000 
#
# Total GULP energy -173473.269891 kJ/mol
# GULP energy per Si atom -12390.947849 kJ/mol
# Density = 2.224243 g / cm^3
# Si number density = 22.293171 Si / 1000 Ang^3
#
#
#
# Elastic Constant Matrix: (Units=GPa)
#
#
# Indices 1 2 3 4 5 6 
#
# 1 102.8399 31.0783 32.1089 9.0278 5.6351 15.7362
# 2 31.0783 159.4978 61.8790 13.5837 2.7002 -22.6517
# 3 32.1089 61.8790 137.1610 -5.3568 -1.5739 -14.8933
# 4 9.0278 13.5837 -5.3568 50.5422 -1.6195 11.4386
# 5 5.6351 2.7002 -1.5739 -1.6195 44.6617 6.4839
# 6 15.7362 -22.6517 -14.8933 11.4386 6.4839 41.5723
#
#
#
# Elastic Compliance Matrix: (Units=1/GPa)
#
#
# Indices 1 2 3 4 5 6 
#
# 1 0.012306 -0.002298 -0.002587 -0.000367 -0.000553 -0.006650
# 2 -0.002298 0.009106 -0.003084 -0.003760 -0.001373 0.005975
# 3 -0.002587 -0.003084 0.009598 0.001844 0.000608 0.002135
# 4 -0.000367 -0.003760 0.001844 0.022923 0.002319 -0.007918
# 5 -0.000553 -0.001373 0.000608 0.002319 0.023316 -0.004596
# 6 -0.006650 0.005975 0.002135 -0.007918 -0.004596 0.033488
#
#
# Mechanical properties :
#
#
# Convention : Reuss Voigt Hill
#
# Bulk Modulus (GPa) = 66.34391 72.18124 69.26258
# Shear Modulus (GPa) = 37.96527 45.65074 41.80800
#
# Velocity S-wave (km/s) = 4.13122 4.53011 4.33526
# Velocity P-wave (km/s) = 7.25123 7.73376 7.49638
#
# Compressibility (1/GPa) = 0.01507297
#
# Stress axis : x y z
#
# Youngs Moduli (GPa) = 81.26109 109.81802 104.18411
#
# Poissons Ratio (x) = 0.25236 0.26950
# Poissons Ratio (y) = 0.18674 0.32129
# Poissons Ratio (z) = 0.21021 0.33867
#
# Static dielectric constant tensor:
#      x y z
#    x 4.061040 0.003510 0.033920 
#    y 0.003510 4.134590 -0.056820 
#    z 0.033920 -0.056820 4.171430 
# 
# 
# High freq. dielectric constant tensor:
#      x y z
#    x 1.876070 0.001460 0.013750 
#    y 0.001460 1.897090 -0.008510 
#    z 0.013750 -0.008510 1.887710 
# 
# From -- ./inp_files/127872.got.cif
#   From: 2010.06.25/outbox.cif.g09.slc.cpg/sg2_64_cif.got.tgz:127872.got - 2010.06.27 13:26:56.
