data_PCOD8026831
_publ_section_title
;
Structure prediction by ZEFSAII (Michael W. Deem and Ramdas Pophale) SiO2 
 PCOD8026831
Probable space group: P -1
;
_chemical_formula_sum "Si O2"
_cell_formula_units_Z 16
_cell_length_a 16.093306
_cell_length_b 18.971373
_cell_length_c 5.293221
_cell_angle_alpha 117.578245
_cell_angle_beta 117.512717
_cell_angle_gamma 27.977500
_cell_volume 666.504537
_symmetry_space_group_name_H-M "P -1"
_symmetry_group_IT_number 2
_symmetry_cell_setting 'triclinic'
loop_
_space_group_symop_operation_xyz
x,y,z
-x,-y,-z
loop_
_atom_site_type_symbol
_atom_site_label
_atom_site_fract_x
_atom_site_fract_y
_atom_site_fract_z
Si Si1 0.701410 0.578469 0.113579
Si Si2 0.318787 0.224700 0.535837
Si Si3 0.901881 0.749706 0.948737
Si Si4 0.180539 0.719593 0.570318
Si Si5 0.555789 0.610274 0.482621
Si Si6 0.797499 0.134117 0.354858
Si Si7 0.052942 0.130178 0.016408
Si Si8 0.646806 0.923309 0.270500
O O1 0.738075 0.643478 0.330731
O O2 0.626591 0.590968 0.282574
O O3 0.886621 0.407137 0.998004
O O4 0.576645 0.656899 0.824914
O O5 0.191554 0.268779 0.236002
O O6 0.274823 0.212615 0.715298
O O7 0.533683 0.063636 0.527036
O O8 0.854094 0.848792 0.825230
O O9 0.814829 0.847036 0.248314
O O10 0.350026 0.540312 0.558904
O O11 0.252168 0.759173 0.734154
O O12 0.083187 0.772087 0.253408
O O13 0.045544 0.808517 0.757888
O O14 0.339723 0.757959 0.420875
O O15 0.794247 0.048366 0.083604
O O16 0.000000 0.000000 0.500000
O O17 0.500000 0.000000 0.000000
#
# Coordination Sequence:
#
# PCOD8026831 Si02
#       8
#     2   2   2   2   2   2   2   2
#     4  12  28  44  70 104 143 182 241 283 351 408
#     4  10  24  43  68  99 140 191 233 290 339 411
#     4  11  23  42  68  99 139 190 232 289 342 411
#     4  11  22  48  69 102 141 178 226 288 356 421
#     4  12  26  47  70 106 142 185 228 300 346 419
#     4  10  26  47  76 106 138 183 233 286 359 433
#     4  11  24  42  71 106 139 178 235 287 343 416
#     4   9  22  41  63  95 130 181 233 284 345 395
#
# _framework density 24.005839000000002
#
# number of rings (size 3 to 8) (size 9 to 14) (size 15 to 20)
#    0.000    1.250    2.500    1.125    8.750    6.500 
#    0.000    4.375    0.000    0.000    0.000    0.000 
#    0.000    0.000    0.000    0.000    0.000    0.000 
#
# Total GULP energy -198230.121419 kJ/mol
# GULP energy per Si atom -12389.382589 kJ/mol
# Density = 2.395120 g / cm^3
# Si number density = 24.005839 Si / 1000 Ang^3
#
#
#
# Elastic Constant Matrix: (Units=GPa)
#
#
# Indices 1 2 3 4 5 6 
#
# 1 139.0927 49.3320 22.7757 28.9630 -17.7139 -9.6546
# 2 49.3320 102.7848 13.0239 23.7288 -0.5507 -22.5883
# 3 22.7757 13.0239 64.2024 5.7122 -21.0482 -9.7275
# 4 28.9630 23.7288 5.7122 34.9828 7.2446 -1.9579
# 5 -17.7139 -0.5507 -21.0482 7.2446 44.2966 23.8152
# 6 -9.6546 -22.5883 -9.7275 -1.9579 23.8152 47.0287
#
#
#
# Elastic Compliance Matrix: (Units=1/GPa)
#
#
# Indices 1 2 3 4 5 6 
#
# 1 0.011174 -0.004301 -0.000460 -0.008091 0.007735 -0.004121
# 2 -0.004301 0.015026 -0.001915 -0.004440 -0.006609 0.009100
# 3 -0.000460 -0.001915 0.019795 -0.004074 0.011405 -0.002865
# 4 -0.008091 -0.004440 -0.004074 0.042225 -0.014545 0.004487
# 5 0.007735 -0.006609 0.011405 -0.014545 0.045750 -0.023001
# 6 -0.004121 0.009100 -0.002865 0.004487 -0.023001 0.036030
#
#
# Mechanical properties :
#
#
# Convention : Reuss Voigt Hill
#
# Bulk Modulus (GPa) = 30.63568 52.92701 41.78134
# Shear Modulus (GPa) = 25.74237 39.99151 32.86694
#
# Velocity S-wave (km/s) = 3.27821 4.08598 3.70418
# Velocity P-wave (km/s) = 5.20753 6.66001 5.97805
#
# Compressibility (1/GPa) = 0.03264168
#
# Stress axis : x y z
#
# Youngs Moduli (GPa) = 89.49240 66.55352 50.51833
#
# Poissons Ratio (x) = 0.28625 0.02324
# Poissons Ratio (y) = 0.38491 0.09676
# Poissons Ratio (z) = 0.04117 0.12747
#
# Static dielectric constant tensor:
#      x y z
#    x 5.001040 0.065420 -0.180200 
#    y 0.065420 4.680850 0.347580 
#    z -0.180200 0.347580 4.238020 
# 
# 
# High freq. dielectric constant tensor:
#      x y z
#    x 1.967680 -0.002330 -0.007510 
#    y -0.002330 1.956710 0.013400 
#    z -0.007510 0.013400 1.944810 
# 
# From -- ./inp_files/99920.got.cif
#   From: 2010.06.25/outbox.cif.g09.slc.cpg/sg2_50_cif.got.tgz:99920.got - 2010.06.27 13:26:56.
