data_PCOD8026963
_publ_section_title
;
Structure prediction by ZEFSAII (Michael W. Deem and Ramdas Pophale) SiO2 
 PCOD8026963
Probable space group: P -1
;
_chemical_formula_sum "Si O2"
_cell_formula_units_Z 12
_cell_length_a 10.589139
_cell_length_b 16.819078
_cell_length_c 5.081534
_cell_angle_alpha 58.295462
_cell_angle_beta 63.083073
_cell_angle_gamma 43.698953
_cell_volume 527.853713
_symmetry_space_group_name_H-M "P -1"
_symmetry_group_IT_number 2
_symmetry_cell_setting 'triclinic'
loop_
_space_group_symop_operation_xyz
x,y,z
-x,-y,-z
loop_
_atom_site_type_symbol
_atom_site_label
_atom_site_fract_x
_atom_site_fract_y
_atom_site_fract_z
Si Si1 0.812645 0.820963 0.639739
Si Si2 0.725484 0.762053 0.332669
Si Si3 0.378705 0.807352 0.384527
Si Si4 0.533853 0.549451 0.630909
Si Si5 0.053952 0.567136 0.657436
Si Si6 0.189963 0.960315 0.799217
O O1 0.671179 0.838629 0.521863
O O2 0.841173 0.917161 0.406893
O O3 0.005234 0.682624 0.666562
O O4 0.734057 0.838803 0.972332
O O5 0.576440 0.749671 0.415305
O O6 0.919793 0.624175 0.425761
O O7 0.380034 0.695611 0.530795
O O8 0.229932 0.898693 0.584360
O O9 0.344060 0.872005 0.025710
O O10 0.500000 0.500000 0.500000
O O11 0.734058 0.515244 0.486135
O O12 0.500000 0.500000 0.000000
O O13 0.000000 0.500000 0.000000
O O14 0.000000 0.000000 0.000000
#
# Coordination Sequence:
#
# PCOD8026963 Si02
#       6
#     2   2   2   2   2   2
#     4  10  24  43  73 101 143 187 241 296 365 432
#     4  10  24  44  73 109 139 184 245 299 374 423
#     4  12  27  46  75 105 145 188 251 302 365 435
#     4  12  30  47  75 110 152 193 245 311 368 451
#     4  10  26  47  78 106 152 192 247 304 376 435
#     4  12  28  47  71 102 149 197 241 299 365 446
#
# _framework density 22.733571000000001
#
# number of rings (size 3 to 8) (size 9 to 14) (size 15 to 20)
#    1.000    0.000    0.000    4.500   11.667    5.333 
#    0.000    0.000    0.000    0.000    0.000    0.000 
#    0.000    0.000    0.000    0.000    0.000    0.000 
#
# Total GULP energy -148748.995529 kJ/mol
# GULP energy per Si atom -12395.749627 kJ/mol
# Density = 2.268183 g / cm^3
# Si number density = 22.733571 Si / 1000 Ang^3
#
#
#
# Elastic Constant Matrix: (Units=GPa)
#
#
# Indices 1 2 3 4 5 6 
#
# 1 100.3789 36.5760 52.2652 -6.5747 -2.1775 3.4600
# 2 36.5760 120.7172 59.4039 -20.4673 -14.6363 26.9240
# 3 52.2652 59.4039 195.5527 -11.9980 -6.7463 15.8107
# 4 -6.5747 -20.4673 -11.9980 41.9447 8.9646 -10.5532
# 5 -2.1775 -14.6363 -6.7463 8.9646 42.6911 3.4912
# 6 3.4600 26.9240 15.8107 -10.5532 3.4912 40.8321
#
#
#
# Elastic Compliance Matrix: (Units=1/GPa)
#
#
# Indices 1 2 3 4 5 6 
#
# 1 0.012325 -0.002998 -0.002564 0.000509 -0.001087 0.002149
# 2 -0.002998 0.012738 -0.002215 0.002524 0.003904 -0.006969
# 3 -0.002564 -0.002215 0.006555 0.000142 0.000185 -0.000839
# 4 0.000509 0.002524 0.000142 0.027833 -0.005413 0.005894
# 5 -0.001087 0.003904 0.000185 -0.005413 0.026381 -0.006208
# 6 0.002149 -0.006969 -0.000839 0.005894 -0.006208 0.031283
#
#
# Mechanical properties :
#
#
# Convention : Reuss Voigt Hill
#
# Bulk Modulus (GPa) = 62.24885 79.23766 70.74326
# Shear Modulus (GPa) = 36.22639 42.98715 39.60677
#
# Velocity S-wave (km/s) = 3.99622 4.35318 4.17851
# Velocity P-wave (km/s) = 6.98100 7.75870 7.38010
#
# Compressibility (1/GPa) = 0.01606455
#
# Stress axis : x y z
#
# Youngs Moduli (GPa) = 81.13591 78.50676 152.56226
#
# Poissons Ratio (x) = 0.23534 0.39110
# Poissons Ratio (y) = 0.24322 0.33796
# Poissons Ratio (z) = 0.20799 0.17391
#
# Static dielectric constant tensor:
#      x y z
#    x 4.031080 0.060410 0.251230 
#    y 0.060410 4.116230 0.116930 
#    z 0.251230 0.116930 4.195400 
# 
# 
# High freq. dielectric constant tensor:
#      x y z
#    x 1.894180 0.012260 0.005840 
#    y 0.012260 1.902660 -0.003930 
#    z 0.005840 -0.003930 1.913790 
# 
# From -- ./inp_files/81068.got.cif
#   From: 2010.06.25/outbox.cif.g09.slc.cpg/sg2_41_cif.got.tgz:81068.got - 2010.06.27 13:26:56.
