data_PCOD8026323
_publ_section_title
;
Structure prediction by ZEFSAII (Michael W. Deem and Ramdas Pophale) SiO2 
 PCOD8026323
Probable space group: P -1
;
_chemical_formula_sum "Si O2"
_cell_formula_units_Z 12
_cell_length_a 8.431057
_cell_length_b 14.178375
_cell_length_c 8.117712
_cell_angle_alpha 140.300567
_cell_angle_beta 127.965426
_cell_angle_gamma 56.250900
_cell_volume 482.112495
_symmetry_space_group_name_H-M "P -1"
_symmetry_group_IT_number 2
_symmetry_cell_setting 'triclinic'
loop_
_space_group_symop_operation_xyz
x,y,z
-x,-y,-z
loop_
_atom_site_type_symbol
_atom_site_label
_atom_site_fract_x
_atom_site_fract_y
_atom_site_fract_z
Si Si1 0.896931 0.195630 0.985619
Si Si2 0.449835 0.640554 0.435455
Si Si3 0.772509 0.404028 0.458554
Si Si4 0.185929 0.109820 0.508938
Si Si5 0.978789 0.358674 0.949320
Si Si6 0.512175 0.139104 0.509118
O O1 0.654632 0.231282 0.833339
O O2 0.029142 0.264230 0.023282
O O3 0.961645 0.014407 0.790259
O O4 0.921872 0.272846 0.282504
O O5 0.647241 0.511340 0.385425
O O6 0.382320 0.668948 0.621786
O O7 0.507333 0.791856 0.594859
O O8 0.263567 0.586799 0.145319
O O9 0.906922 0.498222 0.785019
O O10 0.050908 0.252767 0.696589
O O11 0.286991 0.154667 0.463573
O O12 0.371361 0.034560 0.648936
#
# Coordination Sequence:
#
# PCOD8026323 Si02
#       6
#     2   2   2   2   2   2
#     4   9  20  40  66  88 131 166 202 263 315 360
#     4  10  24  41  66  94 127 172 205 259 320 370
#     4  11  24  42  62  96 133 157 217 265 298 377
#     4   9  19  40  69  92 125 166 210 261 311 379
#     4  11  22  42  69  92 126 170 209 256 321 370
#     4   8  19  38  68  92 121 175 205 247 330 372
#
# _framework density 24.890457000000001
#
# number of rings (size 3 to 8) (size 9 to 14) (size 15 to 20)
#    1.000    1.333    0.000    1.500    4.667    2.667 
#    6.000    4.167    0.000    0.000    0.000    0.000 
#    0.000    0.000    0.000    0.000    0.000    0.000 
#
# Total GULP energy -148720.441518 kJ/mol
# GULP energy per Si atom -12393.370127 kJ/mol
# Density = 2.483381 g / cm^3
# Si number density = 24.890457 Si / 1000 Ang^3
#
#
#
# Elastic Constant Matrix: (Units=GPa)
#
#
# Indices 1 2 3 4 5 6 
#
# 1 80.6280 32.6311 21.0434 20.0108 -0.2881 28.8142
# 2 32.6311 102.7954 20.5865 17.1128 9.4207 13.2982
# 3 21.0434 20.5865 110.5723 22.0926 -21.4081 -7.9880
# 4 20.0108 17.1128 22.0926 27.1949 -1.4073 7.7568
# 5 -0.2881 9.4207 -21.4081 -1.4073 26.7765 0.1891
# 6 28.8142 13.2982 -7.9880 7.7568 0.1891 57.7645
#
#
#
# Elastic Compliance Matrix: (Units=1/GPa)
#
#
# Indices 1 2 3 4 5 6 
#
# 1 0.019120 -0.003187 -0.002164 -0.008059 -0.000770 -0.008018
# 2 -0.003187 0.012560 -0.002337 -0.003681 -0.006507 -0.001109
# 3 -0.002164 -0.002337 0.014400 -0.009405 0.011784 0.004833
# 4 -0.008059 -0.003681 -0.009405 0.053507 -0.003473 -0.003607
# 5 -0.000770 -0.006507 0.011784 -0.003473 0.048839 0.003818
# 6 -0.008018 -0.001109 0.004833 -0.003607 0.003818 0.022707
#
#
# Mechanical properties :
#
#
# Convention : Reuss Voigt Hill
#
# Bulk Modulus (GPa) = 32.56603 49.16864 40.86734
# Shear Modulus (GPa) = 25.41394 36.99616 31.20505
#
# Velocity S-wave (km/s) = 3.19882 3.85952 3.54460
# Velocity P-wave (km/s) = 5.17257 6.29746 5.76253
#
# Compressibility (1/GPa) = 0.03070684
#
# Stress axis : x y z
#
# Youngs Moduli (GPa) = 52.30162 79.61660 69.44297
#
# Poissons Ratio (x) = 0.25371 0.15025
# Poissons Ratio (y) = 0.16667 0.16226
# Poissons Ratio (z) = 0.11316 0.18603
#
# Static dielectric constant tensor:
#      x y z
#    x 4.307200 0.292700 0.165550 
#    y 0.292700 4.491310 0.074300 
#    z 0.165550 0.074300 3.861920 
# 
# 
# High freq. dielectric constant tensor:
#      x y z
#    x 1.988210 0.020430 0.010140 
#    y 0.020430 2.005130 0.001140 
#    z 0.010140 0.001140 1.946590 
# 
# From -- ./inp_files/148972.got.cif
#   From: 2010.06.25/outbox.cif.g09.slc.cpg/sg2_75_cif.got.tgz:148972.got - 2010.06.27 13:26:56.
