data_PCOD8026288
_publ_section_title
;
Structure prediction by ZEFSAII (Michael W. Deem and Ramdas Pophale) SiO2 
 PCOD8026288
Probable space group: P -1
;
_chemical_formula_sum "Si O2"
_cell_formula_units_Z 16
_cell_length_a 18.465461
_cell_length_b 11.150559
_cell_length_c 8.809937
_cell_angle_alpha 52.549511
_cell_angle_beta 85.346415
_cell_angle_gamma 42.292636
_cell_volume 701.294824
_symmetry_space_group_name_H-M "P -1"
_symmetry_group_IT_number 2
_symmetry_cell_setting 'triclinic'
loop_
_space_group_symop_operation_xyz
x,y,z
-x,-y,-z
loop_
_atom_site_type_symbol
_atom_site_label
_atom_site_fract_x
_atom_site_fract_y
_atom_site_fract_z
Si Si1 0.061156 0.918836 0.885994
Si Si2 0.055802 0.204602 0.457315
Si Si3 0.475008 0.519166 0.236822
Si Si4 0.335765 0.229503 0.350485
Si Si5 0.706192 0.001423 0.343158
Si Si6 0.451767 0.366277 0.630447
Si Si7 0.173950 0.769663 0.528968
Si Si8 0.248987 0.311312 0.978837
O O1 0.043551 0.123837 0.674129
O O2 0.233483 0.561159 0.131803
O O3 0.975177 0.964196 0.749781
O O4 0.000000 0.000000 0.000000
O O5 0.891232 0.539147 0.161054
O O6 0.130686 0.229469 0.465123
O O7 0.160318 0.931336 0.525557
O O8 0.587802 0.267601 0.282020
O O9 0.422313 0.469681 0.381479
O O10 0.556566 0.478016 0.374459
O O11 0.334981 0.856462 0.923941
O O12 0.500000 0.000000 0.500000
O O13 0.302192 0.166777 0.537050
O O14 0.298935 0.198631 0.230257
O O15 0.313897 0.514381 0.588745
O O16 0.607170 0.994122 0.910903
O O17 0.192528 0.584289 0.764435
#
# Coordination Sequence:
#
# PCOD8026288 Si02
#       8
#     2   2   2   2   2   2   2   2
#     4  11  26  45  69 103 137 178 230 279 343 401
#     4  11  23  47  71  95 139 185 226 276 339 416
#     4  10  24  41  64 100 134 174 231 273 344 396
#     4  12  27  44  71 102 138 175 228 283 342 404
#     4  11  25  44  70  98 135 185 225 281 344 396
#     4  11  23  42  67 102 134 178 228 283 328 402
#     4  11  22  43  72  96 137 186 223 278 335 408
#     4  11  23  43  67 103 135 177 230 278 335 403
#
# _framework density 22.81494
#
# number of rings (size 3 to 8) (size 9 to 14) (size 15 to 20)
#    0.000    1.000    5.000    1.125    8.750    2.500 
#    4.500    1.250    0.000    0.000    0.000    0.000 
#    0.000    0.000    0.000    0.000    0.000    0.000 
#
# Total GULP energy -198378.707130 kJ/mol
# GULP energy per Si atom -12398.669196 kJ/mol
# Density = 2.276301 g / cm^3
# Si number density = 22.814940 Si / 1000 Ang^3
#
#
#
# Elastic Constant Matrix: (Units=GPa)
#
#
# Indices 1 2 3 4 5 6 
#
# 1 104.6418 8.6410 43.0090 2.3154 16.6264 -28.7519
# 2 8.6410 84.5542 34.6059 3.2273 6.1721 -22.9774
# 3 43.0090 34.6059 134.1817 1.1502 15.2751 -19.5460
# 4 2.3154 3.2273 1.1502 42.3682 -5.1345 5.0383
# 5 16.6264 6.1721 15.2751 -5.1345 21.3375 -14.6579
# 6 -28.7519 -22.9774 -19.5460 5.0383 -14.6579 30.5088
#
#
#
# Elastic Compliance Matrix: (Units=1/GPa)
#
#
# Indices 1 2 3 4 5 6 
#
# 1 0.015036 0.004237 -0.003597 -0.002933 -0.000592 0.015256
# 2 0.004237 0.017604 -0.003932 -0.002875 0.006233 0.018201
# 3 -0.003597 -0.003932 0.009818 -0.000065 -0.004685 -0.002301
# 4 -0.002933 -0.002875 -0.000065 0.025357 0.004439 -0.007025
# 5 -0.000592 0.006233 -0.004685 0.004439 0.074963 0.036418
# 6 0.015256 0.018201 -0.002301 -0.007025 0.036418 0.078046
#
#
# Mechanical properties :
#
#
# Convention : Reuss Voigt Hill
#
# Bulk Modulus (GPa) = 27.87585 55.09884 41.48734
# Shear Modulus (GPa) = 20.88853 34.65102 27.76977
#
# Velocity S-wave (km/s) = 3.02911 3.90139 3.49259
# Velocity P-wave (km/s) = 4.94760 6.67062 5.87265
#
# Compressibility (1/GPa) = 0.03587335
#
# Stress axis : x y z
#
# Youngs Moduli (GPa) = 66.50797 56.80619 101.85147
#
# Poissons Ratio (x) = -0.24066 0.36638
# Poissons Ratio (y) = -0.28176 0.40044
# Poissons Ratio (z) = 0.23924 0.22334
#
# Static dielectric constant tensor:
#      x y z
#    x 3.944350 -0.176750 0.022670 
#    y -0.176750 4.104280 0.179290 
#    z 0.022670 0.179290 4.417330 
# 
# 
# High freq. dielectric constant tensor:
#      x y z
#    x 1.885180 -0.010940 0.004750 
#    y -0.010940 1.898620 0.004120 
#    z 0.004750 0.004120 1.908680 
# 
# From -- ./inp_files/209542.got.cif
#   From: 2010.06.25/outbox.cif.g09.slc.cpg/sg2_105_cif.got.tgz:209542.got - 2010.06.27 13:26:56.
