data_PCOD8026254
_publ_section_title
;
Structure prediction by ZEFSAII (Michael W. Deem and Ramdas Pophale) SiO2 
 PCOD8026254
Probable space group: P -1
;
_chemical_formula_sum "Si O2"
_cell_formula_units_Z 16
_cell_length_a 5.311791
_cell_length_b 18.751781
_cell_length_c 21.272742
_cell_angle_alpha 19.274881
_cell_angle_beta 117.020677
_cell_angle_gamma 115.543276
_cell_volume 623.075157
_symmetry_space_group_name_H-M "P -1"
_symmetry_group_IT_number 2
_symmetry_cell_setting 'triclinic'
loop_
_space_group_symop_operation_xyz
x,y,z
-x,-y,-z
loop_
_atom_site_type_symbol
_atom_site_label
_atom_site_fract_x
_atom_site_fract_y
_atom_site_fract_z
Si Si1 0.610912 0.022620 0.278333
Si Si2 0.140429 0.389548 0.736225
Si Si3 0.383827 0.340777 0.504310
Si Si4 0.604432 0.889175 0.695836
Si Si5 0.070356 0.116416 0.071435
Si Si6 0.077443 0.750596 0.291170
Si Si7 0.119361 0.836539 0.599351
Si Si8 0.048244 0.640993 0.026675
O O1 0.767256 0.836786 0.410799
O O2 0.612484 0.982232 0.388155
O O3 0.289029 0.998613 0.239506
O O4 0.720545 0.264655 0.073681
O O5 0.876305 0.549217 0.582166
O O6 0.022349 0.203604 0.829657
O O7 0.423590 0.500462 0.649096
O O8 0.218893 0.276487 0.904709
O O9 0.584577 0.228552 0.673709
O O10 0.434356 0.781987 0.707594
O O11 0.744275 0.709994 0.905710
O O12 0.846803 0.049028 0.560885
O O13 0.883201 0.261651 0.976790
O O14 0.915532 0.920135 0.178756
O O15 0.000000 0.500000 0.500000
O O16 0.937412 0.617862 0.753686
O O17 0.000000 0.000000 0.500000
#
# Coordination Sequence:
#
# PCOD8026254 Si02
#       8
#     2   2   2   2   2   2   2   2
#     4  10  24  43  66  95 140 182 228 284 351 422
#     4  11  23  42  66 102 135 184 235 301 345 421
#     4  10  24  40  70  98 139 185 236 285 358 417
#     4  10  24  45  68 101 134 180 226 286 348 425
#     4  10  24  41  63  99 134 176 232 291 349 411
#     4   9  20  43  66  94 133 184 233 287 353 421
#     4  11  25  44  71 103 135 176 231 284 351 425
#     4  11  25  44  69  96 139 183 227 291 350 423
#
# _framework density 25.679085000000001
#
# number of rings (size 3 to 8) (size 9 to 14) (size 15 to 20)
#    0.000    1.750    0.000    1.875   10.500    7.000 
#    2.250    3.125    0.000    0.000    0.000    0.000 
#    0.000    0.000    0.000    0.000    0.000    0.000 
#
# Total GULP energy -198231.638838 kJ/mol
# GULP energy per Si atom -12389.477427 kJ/mol
# Density = 2.562064 g / cm^3
# Si number density = 25.679085 Si / 1000 Ang^3
#
#
#
# Elastic Constant Matrix: (Units=GPa)
#
#
# Indices 1 2 3 4 5 6 
#
# 1 80.8911 28.6277 25.2205 -23.6494 -21.5386 -26.2199
# 2 28.6277 140.3165 52.8752 -13.9614 -6.7963 -29.5757
# 3 25.2205 52.8752 110.5672 -29.3473 -21.3548 -19.7078
# 4 -23.6494 -13.9614 -29.3473 54.6390 -4.2929 4.7370
# 5 -21.5386 -6.7963 -21.3548 -4.2929 40.8218 4.7102
# 6 -26.2199 -29.5757 -19.7078 4.7370 4.7102 35.7813
#
#
#
# Elastic Compliance Matrix: (Units=1/GPa)
#
#
# Indices 1 2 3 4 5 6 
#
# 1 0.023470 -0.001187 0.003536 0.011530 0.013534 0.014857
# 2 -0.001187 0.009864 -0.004036 -0.000770 -0.001799 0.005400
# 3 0.003536 -0.004036 0.015352 0.009042 0.009570 0.005255
# 4 0.011530 -0.000770 0.009042 0.028321 0.012815 0.007356
# 5 0.013534 -0.001799 0.009570 0.012815 0.036867 0.007152
# 6 0.014857 0.005400 0.005255 0.007356 0.007152 0.044277
#
#
# Mechanical properties :
#
#
# Convention : Reuss Voigt Hill
#
# Bulk Modulus (GPa) = 22.06818 60.58017 41.32418
# Shear Modulus (GPa) = 28.30800 41.25186 34.77993
#
# Velocity S-wave (km/s) = 3.32381 4.01239 3.68422
# Velocity P-wave (km/s) = 4.83143 6.71626 5.85025
#
# Compressibility (1/GPa) = 0.04531411
#
# Stress axis : x y z
#
# Youngs Moduli (GPa) = 42.60738 101.37807 65.13602
#
# Poissons Ratio (x) = 0.12031 -0.23035
# Poissons Ratio (y) = 0.05056 0.26289
# Poissons Ratio (z) = -0.15068 0.40917
#
# Static dielectric constant tensor:
#      x y z
#    x 4.344340 -0.077240 0.078250 
#    y -0.077240 5.646720 0.135790 
#    z 0.078250 0.135790 4.455190 
# 
# 
# High freq. dielectric constant tensor:
#      x y z
#    x 2.008710 -0.003410 -0.000970 
#    y -0.003410 2.053070 0.007840 
#    z -0.000970 0.007840 2.014460 
# 
# From -- ./inp_files/141473.got.cif
#   From: 2010.06.25/outbox.cif.g09.slc.cpg/sg2_71_cif.got.tgz:141473.got - 2010.06.27 13:26:56.
