data_PCOD8026537
_publ_section_title
;
Structure prediction by ZEFSAII (Michael W. Deem and Ramdas Pophale) SiO2 
 PCOD8026537
Probable space group: P -1
;
_chemical_formula_sum "Si O2"
_cell_formula_units_Z 14
_cell_length_a 18.668993
_cell_length_b 8.900888
_cell_length_c 5.360382
_cell_angle_alpha 94.212665
_cell_angle_beta 82.974629
_cell_angle_gamma 138.237509
_cell_volume 588.603867
_symmetry_space_group_name_H-M "P -1"
_symmetry_group_IT_number 2
_symmetry_cell_setting 'triclinic'
loop_
_space_group_symop_operation_xyz
x,y,z
-x,-y,-z
loop_
_atom_site_type_symbol
_atom_site_label
_atom_site_fract_x
_atom_site_fract_y
_atom_site_fract_z
Si Si1 0.730385 0.580271 0.575878
Si Si2 0.264002 0.902710 0.380581
Si Si3 0.895117 0.590876 0.429272
Si Si4 0.616790 0.646154 0.361753
Si Si5 0.430850 0.907775 0.264684
Si Si6 0.985008 0.152576 0.075344
Si Si7 0.228098 0.088583 0.059226
O O1 0.821488 0.622603 0.405877
O O2 0.646932 0.522768 0.408022
O O3 0.660778 0.362130 0.754188
O O4 0.790856 0.806645 0.723830
O O5 0.176827 0.670407 0.540553
O O6 0.372219 0.977523 0.286205
O O7 0.297569 0.099781 0.546176
O O8 0.212370 0.894987 0.150459
O O9 0.967958 0.682708 0.164161
O O10 0.960831 0.717272 0.671929
O O11 0.500000 0.500000 0.500000
O O12 0.644720 0.699431 0.061053
O O13 0.500000 0.000000 0.500000
O O14 0.500000 0.000000 0.000000
O O15 0.859889 0.011549 0.131327
O O16 0.000000 0.000000 0.000000
#
# Coordination Sequence:
#
# PCOD8026537 Si02
#       7
#     2   2   2   2   2   2   2
#     4  10  24  42  68 102 134 183 238 292 344 420
#     4  10  27  44  67 107 144 181 236 295 353 423
#     4  11  26  46  74 107 141 185 233 302 351 415
#     4  11  25  44  71  98 147 188 238 288 357 420
#     4  11  26  44  71  98 136 185 238 288 350 413
#     4  12  25  45  78 104 143 186 242 285 359 421
#     4  11  26  43  71 103 142 186 241 291 348 430
#
# _framework density 23.785097
#
# number of rings (size 3 to 8) (size 9 to 14) (size 15 to 20)
#    0.000    1.143    1.429    2.143   14.000    4.571 
#    0.000    0.000    0.000    0.000    0.000    0.000 
#    0.000    0.000    0.000    0.000    0.000    0.000 
#
# Total GULP energy -173509.394535 kJ/mol
# GULP energy per Si atom -12393.528181 kJ/mol
# Density = 2.373096 g / cm^3
# Si number density = 23.785097 Si / 1000 Ang^3
#
#
#
# Elastic Constant Matrix: (Units=GPa)
#
#
# Indices 1 2 3 4 5 6 
#
# 1 152.1648 34.5758 23.6791 -8.2476 15.7130 -3.4666
# 2 34.5758 73.6492 19.8127 -10.1657 -3.4121 2.4835
# 3 23.6791 19.8127 96.2122 -18.2685 6.5864 6.6742
# 4 -8.2476 -10.1657 -18.2685 40.0484 9.5775 -1.6771
# 5 15.7130 -3.4121 6.5864 9.5775 33.4042 -2.3000
# 6 -3.4666 2.4835 6.6742 -1.6771 -2.3000 39.9093
#
#
#
# Elastic Compliance Matrix: (Units=1/GPa)
#
#
# Indices 1 2 3 4 5 6 
#
# 1 0.008059 -0.003617 -0.000712 0.001503 -0.004392 0.000854
# 2 -0.003617 0.016296 -0.002368 0.001479 0.003362 -0.000676
# 3 -0.000712 -0.002368 0.012613 0.005934 -0.004234 -0.002018
# 4 0.001503 0.001479 0.005934 0.030885 -0.010600 -0.000267
# 5 -0.004392 0.003362 -0.004234 -0.010600 0.036341 0.001766
# 6 0.000854 -0.000676 -0.002018 -0.000267 0.001766 0.025601
#
#
# Mechanical properties :
#
#
# Convention : Reuss Voigt Hill
#
# Bulk Modulus (GPa) = 42.41865 53.12905 47.77385
# Shear Modulus (GPa) = 33.10238 38.93630 36.01934
#
# Velocity S-wave (km/s) = 3.73463 4.05038 3.89571
# Velocity P-wave (km/s) = 6.03900 6.65280 6.35331
#
# Compressibility (1/GPa) = 0.02357453
#
# Stress axis : x y z
#
# Youngs Moduli (GPa) = 124.08719 61.36653 79.28237
#
# Poissons Ratio (x) = 0.22194 0.05643
# Poissons Ratio (y) = 0.44878 0.18774
# Poissons Ratio (z) = 0.08833 0.14532
#
# Static dielectric constant tensor:
#      x y z
#    x 4.527830 -0.085640 0.055070 
#    y -0.085640 4.409760 -0.305670 
#    z 0.055070 -0.305670 4.176070 
# 
# 
# High freq. dielectric constant tensor:
#      x y z
#    x 1.960370 -0.006680 -0.001530 
#    y -0.006680 1.948270 -0.016390 
#    z -0.001530 -0.016390 1.936280 
# 
# From -- ./inp_files/36899.got.cif
#   From: 2010.06.25/outbox.cif.g09.slc.cpg/sg2_19_cif.got.tgz:36899.got - 2010.06.27 13:26:56.
