data_PCOD8026656
_publ_section_title
;
Structure prediction by ZEFSAII (Michael W. Deem and Ramdas Pophale) SiO2 
 PCOD8026656
Probable space group: P -1
;
_chemical_formula_sum "Si O2"
_cell_formula_units_Z 14
_cell_length_a 15.204619
_cell_length_b 12.432126
_cell_length_c 9.168614
_cell_angle_alpha 52.777806
_cell_angle_beta 30.107453
_cell_angle_gamma 44.279461
_cell_volume 606.438444
_symmetry_space_group_name_H-M "P -1"
_symmetry_group_IT_number 2
_symmetry_cell_setting 'triclinic'
loop_
_space_group_symop_operation_xyz
x,y,z
-x,-y,-z
loop_
_atom_site_type_symbol
_atom_site_label
_atom_site_fract_x
_atom_site_fract_y
_atom_site_fract_z
Si Si1 0.614346 0.369570 0.564772
Si Si2 0.024368 0.335553 0.113980
Si Si3 0.336680 0.218920 0.521250
Si Si4 0.088160 0.279731 0.405452
Si Si5 0.754409 0.037196 0.186349
Si Si6 0.733665 0.551669 0.810871
Si Si7 0.182651 0.945755 0.600057
O O1 0.500000 0.500000 0.500000
O O2 0.833311 0.343588 0.302573
O O3 0.647488 0.200084 0.611226
O O4 0.484943 0.423378 0.855521
O O5 0.043717 0.284045 0.294735
O O6 0.000000 0.500000 0.000000
O O7 0.228201 0.227207 0.823544
O O8 0.570278 0.165140 0.253235
O O9 0.251078 0.375885 0.424406
O O10 0.299208 0.097210 0.582488
O O11 0.884276 0.369038 0.722437
O O12 0.211879 0.368953 0.196855
O O13 0.205050 0.098411 0.422623
O O14 0.781667 0.108606 0.238484
O O15 0.958594 0.979864 0.846772
#
# Coordination Sequence:
#
# PCOD8026656 Si02
#       7
#     2   2   2   2   2   2   2
#     4  12  30  46  72 106 148 186 240 297 356 426
#     4  12  26  47  73 104 141 186 237 296 358 419
#     4  11  23  47  73 105 140 186 240 291 355 423
#     4  11  26  45  75 102 148 186 238 295 355 423
#     4  10  24  42  74 103 143 186 236 295 354 421
#     4  11  26  47  73 106 143 187 240 290 357 425
#     4  11  25  45  71 108 145 187 238 293 360 417
#
# _framework density 23.085605999999999
#
# number of rings (size 3 to 8) (size 9 to 14) (size 15 to 20)
#    0.000    0.857    4.286    0.857   12.000    4.000 
#    0.000    0.000    0.000    0.000    0.000    0.000 
#    0.000    0.000    0.000    0.000    0.000    0.000 
#
# Total GULP energy -173553.160706 kJ/mol
# GULP energy per Si atom -12396.654336 kJ/mol
# Density = 2.303306 g / cm^3
# Si number density = 23.085606 Si / 1000 Ang^3
#
#
#
# Elastic Constant Matrix: (Units=GPa)
#
#
# Indices 1 2 3 4 5 6 
#
# 1 90.9352 23.6626 20.5022 3.3650 5.9079 -1.8290
# 2 23.6626 128.7212 20.2836 14.2909 10.8550 0.6856
# 3 20.5022 20.2836 105.2051 23.3665 8.4611 0.7791
# 4 3.3650 14.2909 23.3665 33.0346 -1.1254 3.8264
# 5 5.9079 10.8550 8.4611 -1.1254 30.3318 -0.2436
# 6 -1.8290 0.6856 0.7791 3.8264 -0.2436 23.4653
#
#
#
# Elastic Compliance Matrix: (Units=1/GPa)
#
#
# Indices 1 2 3 4 5 6 
#
# 1 0.012017 -0.001900 -0.002111 0.000952 -0.001029 0.000896
# 2 -0.001900 0.008794 -0.000324 -0.003495 -0.002815 0.000146
# 3 -0.002111 -0.000324 0.012091 -0.008395 -0.003151 0.000780
# 4 0.000952 -0.003495 -0.008395 0.038455 0.004788 -0.005766
# 5 -0.001029 -0.002815 -0.003151 0.004788 0.035231 -0.000308
# 6 0.000896 0.000146 0.000780 -0.005766 -0.000308 0.043593
#
#
# Mechanical properties :
#
#
# Convention : Reuss Voigt Hill
#
# Bulk Modulus (GPa) = 41.26672 50.41761 45.84216
# Shear Modulus (GPa) = 29.95314 34.72720 32.34017
#
# Velocity S-wave (km/s) = 3.60596 3.88271 3.74689
# Velocity P-wave (km/s) = 5.93731 6.47977 6.21446
#
# Compressibility (1/GPa) = 0.02423260
#
# Stress axis : x y z
#
# Youngs Moduli (GPa) = 83.21658 113.71884 82.70434
#
# Poissons Ratio (x) = 0.21608 0.17457
# Poissons Ratio (y) = 0.15812 0.02677
# Poissons Ratio (z) = 0.17565 0.03680
#
# Static dielectric constant tensor:
#      x y z
#    x 3.637110 -0.013050 -0.469950 
#    y -0.013050 4.141780 0.114340 
#    z -0.469950 0.114340 3.753590 
# 
# 
# High freq. dielectric constant tensor:
#      x y z
#    x 1.911400 0.003950 -0.007310 
#    y 0.003950 1.918200 0.010780 
#    z -0.007310 0.010780 1.907390 
# 
# From -- ./inp_files/240179.got.cif
#   From: 2010.06.25/outbox.cif.g09.slc.cpg/sg2_121_cif.got.tgz:240179.got - 2010.06.27 13:26:56.
