data_PCOD8026995
_publ_section_title
;
Structure prediction by ZEFSAII (Michael W. Deem and Ramdas Pophale) SiO2 
 PCOD8026995
Probable space group: P -1
;
_chemical_formula_sum "Si O2"
_cell_formula_units_Z 10
_cell_length_a 12.464765
_cell_length_b 4.938057
_cell_length_c 8.292570
_cell_angle_alpha 90.258076
_cell_angle_beta 44.533824
_cell_angle_gamma 100.427367
_cell_volume 346.278696
_symmetry_space_group_name_H-M "P -1"
_symmetry_group_IT_number 2
_symmetry_cell_setting 'triclinic'
loop_
_space_group_symop_operation_xyz
x,y,z
-x,-y,-z
loop_
_atom_site_type_symbol
_atom_site_label
_atom_site_fract_x
_atom_site_fract_y
_atom_site_fract_z
Si Si1 0.929025 0.536305 0.821740
Si Si2 0.750041 0.144045 0.531827
Si Si3 0.857400 0.752090 0.204065
Si Si4 0.501075 0.428759 0.686508
Si Si5 0.642886 0.136837 0.991022
O O1 0.064829 0.798503 0.602829
O O2 0.064963 0.432711 0.765779
O O3 0.826199 0.322750 0.804959
O O4 0.801702 0.601705 0.088216
O O5 0.682603 0.392430 0.517707
O O6 0.628886 0.057117 0.813851
O O7 0.723178 0.882516 0.433154
O O8 0.000000 0.000000 0.000000
O O9 0.500000 0.500000 0.500000
O O10 0.472353 0.672612 0.833255
O O11 0.380782 0.133890 0.869442
#
# Coordination Sequence:
#
# PCOD8026995 Si02
#       5
#     2   2   2   2   2
#     4  10  24  43  78 114 153 198 258 311 380 460
#     4  11  26  49  79 113 158 202 251 321 386 452
#     4   9  22  41  73 109 158 197 253 304 385 450
#     4  12  31  51  77 111 158 207 259 312 387 463
#     4  12  29  50  80 117 154 198 259 323 385 449
#
# _framework density 28.878473
#
# number of rings (size 3 to 8) (size 9 to 14) (size 15 to 20)
#    0.000    1.200    0.000    2.400   19.600    0.800 
#    0.000    0.000    0.000    0.000    0.000    0.000 
#    0.000    0.000    0.000    0.000    0.000    0.000 
#
# Total GULP energy -123893.509922 kJ/mol
# GULP energy per Si atom -12389.350992 kJ/mol
# Density = 2.881274 g / cm^3
# Si number density = 28.878473 Si / 1000 Ang^3
#
#
#
# Elastic Constant Matrix: (Units=GPa)
#
#
# Indices 1 2 3 4 5 6 
#
# 1 90.5227 48.1885 69.4211 10.0870 12.7279 4.2479
# 2 48.1885 143.7661 83.3809 42.9035 31.7777 -11.4534
# 3 69.4211 83.3809 258.4981 34.0704 2.6389 3.8224
# 4 10.0870 42.9035 34.0704 53.6739 11.7863 3.5668
# 5 12.7279 31.7777 2.6389 11.7863 43.3544 -6.3469
# 6 4.2479 -11.4534 3.8224 3.5668 -6.3469 43.3101
#
#
#
# Elastic Compliance Matrix: (Units=1/GPa)
#
#
# Indices 1 2 3 4 5 6 
#
# 1 0.015890 -0.003915 -0.003338 0.003090 -0.002867 -0.002974
# 2 -0.003915 0.013479 -0.002301 -0.007525 -0.005975 0.003896
# 3 -0.003338 -0.002301 0.005713 -0.001750 0.002760 -0.000237
# 4 0.003090 -0.007525 -0.001750 0.026171 -0.003095 -0.004747
# 5 -0.002867 -0.005975 0.002760 -0.003095 0.029402 0.003021
# 6 -0.002974 0.003896 -0.000237 -0.004747 0.003021 0.025266
#
#
# Mechanical properties :
#
#
# Convention : Reuss Voigt Hill
#
# Bulk Modulus (GPa) = 62.60578 99.41865 81.01222
# Shear Modulus (GPa) = 35.62386 47.52077 41.57231
#
# Velocity S-wave (km/s) = 3.51604 4.06093 3.79827
# Velocity P-wave (km/s) = 6.18139 7.51595 6.88110
#
# Compressibility (1/GPa) = 0.01597297
#
# Stress axis : x y z
#
# Youngs Moduli (GPa) = 62.93396 74.18816 175.02853
#
# Poissons Ratio (x) = 0.29044 0.58432
# Poissons Ratio (y) = 0.24638 0.40280
# Poissons Ratio (z) = 0.21010 0.17073
#
# Static dielectric constant tensor:
#      x y z
#    x 5.267060 0.287380 0.136260 
#    y 0.287380 5.645480 0.404260 
#    z 0.136260 0.404260 6.734610 
# 
# 
# High freq. dielectric constant tensor:
#      x y z
#    x 2.172220 0.027280 -0.036430 
#    y 0.027280 2.193540 -0.018620 
#    z -0.036430 -0.018620 2.228490 
# 
# From -- ./inp_files/287056.got.cif
#   From: 2010.06.25/outbox.cif.g09.slc.cpg/sg2_144_cif.got.tgz:287056.got - 2010.06.27 13:26:56.
