data_PCOD8026901
_publ_section_title
;
Structure prediction by ZEFSAII (Michael W. Deem and Ramdas Pophale) SiO2 
 PCOD8026901
Probable space group: P -1
;
_chemical_formula_sum "Si O2"
_cell_formula_units_Z 16
_cell_length_a 5.309489
_cell_length_b 20.826320
_cell_length_c 9.582471
_cell_angle_alpha 118.939704
_cell_angle_beta 73.438489
_cell_angle_gamma 128.867395
_cell_volume 721.718273
_symmetry_space_group_name_H-M "P -1"
_symmetry_group_IT_number 2
_symmetry_cell_setting 'triclinic'
loop_
_space_group_symop_operation_xyz
x,y,z
-x,-y,-z
loop_
_atom_site_type_symbol
_atom_site_label
_atom_site_fract_x
_atom_site_fract_y
_atom_site_fract_z
Si Si1 0.737352 0.400856 0.491164
Si Si2 0.748880 0.304658 0.124620
Si Si3 0.121259 0.441171 0.972480
Si Si4 0.869168 0.035888 0.734166
Si Si5 0.974141 0.654247 0.388944
Si Si6 0.970080 0.803663 0.943889
Si Si7 0.800433 0.159811 0.367731
Si Si8 0.134632 0.938683 0.538317
O O1 0.691617 0.327788 0.311348
O O2 0.391155 0.383910 0.547244
O O3 0.000000 0.500000 0.500000
O O4 0.888510 0.393863 0.602087
O O5 0.411751 0.244880 0.031418
O O6 0.918394 0.253006 0.058588
O O7 0.969118 0.396000 0.097895
O O8 0.023202 0.363719 0.793721
O O9 0.500000 0.500000 0.000000
O O10 0.000000 0.500000 0.000000
O O11 0.036274 0.087964 0.615098
O O12 0.519911 0.940806 0.676760
O O13 0.088858 0.003212 0.712424
O O14 0.848047 0.098670 0.911262
O O15 0.225682 0.760922 0.493063
O O16 0.051343 0.817747 0.784023
O O17 0.015369 0.153542 0.445922
O O18 0.500000 0.000000 0.500000
#
# Coordination Sequence:
#
# PCOD8026901 Si02
#       8
#     2   2   2   2   2   2   2   2
#     4  12  24  47  74 101 140 183 230 288 358 427
#     4  12  26  47  69 108 144 181 237 297 347 430
#     4  12  27  50  74 107 142 185 236 292 365 428
#     4  10  24  43  70  98 141 194 232 292 344 415
#     4  12  26  44  74 108 137 187 233 293 346 423
#     4  12  27  44  70 104 147 185 236 289 357 407
#     4  11  24  43  68 104 140 182 242 286 348 418
#     4   9  22  42  65  96 132 182 243 279 344 409
#
# _framework density 22.169314
#
# number of rings (size 3 to 8) (size 9 to 14) (size 15 to 20)
#    0.000    0.750    2.500    3.750    8.750    2.500 
#    0.000    0.000    0.000    0.000    0.000    0.000 
#    0.000    0.000    0.000    0.000    0.000    0.000 
#
# Total GULP energy -198273.184608 kJ/mol
# GULP energy per Si atom -12392.074038 kJ/mol
# Density = 2.211886 g / cm^3
# Si number density = 22.169314 Si / 1000 Ang^3
#
#
#
# Elastic Constant Matrix: (Units=GPa)
#
#
# Indices 1 2 3 4 5 6 
#
# 1 134.1779 43.6436 10.9399 -5.5112 2.1812 -10.5505
# 2 43.6436 109.6669 22.8901 -5.1011 6.2704 -17.3485
# 3 10.9399 22.8901 106.1230 9.3061 0.9290 -4.9043
# 4 -5.5112 -5.1011 9.3061 41.8078 -1.8869 5.7793
# 5 2.1812 6.2704 0.9290 -1.8869 30.4771 0.8670
# 6 -10.5505 -17.3485 -4.9043 5.7793 0.8670 41.8764
#
#
#
# Elastic Compliance Matrix: (Units=1/GPa)
#
#
# Indices 1 2 3 4 5 6 
#
# 1 0.008607 -0.003241 -0.000217 0.000694 0.000080 0.000703
# 2 -0.003241 0.011578 -0.002048 0.000838 -0.002140 0.003669
# 3 -0.000217 -0.002048 0.010148 -0.002630 -0.000054 0.000649
# 4 0.000694 0.000838 -0.002630 0.025222 0.001514 -0.003298
# 5 0.000080 -0.002140 -0.000054 0.001514 0.033392 -0.001773
# 6 0.000703 0.003669 0.000649 -0.003298 -0.001773 0.026145
#
#
# Mechanical properties :
#
#
# Convention : Reuss Voigt Hill
#
# Bulk Modulus (GPa) = 51.76062 56.10168 53.93115
# Shear Modulus (GPa) = 37.72297 40.99852 39.36075
#
# Velocity S-wave (km/s) = 4.12950 4.30506 4.21819
# Velocity P-wave (km/s) = 6.79232 7.07618 6.93570
#
# Compressibility (1/GPa) = 0.01931971
#
# Stress axis : x y z
#
# Youngs Moduli (GPa) = 116.18162 86.37384 98.53869
#
# Poissons Ratio (x) = 0.27995 0.02141
# Poissons Ratio (y) = 0.37656 0.20183
# Poissons Ratio (z) = 0.02524 0.17692
#
# Static dielectric constant tensor:
#      x y z
#    x 5.354860 -0.670480 0.134740 
#    y -0.670480 4.391070 -0.277460 
#    z 0.134740 -0.277460 4.425050 
# 
# 
# High freq. dielectric constant tensor:
#      x y z
#    x 1.887820 -0.010620 -0.000610 
#    y -0.010620 1.878840 -0.004010 
#    z -0.000610 -0.004010 1.877170 
# 
# From -- ./inp_files/46759.got.cif
#   From: 2010.06.25/outbox.cif.g09.slc.cpg/sg2_24_cif.got.tgz:46759.got - 2010.06.27 13:26:56.
