data_PCOD8026974
_publ_section_title
;
Structure prediction by ZEFSAII (Michael W. Deem and Ramdas Pophale) SiO2 
 PCOD8026974
Probable space group: P -1
;
_chemical_formula_sum "Si O2"
_cell_formula_units_Z 14
_cell_length_a 8.742742
_cell_length_b 9.475827
_cell_length_c 11.560295
_cell_angle_alpha 100.270572
_cell_angle_beta 60.215279
_cell_angle_gamma 133.890414
_cell_volume 577.509608
_symmetry_space_group_name_H-M "P -1"
_symmetry_group_IT_number 2
_symmetry_cell_setting 'triclinic'
loop_
_space_group_symop_operation_xyz
x,y,z
-x,-y,-z
loop_
_atom_site_type_symbol
_atom_site_label
_atom_site_fract_x
_atom_site_fract_y
_atom_site_fract_z
Si Si1 0.639091 0.876919 0.948510
Si Si2 0.130913 0.508858 0.168506
Si Si3 0.311849 0.020090 0.565928
Si Si4 0.317396 0.299833 0.469042
Si Si5 0.169513 0.831577 0.286303
Si Si6 0.771807 0.680530 0.740959
Si Si7 0.686895 0.041259 0.199691
O O1 0.777535 0.810083 0.852406
O O2 0.717850 0.049733 0.859711
O O3 0.339601 0.676777 0.020905
O O4 0.721721 0.971426 0.059695
O O5 0.037300 0.600137 0.281715
O O6 0.295608 0.506735 0.197097
O O7 0.900882 0.288682 0.167827
O O8 0.387670 0.182151 0.468076
O O9 0.500000 0.000000 0.500000
O O10 0.291653 0.057895 0.714971
O O11 0.041478 0.805981 0.601046
O O12 0.500000 0.500000 0.500000
O O13 0.391421 0.365609 0.315872
O O14 0.027296 0.167432 0.588736
O O15 0.410240 0.955714 0.298159
#
# Coordination Sequence:
#
# PCOD8026974 Si02
#       7
#     2   2   2   2   2   2   2
#     4  11  24  45  74 103 148 189 232 293 350 420
#     4  10  24  43  73 111 138 189 235 288 352 424
#     4  11  25  46  72 102 137 189 236 291 356 415
#     4  12  29  45  71 107 139 188 237 294 357 420
#     4  11  25  47  69 105 148 185 233 294 354 415
#     4  11  25  47  71 101 149 183 235 299 347 424
#     4  10  24  44  78 102 143 188 235 288 355 422
#
# _framework density 24.242021000000001
#
# number of rings (size 3 to 8) (size 9 to 14) (size 15 to 20)
#    0.000    1.143    1.429    3.429   10.000    6.286 
#    0.000    0.000    0.000    0.000    0.000    0.000 
#    0.000    0.000    0.000    0.000    0.000    0.000 
#
# Total GULP energy -173473.423380 kJ/mol
# GULP energy per Si atom -12390.958813 kJ/mol
# Density = 2.418685 g / cm^3
# Si number density = 24.242021 Si / 1000 Ang^3
#
#
#
# Elastic Constant Matrix: (Units=GPa)
#
#
# Indices 1 2 3 4 5 6 
#
# 1 117.6552 39.4455 43.3383 10.6939 7.0732 -18.8914
# 2 39.4455 114.8176 33.0993 9.9304 -3.1342 -6.6102
# 3 43.3383 33.0993 75.0316 6.9536 5.7670 1.0238
# 4 10.6939 9.9304 6.9536 31.4104 1.6794 -0.5418
# 5 7.0732 -3.1342 5.7670 1.6794 45.8279 -0.8065
# 6 -18.8914 -6.6102 1.0238 -0.5418 -0.8065 51.4279
#
#
#
# Elastic Compliance Matrix: (Units=1/GPa)
#
#
# Indices 1 2 3 4 5 6 
#
# 1 0.012375 -0.002126 -0.005988 -0.002079 -0.001149 0.004352
# 2 -0.002126 0.010680 -0.003431 -0.001966 0.001574 0.000664
# 3 -0.005988 -0.003431 0.018558 -0.000948 -0.001665 -0.003046
# 4 -0.002079 -0.001966 -0.000948 0.033414 -0.000930 -0.000660
# 5 -0.001149 0.001574 -0.001665 -0.000930 0.022352 0.000154
# 6 0.004352 0.000664 -0.003046 -0.000660 0.000154 0.021185
#
#
# Mechanical properties :
#
#
# Convention : Reuss Voigt Hill
#
# Bulk Modulus (GPa) = 53.99158 59.91897 56.95527
# Shear Modulus (GPa) = 33.82300 38.50798 36.16549
#
# Velocity S-wave (km/s) = 3.73932 3.98990 3.86664
# Velocity P-wave (km/s) = 6.40028 6.78206 6.59393
#
# Compressibility (1/GPa) = 0.01852141
#
# Stress axis : x y z
#
# Youngs Moduli (GPa) = 80.80991 93.63055 53.88642
#
# Poissons Ratio (x) = 0.19907 0.32268
# Poissons Ratio (y) = 0.17181 0.18490
# Poissons Ratio (z) = 0.48390 0.32127
#
# Static dielectric constant tensor:
#      x y z
#    x 4.744280 0.167380 0.014170 
#    y 0.167380 4.046810 -0.042390 
#    z 0.014170 -0.042390 4.793090 
# 
# 
# High freq. dielectric constant tensor:
#      x y z
#    x 1.972670 -0.006490 0.008550 
#    y -0.006490 1.957120 0.000750 
#    z 0.008550 0.000750 1.973060 
# 
# From -- ./inp_files/382556.got.cif
#   From: 2010.06.25/outbox.cif.g09.slc.cpg/sg2_192_cif.got.tgz:382556.got - 2010.06.27 13:26:56.
