data_PCOD8026480
_publ_section_title
;
Structure prediction by ZEFSAII (Michael W. Deem and Ramdas Pophale) SiO2 
 PCOD8026480
Probable space group: P -1
;
_chemical_formula_sum "Si O2"
_cell_formula_units_Z 16
_cell_length_a 11.157831
_cell_length_b 20.360459
_cell_length_c 14.661430
_cell_angle_alpha 32.056044
_cell_angle_beta 128.838192
_cell_angle_gamma 151.650862
_cell_volume 740.379458
_symmetry_space_group_name_H-M "P -1"
_symmetry_group_IT_number 2
_symmetry_cell_setting 'triclinic'
loop_
_space_group_symop_operation_xyz
x,y,z
-x,-y,-z
loop_
_atom_site_type_symbol
_atom_site_label
_atom_site_fract_x
_atom_site_fract_y
_atom_site_fract_z
Si Si1 0.838250 0.483746 0.874639
Si Si2 0.311037 0.771567 0.629448
Si Si3 0.834636 0.993103 0.872832
Si Si4 0.127519 0.011065 0.664813
Si Si5 0.226207 0.329635 0.258088
Si Si6 0.676241 0.799419 0.837098
Si Si7 0.604550 0.175264 0.774110
Si Si8 0.871769 0.292664 0.573165
O O1 0.884154 0.653931 0.734340
O O2 0.982732 0.568093 0.745135
O O3 0.502586 0.228650 0.003315
O O4 0.000000 0.500000 0.000000
O O5 0.420992 0.711922 0.781293
O O6 0.335943 0.808538 0.489622
O O7 0.500000 0.000000 0.500000
O O8 0.867366 0.992516 0.780424
O O9 0.976226 0.221529 0.695154
O O10 0.000000 0.000000 0.000000
O O11 0.298719 0.242584 0.432123
O O12 0.331627 0.077775 0.751417
O O13 0.019567 0.845184 0.730097
O O14 0.860293 0.884869 0.739227
O O15 0.527294 0.578314 0.068920
O O16 0.693102 0.178819 0.715002
O O17 0.865086 0.434256 0.629853
O O18 0.500000 0.000000 0.000000
#
# Coordination Sequence:
#
# PCOD8026480 Si02
#       8
#     2   2   2   2   2   2   2   2
#     4  11  22  42  73 108 142 189 241 290 364 428
#     4  12  23  43  73 109 144 181 243 302 354 427
#     4  11  26  45  73 104 149 188 236 307 369 434
#     4  11  26  42  70  98 140 184 237 289 357 431
#     4  10  24  42  66 105 139 179 231 296 349 425
#     4  11  24  43  68 107 140 183 230 298 365 418
#     4  11  30  50  72  99 140 198 245 294 361 445
#     4  11  28  49  72 104 143 189 245 304 357 438
#
# _framework density 21.610541000000001
#
# number of rings (size 3 to 8) (size 9 to 14) (size 15 to 20)
#    0.000    1.000    3.750    1.125   15.750    1.000 
#    0.000    1.250    0.000    0.000    0.000    0.000 
#    0.000    0.000    0.000    0.000    0.000    0.000 
#
# Total GULP energy -198433.713997 kJ/mol
# GULP energy per Si atom -12402.107125 kJ/mol
# Density = 2.156135 g / cm^3
# Si number density = 21.610541 Si / 1000 Ang^3
#
#
#
# Elastic Constant Matrix: (Units=GPa)
#
#
# Indices 1 2 3 4 5 6 
#
# 1 93.9416 45.9704 58.0266 -7.0654 -0.4666 -12.9982
# 2 45.9704 117.1233 54.9866 13.8435 4.3605 -3.2532
# 3 58.0266 54.9866 130.2697 -3.1394 -5.5495 -12.5361
# 4 -7.0654 13.8435 -3.1394 32.5363 -5.4111 -2.7197
# 5 -0.4666 4.3605 -5.5495 -5.4111 34.1392 -4.1300
# 6 -12.9982 -3.2532 -12.5361 -2.7197 -4.1300 37.2884
#
#
#
# Elastic Compliance Matrix: (Units=1/GPa)
#
#
# Indices 1 2 3 4 5 6 
#
# 1 0.017270 -0.005154 -0.004861 0.006126 0.001627 0.004563
# 2 -0.005154 0.013512 -0.004074 -0.008202 -0.004127 -0.003043
# 3 -0.004861 -0.004074 0.011998 0.002564 0.003115 0.002516
# 4 0.006126 -0.008202 0.002564 0.037669 0.008238 0.005942
# 5 0.001627 -0.004127 0.003115 0.008238 0.032311 0.005434
# 6 0.004563 -0.003043 0.002516 0.005942 0.005434 0.030024
#
#
# Mechanical properties :
#
#
# Convention : Reuss Voigt Hill
#
# Bulk Modulus (GPa) = 68.48475 73.25576 70.87025
# Shear Modulus (GPa) = 28.43673 32.94953 30.69313
#
# Velocity S-wave (km/s) = 3.63143 3.90897 3.77276
# Velocity P-wave (km/s) = 7.02441 7.37192 7.20026
#
# Compressibility (1/GPa) = 0.01460179
#
# Stress axis : x y z
#
# Youngs Moduli (GPa) = 57.90427 74.00725 83.34898
#
# Poissons Ratio (x) = 0.38145 0.40515
# Poissons Ratio (y) = 0.29845 0.33955
# Poissons Ratio (z) = 0.28147 0.30150
#
# Static dielectric constant tensor:
#      x y z
#    x 3.963800 -0.405630 -0.157550 
#    y -0.405630 3.393990 -0.259960 
#    z -0.157550 -0.259960 3.977170 
# 
# 
# High freq. dielectric constant tensor:
#      x y z
#    x 1.855800 -0.009770 0.004810 
#    y -0.009770 1.842380 0.000580 
#    z 0.004810 0.000580 1.863360 
# 
# From -- ./inp_files/524051.got.cif
#   From: 2010.06.25/outbox.cif.g09.slc.cpg/sg2_263_cif.got.tgz:524051.got - 2010.06.27 13:26:56.
