data_PCOD8026692
_publ_section_title
;
Structure prediction by ZEFSAII (Michael W. Deem and Ramdas Pophale) SiO2 
 PCOD8026692
Probable space group: P -1
;
_chemical_formula_sum "Si O2"
_cell_formula_units_Z 14
_cell_length_a 8.761406
_cell_length_b 16.909753
_cell_length_c 6.529465
_cell_angle_alpha 97.719916
_cell_angle_beta 52.581372
_cell_angle_gamma 122.903322
_cell_volume 616.630880
_symmetry_space_group_name_H-M "P -1"
_symmetry_group_IT_number 2
_symmetry_cell_setting 'triclinic'
loop_
_space_group_symop_operation_xyz
x,y,z
-x,-y,-z
loop_
_atom_site_type_symbol
_atom_site_label
_atom_site_fract_x
_atom_site_fract_y
_atom_site_fract_z
Si Si1 0.985419 0.701533 0.853502
Si Si2 0.588266 0.810378 0.071519
Si Si3 0.699196 0.310880 0.103954
Si Si4 0.469393 0.024042 0.809866
Si Si5 0.089692 0.440916 0.494907
Si Si6 0.503044 0.638185 0.370279
Si Si7 0.893597 0.097565 0.238167
O O1 0.910118 0.624276 0.706191
O O2 0.211478 0.728252 0.808594
O O3 0.048544 0.797458 0.719804
O O4 0.769470 0.669445 0.174087
O O5 0.521208 0.775749 0.878293
O O6 0.870158 0.894232 0.898232
O O7 0.471448 0.867511 0.235883
O O8 0.487486 0.713888 0.262627
O O9 0.596659 0.363579 0.323960
O O10 0.925539 0.381309 0.801466
O O11 0.663651 0.017099 0.530185
O O12 0.197418 0.938314 0.933135
O O13 0.500000 0.000000 0.000000
O O14 0.357308 0.525503 0.373786
O O15 0.000000 0.500000 0.500000
#
# Coordination Sequence:
#
# PCOD8026692 Si02
#       7
#     2   2   2   2   2   2   2
#     4  11  25  43  67  94 130 172 221 268 320 384
#     4  11  24  42  66  93 133 169 210 265 324 381
#     4  12  23  40  66  94 132 169 222 264 319 374
#     4  11  23  42  68  96 126 164 211 264 321 384
#     4  12  23  43  65  94 134 175 216 269 323 376
#     4  11  25  43  65  96 131 175 220 266 323 380
#     4  10  24  43  64  94 128 166 212 262 322 383
#
# _framework density 22.704018000000001
#
# number of rings (size 3 to 8) (size 9 to 14) (size 15 to 20)
#    0.000    0.857    2.857    3.857    0.000    8.000 
#    0.000    0.000    0.000    0.000    0.000    0.000 
#    0.000    0.000    0.000    0.000    0.000    0.000 
#
# Total GULP energy -173488.488344 kJ/mol
# GULP energy per Si atom -12392.034882 kJ/mol
# Density = 2.265234 g / cm^3
# Si number density = 22.704018 Si / 1000 Ang^3
#
#
#
# Elastic Constant Matrix: (Units=GPa)
#
#
# Indices 1 2 3 4 5 6 
#
# 1 100.0008 32.7918 48.4143 11.7557 -6.1047 32.3089
# 2 32.7918 102.2491 19.7348 15.3825 3.0769 15.6025
# 3 48.4143 19.7348 108.7829 9.7729 -11.6583 9.4760
# 4 11.7557 15.3825 9.7729 33.9601 5.2347 -3.8663
# 5 -6.1047 3.0769 -11.6583 5.2347 28.7189 0.0845
# 6 32.3089 15.6025 9.4760 -3.8663 0.0845 47.3361
#
#
#
# Elastic Compliance Matrix: (Units=1/GPa)
#
#
# Indices 1 2 3 4 5 6 
#
# 1 0.017748 -0.002265 -0.005831 -0.005049 0.002600 -0.010617
# 2 -0.002265 0.011722 -0.000621 -0.004458 -0.001169 -0.002555
# 3 -0.005831 -0.000621 0.012364 -0.001721 0.004155 0.001561
# 4 -0.005049 -0.004458 -0.001721 0.035853 -0.007854 0.008203
# 5 0.002600 -0.001169 0.004155 -0.007854 0.038625 -0.002931
# 6 -0.010617 -0.002555 0.001561 0.008203 -0.002931 0.029577
#
#
# Mechanical properties :
#
#
# Convention : Reuss Voigt Hill
#
# Bulk Modulus (GPa) = 40.98175 56.99053 48.98614
# Shear Modulus (GPa) = 29.16185 36.00914 32.58550
#
# Velocity S-wave (km/s) = 3.58779 3.98681 3.79255
# Velocity P-wave (km/s) = 5.93739 6.80800 6.38755
#
# Compressibility (1/GPa) = 0.02440111
#
# Stress axis : x y z
#
# Youngs Moduli (GPa) = 56.34387 85.30982 80.87826
#
# Poissons Ratio (x) = 0.19323 0.47159
# Poissons Ratio (y) = 0.12762 0.05020
# Poissons Ratio (z) = 0.32853 0.05295
#
# Static dielectric constant tensor:
#      x y z
#    x 4.112400 0.108650 -0.155500 
#    y 0.108650 3.931650 0.255610 
#    z -0.155500 0.255610 4.000940 
# 
# 
# High freq. dielectric constant tensor:
#      x y z
#    x 1.897620 0.011650 -0.012220 
#    y 0.011650 1.904110 0.006680 
#    z -0.012220 0.006680 1.894600 
# 
# From -- ./inp_files/46409.got.cif
#   From: 2010.06.25/outbox.cif.g09.slc.cpg/sg2_24_cif.got.tgz:46409.got - 2010.06.27 13:26:56.
