data_PCOD8026850
_publ_section_title
;
Structure prediction by ZEFSAII (Michael W. Deem and Ramdas Pophale) SiO2 
 PCOD8026850
Probable space group: P -1
;
_chemical_formula_sum "Si O2"
_cell_formula_units_Z 14
_cell_length_a 21.466361
_cell_length_b 5.559510
_cell_length_c 21.157866
_cell_angle_alpha 57.088464
_cell_angle_beta 160.258469
_cell_angle_gamma 130.312508
_cell_volume 628.918680
_symmetry_space_group_name_H-M "P -1"
_symmetry_group_IT_number 2
_symmetry_cell_setting 'triclinic'
loop_
_space_group_symop_operation_xyz
x,y,z
-x,-y,-z
loop_
_atom_site_type_symbol
_atom_site_label
_atom_site_fract_x
_atom_site_fract_y
_atom_site_fract_z
Si Si1 0.887168 0.719450 0.714156
Si Si2 0.118575 0.302297 0.618128
Si Si3 0.962652 0.205230 0.291562
Si Si4 0.464299 0.649766 0.292233
Si Si5 0.248946 0.371601 0.001736
Si Si6 0.376104 0.644458 0.704033
Si Si7 0.051319 0.374190 0.001916
O O1 0.958149 0.833973 0.694807
O O2 0.639943 0.592396 0.503266
O O3 0.923643 0.423490 0.815029
O O4 0.030519 0.038298 0.846553
O O5 0.327807 0.561286 0.744241
O O6 0.000000 0.500000 0.500000
O O7 0.000000 0.000000 0.500000
O O8 0.166346 0.150210 0.748095
O O9 0.170898 0.424476 0.498742
O O10 0.800614 0.343665 0.107967
O O11 0.574332 0.991341 0.313135
O O12 0.342894 0.391291 0.158265
O O13 0.299130 0.615827 0.193302
O O14 0.417849 0.385421 0.110667
O O15 0.000000 0.500000 0.000000
O O16 0.000000 0.000000 0.000000
#
# Coordination Sequence:
#
# PCOD8026850 Si02
#       7
#     2   2   2   2   2   2   2
#     4  12  25  46  77 105 147 195 243 296 369 442
#     4  10  24  43  69 109 155 193 248 310 357 421
#     4  11  23  42  75 105 149 199 247 299 364 425
#     4  12  25  46  77 105 147 195 243 296 369 442
#     4  12  23  43  72 111 142 190 255 300 350 438
#     4  11  23  42  75 105 149 199 247 299 364 425
#     4  12  29  50  76 112 148 183 241 310 372 445
#
# _framework density 22.260428999999998
#
# number of rings (size 3 to 8) (size 9 to 14) (size 15 to 20)
#    0.000    0.571    5.714    1.714    4.000    1.714 
#    0.000    2.857    0.000    0.000    0.000    0.000 
#    0.000    0.000    0.000    0.000    0.000    0.000 
#
# Total GULP energy -173544.141278 kJ/mol
# GULP energy per Si atom -12396.010091 kJ/mol
# Density = 2.220976 g / cm^3
# Si number density = 22.260429 Si / 1000 Ang^3
#
#
#
# Elastic Constant Matrix: (Units=GPa)
#
#
# Indices 1 2 3 4 5 6 
#
# 1 140.1898 31.5616 49.3447 26.3121 39.6506 1.0241
# 2 31.5616 158.5006 44.0487 -30.9455 -21.3581 11.0609
# 3 49.3447 44.0487 165.1011 -11.0969 20.1158 1.1539
# 4 26.3121 -30.9455 -11.0969 51.0315 6.3962 -0.0306
# 5 39.6506 -21.3581 20.1158 6.3962 51.8428 -4.5400
# 6 1.0241 11.0609 1.1539 -0.0306 -4.5400 44.2362
#
#
#
# Elastic Compliance Matrix: (Units=1/GPa)
#
#
# Indices 1 2 3 4 5 6 
#
# 1 0.014076 -0.005642 -0.002001 -0.009721 -0.011115 -0.000011
# 2 -0.005642 0.010660 -0.001608 0.007995 0.008200 -0.001646
# 3 -0.002001 -0.001608 0.007494 0.001972 -0.002282 0.000020
# 4 -0.009721 0.007995 0.001972 0.029098 0.006271 -0.001162
# 5 -0.011115 0.008200 -0.002282 0.006271 0.031411 0.001495
# 6 -0.000011 -0.001646 0.000020 -0.001162 0.001495 0.023170
#
#
# Mechanical properties :
#
#
# Convention : Reuss Voigt Hill
#
# Bulk Modulus (GPa) = 72.83827 79.30015 76.06921
# Shear Modulus (GPa) = 35.97466 52.01120 43.99293
#
# Velocity S-wave (km/s) = 4.02441 4.83897 4.45036
# Velocity P-wave (km/s) = 7.37472 8.18058 7.78808
#
# Compressibility (1/GPa) = 0.01372905
#
# Stress axis : x y z
#
# Youngs Moduli (GPa) = 71.04363 93.80698 133.43377
#
# Poissons Ratio (x) = 0.52923 0.26697
# Poissons Ratio (y) = 0.40081 0.21459
# Poissons Ratio (z) = 0.14214 0.15086
#
# Static dielectric constant tensor:
#      x y z
#    x 4.327190 0.243610 0.061820 
#    y 0.243610 4.284710 -0.010730 
#    z 0.061820 -0.010730 4.026450 
# 
# 
# High freq. dielectric constant tensor:
#      x y z
#    x 1.884960 0.003550 0.006710 
#    y 0.003550 1.885250 -0.006070 
#    z 0.006710 -0.006070 1.876490 
# 
# From -- ./inp_files/584213.got.cif
#   From: 2010.06.25/outbox.cif.g09.slc.cpg/sg2_293_cif.got.tgz:584213.got - 2010.06.27 13:26:56.
