data_PCOD8026399
_publ_section_title
;
Structure prediction by ZEFSAII (Michael W. Deem and Ramdas Pophale) SiO2 
 PCOD8026399
Probable space group: P -1
;
_chemical_formula_sum "Si O2"
_cell_formula_units_Z 14
_cell_length_a 7.654693
_cell_length_b 8.685924
_cell_length_c 18.635048
_cell_angle_alpha 134.359064
_cell_angle_beta 64.529834
_cell_angle_gamma 127.957839
_cell_volume 698.465919
_symmetry_space_group_name_H-M "P -1"
_symmetry_group_IT_number 2
_symmetry_cell_setting 'triclinic'
loop_
_space_group_symop_operation_xyz
x,y,z
-x,-y,-z
loop_
_atom_site_type_symbol
_atom_site_label
_atom_site_fract_x
_atom_site_fract_y
_atom_site_fract_z
Si Si1 0.352257 0.329138 0.838950
Si Si2 0.353794 0.135382 0.000002
Si Si3 0.249243 0.173020 0.383087
Si Si4 0.249200 0.023677 0.616900
Si Si5 0.647736 0.187700 0.838959
Si Si6 0.058484 0.276452 0.999995
Si Si7 0.499965 0.259869 0.506590
O O1 0.494379 0.624864 0.900724
O O2 0.499867 0.229983 0.820085
O O3 0.278064 0.208426 0.735666
O O4 0.128963 0.259856 0.900766
O O5 0.190441 0.189845 0.999894
O O6 0.505902 0.077492 0.900809
O O7 0.207001 0.899008 0.000003
O O8 0.312059 0.123700 0.435145
O O9 0.403675 0.450614 0.421786
O O10 0.000036 0.119382 0.412868
O O11 0.278069 0.001448 0.264320
O O12 0.312084 0.818229 0.564833
O O13 0.403541 0.185162 0.578196
O O14 0.871031 0.442543 0.900701
#
# Coordination Sequence:
#
# PCOD8026399 Si02
#       7
#     2   2   2   2   2   2   2
#     4   9  17  32  55  82 115 148 185 233 279 332
#     4   8  15  29  50  82 116 146 187 228 271 338
#     4  11  22  40  62  86 115 152 191 238 292 341
#     4  11  22  40  62  86 115 152 191 238 292 341
#     4   9  17  32  55  82 115 148 185 233 279 332
#     4   8  15  29  52  81 112 153 187 220 279 339
#     4  10  24  42  60  84 116 150 194 242 286 344
#
# _framework density 20.043925000000002
#
# number of rings (size 3 to 8) (size 9 to 14) (size 15 to 20)
#    0.000    2.571    1.429    2.571    0.000    2.286 
#    0.000    2.857    0.000    5.143    0.000    0.000 
#    0.000    0.000    0.000    0.000    0.000    0.000 
#
# Total GULP energy -173595.619782 kJ/mol
# GULP energy per Si atom -12399.687127 kJ/mol
# Density = 1.999830 g / cm^3
# Si number density = 20.043925 Si / 1000 Ang^3
#
#
#
# Elastic Constant Matrix: (Units=GPa)
#
#
# Indices 1 2 3 4 5 6 
#
# 1 85.0471 32.8797 39.9859 -0.1403 -0.1096 2.4692
# 2 32.8797 116.2390 56.2532 -0.0893 0.4822 20.6143
# 3 39.9859 56.2532 146.1341 -0.0256 0.9073 0.4261
# 4 -0.1403 -0.0893 -0.0256 21.4834 -4.5038 0.0207
# 5 -0.1096 0.4822 0.9073 -4.5038 16.3642 -0.0190
# 6 2.4692 20.6143 0.4261 0.0207 -0.0190 29.9359
#
#
#
# Elastic Compliance Matrix: (Units=1/GPa)
#
#
# Indices 1 2 3 4 5 6 
#
# 1 0.014128 -0.002784 -0.002799 0.000155 0.000375 0.000791
# 2 -0.002784 0.012953 -0.004198 0.000002 -0.000177 -0.008631
# 3 -0.002799 -0.004198 0.009219 -0.000119 -0.000435 0.002991
# 4 0.000155 0.000002 -0.000119 0.049400 0.013604 -0.000038
# 5 0.000375 -0.000177 -0.000435 0.013604 0.064885 0.000129
# 6 0.000791 -0.008631 0.002991 -0.000038 0.000129 0.039240
#
#
# Mechanical properties :
#
#
# Convention : Reuss Voigt Hill
#
# Bulk Modulus (GPa) = 59.74168 67.29530 63.51849
# Shear Modulus (GPa) = 23.25933 28.11012 25.68472
#
# Velocity S-wave (km/s) = 3.41019 3.74896 3.58358
# Velocity P-wave (km/s) = 6.73616 7.23785 6.99151
#
# Compressibility (1/GPa) = 0.01673873
#
# Stress axis : x y z
#
# Youngs Moduli (GPa) = 70.78127 77.19928 108.47187
#
# Poissons Ratio (x) = 0.21489 0.30360
# Poissons Ratio (y) = 0.19703 0.45541
# Poissons Ratio (z) = 0.19811 0.32411
#
# Static dielectric constant tensor:
#      x y z
#    x 3.651330 0.166350 -0.000120 
#    y 0.166350 3.926910 -0.001180 
#    z -0.000120 -0.001180 3.593290 
# 
# 
# High freq. dielectric constant tensor:
#      x y z
#    x 1.784560 0.002250 0.000000 
#    y 0.002250 1.778170 -0.000050 
#    z 0.000000 -0.000050 1.783580 
# 
# From -- ./inp_files/201063.got.cif
#   From: 2010.06.25/outbox.cif.g09.slc.cpg/sg2_101_cif.got.tgz:201063.got - 2010.06.27 13:26:56.
