data_PCOD8026926
_publ_section_title
;
Structure prediction by ZEFSAII (Michael W. Deem and Ramdas Pophale) SiO2 
 PCOD8026926
Probable space group: P -1
;
_chemical_formula_sum "Si O2"
_cell_formula_units_Z 12
_cell_length_a 4.911954
_cell_length_b 10.331740
_cell_length_c 10.565372
_cell_angle_alpha 75.674062
_cell_angle_beta 97.527440
_cell_angle_gamma 76.866140
_cell_volume 495.860127
_symmetry_space_group_name_H-M "P -1"
_symmetry_group_IT_number 2
_symmetry_cell_setting 'triclinic'
loop_
_space_group_symop_operation_xyz
x,y,z
-x,-y,-z
loop_
_atom_site_type_symbol
_atom_site_label
_atom_site_fract_x
_atom_site_fract_y
_atom_site_fract_z
Si Si1 0.803362 0.525982 0.816122
Si Si2 0.090231 0.211315 0.643907
Si Si3 0.013746 0.220330 0.342500
Si Si4 0.472471 0.907933 0.749476
Si Si5 0.666013 0.690523 0.006223
Si Si6 0.552808 0.328876 0.741532
O O1 0.968248 0.631444 0.744538
O O2 0.589636 0.486938 0.708067
O O3 0.025457 0.377388 0.896878
O O4 0.624724 0.586901 0.916169
O O5 0.999426 0.220275 0.491810
O O6 0.251519 0.328810 0.659287
O O7 0.807986 0.225854 0.705527
O O8 0.306748 0.064935 0.728319
O O9 0.291763 0.100223 0.343743
O O10 0.731403 0.187020 0.281848
O O11 0.637191 0.840885 0.903973
O O12 0.433694 0.713711 0.098363
#
# Coordination Sequence:
#
# PCOD8026926 Si02
#       6
#     2   2   2   2   2   2
#     4  10  24  44  70  99 129 170 224 271 322 385
#     4  12  26  45  65  98 139 172 215 264 331 395
#     4  11  25  44  72  96 126 177 223 272 315 381
#     4  11  25  44  72  96 126 177 223 272 315 381
#     4  10  24  43  71  96 130 171 223 272 319 386
#     4  12  25  43  66 100 137 174 205 274 334 389
#
# _framework density 24.200375999999999
#
# number of rings (size 3 to 8) (size 9 to 14) (size 15 to 20)
#    0.000    1.000    1.667    3.500   11.667    2.667 
#    0.000    0.000    0.000    0.000    0.000    0.000 
#    0.000    0.000    0.000    0.000    0.000    0.000 
#
# Total GULP energy -148756.006965 kJ/mol
# GULP energy per Si atom -12396.333914 kJ/mol
# Density = 2.414529 g / cm^3
# Si number density = 24.200376 Si / 1000 Ang^3
#
#
#
# Elastic Constant Matrix: (Units=GPa)
#
#
# Indices 1 2 3 4 5 6 
#
# 1 102.3179 0.6038 43.0249 15.4764 -20.7998 -16.8697
# 2 0.6038 18.5076 17.8519 4.3796 -13.6185 -1.0886
# 3 43.0249 17.8519 75.3984 1.0521 -46.8098 -31.3184
# 4 15.4764 4.3796 1.0521 32.2140 -14.4703 -3.5288
# 5 -20.7998 -13.6185 -46.8098 -14.4703 35.8114 13.4101
# 6 -16.8697 -1.0886 -31.3184 -3.5288 13.4101 34.7196
#
#
#
# Elastic Compliance Matrix: (Units=1/GPa)
#
#
# Indices 1 2 3 4 5 6 
#
# 1 0.005830 0.000160 0.030415 0.017991 0.044954 0.014739
# 2 0.000160 0.076677 0.025448 0.020448 0.070701 0.000208
# 3 0.030415 0.025448 -0.147720 -0.103120 -0.186380 -0.056166
# 4 0.017991 0.020448 -0.103120 -0.032801 -0.113695 -0.043056
# 5 0.044954 0.070701 -0.186380 -0.113695 -0.175792 -0.087720
# 6 0.014739 0.000208 -0.056166 -0.043056 -0.087720 0.014811
#
#
# Mechanical properties :
#
#
# Convention : Reuss Voigt Hill
#
# Bulk Modulus (GPa) = 21.35138 35.46500 28.40819
# Shear Modulus (GPa) = -14.06743 29.53190 7.73223
#
# Velocity S-wave (km/s) = -2.41361 3.49708 1.78942
# Velocity P-wave (km/s) = 1.03660 5.56710 4.00420
#
# Compressibility (1/GPa) = 0.04683538
#
# Stress axis : x y z
#
# Youngs Moduli (GPa) = 171.52326 13.04166 -6.76957
#
# Poissons Ratio (x) = -0.00209 0.20590
# Poissons Ratio (y) = -0.02749 0.17227
# Poissons Ratio (z) = -5.21693 -0.33189
#
# Static dielectric constant tensor:
#      x y z
#    x 4.433620 -0.062790 -0.115770 
#    y -0.062790 4.387910 0.199520 
#    z -0.115770 0.199520 4.358270 
# 
# 
# High freq. dielectric constant tensor:
#      x y z
#    x 1.974200 -0.005480 -0.009570 
#    y -0.005480 1.953500 0.016530 
#    z -0.009570 0.016530 1.955990 
# 
# From -- ./inp_files/131515.got.cif
#   From: 2010.06.25/outbox.cif.g09.slc.cpg/sg2_66_cif.got.tgz:131515.got - 2010.06.27 13:26:56.
