data_PCOD8026130
_publ_section_title
;
Structure prediction by ZEFSAII (Michael W. Deem and Ramdas Pophale) SiO2 
 PCOD8026130
Probable space group: P -1
;
_chemical_formula_sum "Si O2"
_cell_formula_units_Z 14
_cell_length_a 11.356668
_cell_length_b 18.794402
_cell_length_c 12.269086
_cell_angle_alpha 29.154266
_cell_angle_beta 124.399449
_cell_angle_gamma 141.131503
_cell_volume 741.785455
_symmetry_space_group_name_H-M "P -1"
_symmetry_group_IT_number 2
_symmetry_cell_setting 'triclinic'
loop_
_space_group_symop_operation_xyz
x,y,z
-x,-y,-z
loop_
_atom_site_type_symbol
_atom_site_label
_atom_site_fract_x
_atom_site_fract_y
_atom_site_fract_z
Si Si1 0.151085 0.769032 0.498483
Si Si2 0.490206 0.149361 0.738632
Si Si3 0.966631 0.135192 0.098909
Si Si4 0.909300 0.575848 0.410083
Si Si5 0.117045 0.923947 0.480289
Si Si6 0.437043 0.012612 0.661050
Si Si7 0.989498 0.351450 0.026106
O O1 0.091118 0.853543 0.436613
O O2 0.387004 0.958311 0.337407
O O3 0.008891 0.675583 0.445103
O O4 0.126932 0.594725 0.778839
O O5 0.274709 0.066274 0.763304
O O6 0.670011 0.382255 0.565435
O O7 0.527070 0.165174 0.606978
O O8 0.500000 0.000000 0.000000
O O9 0.073220 0.061946 0.282194
O O10 0.028458 0.297347 0.005511
O O11 0.048421 0.250626 0.871749
O O12 0.000000 0.500000 0.500000
O O13 0.961984 0.720801 0.749778
O O14 0.346934 0.061592 0.459217
O O15 0.249718 0.775953 0.922404
#
# Coordination Sequence:
#
# PCOD8026130 Si02
#       7
#     2   2   2   2   2   2   2
#     4  12  20  40  60  86 118 148 196 239 275 350
#     4  11  19  36  61  88 109 150 199 239 273 337
#     4  11  21  41  58  86 122 144 194 243 280 342
#     4  12  21  36  62  87 109 154 198 232 282 333
#     4  10  24  38  57  89 121 152 180 238 305 330
#     4   9  20  35  59  85 113 150 192 229 289 334
#     4   9  20  36  61  81 114 149 195 226 280 343
#
# _framework density 18.873381999999999
#
# number of rings (size 3 to 8) (size 9 to 14) (size 15 to 20)
#    0.857    0.571    4.286    2.143    0.000    0.571 
#    2.571    2.143    0.000    0.000    0.000    0.000 
#    0.000    0.000    0.000    0.000    0.000    0.000 
#
# Total GULP energy -173558.413220 kJ/mol
# GULP energy per Si atom -12397.029516 kJ/mol
# Density = 1.883043 g / cm^3
# Si number density = 18.873382 Si / 1000 Ang^3
#
#
#
# Elastic Constant Matrix: (Units=GPa)
#
#
# Indices 1 2 3 4 5 6 
#
# 1 61.5812 30.5965 23.7546 -5.8474 -5.6748 -1.2067
# 2 30.5965 94.9306 12.0030 10.5782 -7.9745 -7.5500
# 3 23.7546 12.0030 72.4474 8.6789 -10.1125 -5.0575
# 4 -5.8474 10.5782 8.6789 28.6274 0.2660 -6.0661
# 5 -5.6748 -7.9745 -10.1125 0.2660 21.9494 2.2701
# 6 -1.2067 -7.5500 -5.0575 -6.0661 2.2701 22.8305
#
#
#
# Elastic Compliance Matrix: (Units=1/GPa)
#
#
# Indices 1 2 3 4 5 6 
#
# 1 0.024191 -0.007997 -0.007910 0.010221 -0.000381 -0.000365
# 2 -0.007997 0.014165 0.001798 -0.006929 0.003738 0.002447
# 3 -0.007910 0.001798 0.018061 -0.007501 0.006864 0.001502
# 4 0.010221 -0.006929 -0.007501 0.043737 -0.004759 0.008681
# 5 -0.000381 0.003738 0.006864 -0.004759 0.050405 -0.003540
# 6 -0.000365 0.002447 0.001502 0.008681 -0.003540 0.047582
#
#
# Mechanical properties :
#
#
# Convention : Reuss Voigt Hill
#
# Bulk Modulus (GPa) = 35.46302 40.18529 37.82415
# Shear Modulus (GPa) = 21.20809 25.52181 23.36495
#
# Velocity S-wave (km/s) = 3.35581 3.68130 3.52232
# Velocity P-wave (km/s) = 5.81773 6.27755 6.05201
#
# Compressibility (1/GPa) = 0.02819839
#
# Stress axis : x y z
#
# Youngs Moduli (GPa) = 41.33698 70.59772 55.36942
#
# Poissons Ratio (x) = 0.56455 0.43799
# Poissons Ratio (y) = 0.33056 -0.09955
# Poissons Ratio (z) = 0.32699 -0.12692
#
# Static dielectric constant tensor:
#      x y z
#    x 3.253770 0.035210 -0.309740 
#    y 0.035210 3.547600 0.059710 
#    z -0.309740 0.059710 3.446170 
# 
# 
# High freq. dielectric constant tensor:
#      x y z
#    x 1.709960 -0.003280 -0.025080 
#    y -0.003280 1.739970 0.010750 
#    z -0.025080 0.010750 1.721070 
# 
# From -- ./inp_files/429081.got.cif
#   From: 2010.06.25/outbox.cif.g09.slc.cpg/sg2_215_cif.got.tgz:429081.got - 2010.06.27 13:26:56.
