data_PCOD8026139
_publ_section_title
;
Structure prediction by ZEFSAII (Michael W. Deem and Ramdas Pophale) SiO2 
 PCOD8026139
Probable space group: P -1
;
_chemical_formula_sum "Si O2"
_cell_formula_units_Z 12
_cell_length_a 23.584169
_cell_length_b 22.985703
_cell_length_c 23.063549
_cell_angle_alpha 13.225088
_cell_angle_beta 12.576297
_cell_angle_gamma 12.604430
_cell_volume 532.932818
_symmetry_space_group_name_H-M "P -1"
_symmetry_group_IT_number 2
_symmetry_cell_setting 'triclinic'
loop_
_space_group_symop_operation_xyz
x,y,z
-x,-y,-z
loop_
_atom_site_type_symbol
_atom_site_label
_atom_site_fract_x
_atom_site_fract_y
_atom_site_fract_z
Si Si1 0.830604 0.346699 0.345375
Si Si2 0.814581 0.568824 0.269989
Si Si3 0.098264 0.915389 0.918466
Si Si4 0.370473 0.165469 0.170137
Si Si5 0.777499 0.336864 0.645095
Si Si6 0.785357 0.548302 0.555520
O O1 0.500000 0.500000 0.500000
O O2 0.813221 0.387536 0.392037
O O3 0.000000 0.000000 0.500000
O O4 0.000000 0.500000 0.000000
O O5 0.636789 0.534572 0.535444
O O6 0.161105 0.451291 0.059863
O O7 0.608442 0.921910 0.122862
O O8 0.979138 0.706006 0.217193
O O9 0.463445 0.735890 0.726885
O O10 0.000000 0.000000 0.000000
O O11 0.967793 0.212691 0.722562
O O12 0.136123 0.101021 0.502616
O O13 0.569108 0.191470 0.998630
O O14 0.730656 0.539133 0.550841
#
# Coordination Sequence:
#
# PCOD8026139 Si02
#       6
#     2   2   2   2   2   2
#     4  12  28  46  73 101 138 181 236 283 341 414
#     4  10  26  42  69  94 138 171 226 279 349 398
#     4  12  26  47  71 103 142 187 230 283 340 403
#     4  10  24  38  67  90 136 167 224 266 360 396
#     4  10  26  40  68  97 135 173 225 280 349 396
#     4  12  26  43  74 100 141 179 238 283 340 413
#
# _framework density 22.516908999999998
#
# number of rings (size 3 to 8) (size 9 to 14) (size 15 to 20)
#    1.000    0.000    0.000    5.000   11.667    0.000 
#    0.000    0.000    0.000    0.000    0.000    0.000 
#    0.000    0.000    0.000    0.000    0.000    0.000 
#
# Total GULP energy -148661.808398 kJ/mol
# GULP energy per Si atom -12388.484033 kJ/mol
# Density = 2.246566 g / cm^3
# Si number density = 22.516909 Si / 1000 Ang^3
#
#
#
# Elastic Constant Matrix: (Units=GPa)
#
#
# Indices 1 2 3 4 5 6 
#
# 1 138.1784 17.8351 19.6168 -7.7520 -13.0389 13.3129
# 2 17.8351 159.2471 51.3658 0.3252 -14.0195 1.2061
# 3 19.6168 51.3658 124.3736 2.3950 -20.2613 -13.0631
# 4 -7.7520 0.3252 2.3950 38.2729 -4.7225 -6.1069
# 5 -13.0389 -14.0195 -20.2613 -4.7225 40.5881 -2.6175
# 6 13.3129 1.2061 -13.0631 -6.1069 -2.6175 32.5119
#
#
#
# Elastic Compliance Matrix: (Units=1/GPa)
#
#
# Indices 1 2 3 4 5 6 
#
# 1 0.008023 -0.000325 -0.001217 0.001391 0.001803 -0.003356
# 2 -0.000325 0.007364 -0.002983 -0.000039 0.000863 -0.001276
# 3 -0.001217 -0.002983 0.010724 0.000498 0.004336 0.005360
# 4 0.001391 -0.000039 0.000498 0.027729 0.004243 0.005182
# 5 0.001803 0.000863 0.004336 0.004243 0.028435 0.004058
# 6 -0.003356 -0.001276 0.005360 0.005182 0.004058 0.035633
#
#
# Mechanical properties :
#
#
# Convention : Reuss Voigt Hill
#
# Bulk Modulus (GPa) = 58.60869 66.60384 62.60626
# Shear Modulus (GPa) = 37.69480 44.47333 41.08406
#
# Velocity S-wave (km/s) = 4.09597 4.44904 4.27615
# Velocity P-wave (km/s) = 6.96093 7.48570 7.22808
#
# Compressibility (1/GPa) = 0.01706232
#
# Stress axis : x y z
#
# Youngs Moduli (GPa) = 124.63859 135.80056 93.25086
#
# Poissons Ratio (x) = 0.04410 0.11347
# Poissons Ratio (y) = 0.04048 0.27813
# Poissons Ratio (z) = 0.15166 0.40504
#
# Static dielectric constant tensor:
#      x y z
#    x 4.068410 0.006350 -0.065490 
#    y 0.006350 4.222210 0.008160 
#    z -0.065490 0.008160 4.310590 
# 
# 
# High freq. dielectric constant tensor:
#      x y z
#    x 1.892570 0.003660 -0.012310 
#    y 0.003660 1.904150 0.015260 
#    z -0.012310 0.015260 1.883530 
# 
# From -- ./inp_files/11785.got.cif
#   From: 2010.06.25/outbox.cif.g09.slc.cpg/sg2_6_cif.got.tgz:11785.got - 2010.06.27 13:26:56.
