data_PCOD8026755
_publ_section_title
;
Structure prediction by ZEFSAII (Michael W. Deem and Ramdas Pophale) SiO2 
 PCOD8026755
Probable space group: P -1
;
_chemical_formula_sum "Si O2"
_cell_formula_units_Z 16
_cell_length_a 9.053615
_cell_length_b 11.231455
_cell_length_c 7.832402
_cell_angle_alpha 100.627935
_cell_angle_beta 68.611265
_cell_angle_gamma 79.695899
_cell_volume 702.009373
_symmetry_space_group_name_H-M "P -1"
_symmetry_group_IT_number 2
_symmetry_cell_setting 'triclinic'
loop_
_space_group_symop_operation_xyz
x,y,z
-x,-y,-z
loop_
_atom_site_type_symbol
_atom_site_label
_atom_site_fract_x
_atom_site_fract_y
_atom_site_fract_z
Si Si1 0.968999 0.383588 0.672160
Si Si2 0.839508 0.672700 0.855228
Si Si3 0.731027 0.275692 0.544991
Si Si4 0.492760 0.361071 0.969420
Si Si5 0.712698 0.803006 0.605167
Si Si6 0.862865 0.991731 0.423309
Si Si7 0.945211 0.224078 0.948336
Si Si8 0.393394 0.738565 0.746236
O O1 0.934550 0.533442 0.707567
O O2 0.886654 0.331508 0.529365
O O3 0.890068 0.337289 0.862296
O O4 0.165047 0.315685 0.578684
O O5 0.682708 0.655603 0.023391
O O6 0.768377 0.778185 0.771011
O O7 0.962018 0.724575 0.929331
O O8 0.632258 0.341509 0.434228
O O9 0.781700 0.130485 0.423872
O O10 0.627312 0.279248 0.762797
O O11 0.509297 0.341006 0.160161
O O12 0.500000 0.500000 0.000000
O O13 0.733687 0.935009 0.564421
O O14 0.518266 0.820250 0.659684
O O15 0.939208 0.903337 0.209892
O O16 0.000000 0.000000 0.500000
O O17 0.785199 0.189068 0.082956
#
# Coordination Sequence:
#
# PCOD8026755 Si02
#       8
#     2   2   2   2   2   2   2   2
#     4  11  21  44  70  98 139 185 224 286 346 410
#     4  11  23  42  68 102 139 177 234 282 347 413
#     4  12  24  44  75  97 143 182 230 279 353 399
#     4  11  23  47  67 104 146 179 225 290 340 409
#     4  10  24  43  67 102 135 178 233 285 341 408
#     4  11  23  47  72  92 137 185 232 283 340 416
#     4  11  23  43  68 101 139 183 230 278 353 406
#     4  11  25  44  67 108 136 179 236 277 350 405
#
# _framework density 22.791717999999999
#
# number of rings (size 3 to 8) (size 9 to 14) (size 15 to 20)
#    0.000    1.000    5.000    1.500    3.500    1.500 
#    2.250    3.125    0.000    0.000    0.000    0.000 
#    0.000    0.000    0.000    0.000    0.000    0.000 
#
# Total GULP energy -198261.579366 kJ/mol
# GULP energy per Si atom -12391.348710 kJ/mol
# Density = 2.273984 g / cm^3
# Si number density = 22.791718 Si / 1000 Ang^3
#
#
#
# Elastic Constant Matrix: (Units=GPa)
#
#
# Indices 1 2 3 4 5 6 
#
# 1 140.2900 37.4208 49.9171 -2.1751 -0.7183 31.2735
# 2 37.4208 91.3929 32.9791 16.6393 -3.5974 19.6777
# 3 49.9171 32.9791 100.3071 -2.1217 9.1930 17.3212
# 4 -2.1751 16.6393 -2.1217 35.2456 4.5217 -0.6581
# 5 -0.7183 -3.5974 9.1930 4.5217 46.8264 -11.4410
# 6 31.2735 19.6777 17.3212 -0.6581 -11.4410 32.2752
#
#
#
# Elastic Compliance Matrix: (Units=1/GPa)
#
#
# Indices 1 2 3 4 5 6 
#
# 1 0.010477 -0.001767 -0.003114 0.001328 -0.001417 -0.007878
# 2 -0.001767 0.015679 -0.003590 -0.007996 0.001279 -0.005630
# 3 -0.003114 -0.003590 0.013764 0.002799 -0.004176 -0.003604
# 4 0.001328 -0.007996 0.002799 0.032936 -0.003996 0.001341
# 5 -0.001417 0.001279 -0.004176 -0.003996 0.025521 0.011800
# 6 -0.007878 -0.005630 -0.003604 0.001341 0.011800 0.048194
#
#
# Mechanical properties :
#
#
# Convention : Reuss Voigt Hill
#
# Bulk Modulus (GPa) = 43.52133 63.62488 53.57311
# Shear Modulus (GPa) = 29.21029 36.98097 33.09563
#
# Velocity S-wave (km/s) = 3.58385 4.03247 3.81476
# Velocity P-wave (km/s) = 6.02180 7.04681 6.55437
#
# Compressibility (1/GPa) = 0.02297724
#
# Stress axis : x y z
#
# Youngs Moduli (GPa) = 95.44496 63.77902 72.65461
#
# Poissons Ratio (x) = 0.11272 0.22628
# Poissons Ratio (y) = 0.16869 0.26080
# Poissons Ratio (z) = 0.29726 0.22894
#
# Static dielectric constant tensor:
#      x y z
#    x 4.272550 -0.035660 0.141080 
#    y -0.035660 5.794830 -0.633080 
#    z 0.141080 -0.633080 3.577830 
# 
# 
# High freq. dielectric constant tensor:
#      x y z
#    x 1.913070 0.010490 -0.003170 
#    y 0.010490 1.883250 -0.025340 
#    z -0.003170 -0.025340 1.905050 
# 
# From -- ./inp_files/189181.got.cif
#   From: 2010.06.25/outbox.cif.g09.slc.cpg/sg2_95_cif.got.tgz:189181.got - 2010.06.27 13:26:56.
