data_PCOD8026167
_publ_section_title
;
Structure prediction by ZEFSAII (Michael W. Deem and Ramdas Pophale) SiO2 
 PCOD8026167
Probable space group: P -1
;
_chemical_formula_sum "Si O2"
_cell_formula_units_Z 14
_cell_length_a 23.668151
_cell_length_b 9.182468
_cell_length_c 8.254994
_cell_angle_alpha 114.440958
_cell_angle_beta 139.707163
_cell_angle_gamma 36.865705
_cell_volume 600.208849
_symmetry_space_group_name_H-M "P -1"
_symmetry_group_IT_number 2
_symmetry_cell_setting 'triclinic'
loop_
_space_group_symop_operation_xyz
x,y,z
-x,-y,-z
loop_
_atom_site_type_symbol
_atom_site_label
_atom_site_fract_x
_atom_site_fract_y
_atom_site_fract_z
Si Si1 0.198818 0.310883 0.345206
Si Si2 0.419394 0.804248 0.124764
Si Si3 0.716048 0.287764 0.357646
Si Si4 0.485679 0.910956 0.586676
Si Si5 0.984954 0.056945 0.307340
Si Si6 0.122050 0.088714 0.159078
Si Si7 0.229853 0.362105 0.805573
O O1 0.208971 0.101581 0.260945
O O2 0.181543 0.396117 0.532105
O O3 0.345990 0.166961 0.516723
O O4 0.053649 0.590746 0.053766
O O5 0.575907 0.601325 0.270519
O O6 0.457917 0.777157 0.386344
O O7 0.360496 0.711484 0.944611
O O8 0.285533 0.121119 0.910275
O O9 0.794384 0.055320 0.553874
O O10 0.846786 0.204247 0.528628
O O11 0.500000 0.000000 0.500000
O O12 0.637002 0.701760 0.931381
O O13 0.911237 0.346013 0.267170
O O14 0.000000 0.000000 0.500000
O O15 0.874057 0.089443 0.002678
#
# Coordination Sequence:
#
# PCOD8026167 Si02
#       7
#     2   2   2   2   2   2   2
#     4  11  24  44  72 100 141 180 230 281 340 413
#     4  10  24  46  70 104 129 184 231 277 351 402
#     4  11  25  45  72  97 146 177 228 287 337 410
#     4  10  24  39  70 101 135 174 232 277 338 406
#     4  12  27  42  69 106 140 175 229 286 342 401
#     4  11  25  45  67 101 140 185 226 278 351 395
#     4  11  23  46  70 104 132 182 226 281 345 408
#
# _framework density 23.325213000000002
#
# number of rings (size 3 to 8) (size 9 to 14) (size 15 to 20)
#    0.000    1.143    2.857    1.714   10.000    1.714 
#    0.000    1.429    0.000    0.000    0.000    0.000 
#    0.000    0.000    0.000    0.000    0.000    0.000 
#
# Total GULP energy -173544.264889 kJ/mol
# GULP energy per Si atom -12396.018921 kJ/mol
# Density = 2.327212 g / cm^3
# Si number density = 23.325213 Si / 1000 Ang^3
#
#
#
# Elastic Constant Matrix: (Units=GPa)
#
#
# Indices 1 2 3 4 5 6 
#
# 1 57.8003 14.8933 2.7541 -4.4793 16.6974 -3.3236
# 2 14.8933 99.3808 14.1835 8.0992 3.3145 -5.8233
# 3 2.7541 14.1835 87.7610 12.3692 7.3582 -0.9520
# 4 -4.4793 8.0992 12.3692 49.8311 -0.4563 -0.8270
# 5 16.6974 3.3145 7.3582 -0.4563 27.3657 -4.6856
# 6 -3.3236 -5.8233 -0.9520 -0.8270 -4.6856 26.4412
#
#
#
# Elastic Compliance Matrix: (Units=1/GPa)
#
#
# Indices 1 2 3 4 5 6 
#
# 1 0.022069 -0.003144 0.000611 0.002219 -0.013242 -0.000174
# 2 -0.003144 0.010967 -0.001532 -0.001637 0.001343 0.002152
# 3 0.000611 -0.001532 0.012316 -0.002796 -0.003640 -0.000550
# 4 0.002219 -0.001637 -0.002796 0.021236 0.000034 0.000488
# 5 -0.013242 0.001343 -0.003640 0.000034 0.046595 0.006758
# 6 -0.000174 0.002152 -0.000550 0.000488 0.006758 0.039465
#
#
# Mechanical properties :
#
#
# Convention : Reuss Voigt Hill
#
# Bulk Modulus (GPa) = 26.86573 34.28932 30.57753
# Shear Modulus (GPa) = 28.87070 34.93500 31.90285
#
# Velocity S-wave (km/s) = 3.52198 3.87426 3.70231
# Velocity P-wave (km/s) = 5.29925 5.89454 5.60480
#
# Compressibility (1/GPa) = 0.03722214
#
# Stress axis : x y z
#
# Youngs Moduli (GPa) = 45.31199 91.18411 81.19334
#
# Poissons Ratio (x) = 0.28667 -0.04962
# Poissons Ratio (y) = 0.14246 0.12442
# Poissons Ratio (z) = -0.02769 0.13973
#
# Static dielectric constant tensor:
#      x y z
#    x 3.827680 -0.142850 0.157750 
#    y -0.142850 4.793930 0.282450 
#    z 0.157750 0.282450 4.828200 
# 
# 
# High freq. dielectric constant tensor:
#      x y z
#    x 1.888600 -0.002340 0.005120 
#    y -0.002340 1.933380 0.012120 
#    z 0.005120 0.012120 1.942700 
# 
# From -- ./inp_files/352318.got.cif
#   From: 2010.06.25/outbox.cif.g09.slc.cpg/sg2_177_cif.got.tgz:352318.got - 2010.06.27 13:26:56.
