data_PCOD8026092
_publ_section_title
;
Structure prediction by ZEFSAII (Michael W. Deem and Ramdas Pophale) SiO2 
 PCOD8026092
Probable space group: P -1
;
_chemical_formula_sum "Si O2"
_cell_formula_units_Z 12
_cell_length_a 4.787298
_cell_length_b 11.645499
_cell_length_c 7.545093
_cell_angle_alpha 75.452974
_cell_angle_beta 86.647721
_cell_angle_gamma 73.641166
_cell_volume 390.640261
_symmetry_space_group_name_H-M "P -1"
_symmetry_group_IT_number 2
_symmetry_cell_setting 'triclinic'
loop_
_space_group_symop_operation_xyz
x,y,z
-x,-y,-z
loop_
_atom_site_type_symbol
_atom_site_label
_atom_site_fract_x
_atom_site_fract_y
_atom_site_fract_z
Si Si1 0.244829 0.045834 0.367230
Si Si2 0.380201 0.655750 0.427372
Si Si3 0.179382 0.022176 0.799748
Si Si4 0.312587 0.464420 0.867365
Si Si5 0.574790 0.804291 0.088367
Si Si6 0.154973 0.322952 0.341330
O O1 0.607923 0.968012 0.388958
O O2 0.140712 0.000913 0.196129
O O3 0.183234 0.192654 0.296404
O O4 0.000000 0.000000 0.500000
O O5 0.534605 0.538448 0.336574
O O6 0.378805 0.780146 0.270430
O O7 0.044839 0.665750 0.478131
O O8 0.538317 0.661456 0.609323
O O9 0.162773 0.143705 0.866935
O O10 0.391364 0.896836 0.915634
O O11 0.281466 0.327232 0.962981
O O12 0.994589 0.563348 0.830862
O O13 0.500000 0.500000 0.000000
#
# Coordination Sequence:
#
# PCOD8026092 Si02
#       6
#     2   2   2   2   2   2
#     4  12  27  44  76 105 149 195 255 299 366 435
#     4  10  25  45  75 110 147 191 239 297 377 437
#     4  11  24  49  68 110 148 197 243 306 362 444
#     4  10  23  48  76 113 143 194 246 308 366 440
#     4   9  24  44  76 105 149 192 243 301 379 432
#     4  12  24  49  74 110 149 191 240 307 366 437
#
# _framework density 30.718799000000001
#
# number of rings (size 3 to 8) (size 9 to 14) (size 15 to 20)
#    1.000    0.333    0.000    4.500    0.000    8.000 
#    0.000    2.500    0.000    0.000    0.000    0.000 
#    0.000    0.000    0.000    0.000    0.000    0.000 
#
# Total GULP energy -148766.984722 kJ/mol
# GULP energy per Si atom -12397.248727 kJ/mol
# Density = 3.064888 g / cm^3
# Si number density = 30.718799 Si / 1000 Ang^3
#
#
#
# Elastic Constant Matrix: (Units=GPa)
#
#
# Indices 1 2 3 4 5 6 
#
# 1 171.7086 55.4706 29.9525 17.4022 35.1904 20.9177
# 2 55.4706 239.2311 36.8619 4.1250 34.2853 39.4778
# 3 29.9525 36.8619 76.3547 -6.3987 25.5924 22.1735
# 4 17.4022 4.1250 -6.3987 56.7248 -0.3277 4.1253
# 5 35.1904 34.2853 25.5924 -0.3277 60.8281 11.8114
# 6 20.9177 39.4778 22.1735 4.1253 11.8114 46.6860
#
#
#
# Elastic Compliance Matrix: (Units=1/GPa)
#
#
# Indices 1 2 3 4 5 6 
#
# 1 0.007298 -0.000859 -0.001363 -0.002279 -0.002995 -0.000937
# 2 -0.000859 0.005258 -0.000721 0.000034 -0.001515 -0.003338
# 3 -0.001363 -0.000721 0.017702 0.002887 -0.005039 -0.006167
# 4 -0.002279 0.000034 0.002887 0.018815 0.000613 -0.002196
# 5 -0.002995 -0.001515 -0.005039 0.000613 0.021229 -0.000409
# 6 -0.000937 -0.003338 -0.006167 -0.002196 -0.000409 0.027889
#
#
# Mechanical properties :
#
#
# Convention : Reuss Voigt Hill
#
# Bulk Modulus (GPa) = 41.03424 81.31825 61.17624
# Shear Modulus (GPa) = 44.56305 57.18176 50.87240
#
# Velocity S-wave (km/s) = 3.81291 4.31914 4.07390
# Velocity P-wave (km/s) = 5.72463 7.16956 6.48745
#
# Compressibility (1/GPa) = 0.02436989
#
# Stress axis : x y z
#
# Youngs Moduli (GPa) = 137.02328 190.19514 56.49186
#
# Poissons Ratio (x) = 0.16338 0.07702
# Poissons Ratio (y) = 0.11771 0.04075
# Poissons Ratio (z) = 0.18681 0.13720
#
# Static dielectric constant tensor:
#      x y z
#    x 12.379470 1.538590 7.480590 
#    y 1.538590 6.155530 1.806820 
#    z 7.480590 1.806820 16.161450 
# 
# 
# High freq. dielectric constant tensor:
#      x y z
#    x 2.270180 0.011510 -0.011060 
#    y 0.011510 2.277360 -0.001540 
#    z -0.011060 -0.001540 2.327090 
# 
# From -- ./inp_files/91857.got.cif
#   From: 2010.06.25/outbox.cif.g09.slc.cpg/sg2_46_cif.got.tgz:91857.got - 2010.06.27 13:26:56.
