data_PCOD8026737
_publ_section_title
;
Structure prediction by ZEFSAII (Michael W. Deem and Ramdas Pophale) SiO2 
 PCOD8026737
Probable space group: P -1
;
_chemical_formula_sum "Si O2"
_cell_formula_units_Z 16
_cell_length_a 11.532435
_cell_length_b 11.357166
_cell_length_c 14.340437
_cell_angle_alpha 126.417078
_cell_angle_beta 149.619761
_cell_angle_gamma 62.495697
_cell_volume 758.532624
_symmetry_space_group_name_H-M "P -1"
_symmetry_group_IT_number 2
_symmetry_cell_setting 'triclinic'
loop_
_space_group_symop_operation_xyz
x,y,z
-x,-y,-z
loop_
_atom_site_type_symbol
_atom_site_label
_atom_site_fract_x
_atom_site_fract_y
_atom_site_fract_z
Si Si1 0.854450 0.276309 0.467910
Si Si2 0.327097 0.401922 0.896408
Si Si3 0.739501 0.046935 0.139713
Si Si4 0.152903 0.892932 0.430109
Si Si5 0.373693 0.472075 0.496814
Si Si6 0.553595 0.137841 0.873453
Si Si7 0.806051 0.358474 0.805728
Si Si8 0.139091 0.658400 0.962870
O O1 0.811311 0.210301 0.304820
O O2 0.888828 0.152200 0.511947
O O3 0.652461 0.369192 0.402266
O O4 0.092107 0.378359 0.663958
O O5 0.427345 0.245830 0.906721
O O6 0.257760 0.503563 0.982565
O O7 0.500000 0.500000 0.000000
O O8 0.709685 0.049051 0.007822
O O9 0.926054 0.941676 0.248566
O O10 0.500000 0.000000 0.000000
O O11 0.195293 0.748062 0.334184
O O12 0.366308 0.024032 0.635132
O O13 0.500000 0.500000 0.500000
O O14 0.545227 0.399471 0.649737
O O15 0.127202 0.371276 0.268809
O O16 0.718385 0.226974 0.954068
O O17 0.850734 0.274933 0.894258
O O18 0.000000 0.500000 0.000000
#
# Coordination Sequence:
#
# PCOD8026737 Si02
#       8
#     2   2   2   2   2   2   2   2
#     4  11  21  41  67  97 130 167 216 274 321 382
#     4   9  19  41  64  91 134 167 203 272 324 377
#     4  12  25  38  68  99 127 176 216 261 332 384
#     4  12  25  43  65  95 135 168 221 270 319 389
#     4  11  22  43  68  96 130 163 225 275 314 381
#     4  11  24  44  63  97 137 169 217 269 326 388
#     4  12  25  42  71  94 126 176 217 265 326 382
#     4  10  24  43  66  96 133 173 213 271 326 382
#
# _framework density 21.093357000000001
#
# number of rings (size 3 to 8) (size 9 to 14) (size 15 to 20)
#    0.000    1.000    5.000    1.875    3.500    2.500 
#    0.000    3.125    0.000    0.000    0.000    0.000 
#    0.000    0.000    0.000    0.000    0.000    0.000 
#
# Total GULP energy -198245.628239 kJ/mol
# GULP energy per Si atom -12390.351765 kJ/mol
# Density = 2.104535 g / cm^3
# Si number density = 21.093357 Si / 1000 Ang^3
#
#
#
# Elastic Constant Matrix: (Units=GPa)
#
#
# Indices 1 2 3 4 5 6 
#
# 1 79.2797 23.0931 46.6889 -2.4122 14.0387 12.0907
# 2 23.0931 93.5325 50.5963 -12.1939 7.5669 -5.8343
# 3 46.6889 50.5963 122.9839 -6.2888 15.7886 7.8881
# 4 -2.4122 -12.1939 -6.2888 42.0711 1.8096 -0.4008
# 5 14.0387 7.5669 15.7886 1.8096 39.6801 -1.5463
# 6 12.0907 -5.8343 7.8881 -0.4008 -1.5463 32.3359
#
#
#
# Elastic Compliance Matrix: (Units=1/GPa)
#
#
# Indices 1 2 3 4 5 6 
#
# 1 0.017758 -0.001635 -0.005166 -0.000106 -0.004139 -0.005874
# 2 -0.001635 0.014880 -0.005629 0.003422 0.000008 0.004712
# 3 -0.005166 -0.005629 0.012858 0.000071 -0.002309 -0.002330
# 4 -0.000106 0.003422 0.000071 0.024849 -0.001743 0.000864
# 5 -0.004139 0.000008 -0.002309 -0.001743 0.027796 0.003420
# 6 -0.005874 0.004712 -0.002330 0.000864 0.003420 0.034715
#
#
# Mechanical properties :
#
#
# Convention : Reuss Voigt Hill
#
# Bulk Modulus (GPa) = 48.46244 59.61698 54.03971
# Shear Modulus (GPa) = 30.37791 34.51195 32.44493
#
# Velocity S-wave (km/s) = 3.79907 4.04933 3.92619
# Velocity P-wave (km/s) = 6.50146 7.08431 6.79913
#
# Compressibility (1/GPa) = 0.02063454
#
# Stress axis : x y z
#
# Youngs Moduli (GPa) = 56.31333 67.20595 77.77430
#
# Poissons Ratio (x) = 0.10989 0.40178
# Poissons Ratio (y) = 0.09208 0.43780
# Poissons Ratio (z) = 0.29092 0.37831
#
# Static dielectric constant tensor:
#      x y z
#    x 3.662550 -0.383680 0.057600 
#    y -0.383680 4.224380 -0.052200 
#    z 0.057600 -0.052200 4.066360 
# 
# 
# High freq. dielectric constant tensor:
#      x y z
#    x 1.817740 -0.013760 0.007110 
#    y -0.013760 1.818960 -0.000070 
#    z 0.007110 -0.000070 1.845590 
# 
# From -- ./inp_files/510685.got.cif
#   From: 2010.06.25/outbox.cif.g09.slc.cpg/sg2_256_cif.got.tgz:510685.got - 2010.06.27 13:26:56.
