data_PCOD8026017
_publ_section_title
;
Structure prediction by ZEFSAII (Michael W. Deem and Ramdas Pophale) SiO2 
 PCOD8026017
Probable space group: P -1
;
_chemical_formula_sum "Si O2"
_cell_formula_units_Z 16
_cell_length_a 8.638676
_cell_length_b 12.411738
_cell_length_c 13.878444
_cell_angle_alpha 93.943217
_cell_angle_beta 149.401804
_cell_angle_gamma 75.173510
_cell_volume 696.659130
_symmetry_space_group_name_H-M "P -1"
_symmetry_group_IT_number 2
_symmetry_cell_setting 'triclinic'
loop_
_space_group_symop_operation_xyz
x,y,z
-x,-y,-z
loop_
_atom_site_type_symbol
_atom_site_label
_atom_site_fract_x
_atom_site_fract_y
_atom_site_fract_z
Si Si1 0.829186 0.965827 0.315472
Si Si2 0.927503 0.429018 0.874297
Si Si3 0.720775 0.106512 0.629640
Si Si4 0.611720 0.752437 0.201246
Si Si5 0.170147 0.171289 0.003603
Si Si6 0.865568 0.872463 0.793481
Si Si7 0.838473 0.516447 0.192712
Si Si8 0.267026 0.404028 0.571965
O O1 0.796899 0.841461 0.305475
O O2 0.039584 0.958402 0.333208
O O3 0.475689 0.068603 0.111970
O O4 0.000000 0.000000 0.500000
O O5 0.558688 0.441254 0.696278
O O6 0.971061 0.489198 0.803934
O O7 0.000000 0.500000 0.000000
O O8 0.198983 0.296030 0.018326
O O9 0.360299 0.180236 0.393170
O O10 0.713884 0.009770 0.696282
O O11 0.844220 0.190064 0.765233
O O12 0.803148 0.637688 0.233435
O O13 0.590159 0.717720 0.299807
O O14 0.246327 0.811058 0.963945
O O15 0.159488 0.138134 0.106457
O O16 0.068156 0.401606 0.368636
O O17 0.500000 0.500000 0.000000
O O18 0.000000 0.500000 0.500000
#
# Coordination Sequence:
#
# PCOD8026017 Si02
#       8
#     2   2   2   2   2   2   2   2
#     4  12  26  45  70 107 149 190 240 294 365 440
#     4  12  26  47  73 102 142 191 240 305 365 429
#     4  11  25  45  71 104 146 195 236 289 364 439
#     4  11  24  47  72 103 148 187 237 306 357 437
#     4  12  25  45  72 105 144 187 240 299 359 440
#     4  11  24  44  72 104 146 186 241 292 363 432
#     4  11  26  47  74 107 141 190 248 301 364 434
#     4  10  23  47  72 102 136 187 239 301 362 423
#
# _framework density 22.966756
#
# number of rings (size 3 to 8) (size 9 to 14) (size 15 to 20)
#    0.000    0.750    3.750    3.375    1.750    4.000 
#    2.250    0.000    0.000    0.000    0.000    0.000 
#    0.000    0.000    0.000    0.000    0.000    0.000 
#
# Total GULP energy -198351.468513 kJ/mol
# GULP energy per Si atom -12396.966782 kJ/mol
# Density = 2.291448 g / cm^3
# Si number density = 22.966756 Si / 1000 Ang^3
#
#
#
# Elastic Constant Matrix: (Units=GPa)
#
#
# Indices 1 2 3 4 5 6 
#
# 1 121.0445 26.6168 42.4053 4.5344 -19.5651 19.4557
# 2 26.6168 112.3799 47.9557 19.0182 -12.7671 0.4781
# 3 42.4053 47.9557 163.4355 16.6924 -18.4467 11.2136
# 4 4.5344 19.0182 16.6924 33.8053 -1.0574 -0.7793
# 5 -19.5651 -12.7671 -18.4467 -1.0574 45.1962 5.4758
# 6 19.4557 0.4781 11.2136 -0.7793 5.4758 30.8210
#
#
#
# Elastic Compliance Matrix: (Units=1/GPa)
#
#
# Indices 1 2 3 4 5 6 
#
# 1 0.010984 -0.001444 -0.001407 0.000013 0.004648 -0.007225
# 2 -0.001444 0.011216 -0.002353 -0.004884 0.001318 0.001236
# 3 -0.001407 -0.002353 0.007817 -0.002334 0.002148 -0.002360
# 4 0.000013 -0.004884 -0.002334 0.033472 -0.001796 0.002082
# 5 0.004648 0.001318 0.002148 -0.001796 0.026371 -0.008467
# 6 -0.007225 0.001236 -0.002360 0.002082 -0.008467 0.039402
#
#
# Mechanical properties :
#
#
# Convention : Reuss Voigt Hill
#
# Bulk Modulus (GPa) = 51.00204 70.09062 60.54633
# Shear Modulus (GPa) = 34.19801 40.62332 37.41067
#
# Velocity S-wave (km/s) = 3.86297 4.21026 4.04035
# Velocity P-wave (km/s) = 6.49244 7.36339 6.94159
#
# Compressibility (1/GPa) = 0.01960706
#
# Stress axis : x y z
#
# Youngs Moduli (GPa) = 91.04079 89.15955 127.92617
#
# Poissons Ratio (x) = 0.12879 0.18000
# Poissons Ratio (y) = 0.13151 0.30106
# Poissons Ratio (z) = 0.12810 0.20983
#
# Static dielectric constant tensor:
#      x y z
#    x 4.311280 0.595600 -0.941080 
#    y 0.595600 -14.307700 27.034830 
#    z -0.941080 27.034830 -35.201800 
# 
# 
# High freq. dielectric constant tensor:
#      x y z
#    x 1.922770 0.000430 -0.007480 
#    y 0.000430 1.897720 -0.000460 
#    z -0.007480 -0.000460 1.925970 
# 
# From -- ./inp_files/500433.got.cif
#   From: 2010.06.25/outbox.cif.g09.slc.cpg/sg2_251_cif.got.tgz:500433.got - 2010.06.27 13:26:56.
