data_PCOD8026981
_publ_section_title
;
Structure prediction by ZEFSAII (Michael W. Deem and Ramdas Pophale) SiO2 
 PCOD8026981
Probable space group: P -1
;
_chemical_formula_sum "Si O2"
_cell_formula_units_Z 16
_cell_length_a 5.617872
_cell_length_b 17.217757
_cell_length_c 16.692629
_cell_angle_alpha 29.583541
_cell_angle_beta 60.799343
_cell_angle_gamma 59.221228
_cell_volume 681.349536
_symmetry_space_group_name_H-M "P -1"
_symmetry_group_IT_number 2
_symmetry_cell_setting 'triclinic'
loop_
_space_group_symop_operation_xyz
x,y,z
-x,-y,-z
loop_
_atom_site_type_symbol
_atom_site_label
_atom_site_fract_x
_atom_site_fract_y
_atom_site_fract_z
Si Si1 0.767136 0.859300 0.570154
Si Si2 0.694340 0.009706 0.069508
Si Si3 0.080971 0.858654 0.775680
Si Si4 0.060132 0.561582 0.521625
Si Si5 0.883613 0.348153 0.184221
Si Si6 0.509186 0.744805 0.246305
Si Si7 0.595480 0.712067 0.585564
Si Si8 0.534252 0.068394 0.216765
O O1 0.755958 0.711902 0.643870
O O2 0.851371 0.786517 0.709228
O O3 0.500000 0.000000 0.500000
O O4 0.985641 0.956269 0.409078
O O5 0.710563 0.037221 0.135574
O O6 0.599397 0.842022 0.219154
O O7 0.495094 0.153999 0.925298
O O8 0.000000 0.000000 0.000000
O O9 0.765467 0.823950 0.860274
O O10 0.251109 0.730576 0.798347
O O11 0.275732 0.839042 0.840836
O O12 0.206616 0.712963 0.349549
O O13 0.271605 0.419801 0.659193
O O14 0.000000 0.500000 0.500000
O O15 0.781496 0.610968 0.576480
O O16 0.666991 0.372564 0.273396
O O17 0.000000 0.500000 0.000000
O O18 0.499480 0.899871 0.411814
#
# Coordination Sequence:
#
# PCOD8026981 Si02
#       8
#     2   2   2   2   2   2   2   2
#     4  11  22  45  76  98 139 192 255 306 364 444
#     4  11  24  45  70 107 145 186 244 316 368 439
#     4  11  24  46  72 107 140 195 247 307 365 454
#     4  11  24  47  71 104 149 194 244 300 373 454
#     4  12  26  47  69 107 150 188 242 317 376 446
#     4  10  24  43  74 100 147 190 242 303 376 436
#     4  11  24  43  75 102 138 198 249 299 376 445
#     4  11  25  43  78 106 141 191 258 300 368 446
#
# _framework density 23.482807000000001
#
# number of rings (size 3 to 8) (size 9 to 14) (size 15 to 20)
#    0.000    1.000    2.500    4.125    7.000    2.500 
#    6.750    0.000    0.000    0.000    0.000    0.000 
#    0.000    0.000    0.000    0.000    0.000    0.000 
#
# Total GULP energy -198278.535564 kJ/mol
# GULP energy per Si atom -12392.408473 kJ/mol
# Density = 2.342936 g / cm^3
# Si number density = 23.482807 Si / 1000 Ang^3
#
#
#
# Elastic Constant Matrix: (Units=GPa)
#
#
# Indices 1 2 3 4 5 6 
#
# 1 149.0822 68.7418 34.3317 9.9994 -16.6784 14.4739
# 2 68.7418 149.4464 38.4578 19.5139 -13.4382 11.0414
# 3 34.3317 38.4578 95.7424 5.9623 -19.9432 7.9459
# 4 9.9994 19.5139 5.9623 31.9975 -2.9600 -0.0941
# 5 -16.6784 -13.4382 -19.9432 -2.9600 28.6579 4.1220
# 6 14.4739 11.0414 7.9459 -0.0941 4.1220 46.9223
#
#
#
# Elastic Compliance Matrix: (Units=1/GPa)
#
#
# Indices 1 2 3 4 5 6 
#
# 1 0.009120 -0.003450 -0.001013 -0.000261 0.003262 -0.002117
# 2 -0.003450 0.009502 -0.002100 -0.004265 0.000672 -0.000883
# 3 -0.001013 -0.002100 0.013543 -0.000179 0.008149 -0.002203
# 4 -0.000261 -0.004265 -0.000179 0.034072 0.001086 0.001088
# 5 0.003262 0.000672 0.008149 0.001086 0.043810 -0.006391
# 6 -0.002117 -0.000883 -0.002203 0.001088 -0.006391 0.023109
#
#
# Mechanical properties :
#
#
# Convention : Reuss Voigt Hill
#
# Bulk Modulus (GPa) = 52.52854 75.25930 63.89392
# Shear Modulus (GPa) = 32.75906 38.36485 35.56195
#
# Velocity S-wave (km/s) = 3.73905 4.04634 3.89573
# Velocity P-wave (km/s) = 6.40767 7.34498 6.89228
#
# Compressibility (1/GPa) = 0.01903727
#
# Stress axis : x y z
#
# Youngs Moduli (GPa) = 109.64939 105.24467 73.83962
#
# Poissons Ratio (x) = 0.36314 0.07478
# Poissons Ratio (y) = 0.37834 0.15509
# Poissons Ratio (z) = 0.11105 0.22105
#
# Static dielectric constant tensor:
#      x y z
#    x 4.528040 0.109780 0.099860 
#    y 0.109780 4.157530 0.268610 
#    z 0.099860 0.268610 4.493470 
# 
# 
# High freq. dielectric constant tensor:
#      x y z
#    x 1.946500 0.002620 -0.005050 
#    y 0.002620 1.920770 0.011870 
#    z -0.005050 0.011870 1.914100 
# 
# From -- ./inp_files/550403.got.cif
#   From: 2010.06.25/outbox.cif.g09.slc.cpg/sg2_276_cif.got.tgz:550403.got - 2010.06.27 13:26:56.
