data_PCOD8026108
_publ_section_title
;
Structure prediction by ZEFSAII (Michael W. Deem and Ramdas Pophale) SiO2 
 PCOD8026108
Probable space group: P -1
;
_chemical_formula_sum "Si O2"
_cell_formula_units_Z 16
_cell_length_a 18.008821
_cell_length_b 8.816732
_cell_length_c 17.752427
_cell_angle_alpha 150.736785
_cell_angle_beta 151.580951
_cell_angle_gamma 38.176418
_cell_volume 653.583434
_symmetry_space_group_name_H-M "P -1"
_symmetry_group_IT_number 2
_symmetry_cell_setting 'triclinic'
loop_
_space_group_symop_operation_xyz
x,y,z
-x,-y,-z
loop_
_atom_site_type_symbol
_atom_site_label
_atom_site_fract_x
_atom_site_fract_y
_atom_site_fract_z
Si Si1 0.713721 0.248371 0.793552
Si Si2 0.171926 0.365488 0.072721
Si Si3 0.175878 0.938997 0.600167
Si Si4 0.266787 0.793621 0.452972
Si Si5 0.189686 0.637265 0.914629
Si Si6 0.005060 0.803379 0.685780
Si Si7 0.499248 0.254007 0.827222
Si Si8 0.373207 0.393270 0.617407
O O1 0.767708 0.489092 0.885837
O O2 0.540167 0.377547 0.718791
O O3 0.719380 0.899645 0.616803
O O4 0.834637 0.252107 0.973214
O O5 0.282269 0.449090 0.279121
O O6 0.000000 0.500000 0.000000
O O7 0.156038 0.997626 0.884250
O O8 0.185187 0.786765 0.458927
O O9 0.275029 0.713070 0.647248
O O10 0.248675 0.271037 0.805193
O O11 0.000000 0.000000 0.500000
O O12 0.434184 0.939411 0.667104
O O13 0.158498 0.999380 0.386134
O O14 0.029094 0.705347 0.753038
O O15 0.325763 0.828825 0.082822
O O16 0.000000 0.500000 0.500000
O O17 0.389777 0.392544 0.721811
O O18 0.500000 0.500000 0.000000
#
# Coordination Sequence:
#
# PCOD8026108 Si02
#       8
#     2   2   2   2   2   2   2   2
#     4  10  23  49  72 105 144 190 247 299 367 441
#     4  10  24  43  72 104 140 188 242 302 364 434
#     4  12  28  44  68 107 148 192 244 298 367 440
#     4  11  24  47  69 102 144 193 244 299 368 436
#     4  11  26  42  68 108 140 191 244 299 366 433
#     4  11  23  45  68 102 144 189 238 298 367 428
#     4  11  21  44  71 102 140 182 246 298 355 436
#     4  10  25  47  75 100 149 197 235 304 370 429
#
# _framework density 24.480425
#
# number of rings (size 3 to 8) (size 9 to 14) (size 15 to 20)
#    0.000    1.250    3.750    0.000    7.000    4.000 
#    2.250    4.375    0.000    0.000    0.000    0.000 
#    0.000    0.000    0.000    0.000    0.000    0.000 
#
# Total GULP energy -198337.885631 kJ/mol
# GULP energy per Si atom -12396.117852 kJ/mol
# Density = 2.442471 g / cm^3
# Si number density = 24.480425 Si / 1000 Ang^3
#
#
#
# Elastic Constant Matrix: (Units=GPa)
#
#
# Indices 1 2 3 4 5 6 
#
# 1 151.0124 13.9205 61.1303 1.1016 -12.6662 20.1474
# 2 13.9205 96.4260 18.3041 -2.8987 -9.2700 16.7758
# 3 61.1303 18.3041 175.3512 27.1068 -22.2588 14.0854
# 4 1.1016 -2.8987 27.1068 38.0922 12.9576 -2.1036
# 5 -12.6662 -9.2700 -22.2588 12.9576 57.5931 -10.1071
# 6 20.1474 16.7758 14.0854 -2.1036 -10.1071 26.3800
#
#
#
# Elastic Compliance Matrix: (Units=1/GPa)
#
#
# Indices 1 2 3 4 5 6 
#
# 1 0.008383 0.000218 -0.002865 0.001704 -0.000501 -0.005068
# 2 0.000218 0.011779 -0.000895 0.001099 0.000114 -0.007048
# 3 -0.002865 -0.000895 0.008536 -0.007487 0.004062 -0.000841
# 4 0.001704 0.001099 -0.007487 0.035093 -0.010073 0.000937
# 5 -0.000501 0.000114 0.004062 -0.010073 0.022128 0.005816
# 6 -0.005068 -0.007048 -0.000841 0.000937 0.005816 0.049013
#
#
# Mechanical properties :
#
#
# Convention : Reuss Voigt Hill
#
# Bulk Modulus (GPa) = 46.26502 67.72217 56.99360
# Shear Modulus (GPa) = 33.50743 46.37536 39.94139
#
# Velocity S-wave (km/s) = 3.70367 4.35718 4.04365
# Velocity P-wave (km/s) = 6.10159 7.28266 6.71813
#
# Compressibility (1/GPa) = 0.02161460
#
# Stress axis : x y z
#
# Youngs Moduli (GPa) = 119.28356 84.89503 117.15434
#
# Poissons Ratio (x) = -0.01854 0.33568
# Poissons Ratio (y) = -0.02605 0.10485
# Poissons Ratio (z) = 0.34178 0.07598
#
# Static dielectric constant tensor:
#      x y z
#    x 4.246990 0.004180 -0.846420 
#    y 0.004180 4.302140 -0.697910 
#    z -0.846420 -0.697910 1.431480 
# 
# 
# High freq. dielectric constant tensor:
#      x y z
#    x 1.976830 0.012490 -0.000440 
#    y 0.012490 1.954970 0.003140 
#    z -0.000440 0.003140 2.000540 
# 
# From -- ./inp_files/575624.got.cif
#   From: 2010.06.25/outbox.cif.g09.slc.cpg/sg2_288_cif.got.tgz:575624.got - 2010.06.27 13:26:56.
