data_PCOD8026186
_publ_section_title
;
Structure prediction by ZEFSAII (Michael W. Deem and Ramdas Pophale) SiO2 
 PCOD8026186
Probable space group: P -1
;
_chemical_formula_sum "Si O2"
_cell_formula_units_Z 16
_cell_length_a 20.263865
_cell_length_b 8.999811
_cell_length_c 6.669133
_cell_angle_alpha 101.212407
_cell_angle_beta 58.541818
_cell_angle_gamma 133.565586
_cell_volume 724.396156
_symmetry_space_group_name_H-M "P -1"
_symmetry_group_IT_number 2
_symmetry_cell_setting 'triclinic'
loop_
_space_group_symop_operation_xyz
x,y,z
-x,-y,-z
loop_
_atom_site_type_symbol
_atom_site_label
_atom_site_fract_x
_atom_site_fract_y
_atom_site_fract_z
Si Si1 0.836844 0.271836 0.714601
Si Si2 0.742611 0.001002 0.423722
Si Si3 0.006496 0.270234 0.543041
Si Si4 0.596992 0.347484 0.471474
Si Si5 0.023346 0.018747 0.198495
Si Si6 0.649239 0.074149 0.265886
Si Si7 0.376769 0.371288 0.191665
Si Si8 0.739761 0.733798 0.062548
O O1 0.886142 0.506553 0.662922
O O2 0.915371 0.273864 0.723929
O O3 0.834207 0.190659 0.477490
O O4 0.721821 0.131347 0.972308
O O5 0.653851 0.801843 0.651853
O O6 0.782259 0.933845 0.180196
O O7 0.695782 0.081021 0.403487
O O8 0.962494 0.077002 0.414008
O O9 0.026325 0.210566 0.707307
O O10 0.644542 0.246881 0.344150
O O11 0.638558 0.483239 0.646242
O O12 0.638965 0.504264 0.258059
O O13 0.466828 0.165203 0.640864
O O14 0.150789 0.214733 0.109995
O O15 0.000000 0.000000 0.000000
O O16 0.500000 0.500000 0.000000
O O17 0.301965 0.261824 0.083755
#
# Coordination Sequence:
#
# PCOD8026186 Si02
#       8
#     2   2   2   2   2   2   2   2
#     4  11  23  42  63  89 126 165 204 261 313 364
#     4  11  22  37  63  90 120 163 209 250 306 372
#     4  10  24  41  63  92 121 160 214 256 310 377
#     4  10  24  40  62  94 126 163 207 250 311 381
#     4  11  23  42  65  92 125 163 207 263 314 365
#     4  11  23  41  61  91 129 163 204 256 310 374
#     4  11  22  40  64  91 125 167 209 256 307 366
#     4  11  23  41  65  93 126 165 209 258 311 373
#
# _framework density 22.087361000000001
#
# number of rings (size 3 to 8) (size 9 to 14) (size 15 to 20)
#    0.000    1.250    0.000    6.000    0.000    9.000 
#    0.000    6.250    0.000    0.000    0.000    0.000 
#    0.000    0.000    0.000    0.000    0.000    0.000 
#
# Total GULP energy -198353.062684 kJ/mol
# GULP energy per Si atom -12397.066418 kJ/mol
# Density = 2.203709 g / cm^3
# Si number density = 22.087361 Si / 1000 Ang^3
#
#
#
# Elastic Constant Matrix: (Units=GPa)
#
#
# Indices 1 2 3 4 5 6 
#
# 1 99.2808 32.5173 45.3310 -7.0280 15.1305 -8.0593
# 2 32.5173 99.8874 38.4656 -8.6365 6.6927 -17.6300
# 3 45.3310 38.4656 111.9831 -7.8413 12.7561 -5.7280
# 4 -7.0280 -8.6365 -7.8413 40.2931 5.2364 1.9369
# 5 15.1305 6.6927 12.7561 5.2364 43.6617 -2.4874
# 6 -8.0593 -17.6300 -5.7280 1.9369 -2.4874 33.1874
#
#
#
# Elastic Compliance Matrix: (Units=1/GPa)
#
#
# Indices 1 2 3 4 5 6 
#
# 1 0.013359 -0.002246 -0.004122 0.001413 -0.003192 0.001018
# 2 -0.002246 0.013131 -0.003179 0.001547 -0.000162 0.005779
# 3 -0.004122 -0.003179 0.011932 0.001190 -0.001760 -0.000832
# 4 0.001413 0.001547 0.001190 0.026202 -0.004244 -0.000477
# 5 -0.003192 -0.000162 -0.001760 -0.004244 0.025113 0.000965
# 6 0.001018 0.005779 -0.000832 -0.000477 0.000965 0.033406
#
#
# Mechanical properties :
#
#
# Convention : Reuss Voigt Hill
#
# Bulk Modulus (GPa) = 51.73605 60.41990 56.07797
# Shear Modulus (GPa) = 33.62945 36.41760 35.02352
#
# Velocity S-wave (km/s) = 3.90624 4.06494 3.98638
# Velocity P-wave (km/s) = 6.61960 7.03179 6.82881
#
# Compressibility (1/GPa) = 0.01932888
#
# Stress axis : x y z
#
# Youngs Moduli (GPa) = 74.85489 76.15410 83.81045
#
# Poissons Ratio (x) = 0.17104 0.34544
# Poissons Ratio (y) = 0.16813 0.26643
# Poissons Ratio (z) = 0.30853 0.24209
#
# Static dielectric constant tensor:
#      x y z
#    x 3.991270 -0.153710 0.018730 
#    y -0.153710 4.166060 -0.024390 
#    z 0.018730 -0.024390 4.165240 
# 
# 
# High freq. dielectric constant tensor:
#      x y z
#    x 1.863610 -0.016310 -0.000110 
#    y -0.016310 1.877500 -0.006610 
#    z -0.000110 -0.006610 1.882270 
# 
# From -- ./inp_files/38887.got.cif
#   From: 2010.06.25/outbox.cif.g09.slc.cpg/sg2_20_cif.got.tgz:38887.got - 2010.06.27 13:26:56.
