data_PCOD8026703
_publ_section_title
;
Structure prediction by ZEFSAII (Michael W. Deem and Ramdas Pophale) SiO2 
 PCOD8026703
Probable space group: P -1
;
_chemical_formula_sum "Si O2"
_cell_formula_units_Z 10
_cell_length_a 10.703597
_cell_length_b 5.305733
_cell_length_c 14.257545
_cell_angle_alpha 75.618269
_cell_angle_beta 148.733189
_cell_angle_gamma 115.531291
_cell_volume 366.548202
_symmetry_space_group_name_H-M "P -1"
_symmetry_group_IT_number 2
_symmetry_cell_setting 'triclinic'
loop_
_space_group_symop_operation_xyz
x,y,z
-x,-y,-z
loop_
_atom_site_type_symbol
_atom_site_label
_atom_site_fract_x
_atom_site_fract_y
_atom_site_fract_z
Si Si1 0.537731 0.181373 0.413632
Si Si2 0.236123 0.575279 0.214277
Si Si3 0.122477 0.797987 0.827739
Si Si4 0.367236 0.769342 0.806181
Si Si5 0.967365 0.187715 0.569925
O O1 0.409988 0.404793 0.316465
O O2 0.831840 0.338256 0.541406
O O3 0.500000 0.000000 0.500000
O O4 0.395733 0.918964 0.272322
O O5 0.112858 0.481390 0.249265
O O6 0.000000 0.500000 0.000000
O O7 0.307057 0.716837 0.884216
O O8 0.962817 0.920612 0.647965
O O9 0.312869 0.022952 0.009545
O O10 0.195918 0.911491 0.625349
O O11 0.269563 0.449724 0.725737
#
# Coordination Sequence:
#
# PCOD8026703 Si02
#       5
#     2   2   2   2   2
#     4  12  25  46  74 104 140 187 234 292 360 415
#     4  12  27  47  73 106 142 186 236 294 355 422
#     4  11  23  44  69  97 142 178 237 287 350 417
#     4  10  24  43  65 104 130 189 229 289 350 414
#     4  11  23  43  71  97 141 177 238 287 350 419
#
# _framework density 27.281542999999999
#
# number of rings (size 3 to 8) (size 9 to 14) (size 15 to 20)
#    0.000    0.800    2.000    4.800    2.800    0.000 
#   14.400    0.000    0.000    0.000    0.000    0.000 
#    0.000    0.000    0.000    0.000    0.000    0.000 
#
# Total GULP energy -123896.946974 kJ/mol
# GULP energy per Si atom -12389.694697 kJ/mol
# Density = 2.721945 g / cm^3
# Si number density = 27.281543 Si / 1000 Ang^3
#
#
#
# Elastic Constant Matrix: (Units=GPa)
#
#
# Indices 1 2 3 4 5 6 
#
# 1 42.5110 -18.7174 -4.9035 6.2996 -5.9427 -4.0475
# 2 -18.7174 73.3372 15.7596 20.5569 4.9258 2.5860
# 3 -4.9035 15.7596 110.2044 3.9584 -11.9169 3.3244
# 4 6.2996 20.5569 3.9584 46.3238 10.3984 -3.5584
# 5 -5.9427 4.9258 -11.9169 10.3984 39.6145 -4.6225
# 6 -4.0475 2.5860 3.3244 -3.5584 -4.6225 37.0351
#
#
#
# Elastic Compliance Matrix: (Units=1/GPa)
#
#
# Indices 1 2 3 4 5 6 
#
# 1 0.030577 0.009850 0.000939 -0.009887 0.006524 0.002434
# 2 0.009850 0.019326 -0.001821 -0.010070 0.001060 -0.000945
# 3 0.000939 -0.001821 0.009803 -0.000975 0.003537 -0.000302
# 4 -0.009887 -0.010070 -0.000975 0.029412 -0.008066 0.001529
# 5 0.006524 0.001060 0.003537 -0.008066 0.029650 0.003247
# 6 0.002434 -0.000945 -0.000302 0.001529 0.003247 0.027913
#
#
# Mechanical properties :
#
#
# Convention : Reuss Voigt Hill
#
# Bulk Modulus (GPa) = 12.87962 23.36997 18.12480
# Shear Modulus (GPa) = 32.33634 40.18895 36.26265
#
# Velocity S-wave (km/s) = 3.44653 3.84229 3.64978
# Velocity P-wave (km/s) = 4.53534 5.31686 4.94158
#
# Compressibility (1/GPa) = 0.07764205
#
# Stress axis : x y z
#
# Youngs Moduli (GPa) = 32.70408 51.74471 102.01223
#
# Poissons Ratio (x) = -0.50966 -0.09581
# Poissons Ratio (y) = -0.32212 0.18572
# Poissons Ratio (z) = -0.03072 0.09420
#
# Static dielectric constant tensor:
#      x y z
#    x 7.522740 4.369340 -0.162000 
#    y 4.369340 11.624710 0.443450 
#    z -0.162000 0.443450 5.217530 
# 
# 
# High freq. dielectric constant tensor:
#      x y z
#    x 2.093450 0.018640 -0.018480 
#    y 0.018640 2.102510 0.021050 
#    z -0.018480 0.021050 2.118180 
# 
# From -- ./inp_files/18052.got.cif
#   From: 2010.06.25/outbox.cif.g09.slc.cpg/sg2_10_cif.got.tgz:18052.got - 2010.06.27 13:26:56.
