data_PCOD8026343
_publ_section_title
;
Structure prediction by ZEFSAII (Michael W. Deem and Ramdas Pophale) SiO2 
 PCOD8026343
Probable space group: P -1
;
_chemical_formula_sum "Si O2"
_cell_formula_units_Z 16
_cell_length_a 11.709223
_cell_length_b 6.532318
_cell_length_c 11.057284
_cell_angle_alpha 111.140166
_cell_angle_beta 104.247026
_cell_angle_gamma 63.004132
_cell_volume 699.420233
_symmetry_space_group_name_H-M "P -1"
_symmetry_group_IT_number 2
_symmetry_cell_setting 'triclinic'
loop_
_space_group_symop_operation_xyz
x,y,z
-x,-y,-z
loop_
_atom_site_type_symbol
_atom_site_label
_atom_site_fract_x
_atom_site_fract_y
_atom_site_fract_z
Si Si1 0.719206 0.877201 0.561728
Si Si2 0.396554 0.452602 0.887286
Si Si3 0.483117 0.972788 0.671343
Si Si4 0.316680 0.813392 0.733097
Si Si5 0.864868 0.338902 0.474554
Si Si6 0.191072 0.308355 0.905794
Si Si7 0.010678 0.214547 0.980893
Si Si8 0.079400 0.913721 0.317055
O O1 0.624303 0.995457 0.451132
O O2 0.833258 0.619100 0.504758
O O3 0.786959 0.052915 0.656794
O O4 0.630236 0.842977 0.638075
O O5 0.465567 0.232506 0.769022
O O6 0.319109 0.686678 0.835419
O O7 0.308580 0.391465 0.950521
O O8 0.500000 0.500000 0.000000
O O9 0.457211 0.808300 0.733638
O O10 0.269125 0.689079 0.588938
O O11 0.217662 0.097268 0.769622
O O12 0.965741 0.177683 0.365567
O O13 0.915010 0.256399 0.604517
O O14 0.157705 0.197085 0.997923
O O15 0.062211 0.549687 0.905707
O O16 0.946369 0.219874 0.833735
O O17 0.000000 0.000000 0.000000
#
# Coordination Sequence:
#
# PCOD8026343 Si02
#       8
#     2   2   2   2   2   2   2   2
#     4  11  23  42  65  99 132 171 219 277 331 401
#     4  11  25  44  68  94 130 177 227 273 329 404
#     4  10  24  41  67  96 132 174 223 271 342 398
#     4  11  21  45  68  90 134 175 216 277 338 396
#     4  11  23  42  68  96 130 179 216 278 334 384
#     4  10  24  42  69  95 132 171 225 264 339 399
#     4  11  24  45  68  98 135 175 214 279 337 388
#     4  11  25  42  66 100 132 170 232 267 326 411
#
# _framework density 22.876090999999999
#
# number of rings (size 3 to 8) (size 9 to 14) (size 15 to 20)
#    0.000    1.250    3.750    1.125    1.750    5.500 
#    4.500    0.000    0.000    0.000    0.000    0.000 
#    0.000    0.000    0.000    0.000    0.000    0.000 
#
# Total GULP energy -198230.724931 kJ/mol
# GULP energy per Si atom -12389.420308 kJ/mol
# Density = 2.282402 g / cm^3
# Si number density = 22.876091 Si / 1000 Ang^3
#
#
#
# Elastic Constant Matrix: (Units=GPa)
#
#
# Indices 1 2 3 4 5 6 
#
# 1 118.4498 29.5450 29.0631 -1.4529 -5.2012 28.4638
# 2 29.5450 90.9051 25.5233 1.3279 0.4983 20.3593
# 3 29.0631 25.5233 83.9382 1.9552 12.0470 6.0289
# 4 -1.4529 1.3279 1.9552 31.5731 1.2438 -3.1880
# 5 -5.2012 0.4983 12.0470 1.2438 33.6619 1.3416
# 6 28.4638 20.3593 6.0289 -3.1880 1.3416 42.7193
#
#
#
# Elastic Compliance Matrix: (Units=1/GPa)
#
#
# Indices 1 2 3 4 5 6 
#
# 1 0.011348 -0.001236 -0.003556 0.000000 0.003306 -0.006574
# 2 -0.001236 0.013557 -0.003450 -0.000987 0.001089 -0.005259
# 3 -0.003556 -0.003450 0.014904 -0.000501 -0.005896 0.002058
# 4 0.000000 -0.000987 -0.000501 0.032089 -0.001110 0.002971
# 5 0.003306 0.001089 -0.005896 -0.001110 0.032472 -0.002993
# 6 -0.006574 -0.005259 0.002058 0.002971 -0.002993 0.030321
#
#
# Mechanical properties :
#
#
# Convention : Reuss Voigt Hill
#
# Bulk Modulus (GPa) = 42.87098 51.28402 47.07750
# Shear Modulus (GPa) = 31.45672 35.53497 33.49584
#
# Velocity S-wave (km/s) = 3.71225 3.94555 3.83068
# Velocity P-wave (km/s) = 6.09554 6.57445 6.33952
#
# Compressibility (1/GPa) = 0.02332580
#
# Stress axis : x y z
#
# Youngs Moduli (GPa) = 88.12084 73.76294 67.09696
#
# Poissons Ratio (x) = 0.09114 0.23858
# Poissons Ratio (y) = 0.10888 0.23149
# Poissons Ratio (z) = 0.31334 0.25449
#
# Static dielectric constant tensor:
#      x y z
#    x 4.454030 0.313860 -0.302550 
#    y 0.313860 4.058120 0.241330 
#    z -0.302550 0.241330 4.294610 
# 
# 
# High freq. dielectric constant tensor:
#      x y z
#    x 1.917360 0.025360 -0.009430 
#    y 0.025360 1.899320 0.023010 
#    z -0.009430 0.023010 1.882920 
# 
# From -- ./inp_files/69355.got.cif
#   From: 2010.06.25/outbox.cif.g09.slc.cpg/sg2_35_cif.got.tgz:69355.got - 2010.06.27 13:26:56.
