data_PCOD8026763
_publ_section_title
;
Structure prediction by ZEFSAII (Michael W. Deem and Ramdas Pophale) SiO2 
 PCOD8026763
Probable space group: P -1
;
_chemical_formula_sum "Si O2"
_cell_formula_units_Z 16
_cell_length_a 17.124577
_cell_length_b 5.158367
_cell_length_c 9.010158
_cell_angle_alpha 60.818505
_cell_angle_beta 90.382573
_cell_angle_gamma 79.160035
_cell_volume 677.988104
_symmetry_space_group_name_H-M "P -1"
_symmetry_group_IT_number 2
_symmetry_cell_setting 'triclinic'
loop_
_space_group_symop_operation_xyz
x,y,z
-x,-y,-z
loop_
_atom_site_type_symbol
_atom_site_label
_atom_site_fract_x
_atom_site_fract_y
_atom_site_fract_z
Si Si1 0.680187 0.421898 0.741726
Si Si2 0.103955 0.626928 0.929067
Si Si3 0.503765 0.648742 0.618553
Si Si4 0.734350 0.677845 0.391262
Si Si5 0.102374 0.204479 0.616596
Si Si6 0.660738 0.356275 0.243136
Si Si7 0.732619 0.727791 0.927416
Si Si8 0.969635 0.513407 0.746196
O O1 0.585087 0.494445 0.747911
O O2 0.701498 0.658773 0.560155
O O3 0.729418 0.483269 0.867796
O O4 0.707206 0.076225 0.782425
O O5 0.025221 0.641400 0.825552
O O6 0.143248 0.879846 0.779219
O O7 0.175188 0.326587 0.997695
O O8 0.081747 0.662822 0.096487
O O9 0.500000 0.500000 0.500000
O O10 0.432686 0.602475 0.736779
O O11 0.500000 0.000000 0.500000
O O12 0.831451 0.596422 0.409584
O O13 0.707379 0.405411 0.380113
O O14 0.696597 0.033709 0.251035
O O15 0.083387 0.218497 0.433684
O O16 0.021037 0.293631 0.687094
O O17 0.671407 0.651910 0.068867
#
# Coordination Sequence:
#
# PCOD8026763 Si02
#       8
#     2   2   2   2   2   2   2   2
#     4  12  26  45  70 109 137 188 236 295 347 434
#     4  11  23  45  69  95 146 187 231 300 368 418
#     4  12  23  45  75 102 144 184 234 295 352 418
#     4  12  24  44  74 100 141 183 243 284 352 424
#     4  11  23  43  69 102 136 185 243 299 351 436
#     4  12  24  45  72 104 135 194 228 286 357 425
#     4  12  27  44  70 104 148 180 238 291 361 420
#     4  10  24  43  67 104 133 185 242 295 363 430
#
# _framework density 23.599236000000001
#
# number of rings (size 3 to 8) (size 9 to 14) (size 15 to 20)
#    0.000    0.500    3.750    4.500    1.750    1.000 
#    9.000    0.000    0.000    0.000    0.000    0.000 
#    0.000    0.000    0.000    0.000    0.000    0.000 
#
# Total GULP energy -198249.091580 kJ/mol
# GULP energy per Si atom -12390.568224 kJ/mol
# Density = 2.354552 g / cm^3
# Si number density = 23.599236 Si / 1000 Ang^3
#
#
#
# Elastic Constant Matrix: (Units=GPa)
#
#
# Indices 1 2 3 4 5 6 
#
# 1 1004.7122 -24.1435 343.3534 57.6721 -98.3879 -551.4244
# 2 -24.1435 97.6302 4.2327 -12.9920 11.8152 32.9162
# 3 343.3534 4.2327 234.2829 26.3813 -36.6086 -193.8727
# 4 57.6721 -12.9920 26.3813 42.9221 -12.1546 -39.0213
# 5 -98.3879 11.8152 -36.6086 -12.1546 44.3823 57.7898
# 6 -551.4244 32.9162 -193.8727 -39.0213 57.7898 377.4196
#
#
#
# Elastic Compliance Matrix: (Units=1/GPa)
#
#
# Indices 1 2 3 4 5 6 
#
# 1 0.006040 -0.001103 -0.002427 0.000366 0.002173 0.007380
# 2 -0.001103 0.011644 -0.001593 0.002754 -0.002485 -0.002780
# 3 -0.002427 -0.001593 0.008876 -0.001673 0.000789 0.000858
# 4 0.000366 0.002754 -0.001673 0.027303 0.004041 0.001640
# 5 0.002173 -0.002485 0.000789 0.004041 0.030326 -0.000428
# 6 0.007380 -0.002780 0.000858 0.001640 -0.000428 0.014350
#
#
# Mechanical properties :
#
#
# Convention : Reuss Voigt Hill
#
# Bulk Modulus (GPa) = 61.29786 220.39006 140.84396
# Shear Modulus (GPa) = 43.77376 160.49031 102.13203
#
# Velocity S-wave (km/s) = 4.31150 8.25556 6.58571
# Velocity P-wave (km/s) = 7.12856 13.58174 10.84620
#
# Compressibility (1/GPa) = 0.01631378
#
# Stress axis : x y z
#
# Youngs Moduli (GPa) = 165.55355 85.88447 112.65728
#
# Poissons Ratio (x) = 0.09476 0.27347
# Poissons Ratio (y) = 0.18266 0.17941
# Poissons Ratio (z) = 0.40187 0.13677
#
# Static dielectric constant tensor:
#      x y z
#    x 4.467890 -0.030820 -0.181880 
#    y -0.030820 3.819760 -0.009180 
#    z -0.181880 -0.009180 4.345230 
# 
# 
# High freq. dielectric constant tensor:
#      x y z
#    x 1.949720 -0.000070 -0.009790 
#    y -0.000070 1.916430 0.002130 
#    z -0.009790 0.002130 1.944620 
# 
# From -- ./inp_files/323199.got.cif
#   From: 2010.06.25/outbox.cif.g09.slc.cpg/sg2_162_cif.got.tgz:323199.got - 2010.06.27 13:26:56.
