data_PCOD8026277
_publ_section_title
;
Structure prediction by ZEFSAII (Michael W. Deem and Ramdas Pophale) SiO2 
 PCOD8026277
Probable space group: P -1
;
_chemical_formula_sum "Si O2"
_cell_formula_units_Z 16
_cell_length_a 13.600939
_cell_length_b 16.720742
_cell_length_c 10.963493
_cell_angle_alpha 110.861584
_cell_angle_beta 121.334267
_cell_angle_gamma 24.152485
_cell_volume 819.853858
_symmetry_space_group_name_H-M "P -1"
_symmetry_group_IT_number 2
_symmetry_cell_setting 'triclinic'
loop_
_space_group_symop_operation_xyz
x,y,z
-x,-y,-z
loop_
_atom_site_type_symbol
_atom_site_label
_atom_site_fract_x
_atom_site_fract_y
_atom_site_fract_z
Si Si1 0.249374 0.703060 0.790485
Si Si2 0.461117 0.979441 0.836446
Si Si3 0.968160 0.011536 0.342237
Si Si4 0.997636 0.426430 0.172739
Si Si5 0.580830 0.711909 0.841171
Si Si6 0.505500 0.383582 0.663132
Si Si7 0.346316 0.481504 0.872432
Si Si8 0.899845 0.452129 0.669880
O O1 0.999132 0.923390 0.682241
O O2 0.386417 0.560470 0.686911
O O3 0.159104 0.692994 0.828563
O O4 0.465853 0.623389 0.947145
O O5 0.189697 0.203042 0.717681
O O6 0.430122 0.899015 0.794827
O O7 0.730625 0.807982 0.829617
O O8 0.500000 0.000000 0.000000
O O9 0.664262 0.181186 0.207703
O O10 0.000000 0.000000 0.500000
O O11 0.213665 0.788570 0.324637
O O12 0.854782 0.461268 0.197364
O O13 0.064450 0.472245 0.304074
O O14 0.793145 0.590728 0.019702
O O15 0.755781 0.544217 0.759411
O O16 0.542204 0.326093 0.796825
O O17 0.303871 0.452719 0.506509
#
# Coordination Sequence:
#
# PCOD8026277 Si02
#       8
#     2   2   2   2   2   2   2   2
#     4   9  22  44  61  87 129 158 209 261 293 366
#     4  11  21  37  60  91 120 163 204 246 315 356
#     4  12  24  39  65  97 121 164 198 255 327 361
#     4  11  21  40  63  89 123 162 209 257 297 363
#     4  11  22  37  60  92 129 151 207 264 298 369
#     4  10  24  41  62  89 127 163 201 254 309 364
#     4   9  21  46  61  87 127 164 208 260 292 361
#     4  11  22  40  59  91 129 157 204 260 304 366
#
# _framework density 19.515674000000001
#
# number of rings (size 3 to 8) (size 9 to 14) (size 15 to 20)
#    0.750    0.750    5.000    0.750    1.750    3.500 
#    2.250    0.625    0.000    0.000    0.000    0.000 
#    0.000    0.000    0.000    0.000    0.000    0.000 
#
# Total GULP energy -198237.338178 kJ/mol
# GULP energy per Si atom -12389.833636 kJ/mol
# Density = 1.947126 g / cm^3
# Si number density = 19.515674 Si / 1000 Ang^3
#
#
#
# Elastic Constant Matrix: (Units=GPa)
#
#
# Indices 1 2 3 4 5 6 
#
# 1 88.4366 23.7423 24.1611 -4.9648 -1.4387 -8.9385
# 2 23.7423 94.8493 23.0245 1.1380 8.1839 -3.6931
# 3 24.1611 23.0245 86.3663 12.2375 11.5312 4.6295
# 4 -4.9648 1.1380 12.2375 28.6083 0.0766 -3.8438
# 5 -1.4387 8.1839 11.5312 0.0766 25.8413 -6.7375
# 6 -8.9385 -3.6931 4.6295 -3.8438 -6.7375 28.5209
#
#
#
# Elastic Compliance Matrix: (Units=1/GPa)
#
#
# Indices 1 2 3 4 5 6 
#
# 1 0.014680 -0.002657 -0.005435 0.005950 0.005984 0.007354
# 2 -0.002657 0.011979 -0.002082 0.000011 -0.002916 0.000369
# 3 -0.005435 -0.002082 0.016576 -0.009005 -0.009107 -0.008028
# 4 0.005950 0.000011 -0.009005 0.041236 0.006970 0.010532
# 5 0.005984 -0.002916 -0.009107 0.006970 0.047973 0.015248
# 6 0.007354 0.000369 -0.008028 0.010532 0.015248 0.043739
#
#
# Mechanical properties :
#
#
# Convention : Reuss Voigt Hill
#
# Bulk Modulus (GPa) = 43.69037 45.72312 44.70674
# Shear Modulus (GPa) = 24.49048 29.84239 27.16643
#
# Velocity S-wave (km/s) = 3.54632 3.91468 3.73504
# Velocity P-wave (km/s) = 6.26134 6.62667 6.44659
#
# Compressibility (1/GPa) = 0.02288834
#
# Stress axis : x y z
#
# Youngs Moduli (GPa) = 68.11843 83.47656 60.32707
#
# Poissons Ratio (x) = 0.22178 0.32787
# Poissons Ratio (y) = 0.18097 0.12562
# Poissons Ratio (z) = 0.37021 0.17382
#
# Static dielectric constant tensor:
#      x y z
#    x 3.526160 0.053850 0.071020 
#    y 0.053850 3.696120 0.036430 
#    z 0.071020 0.036430 3.443190 
# 
# 
# High freq. dielectric constant tensor:
#      x y z
#    x 1.756230 0.007790 0.003180 
#    y 0.007790 1.755460 0.007160 
#    z 0.003180 0.007160 1.756720 
# 
# From -- ./inp_files/456747.got.cif
#   From: 2010.06.25/outbox.cif.g09.slc.cpg/sg2_229_cif.got.tgz:456747.got - 2010.06.27 13:26:56.
