data_PCOD8026006
_publ_section_title
;
Structure prediction by ZEFSAII (Michael W. Deem and Ramdas Pophale) SiO2 
 PCOD8026006
Probable space group: P -1
;
_chemical_formula_sum "Si O2"
_cell_formula_units_Z 16
_cell_length_a 12.348785
_cell_length_b 15.908670
_cell_length_c 14.613513
_cell_angle_alpha 37.660371
_cell_angle_beta 124.140164
_cell_angle_gamma 151.851748
_cell_volume 728.340214
_symmetry_space_group_name_H-M "P -1"
_symmetry_group_IT_number 2
_symmetry_cell_setting 'triclinic'
loop_
_space_group_symop_operation_xyz
x,y,z
-x,-y,-z
loop_
_atom_site_type_symbol
_atom_site_label
_atom_site_fract_x
_atom_site_fract_y
_atom_site_fract_z
Si Si1 0.756726 0.669188 0.019228
Si Si2 0.978053 0.353844 0.866543
Si Si3 0.613037 0.798414 0.409923
Si Si4 0.526688 0.506885 0.233702
Si Si5 0.996673 0.019334 0.668092
Si Si6 0.838351 0.529785 0.649733
Si Si7 0.494668 0.756108 0.082663
Si Si8 0.965882 0.615433 0.924409
O O1 0.755474 0.704862 0.095621
O O2 0.775043 0.517581 0.155404
O O3 0.500000 0.500000 0.000000
O O4 0.991822 0.950092 0.828748
O O5 0.011986 0.548881 0.698257
O O6 0.932060 0.280420 0.014110
O O7 0.727105 0.075038 0.930473
O O8 0.478033 0.630009 0.585215
O O9 0.399115 0.685942 0.347815
O O10 0.731272 0.777538 0.425442
O O11 0.852257 0.114476 0.278885
O O12 0.600955 0.698186 0.173136
O O13 0.242662 0.260463 0.262796
O O14 0.982129 0.171918 0.536096
O O15 0.722630 0.420826 0.790317
O O16 0.342791 0.635854 0.017165
O O17 0.000000 0.500000 0.000000
#
# Coordination Sequence:
#
# PCOD8026006 Si02
#       8
#     2   2   2   2   2   2   2   2
#     4  10  23  47  71  92 132 180 229 272 330 404
#     4  12  25  44  65  99 141 178 217 276 341 398
#     4  12  22  39  64 103 135 172 225 279 331 391
#     4  11  24  40  67  99 126 175 234 274 325 394
#     4  11  21  42  68  98 130 175 225 284 329 391
#     4  12  24  38  65 101 138 173 217 280 345 388
#     4  12  22  40  67 102 133 172 223 277 333 393
#     4  12  22  37  67  98 138 173 219 273 336 399
#
# _framework density 21.967753999999999
#
# number of rings (size 3 to 8) (size 9 to 14) (size 15 to 20)
#    0.000    0.500    6.250    3.375    1.750    0.500 
#    0.000    3.125    2.750    0.000    0.000    0.000 
#    0.000    0.000    0.000    0.000    0.000    0.000 
#
# Total GULP energy -198289.682063 kJ/mol
# GULP energy per Si atom -12393.105129 kJ/mol
# Density = 2.191775 g / cm^3
# Si number density = 21.967754 Si / 1000 Ang^3
#
#
#
# Elastic Constant Matrix: (Units=GPa)
#
#
# Indices 1 2 3 4 5 6 
#
# 1 139.2272 27.5115 55.0284 8.7495 23.5346 2.2378
# 2 27.5115 93.4464 23.2762 3.8675 9.3253 -5.5033
# 3 55.0284 23.2762 97.2010 14.2201 13.4529 -12.6035
# 4 8.7495 3.8675 14.2201 30.5519 -7.7885 10.1982
# 5 23.5346 9.3253 13.4529 -7.7885 42.9941 3.7787
# 6 2.2378 -5.5033 -12.6035 10.1982 3.7787 30.3430
#
#
#
# Elastic Compliance Matrix: (Units=1/GPa)
#
#
# Indices 1 2 3 4 5 6 
#
# 1 0.010191 -0.001499 -0.005247 -0.000261 -0.003422 -0.002689
# 2 -0.001499 0.011854 -0.001058 -0.002013 -0.002025 0.002749
# 3 -0.005247 -0.001058 0.017686 -0.012175 -0.005723 0.012346
# 4 -0.000261 -0.002013 -0.012175 0.050918 0.015764 -0.024479
# 5 -0.003422 -0.002025 -0.005723 0.015764 0.031245 -0.011681
# 6 -0.002689 0.002749 0.012346 -0.024479 -0.011681 0.048464
#
#
# Mechanical properties :
#
#
# Convention : Reuss Voigt Hill
#
# Bulk Modulus (GPa) = 41.45801 60.16743 50.81272
# Shear Modulus (GPa) = 25.77236 35.71502 30.74369
#
# Velocity S-wave (km/s) = 3.42890 4.03649 3.74504
# Velocity P-wave (km/s) = 5.88130 7.01233 6.47157
#
# Compressibility (1/GPa) = 0.02412079
#
# Stress axis : x y z
#
# Youngs Moduli (GPa) = 98.12812 84.36167 56.54212
#
# Poissons Ratio (x) = 0.12648 0.29668
# Poissons Ratio (y) = 0.14712 0.05985
# Poissons Ratio (z) = 0.51488 0.08930
#
# Static dielectric constant tensor:
#      x y z
#    x 4.031390 0.017490 0.159980 
#    y 0.017490 3.765680 0.049210 
#    z 0.159980 0.049210 3.853180 
# 
# 
# High freq. dielectric constant tensor:
#      x y z
#    x 1.856420 -0.006690 0.022870 
#    y -0.006690 1.876450 0.010350 
#    z 0.022870 0.010350 1.841260 
# 
# From -- ./inp_files/406755.got.cif
#   From: 2010.06.25/outbox.cif.g09.slc.cpg/sg2_204_cif.got.tgz:406755.got - 2010.06.27 13:26:56.
