data_PCOD8026419
_publ_section_title
;
Structure prediction by ZEFSAII (Michael W. Deem and Ramdas Pophale) SiO2 
 PCOD8026419
Probable space group: P -1
;
_chemical_formula_sum "Si O2"
_cell_formula_units_Z 14
_cell_length_a 7.092633
_cell_length_b 7.025736
_cell_length_c 22.235326
_cell_angle_alpha 143.065888
_cell_angle_beta 89.831495
_cell_angle_gamma 83.820369
_cell_volume 654.544643
_symmetry_space_group_name_H-M "P -1"
_symmetry_group_IT_number 2
_symmetry_cell_setting 'triclinic'
loop_
_space_group_symop_operation_xyz
x,y,z
-x,-y,-z
loop_
_atom_site_type_symbol
_atom_site_label
_atom_site_fract_x
_atom_site_fract_y
_atom_site_fract_z
Si Si1 0.038516 0.509394 0.322263
Si Si2 0.700451 0.521148 0.036235
Si Si3 0.301289 0.441845 0.816445
Si Si4 0.056076 0.992853 0.891476
Si Si5 0.367949 0.727392 0.305257
Si Si6 0.833198 0.609204 0.573956
Si Si7 0.706120 0.992195 0.398772
O O1 0.232547 0.533481 0.292217
O O2 0.085041 0.425183 0.368649
O O3 0.944517 0.224421 0.222610
O O4 0.884561 0.841082 0.403043
O O5 0.500000 0.500000 0.000000
O O6 0.666312 0.647445 0.136444
O O7 0.840488 0.174283 0.951023
O O8 0.800118 0.761787 0.057688
O O9 0.135512 0.758028 0.887794
O O10 0.500571 0.508448 0.802463
O O11 0.245286 0.134074 0.702438
O O12 0.253785 0.019855 0.340579
O O13 0.508946 0.874370 0.388735
O O14 0.000000 0.500000 0.500000
O O15 0.677903 0.377832 0.503562
#
# Coordination Sequence:
#
# PCOD8026419 Si02
#       7
#     2   2   2   2   2   2   2
#     4  11  24  43  66  93 133 165 216 263 315 380
#     4  11  25  44  69  99 124 163 216 260 325 384
#     4   9  23  45  65  93 133 166 210 263 315 381
#     4  10  25  44  66  97 127 171 203 265 326 374
#     4  10  24  42  63  95 127 175 213 257 321 367
#     4  12  24  40  66  97 130 173 215 265 311 371
#     4   9  22  44  61  94 127 173 211 258 317 366
#
# _framework density 21.388915999999998
#
# number of rings (size 3 to 8) (size 9 to 14) (size 15 to 20)
#    0.857    0.857    1.429    1.286    6.000    1.143 
#    7.714    0.000    0.000    0.000    0.000    0.000 
#    0.000    0.000    0.000    0.000    0.000    0.000 
#
# Total GULP energy -173528.058660 kJ/mol
# GULP energy per Si atom -12394.861333 kJ/mol
# Density = 2.134023 g / cm^3
# Si number density = 21.388916 Si / 1000 Ang^3
#
#
#
# Elastic Constant Matrix: (Units=GPa)
#
#
# Indices 1 2 3 4 5 6 
#
# 1 114.8819 28.0793 13.7592 -8.1086 3.0105 -10.4803
# 2 28.0793 61.1990 29.9822 -15.2975 4.1212 -15.3114
# 3 13.7592 29.9822 56.5744 -3.0339 8.6508 -16.1693
# 4 -8.1086 -15.2975 -3.0339 32.9630 -0.8618 7.0185
# 5 3.0105 4.1212 8.6508 -0.8618 33.4041 2.8138
# 6 -10.4803 -15.3114 -16.1693 7.0185 2.8138 31.5895
#
#
#
# Elastic Compliance Matrix: (Units=1/GPa)
#
#
# Indices 1 2 3 4 5 6 
#
# 1 0.009859 -0.004272 0.000362 0.000163 -0.000569 0.001400
# 2 -0.004272 0.027545 -0.012011 0.009864 0.000049 0.003590
# 3 0.000362 -0.012011 0.027610 -0.005292 -0.006697 0.010202
# 4 0.000163 0.009864 -0.005292 0.035778 0.001564 -0.005962
# 5 -0.000569 0.000049 -0.006697 0.001564 0.032331 -0.006820
# 6 0.001400 0.003590 0.010202 -0.005962 -0.006820 0.041015
#
#
# Mechanical properties :
#
#
# Convention : Reuss Voigt Hill
#
# Bulk Modulus (GPa) = 30.14618 41.81074 35.97846
# Shear Modulus (GPa) = 23.03752 30.31361 26.67557
#
# Velocity S-wave (km/s) = 3.28545 3.76873 3.53536
# Velocity P-wave (km/s) = 5.34014 6.20710 5.78987
#
# Compressibility (1/GPa) = 0.03317170
#
# Stress axis : x y z
#
# Youngs Moduli (GPa) = 101.42526 36.30434 36.21931
#
# Poissons Ratio (x) = 0.15507 -0.01310
# Poissons Ratio (y) = 0.43324 0.43505
# Poissons Ratio (z) = -0.03670 0.43607
#
# Static dielectric constant tensor:
#      x y z
#    x 3.842060 0.019230 0.092680 
#    y 0.019230 3.508920 0.126100 
#    z 0.092680 0.126100 4.270710 
# 
# 
# High freq. dielectric constant tensor:
#      x y z
#    x 1.848270 -0.012390 0.000330 
#    y -0.012390 1.828610 0.008440 
#    z 0.000330 0.008440 1.831670 
# 
# From -- ./inp_files/553085.got.cif
#   From: 2010.06.25/outbox.cif.g09.slc.cpg/sg2_277_cif.got.tgz:553085.got - 2010.06.27 13:26:56.
