data_PCOD8026725
_publ_section_title
;
Structure prediction by ZEFSAII (Michael W. Deem and Ramdas Pophale) SiO2 
 PCOD8026725
Probable space group: P -1
;
_chemical_formula_sum "Si O2"
_cell_formula_units_Z 16
_cell_length_a 9.413399
_cell_length_b 14.941488
_cell_length_c 8.813257
_cell_angle_alpha 140.224455
_cell_angle_beta 100.665785
_cell_angle_gamma 93.365895
_cell_volume 738.481426
_symmetry_space_group_name_H-M "P -1"
_symmetry_group_IT_number 2
_symmetry_cell_setting 'triclinic'
loop_
_space_group_symop_operation_xyz
x,y,z
-x,-y,-z
loop_
_atom_site_type_symbol
_atom_site_label
_atom_site_fract_x
_atom_site_fract_y
_atom_site_fract_z
Si Si1 0.469733 0.710577 0.992579
Si Si2 0.110881 0.121080 0.074476
Si Si3 0.797395 0.562310 0.341791
Si Si4 0.898314 0.989030 0.609314
Si Si5 0.404416 0.052682 0.923459
Si Si6 0.305140 0.863535 0.372053
Si Si7 0.989140 0.415540 0.041294
Si Si8 0.756568 0.663739 0.144934
O O1 0.326932 0.562147 0.747565
O O2 0.507571 0.793078 0.944542
O O3 0.433610 0.821352 0.250150
O O4 0.605176 0.661664 0.026081
O O5 0.166959 0.283542 0.366120
O O6 0.254766 0.070054 0.994353
O O7 0.001663 0.117661 0.905692
O O8 0.000000 0.000000 0.000000
O O9 0.727742 0.559061 0.152094
O O10 0.953612 0.517050 0.301010
O O11 0.736487 0.009947 0.565427
O O12 0.852687 0.821941 0.444438
O O13 0.000000 0.000000 0.500000
O O14 0.363863 0.919672 0.622863
O O15 0.500000 0.000000 0.000000
O O16 0.149723 0.732974 0.189235
O O17 0.148971 0.381121 0.033261
O O18 0.000000 0.500000 0.000000
#
# Coordination Sequence:
#
# PCOD8026725 Si02
#       8
#     2   2   2   2   2   2   2   2
#     4  11  25  45  70  99 141 187 231 273 345 425
#     4  12  26  45  72  99 141 177 231 287 349 404
#     4  10  24  43  66 104 140 180 227 283 355 405
#     4  12  21  40  73 102 129 178 235 289 329 401
#     4  12  28  45  67 104 144 181 223 288 352 404
#     4  11  23  43  71 100 133 178 241 276 338 408
#     4   9  20  39  65 100 134 174 230 282 333 399
#     4  11  19  39  73 102 135 180 235 284 332 410
#
# _framework density 21.666083
#
# number of rings (size 3 to 8) (size 9 to 14) (size 15 to 20)
#    0.000    1.000    5.000    0.750    5.250    0.500 
#    0.000    3.750    0.000    0.000    0.000    0.000 
#    0.000    0.000    0.000    0.000    0.000    0.000 
#
# Total GULP energy -198284.214431 kJ/mol
# GULP energy per Si atom -12392.763402 kJ/mol
# Density = 2.161677 g / cm^3
# Si number density = 21.666083 Si / 1000 Ang^3
#
#
#
# Elastic Constant Matrix: (Units=GPa)
#
#
# Indices 1 2 3 4 5 6 
#
# 1 169.5436 52.3186 54.2689 -6.1455 -22.5146 -2.9499
# 2 52.3186 104.4297 34.0849 -6.1737 -3.9060 8.6567
# 3 54.2689 34.0849 116.4518 -7.5023 -18.0588 -1.5797
# 4 -6.1455 -6.1737 -7.5023 33.1387 -7.0073 8.9585
# 5 -22.5146 -3.9060 -18.0588 -7.0073 22.8801 2.0820
# 6 -2.9499 8.6567 -1.5797 8.9585 2.0820 46.2892
#
#
#
# Elastic Compliance Matrix: (Units=1/GPa)
#
#
# Indices 1 2 3 4 5 6 
#
# 1 0.008494 -0.003339 -0.001779 0.001900 0.006928 0.000426
# 2 -0.003339 0.012232 -0.002342 0.001367 -0.002378 -0.002738
# 3 -0.001779 -0.002342 0.011601 0.003684 0.008167 -0.000360
# 4 0.001900 0.001367 0.003684 0.037425 0.017203 -0.008025
# 5 0.006928 -0.002378 0.008167 0.017203 0.062284 -0.004966
# 6 0.000426 -0.002738 -0.000360 -0.008025 -0.004966 0.023907
#
#
# Mechanical properties :
#
#
# Convention : Reuss Voigt Hill
#
# Bulk Modulus (GPa) = 57.44672 74.64110 66.04391
# Shear Modulus (GPa) = 28.30242 37.11179 32.70711
#
# Velocity S-wave (km/s) = 3.61820 4.14321 3.88957
# Velocity P-wave (km/s) = 6.63531 7.57718 7.12183
#
# Compressibility (1/GPa) = 0.01740743
#
# Stress axis : x y z
#
# Youngs Moduli (GPa) = 117.72915 81.75443 86.20198
#
# Poissons Ratio (x) = 0.27296 0.15332
# Poissons Ratio (y) = 0.39307 0.20190
# Poissons Ratio (z) = 0.20940 0.19148
#
# Static dielectric constant tensor:
#      x y z
#    x 4.065660 1.669750 2.069170 
#    y 1.669750 -1.620740 -8.538920 
#    z 2.069170 -8.538920 -9.862120 
# 
# 
# High freq. dielectric constant tensor:
#      x y z
#    x 1.870020 0.008510 -0.012640 
#    y 0.008510 1.858260 0.021020 
#    z -0.012640 0.021020 1.839540 
# 
# From -- ./inp_files/209481.got.cif
#   From: 2010.06.25/outbox.cif.g09.slc.cpg/sg2_105_cif.got.tgz:209481.got - 2010.06.27 13:26:56.
