data_PCOD8026905
_publ_section_title
;
Structure prediction by ZEFSAII (Michael W. Deem and Ramdas Pophale) SiO2 
 PCOD8026905
Probable space group: P -1
;
_chemical_formula_sum "Si O2"
_cell_formula_units_Z 16
_cell_length_a 13.380836
_cell_length_b 12.786844
_cell_length_c 8.130058
_cell_angle_alpha 83.985999
_cell_angle_beta 33.174124
_cell_angle_gamma 71.058459
_cell_volume 681.467933
_symmetry_space_group_name_H-M "P -1"
_symmetry_group_IT_number 2
_symmetry_cell_setting 'triclinic'
loop_
_space_group_symop_operation_xyz
x,y,z
-x,-y,-z
loop_
_atom_site_type_symbol
_atom_site_label
_atom_site_fract_x
_atom_site_fract_y
_atom_site_fract_z
Si Si1 0.912462 0.299941 0.285743
Si Si2 0.534454 0.321725 0.405472
Si Si3 0.904061 0.083268 0.968886
Si Si4 0.226578 0.289343 0.597637
Si Si5 0.458905 0.459573 0.793940
Si Si6 0.085895 0.075104 0.265754
Si Si7 0.718493 0.894718 0.712638
Si Si8 0.122423 0.501946 0.489291
O O1 0.697480 0.390573 0.499982
O O2 0.978067 0.368020 0.321637
O O3 0.910221 0.186495 0.395414
O O4 0.069587 0.258823 0.923653
O O5 0.412170 0.273985 0.463299
O O6 0.400487 0.394129 0.735271
O O7 0.604005 0.406345 0.191950
O O8 0.736704 0.214148 0.215876
O O9 0.101205 0.081325 0.610939
O O10 0.790918 0.020371 0.027703
O O11 0.000000 0.000000 0.000000
O O12 0.300638 0.208600 0.345636
O O13 0.115636 0.420326 0.660083
O O14 0.352238 0.459727 0.113524
O O15 0.221923 0.125522 0.171290
O O16 0.000000 0.000000 0.500000
O O17 0.500000 0.000000 0.000000
O O18 0.000000 0.500000 0.500000
#
# Coordination Sequence:
#
# PCOD8026905 Si02
#       8
#     2   2   2   2   2   2   2   2
#     4  12  25  47  71 106 143 188 242 291 362 421
#     4  11  25  44  72 102 144 186 242 289 360 427
#     4  11  24  45  72 101 137 190 234 290 353 425
#     4  12  26  45  71 105 145 188 235 301 358 430
#     4  11  26  44  71 103 141 191 236 293 354 430
#     4  10  24  43  71 101 137 185 236 294 348 422
#     4  11  25  44  68 101 139 180 235 296 353 415
#     4  12  27  42  69 104 145 184 236 291 363 422
#
# _framework density 23.478729000000001
#
# number of rings (size 3 to 8) (size 9 to 14) (size 15 to 20)
#    0.000    0.750    1.250    5.250    8.750    4.000 
#    0.000    2.500    0.000    0.000    0.000    0.000 
#    0.000    0.000    0.000    0.000    0.000    0.000 
#
# Total GULP energy -198259.252641 kJ/mol
# GULP energy per Si atom -12391.203290 kJ/mol
# Density = 2.342529 g / cm^3
# Si number density = 23.478729 Si / 1000 Ang^3
#
#
#
# Elastic Constant Matrix: (Units=GPa)
#
#
# Indices 1 2 3 4 5 6 
#
# 1 115.1116 42.7665 13.5436 4.7275 2.8666 6.0350
# 2 42.7665 154.5180 31.0716 11.5408 4.8079 -18.4357
# 3 13.5436 31.0716 71.9956 8.6666 1.5309 -5.0268
# 4 4.7275 11.5408 8.6666 33.6685 -0.3261 6.6728
# 5 2.8666 4.8079 1.5309 -0.3261 37.8243 9.0876
# 6 6.0350 -18.4357 -5.0268 6.6728 9.0876 56.6716
#
#
#
# Elastic Compliance Matrix: (Units=1/GPa)
#
#
# Indices 1 2 3 4 5 6 
#
# 1 0.009944 -0.002862 -0.000812 0.000214 0.000152 -0.002111
# 2 -0.002862 0.008409 -0.002519 -0.002515 -0.001580 0.003366
# 3 -0.000812 -0.002519 0.015614 -0.003270 -0.000549 0.001125
# 4 0.000214 -0.002515 -0.003270 0.032438 0.001981 -0.005268
# 5 0.000152 -0.001580 -0.000549 0.001981 0.027938 -0.005292
# 6 -0.002111 0.003366 0.001125 -0.005268 -0.005292 0.020534
#
#
# Mechanical properties :
#
#
# Convention : Reuss Voigt Hill
#
# Bulk Modulus (GPa) = 46.33803 57.37653 51.85728
# Shear Modulus (GPa) = 37.18665 42.58244 39.88454
#
# Velocity S-wave (km/s) = 3.98407 4.26333 4.12606
# Velocity P-wave (km/s) = 6.39866 6.98035 6.69582
#
# Compressibility (1/GPa) = 0.02158055
#
# Stress axis : x y z
#
# Youngs Moduli (GPa) = 100.56285 118.92019 64.04662
#
# Poissons Ratio (x) = 0.34030 0.05201
# Poissons Ratio (y) = 0.28777 0.16136
# Poissons Ratio (z) = 0.08166 0.29962
#
# Static dielectric constant tensor:
#      x y z
#    x 5.302250 0.274580 0.707760 
#    y 0.274580 4.427860 0.087770 
#    z 0.707760 0.087770 4.481560 
# 
# 
# High freq. dielectric constant tensor:
#      x y z
#    x 1.961810 0.009960 0.017580 
#    y 0.009960 1.935350 0.011350 
#    z 0.017580 0.011350 1.906550 
# 
# From -- ./inp_files/307237.got.cif
#   From: 2010.06.25/outbox.cif.g09.slc.cpg/sg2_154_cif.got.tgz:307237.got - 2010.06.27 13:26:56.
