data_PCOD8026801
_publ_section_title
;
Structure prediction by ZEFSAII (Michael W. Deem and Ramdas Pophale) SiO2 
 PCOD8026801
Probable space group: P -1
;
_chemical_formula_sum "Si O2"
_cell_formula_units_Z 16
_cell_length_a 23.198656
_cell_length_b 17.672936
_cell_length_c 5.232054
_cell_angle_alpha 75.956167
_cell_angle_beta 84.945321
_cell_angle_gamma 21.062024
_cell_volume 686.452703
_symmetry_space_group_name_H-M "P -1"
_symmetry_group_IT_number 2
_symmetry_cell_setting 'triclinic'
loop_
_space_group_symop_operation_xyz
x,y,z
-x,-y,-z
loop_
_atom_site_type_symbol
_atom_site_label
_atom_site_fract_x
_atom_site_fract_y
_atom_site_fract_z
Si Si1 0.712244 0.569829 0.268011
Si Si2 0.526799 0.046472 0.595331
Si Si3 0.659048 0.354740 0.494460
Si Si4 0.017675 0.387616 0.647639
Si Si5 0.403060 0.902740 0.805917
Si Si6 0.963217 0.134796 0.320470
Si Si7 0.346371 0.536562 0.098071
Si Si8 0.176235 0.413281 0.931552
O O1 0.657577 0.681632 0.463660
O O2 0.875202 0.301895 0.437513
O O3 0.760354 0.578413 0.045467
O O4 0.540228 0.741379 0.112534
O O5 0.629376 0.976513 0.435287
O O6 0.500000 0.000000 0.500000
O O7 0.657589 0.857362 0.934299
O O8 0.500000 0.500000 0.500000
O O9 0.633351 0.425406 0.167187
O O10 0.671163 0.404475 0.665856
O O11 0.847429 0.069868 0.662130
O O12 0.000000 0.500000 0.500000
O O13 0.927998 0.453042 0.402307
O O14 0.220088 0.105982 0.821196
O O15 0.940143 0.465686 0.887031
O O16 0.480574 0.736266 0.731909
O O17 0.822332 0.306019 0.005229
O O18 0.000000 0.000000 0.500000
#
# Coordination Sequence:
#
# PCOD8026801 Si02
#       8
#     2   2   2   2   2   2   2   2
#     4  11  25  44  70 101 137 184 236 284 347 410
#     4  12  24  43  70 102 139 183 238 287 344 403
#     4  11  23  45  72 101 139 177 221 286 351 409
#     4  12  26  44  63  98 136 182 228 282 347 398
#     4  11  26  41  71  97 138 186 232 287 335 419
#     4   9  22  45  70 102 134 179 225 287 339 412
#     4  10  24  43  68 103 134 179 231 277 343 411
#     4  12  26  45  67  98 139 181 227 286 342 409
#
# _framework density 23.308236000000001
#
# number of rings (size 3 to 8) (size 9 to 14) (size 15 to 20)
#    0.000    1.000    2.500    3.000    7.000    2.000 
#    2.250    0.000    0.000    0.000    0.000    0.000 
#    0.000    0.000    0.000    0.000    0.000    0.000 
#
# Total GULP energy -198325.617189 kJ/mol
# GULP energy per Si atom -12395.351074 kJ/mol
# Density = 2.325518 g / cm^3
# Si number density = 23.308236 Si / 1000 Ang^3
#
#
#
# Elastic Constant Matrix: (Units=GPa)
#
#
# Indices 1 2 3 4 5 6 
#
# 1 71.7015 58.7780 13.3927 -4.6928 0.2159 -1.8262
# 2 58.7780 186.0844 29.2126 -17.7078 10.7321 10.0907
# 3 13.3927 29.2126 45.5126 2.3334 4.0121 1.8741
# 4 -4.6928 -17.7078 2.3334 40.7117 -1.5822 3.3529
# 5 0.2159 10.7321 4.0121 -1.5822 36.4413 -1.3684
# 6 -1.8262 10.0907 1.8741 3.3529 -1.3684 52.2169
#
#
#
# Elastic Compliance Matrix: (Units=1/GPa)
#
#
# Indices 1 2 3 4 5 6 
#
# 1 0.019290 -0.006028 -0.002042 -0.000369 0.001944 0.001987
# 2 -0.006028 0.008354 -0.003499 0.003224 -0.001973 -0.001958
# 3 -0.002042 -0.003499 0.025157 -0.003261 -0.001874 -0.000138
# 4 -0.000369 0.003224 -0.003261 0.026309 0.000472 -0.002196
# 5 0.001944 -0.001973 -0.001874 0.000472 0.028284 0.001227
# 6 0.001987 -0.001958 -0.000138 -0.002196 0.001227 0.019777
#
#
# Mechanical properties :
#
#
# Convention : Reuss Voigt Hill
#
# Bulk Modulus (GPa) = 33.71126 56.22944 44.97035
# Shear Modulus (GPa) = 31.21209 39.33499 35.27354
#
# Velocity S-wave (km/s) = 3.66334 4.11250 3.89440
# Velocity P-wave (km/s) = 5.69105 6.83570 6.28947
#
# Compressibility (1/GPa) = 0.02966368
#
# Stress axis : x y z
#
# Youngs Moduli (GPa) = 51.84087 119.70508 39.75088
#
# Poissons Ratio (x) = 0.72153 0.08116
# Poissons Ratio (y) = 0.31247 0.13909
# Poissons Ratio (z) = 0.10585 0.41885
#
# Static dielectric constant tensor:
#      x y z
#    x 4.368720 0.060320 0.183430 
#    y 0.060320 5.260390 -0.247720 
#    z 0.183430 -0.247720 4.294100 
# 
# 
# High freq. dielectric constant tensor:
#      x y z
#    x 1.916800 -0.000370 0.001220 
#    y -0.000370 1.941630 -0.005650 
#    z 0.001220 -0.005650 1.907060 
# 
# From -- ./inp_files/110749.got.cif
#   From: 2010.06.25/outbox.cif.g09.slc.cpg/sg2_56_cif.got.tgz:110749.got - 2010.06.27 13:26:56.
