data_PCOD8026196
_publ_section_title
;
Structure prediction by ZEFSAII (Michael W. Deem and Ramdas Pophale) SiO2 
 PCOD8026196
Probable space group: P -1
;
_chemical_formula_sum "Si O2"
_cell_formula_units_Z 10
_cell_length_a 11.739633
_cell_length_b 8.778526
_cell_length_c 8.824807
_cell_angle_alpha 147.864797
_cell_angle_beta 59.760731
_cell_angle_gamma 107.841776
_cell_volume 403.414448
_symmetry_space_group_name_H-M "P -1"
_symmetry_group_IT_number 2
_symmetry_cell_setting 'triclinic'
loop_
_space_group_symop_operation_xyz
x,y,z
-x,-y,-z
loop_
_atom_site_type_symbol
_atom_site_label
_atom_site_fract_x
_atom_site_fract_y
_atom_site_fract_z
Si Si1 0.532803 0.229781 0.462253
Si Si2 0.169900 0.890429 0.132576
Si Si3 0.137493 0.915875 0.533639
Si Si4 0.699897 0.711535 0.094891
Si Si5 0.656342 0.680622 0.609282
O O1 0.426438 0.322802 0.748289
O O2 0.596549 0.509992 0.636359
O O3 0.464227 0.159448 0.292054
O O4 0.648750 0.934353 0.178160
O O5 0.162539 0.898396 0.323955
O O6 0.275364 0.074182 0.158542
O O7 0.226145 0.552123 0.758930
O O8 0.022130 0.026340 0.271507
O O9 0.190326 0.184340 0.788899
O O10 0.223160 0.609483 0.295008
#
# Coordination Sequence:
#
# PCOD8026196 Si02
#       5
#     2   2   2   2   2
#     4  10  24  40  64  88 128 154 200 244 304 356
#     4  11  22  40  64  89 120 159 204 246 293 356
#     4  11  22  40  64  89 120 159 204 246 293 356
#     4  11  23  41  62  93 118 161 196 250 297 357
#     4  11  23  41  62  93 118 161 196 250 297 357
#
# _framework density 24.788402999999999
#
# number of rings (size 3 to 8) (size 9 to 14) (size 15 to 20)
#    0.000    1.200    4.000    1.200    0.000   14.400 
#    0.000    6.000    0.000    0.000    0.000    0.000 
#    0.000    0.000    0.000    0.000    0.000    0.000 
#
# Total GULP energy -124091.920914 kJ/mol
# GULP energy per Si atom -12409.192091 kJ/mol
# Density = 2.473198 g / cm^3
# Si number density = 24.788403 Si / 1000 Ang^3
#
#
#
# Elastic Constant Matrix: (Units=GPa)
#
#
# Indices 1 2 3 4 5 6 
#
# 1 101.9898 52.0369 22.9378 4.1082 -37.4483 12.4413
# 2 52.0369 116.5237 6.3988 16.0182 -19.8597 -3.2975
# 3 22.9378 6.3988 40.4035 17.8891 -3.6696 3.0359
# 4 4.1082 16.0182 17.8891 32.1161 -3.1867 -1.1236
# 5 -37.4483 -19.8597 -3.6696 -3.1867 36.5377 5.7451
# 6 12.4413 -3.2975 3.0359 -1.1236 5.7451 38.0976
#
#
#
# Elastic Compliance Matrix: (Units=1/GPa)
#
#
# Indices 1 2 3 4 5 6 
#
# 1 0.029415 -0.009876 -0.017630 0.013135 0.026138 -0.012610
# 2 -0.009876 0.013426 0.007098 -0.009600 -0.003590 0.004080
# 3 -0.017630 0.007098 0.044128 -0.026991 -0.012759 0.003983
# 4 0.013135 -0.009600 -0.026991 0.050204 0.010393 -0.003056
# 5 0.026138 -0.003590 -0.012759 0.010393 0.054303 -0.015712
# 6 -0.012610 0.004080 0.003983 -0.003056 -0.015712 0.032681
#
#
# Mechanical properties :
#
#
# Convention : Reuss Voigt Hill
#
# Bulk Modulus (GPa) = 21.66655 46.85158 34.25907
# Shear Modulus (GPa) = 17.83454 33.18651 25.51053
#
# Velocity S-wave (km/s) = 2.68521 3.66292 3.21149
# Velocity P-wave (km/s) = 4.28641 6.06885 5.25377
#
# Compressibility (1/GPa) = 0.04615409
#
# Stress axis : x y z
#
# Youngs Moduli (GPa) = 33.99617 74.48420 22.66160
#
# Poissons Ratio (x) = 0.73558 0.39952
# Poissons Ratio (y) = 0.33573 -0.16086
# Poissons Ratio (z) = 0.59934 -0.52871
#
# Static dielectric constant tensor:
#      x y z
#    x 4.639220 0.096650 -0.286110 
#    y 0.096650 4.403340 0.201350 
#    z -0.286110 0.201350 4.405840 
# 
# 
# High freq. dielectric constant tensor:
#      x y z
#    x 1.989890 0.005030 -0.011090 
#    y 0.005030 1.985930 0.009760 
#    z -0.011090 0.009760 1.995060 
# 
# From -- ./inp_files/18136.got.cif
#   From: 2010.06.25/outbox.cif.g09.slc.cpg/sg2_10_cif.got.tgz:18136.got - 2010.06.27 13:26:56.
