data_PCOD8026788
_publ_section_title
;
Structure prediction by ZEFSAII (Michael W. Deem and Ramdas Pophale) SiO2 
 PCOD8026788
Probable space group: P -1
;
_chemical_formula_sum "Si O2"
_cell_formula_units_Z 16
_cell_length_a 21.262232
_cell_length_b 9.311833
_cell_length_c 17.877306
_cell_angle_alpha 37.415755
_cell_angle_beta 162.721110
_cell_angle_gamma 141.780543
_cell_volume 631.457690
_symmetry_space_group_name_H-M "P -1"
_symmetry_group_IT_number 2
_symmetry_cell_setting 'triclinic'
loop_
_space_group_symop_operation_xyz
x,y,z
-x,-y,-z
loop_
_atom_site_type_symbol
_atom_site_label
_atom_site_fract_x
_atom_site_fract_y
_atom_site_fract_z
Si Si1 0.106846 0.846818 0.975203
Si Si2 0.185453 0.662000 0.687307
Si Si3 0.433579 0.533784 0.517931
Si Si4 0.504698 0.992314 0.201811
Si Si5 0.033123 0.956119 0.672844
Si Si6 0.781327 0.491518 0.564856
Si Si7 0.544595 0.741318 0.814071
Si Si8 0.888122 0.811513 0.890126
O O1 0.212484 0.600003 0.202985
O O2 0.299839 0.051233 0.136407
O O3 0.028941 0.891413 0.784787
O O4 0.923745 0.883995 0.812800
O O5 0.000000 0.500000 0.500000
O O6 0.307441 0.887834 0.687096
O O7 0.354412 0.504043 0.975635
O O8 0.054739 0.793183 0.546042
O O9 0.463594 0.275275 0.625350
O O10 0.406044 0.511474 0.585126
O O11 0.634319 0.739310 0.644239
O O12 0.497968 0.177966 0.184595
O O13 0.272534 0.970553 0.906631
O O14 0.865024 0.759279 0.520247
O O15 0.686967 0.312587 0.465828
O O16 0.995130 0.418235 0.872865
O O17 0.000000 0.000000 0.000000
#
# Coordination Sequence:
#
# PCOD8026788 Si02
#       8
#     2   2   2   2   2   2   2   2
#     4  10  24  43  68 100 135 181 228 277 331 408
#     4  12  24  47  74  99 133 178 227 292 336 392
#     4  11  23  44  70  99 142 178 227 275 334 408
#     4  11  24  46  71 104 128 178 233 279 327 410
#     4  11  24  45  68  99 136 178 228 280 337 399
#     4  11  24  47  63 100 146 174 218 285 339 405
#     4  11  25  45  71 100 138 175 231 283 340 398
#     4  11  23  41  69 101 141 184 223 277 344 398
#
# _framework density 25.338200000000001
#
# number of rings (size 3 to 8) (size 9 to 14) (size 15 to 20)
#    0.000    1.000    5.000    1.875    0.000    9.500 
#    4.500    0.625    0.000    0.000    0.000    0.000 
#    0.000    0.000    0.000    0.000    0.000    0.000 
#
# Total GULP energy -198331.389195 kJ/mol
# GULP energy per Si atom -12395.711825 kJ/mol
# Density = 2.528053 g / cm^3
# Si number density = 25.338200 Si / 1000 Ang^3
#
#
#
# Elastic Constant Matrix: (Units=GPa)
#
#
# Indices 1 2 3 4 5 6 
#
# 1 37.9075 10.1021 23.3872 13.8327 16.6669 1.1399
# 2 10.1021 96.3327 17.4279 7.4060 16.4351 -3.2126
# 3 23.3872 17.4279 100.3986 0.1407 22.5627 0.6226
# 4 13.8327 7.4060 0.1407 61.0406 1.6726 9.1131
# 5 16.6669 16.4351 22.5627 1.6726 37.1551 5.9338
# 6 1.1399 -3.2126 0.6226 9.1131 5.9338 28.2607
#
#
#
# Elastic Compliance Matrix: (Units=1/GPa)
#
#
# Indices 1 2 3 4 5 6 
#
# 1 0.039699 0.000288 -0.006034 -0.009309 -0.014592 0.004630
# 2 0.000288 0.011627 -0.000959 -0.001778 -0.005085 0.002972
# 3 -0.006034 -0.000959 0.012567 0.001532 -0.004623 0.000334
# 4 -0.009309 -0.001778 0.001532 0.019646 0.004281 -0.007094
# 5 -0.014592 -0.005085 -0.004623 0.004281 0.039863 -0.009638
# 6 0.004630 0.002972 0.000334 -0.007094 -0.009638 0.039840
#
#
# Mechanical properties :
#
#
# Convention : Reuss Voigt Hill
#
# Bulk Modulus (GPa) = 19.80827 37.38591 28.59709
# Shear Modulus (GPa) = 25.84250 37.53938 31.69094
#
# Velocity S-wave (km/s) = 3.19706 3.85324 3.54039
# Velocity P-wave (km/s) = 4.63279 5.88077 5.29368
#
# Compressibility (1/GPa) = 0.05048396
#
# Stress axis : x y z
#
# Youngs Moduli (GPa) = 25.18946 86.00472 79.57341
#
# Poissons Ratio (x) = -0.02477 0.48015
# Poissons Ratio (y) = -0.00726 0.07628
# Poissons Ratio (z) = 0.15200 0.08245
#
# Static dielectric constant tensor:
#      x y z
#    x 4.235210 0.070850 0.343180 
#    y 0.070850 4.910920 -0.141470 
#    z 0.343180 -0.141470 4.919720 
# 
# 
# High freq. dielectric constant tensor:
#      x y z
#    x 1.978030 -0.005320 0.026990 
#    y -0.005320 2.033500 0.004640 
#    z 0.026990 0.004640 2.024640 
# 
# From -- ./inp_files/577569.got.cif
#   From: 2010.06.25/outbox.cif.g09.slc.cpg/sg2_289_cif.got.tgz:577569.got - 2010.06.27 13:26:56.
