data_PCOD8026570
_publ_section_title
;
Structure prediction by ZEFSAII (Michael W. Deem and Ramdas Pophale) SiO2 
 PCOD8026570
Probable space group: P -1
;
_chemical_formula_sum "Si O2"
_cell_formula_units_Z 14
_cell_length_a 10.557018
_cell_length_b 15.570359
_cell_length_c 13.076611
_cell_angle_alpha 153.131452
_cell_angle_beta 140.687657
_cell_angle_gamma 51.272670
_cell_volume 599.609336
_symmetry_space_group_name_H-M "P -1"
_symmetry_group_IT_number 2
_symmetry_cell_setting 'triclinic'
loop_
_space_group_symop_operation_xyz
x,y,z
-x,-y,-z
loop_
_atom_site_type_symbol
_atom_site_label
_atom_site_fract_x
_atom_site_fract_y
_atom_site_fract_z
Si Si1 0.383147 0.879760 0.706261
Si Si2 0.529509 0.790945 0.028335
Si Si3 0.224238 0.867447 0.076103
Si Si4 0.551343 0.403538 0.709885
Si Si5 0.846425 0.709585 0.538375
Si Si6 0.134573 0.614973 0.944785
Si Si7 0.292800 0.571530 0.471764
O O1 0.519298 0.765625 0.599288
O O2 0.223973 0.701796 0.473963
O O3 0.311190 0.034840 0.749299
O O4 0.500000 0.000000 0.000000
O O5 0.440018 0.878385 0.165169
O O6 0.640786 0.617609 0.943269
O O7 0.335885 0.704734 0.741732
O O8 0.187696 0.081746 0.292461
O O9 0.229072 0.785639 0.106301
O O10 0.040883 0.724926 0.749657
O O11 0.350301 0.419937 0.664451
O O12 0.726934 0.347061 0.827945
O O13 0.869486 0.598240 0.330136
O O14 0.898142 0.612188 0.824484
O O15 0.500000 0.500000 0.500000
#
# Coordination Sequence:
#
# PCOD8026570 Si02
#       7
#     2   2   2   2   2   2   2
#     4  10  24  42  69  92 125 176 231 268 315 385
#     4  11  21  42  68  94 124 174 225 271 318 387
#     4  11  23  39  71  96 131 172 225 269 322 394
#     4  12  24  41  66  98 138 174 209 275 342 388
#     4  11  23  40  65 100 134 172 218 268 329 393
#     4  12  26  41  63 102 139 170 215 271 339 393
#     4  11  23  44  70  91 126 176 229 273 314 386
#
# _framework density 23.348534999999998
#
# number of rings (size 3 to 8) (size 9 to 14) (size 15 to 20)
#    0.000    0.857    5.714    1.714    0.000    2.286 
#    2.571    0.714    0.000    0.000    0.000    0.000 
#    0.000    0.000    0.000    0.000    0.000    0.000 
#
# Total GULP energy -173486.205007 kJ/mol
# GULP energy per Si atom -12391.871786 kJ/mol
# Density = 2.329539 g / cm^3
# Si number density = 23.348535 Si / 1000 Ang^3
#
#
#
# Elastic Constant Matrix: (Units=GPa)
#
#
# Indices 1 2 3 4 5 6 
#
# 1 103.1457 41.1155 23.7942 -2.7034 -3.3308 17.7860
# 2 41.1155 128.6551 26.2327 13.9445 -1.4513 38.1465
# 3 23.7942 26.2327 51.0887 6.1584 -14.0465 4.7984
# 4 -2.7034 13.9445 6.1584 37.1036 0.2177 8.9739
# 5 -3.3308 -1.4513 -14.0465 0.2177 25.7758 13.8375
# 6 17.7860 38.1465 4.7984 8.9739 13.8375 42.7279
#
#
#
# Elastic Compliance Matrix: (Units=1/GPa)
#
#
# Indices 1 2 3 4 5 6 
#
# 1 0.012378 -0.002359 -0.004350 0.003372 0.000994 -0.003588
# 2 -0.002359 0.012679 -0.002778 -0.001783 0.004952 -0.011255
# 3 -0.004350 -0.002778 0.028345 -0.003198 0.016704 -0.003630
# 4 0.003372 -0.001783 -0.003198 0.029910 0.001718 -0.006291
# 5 0.000994 0.004952 0.016704 0.001718 0.063050 -0.027490
# 6 -0.003588 -0.011255 -0.003630 -0.006291 -0.027490 0.045578
#
#
# Mechanical properties :
#
#
# Convention : Reuss Voigt Hill
#
# Bulk Modulus (GPa) = 29.04583 51.68604 40.36594
# Shear Modulus (GPa) = 22.48302 33.90462 28.19382
#
# Velocity S-wave (km/s) = 3.10648 3.81479 3.47871
# Velocity P-wave (km/s) = 5.03329 6.44890 5.78456
#
# Compressibility (1/GPa) = 0.03442835
#
# Stress axis : x y z
#
# Youngs Moduli (GPa) = 80.78787 78.86754 35.27926
#
# Poissons Ratio (x) = 0.18608 0.15346
# Poissons Ratio (y) = 0.19061 0.09801
# Poissons Ratio (z) = 0.35141 0.21910
#
# Static dielectric constant tensor:
#      x y z
#    x 4.318610 0.462650 -0.086520 
#    y 0.462650 4.218640 0.329450 
#    z -0.086520 0.329450 4.132600 
# 
# 
# High freq. dielectric constant tensor:
#      x y z
#    x 1.922820 0.032540 -0.018140 
#    y 0.032540 1.916130 0.030730 
#    z -0.018140 0.030730 1.910070 
# 
# From -- ./inp_files/261196.got.cif
#   From: 2010.06.25/outbox.cif.g09.slc.cpg/sg2_131_cif.got.tgz:261196.got - 2010.06.27 13:26:56.
