data_PCOD8026895
_publ_section_title
;
Structure prediction by ZEFSAII (Michael W. Deem and Ramdas Pophale) SiO2 
 PCOD8026895
Probable space group: P -1
;
_chemical_formula_sum "Si O2"
_cell_formula_units_Z 14
_cell_length_a 18.922252
_cell_length_b 7.749858
_cell_length_c 9.073690
_cell_angle_alpha 66.220037
_cell_angle_beta 119.367996
_cell_angle_gamma 62.874947
_cell_volume 607.877165
_symmetry_space_group_name_H-M "P -1"
_symmetry_group_IT_number 2
_symmetry_cell_setting 'triclinic'
loop_
_space_group_symop_operation_xyz
x,y,z
-x,-y,-z
loop_
_atom_site_type_symbol
_atom_site_label
_atom_site_fract_x
_atom_site_fract_y
_atom_site_fract_z
Si Si1 0.643783 0.468990 0.400322
Si Si2 0.703073 0.325492 0.182207
Si Si3 0.143254 0.672910 0.840605
Si Si4 0.797704 0.877166 0.930615
Si Si5 0.112366 0.363320 0.401517
Si Si6 0.353022 0.874454 0.017070
Si Si7 0.141826 0.673335 0.175474
O O1 0.631912 0.522119 0.194356
O O2 0.722354 0.493124 0.549956
O O3 0.484095 0.767824 0.198072
O O4 0.725242 0.116517 0.634541
O O5 0.732290 0.456248 0.072600
O O6 0.602110 0.382864 0.959486
O O7 0.848325 0.928416 0.500776
O O8 0.184339 0.377422 0.984789
O O9 0.134539 0.756865 0.971533
O O10 0.000000 0.000000 0.500000
O O11 0.950150 0.684432 0.177648
O O12 0.691290 0.124432 0.870908
O O13 0.147173 0.434823 0.274786
O O14 0.211177 0.245947 0.679373
O O15 0.000000 0.000000 0.000000
#
# Coordination Sequence:
#
# PCOD8026895 Si02
#       7
#     2   2   2   2   2   2   2
#     4  12  25  46  71 100 142 181 225 284 340 408
#     4  10  24  43  70  96 138 177 232 270 341 403
#     4  12  25  42  68 104 137 176 229 283 342 401
#     4  12  24  43  73 100 137 178 232 286 337 397
#     4  10  24  43  71  97 139 174 232 274 344 393
#     4  10  25  46  71  98 139 184 230 272 347 404
#     4  12  26  41  70 104 137 174 229 285 340 402
#
# _framework density 23.030968000000001
#
# number of rings (size 3 to 8) (size 9 to 14) (size 15 to 20)
#    0.857    0.000    2.857    3.857    4.000    1.714 
#    0.000    1.429    0.000    0.000    0.000    0.000 
#    0.000    0.000    0.000    0.000    0.000    0.000 
#
# Total GULP energy -173559.180123 kJ/mol
# GULP energy per Si atom -12397.084295 kJ/mol
# Density = 2.297855 g / cm^3
# Si number density = 23.030968 Si / 1000 Ang^3
#
#
#
# Elastic Constant Matrix: (Units=GPa)
#
#
# Indices 1 2 3 4 5 6 
#
# 1 175.8044 47.0549 54.8514 6.8994 6.0668 -15.5689
# 2 47.0549 81.1625 26.9007 19.1286 1.5698 -11.4469
# 3 54.8514 26.9007 70.0184 3.3885 19.6144 -9.1010
# 4 6.8994 19.1286 3.3885 32.1637 0.7424 -5.1604
# 5 6.0668 1.5698 19.6144 0.7424 54.8141 -6.6961
# 6 -15.5689 -11.4469 -9.1010 -5.1604 -6.6961 37.0505
#
#
#
# Elastic Compliance Matrix: (Units=1/GPa)
#
#
# Indices 1 2 3 4 5 6 
#
# 1 0.008271 -0.002944 -0.005559 0.000780 0.001337 0.001551
# 2 -0.002944 0.017931 -0.004335 -0.009253 0.001766 0.002268
# 3 -0.005559 -0.004335 0.022329 0.001704 -0.007182 0.000749
# 4 0.000780 -0.009253 0.001704 0.036725 -0.000574 0.002899
# 5 0.001337 0.001766 -0.007182 -0.000574 0.020996 0.003058
# 6 0.001551 0.002268 0.000749 0.002899 0.003058 0.029483
#
#
# Mechanical properties :
#
#
# Convention : Reuss Voigt Hill
#
# Bulk Modulus (GPa) = 43.75307 64.95549 54.35428
# Shear Modulus (GPa) = 29.58049 38.01755 33.79902
#
# Velocity S-wave (km/s) = 3.58771 4.06731 3.83501
# Velocity P-wave (km/s) = 6.01672 7.09381 6.57735
#
# Compressibility (1/GPa) = 0.02285554
#
# Stress axis : x y z
#
# Youngs Moduli (GPa) = 120.90255 55.76986 44.78406
#
# Poissons Ratio (x) = 0.16417 0.24897
# Poissons Ratio (y) = 0.35590 0.19414
# Poissons Ratio (z) = 0.67213 0.24176
#
# Static dielectric constant tensor:
#      x y z
#    x 4.482030 -0.031420 -0.176450 
#    y -0.031420 3.759620 0.129670 
#    z -0.176450 0.129670 4.039300 
# 
# 
# High freq. dielectric constant tensor:
#      x y z
#    x 1.930980 -0.004790 -0.007310 
#    y -0.004790 1.887400 0.008870 
#    z -0.007310 0.008870 1.899520 
# 
# From -- ./inp_files/325790.got.cif
#   From: 2010.06.25/outbox.cif.g09.slc.cpg/sg2_163_cif.got.tgz:325790.got - 2010.06.27 13:26:56.
