data_PCOD8026669
_publ_section_title
;
Structure prediction by ZEFSAII (Michael W. Deem and Ramdas Pophale) SiO2 
 PCOD8026669
Probable space group: P -1
;
_chemical_formula_sum "Si O2"
_cell_formula_units_Z 14
_cell_length_a 17.381480
_cell_length_b 9.806150
_cell_length_c 19.350966
_cell_angle_alpha 31.364921
_cell_angle_beta 157.675243
_cell_angle_gamma 141.824907
_cell_volume 651.986834
_symmetry_space_group_name_H-M "P -1"
_symmetry_group_IT_number 2
_symmetry_cell_setting 'triclinic'
loop_
_space_group_symop_operation_xyz
x,y,z
-x,-y,-z
loop_
_atom_site_type_symbol
_atom_site_label
_atom_site_fract_x
_atom_site_fract_y
_atom_site_fract_z
Si Si1 0.159587 0.075143 0.242678
Si Si2 0.257593 0.434855 0.046923
Si Si3 0.297819 0.504573 0.586595
Si Si4 0.259118 0.146405 0.036573
Si Si5 0.872598 0.781877 0.559024
Si Si6 0.292025 0.044078 0.518912
Si Si7 0.896671 0.337198 0.380410
O O1 0.275808 0.816849 0.422303
O O2 0.918007 0.043510 0.052368
O O3 0.224646 0.320923 0.145030
O O4 0.224004 0.141457 0.345463
O O5 0.479120 0.563047 0.170380
O O6 0.236756 0.199557 0.076648
O O7 0.097914 0.662578 0.798348
O O8 0.265923 0.360833 0.549725
O O9 0.131504 0.420808 0.541559
O O10 0.247234 0.423768 0.866623
O O11 0.468565 0.001477 0.256847
O O12 0.770853 0.740549 0.568454
O O13 0.882792 0.096390 0.417206
O O14 0.176486 0.769787 0.559466
#
# Coordination Sequence:
#
# PCOD8026669 Si02
#       7
#     2   2   2   2   2   2   2
#     4  11  24  42  66  95 125 164 224 252 302 384
#     4  12  24  40  68  96 122 171 217 251 312 372
#     4  11  22  40  69  92 124 172 207 262 309 368
#     4  11  22  41  70  92 122 175 205 261 315 364
#     4  10  24  43  61  97 134 158 206 268 309 375
#     4  10  24  43  63  97 131 160 204 270 313 371
#     4   9  22  44  63  95 134 152 217 255 318 378
#
# _framework density 21.472826999999999
#
# number of rings (size 3 to 8) (size 9 to 14) (size 15 to 20)
#    0.857    0.571    4.286    1.714    0.000    4.571 
#    2.571    1.429    0.000    0.000    0.000    0.000 
#    0.000    0.000    0.000    0.000    0.000    0.000 
#
# Total GULP energy -173579.108948 kJ/mol
# GULP energy per Si atom -12398.507782 kJ/mol
# Density = 2.142395 g / cm^3
# Si number density = 21.472827 Si / 1000 Ang^3
#
#
#
# Elastic Constant Matrix: (Units=GPa)
#
#
# Indices 1 2 3 4 5 6 
#
# 1 60.5630 -9.6324 20.6754 7.1501 2.3173 4.0123
# 2 -9.6324 29.6419 17.8214 9.6125 7.2948 -8.5075
# 3 20.6754 17.8214 135.9059 27.0464 25.2602 -10.5934
# 4 7.1501 9.6125 27.0464 21.4983 -0.7426 -0.9743
# 5 2.3173 7.2948 25.2602 -0.7426 32.6290 -4.0376
# 6 4.0123 -8.5075 -10.5934 -0.9743 -4.0376 31.5784
#
#
#
# Elastic Compliance Matrix: (Units=1/GPa)
#
#
# Indices 1 2 3 4 5 6 
#
# 1 0.020335 0.011264 -0.002436 -0.008861 -0.002396 -0.000946
# 2 0.011264 0.051932 -0.000317 -0.026504 -0.011510 0.010164
# 3 -0.002436 -0.000317 0.012872 -0.015450 -0.009724 0.002822
# 4 -0.008861 -0.026504 -0.015450 0.081147 0.019597 -0.006188
# 5 -0.002396 -0.011510 -0.009724 0.019597 0.041344 -0.000168
# 6 -0.000946 0.010164 0.002822 -0.006188 -0.000168 0.035260
#
#
# Mechanical properties :
#
#
# Convention : Reuss Voigt Hill
#
# Bulk Modulus (GPa) = 9.78841 31.53774 20.66308
# Shear Modulus (GPa) = 19.23652 30.29090 24.76371
#
# Velocity S-wave (km/s) = 2.99633 3.75995 3.39965
# Velocity P-wave (km/s) = 4.06682 5.79386 5.00539
#
# Compressibility (1/GPa) = 0.10216167
#
# Stress axis : x y z
#
# Youngs Moduli (GPa) = 49.17570 19.25592 77.68711
#
# Poissons Ratio (x) = -0.21690 0.18923
# Poissons Ratio (y) = -0.55392 0.02465
# Poissons Ratio (z) = 0.11978 0.00611
#
# Static dielectric constant tensor:
#      x y z
#    x 3.917520 -0.043960 0.086400 
#    y -0.043960 3.625810 0.045320 
#    z 0.086400 0.045320 3.823980 
# 
# 
# High freq. dielectric constant tensor:
#      x y z
#    x 1.845530 -0.001520 0.006960 
#    y -0.001520 1.824430 0.005420 
#    z 0.006960 0.005420 1.845260 
# 
# From -- ./inp_files/599414.got.cif
#   From: 2010.06.25/outbox.cif.g09.slc.cpg/sg2_300_cif.got.tgz:599414.got - 2010.06.27 13:26:56.
