data_PCOD8026938
_publ_section_title
;
Structure prediction by ZEFSAII (Michael W. Deem and Ramdas Pophale) SiO2 
 PCOD8026938
Probable space group: P -1
;
_chemical_formula_sum "Si O2"
_cell_formula_units_Z 16
_cell_length_a 16.976722
_cell_length_b 9.179804
_cell_length_c 11.883854
_cell_angle_alpha 83.603986
_cell_angle_beta 137.345223
_cell_angle_gamma 130.659825
_cell_volume 664.997666
_symmetry_space_group_name_H-M "P -1"
_symmetry_group_IT_number 2
_symmetry_cell_setting 'triclinic'
loop_
_space_group_symop_operation_xyz
x,y,z
-x,-y,-z
loop_
_atom_site_type_symbol
_atom_site_label
_atom_site_fract_x
_atom_site_fract_y
_atom_site_fract_z
Si Si1 0.920895 0.622486 0.812367
Si Si2 0.451679 0.861867 0.849272
Si Si3 0.253160 0.927646 0.557632
Si Si4 0.062694 0.284576 0.594420
Si Si5 0.750678 0.127448 0.680342
Si Si6 0.798237 0.002229 0.132024
Si Si7 0.341762 0.435288 0.060139
Si Si8 0.631838 0.493394 0.666400
O O1 0.752907 0.306768 0.661745
O O2 0.816018 0.658772 0.751951
O O3 0.000620 0.743758 0.760264
O O4 0.127249 0.799735 0.088588
O O5 0.376063 0.902795 0.677024
O O6 0.260673 0.546112 0.703028
O O7 0.500000 0.000000 0.000000
O O8 0.663730 0.006891 0.012656
O O9 0.146628 0.834170 0.330006
O O10 0.066538 0.723624 0.474395
O O11 0.427422 0.240065 0.747794
O O12 0.892443 0.035366 0.346100
O O13 0.147474 0.271525 0.784539
O O14 0.507527 0.804689 0.456713
O O15 0.633033 0.711315 0.924631
O O16 0.263612 0.378004 0.110833
O O17 0.500000 0.500000 0.500000
#
# Coordination Sequence:
#
# PCOD8026938 Si02
#       8
#     2   2   2   2   2   2   2   2
#     4  11  25  46  69 103 136 178 231 276 336 408
#     4  12  25  45  67 101 138 174 227 284 334 402
#     4  11  24  44  72 100 136 180 226 281 344 400
#     4  12  24  43  72  98 136 181 228 276 344 398
#     4  10  24  43  72 101 136 177 228 280 339 397
#     4  12  28  44  69 100 140 182 227 280 338 403
#     4  11  26  45  67 101 138 176 229 279 336 406
#     4  11  25  46  72 100 140 178 222 282 343 399
#
# _framework density 24.060234000000001
#
# number of rings (size 3 to 8) (size 9 to 14) (size 15 to 20)
#    0.000    0.750    2.500    3.375    1.750   15.000 
#    0.000    0.000    0.000    0.000    0.000    0.000 
#    0.000    0.000    0.000    0.000    0.000    0.000 
#
# Total GULP energy -198323.786284 kJ/mol
# GULP energy per Si atom -12395.236643 kJ/mol
# Density = 2.400547 g / cm^3
# Si number density = 24.060234 Si / 1000 Ang^3
#
#
#
# Elastic Constant Matrix: (Units=GPa)
#
#
# Indices 1 2 3 4 5 6 
#
# 1 166.2925 47.1100 43.6662 -3.1306 -0.9669 7.0954
# 2 47.1100 87.5917 24.9155 -9.2886 -0.4638 -3.9714
# 3 43.6662 24.9155 76.4348 -10.1773 -27.5102 -2.9649
# 4 -3.1306 -9.2886 -10.1773 30.0288 1.2736 -8.1552
# 5 -0.9669 -0.4638 -27.5102 1.2736 41.1218 -0.4769
# 6 7.0954 -3.9714 -2.9649 -8.1552 -0.4769 41.4721
#
#
#
# Elastic Compliance Matrix: (Units=1/GPa)
#
#
# Indices 1 2 3 4 5 6 
#
# 1 0.008443 -0.003427 -0.005376 -0.002593 -0.003387 -0.002706
# 2 -0.003427 0.014601 -0.002871 0.003956 -0.001930 0.002535
# 3 -0.005376 -0.002871 0.023782 0.007011 0.015579 0.003903
# 4 -0.002593 0.003956 0.007011 0.038929 0.003573 0.009020
# 5 -0.003387 -0.001930 0.015579 0.003573 0.034559 0.002608
# 6 -0.002706 0.002535 0.003903 0.009020 0.002608 0.026901
#
#
# Mechanical properties :
#
#
# Convention : Reuss Voigt Hill
#
# Bulk Modulus (GPa) = 42.59244 62.41139 52.50191
# Shear Modulus (GPa) = 28.02881 36.83303 32.43092
#
# Velocity S-wave (km/s) = 3.41683 3.91688 3.67537
# Velocity P-wave (km/s) = 5.77123 6.81556 6.31502
#
# Compressibility (1/GPa) = 0.02347834
#
# Stress axis : x y z
#
# Youngs Moduli (GPa) = 118.44179 68.48897 42.04883
#
# Poissons Ratio (x) = 0.23474 0.22603
# Poissons Ratio (y) = 0.40595 0.12071
# Poissons Ratio (z) = 0.63668 0.19661
#
# Static dielectric constant tensor:
#      x y z
#    x 4.402460 -0.016920 -0.292500 
#    y -0.016920 4.061810 -0.146810 
#    z -0.292500 -0.146810 4.427890 
# 
# 
# High freq. dielectric constant tensor:
#      x y z
#    x 1.964330 0.001380 -0.024510 
#    y 0.001380 1.947450 -0.002730 
#    z -0.024510 -0.002730 1.957900 
# 
# From -- ./inp_files/462165.got.cif
#   From: 2010.06.25/outbox.cif.g09.slc.cpg/sg2_232_cif.got.tgz:462165.got - 2010.06.27 13:26:56.
