data_PCOD8026735
_publ_section_title
;
Structure prediction by ZEFSAII (Michael W. Deem and Ramdas Pophale) SiO2 
 PCOD8026735
Probable space group: P -1
;
_chemical_formula_sum "Si O2"
_cell_formula_units_Z 16
_cell_length_a 6.719141
_cell_length_b 22.790242
_cell_length_c 9.010391
_cell_angle_alpha 127.448412
_cell_angle_beta 124.358627
_cell_angle_gamma 43.483521
_cell_volume 734.381626
_symmetry_space_group_name_H-M "P -1"
_symmetry_group_IT_number 2
_symmetry_cell_setting 'triclinic'
loop_
_space_group_symop_operation_xyz
x,y,z
-x,-y,-z
loop_
_atom_site_type_symbol
_atom_site_label
_atom_site_fract_x
_atom_site_fract_y
_atom_site_fract_z
Si Si1 0.432446 0.963921 0.062671
Si Si2 0.833343 0.418815 0.473151
Si Si3 0.770035 0.106293 0.520503
Si Si4 0.029486 0.805540 0.085890
Si Si5 0.185080 0.618753 0.931491
Si Si6 0.866329 0.508750 0.115973
Si Si7 0.073980 0.885652 0.716010
Si Si8 0.924470 0.782384 0.670106
O O1 0.740035 0.896682 0.171825
O O2 0.229120 0.038791 0.212985
O O3 0.322983 0.901289 0.880979
O O4 0.500000 0.000000 0.000000
O O5 0.500000 0.500000 0.500000
O O6 0.846123 0.408915 0.287651
O O7 0.049313 0.444768 0.657286
O O8 0.956736 0.322355 0.454425
O O9 0.721852 0.178293 0.738180
O O10 0.431064 0.142749 0.393912
O O11 0.936476 0.115988 0.467743
O O12 0.000000 0.000000 0.500000
O O13 0.046519 0.724051 0.048123
O O14 0.008506 0.800838 0.893645
O O15 0.019252 0.591451 0.930264
O O16 0.518131 0.569251 0.047505
O O17 0.000000 0.500000 0.000000
O O18 0.128085 0.792737 0.655954
#
# Coordination Sequence:
#
# PCOD8026735 Si02
#       8
#     2   2   2   2   2   2   2   2
#     4  11  21  41  67  91 131 169 216 269 323 385
#     4  11  23  44  69  99 132 176 220 274 335 400
#     4  12  26  43  67  99 136 174 222 274 331 393
#     4  11  23  44  66  94 135 172 217 279 329 387
#     4  10  24  43  66  96 131 175 218 272 336 391
#     4  11  22  43  67  94 131 170 219 272 329 393
#     4  11  23  41  68  95 126 181 212 269 336 383
#     4  11  25  46  65  97 139 170 225 278 325 396
#
# _framework density 21.787034999999999
#
# number of rings (size 3 to 8) (size 9 to 14) (size 15 to 20)
#    0.000    1.000    3.750    2.625    1.750    4.000 
#    2.250    0.000    0.000    0.000    0.000    0.000 
#    0.000    0.000    0.000    0.000    0.000    0.000 
#
# Total GULP energy -198229.846331 kJ/mol
# GULP energy per Si atom -12389.365396 kJ/mol
# Density = 2.173745 g / cm^3
# Si number density = 21.787035 Si / 1000 Ang^3
#
#
#
# Elastic Constant Matrix: (Units=GPa)
#
#
# Indices 1 2 3 4 5 6 
#
# 1 132.0921 56.4092 41.4846 -1.4656 8.3874 38.5327
# 2 56.4092 131.7534 40.3081 0.1532 6.0020 32.4193
# 3 41.4846 40.3081 140.2792 0.6687 24.0063 20.4493
# 4 -1.4656 0.1532 0.6687 28.6694 3.8436 2.1251
# 5 8.3874 6.0020 24.0063 3.8436 27.7315 6.5495
# 6 38.5327 32.4193 20.4493 2.1251 6.5495 38.8683
#
#
#
# Elastic Compliance Matrix: (Units=1/GPa)
#
#
# Indices 1 2 3 4 5 6 
#
# 1 0.011643 -0.002343 -0.001517 0.001273 0.000224 -0.008897
# 2 -0.002343 0.010464 -0.001692 0.000122 0.001245 -0.005731
# 3 -0.001517 -0.001692 0.009424 0.000745 -0.007232 -0.000865
# 4 0.001273 0.000122 0.000745 0.035855 -0.005362 -0.002812
# 5 0.000224 0.001245 -0.007232 -0.005362 0.043799 -0.004543
# 6 -0.008897 -0.005731 -0.000865 -0.002812 -0.004543 0.040703
#
#
# Mechanical properties :
#
#
# Convention : Reuss Voigt Hill
#
# Bulk Modulus (GPa) = 48.95797 75.61430 62.28614
# Shear Modulus (GPa) = 29.44628 36.78203 33.11416
#
# Velocity S-wave (km/s) = 3.68033 4.11329 3.90282
# Velocity P-wave (km/s) = 6.37022 7.57234 6.99715
#
# Compressibility (1/GPa) = 0.02042568
#
# Stress axis : x y z
#
# Youngs Moduli (GPa) = 85.88952 95.56421 106.11646
#
# Poissons Ratio (x) = 0.22391 0.16101
# Poissons Ratio (y) = 0.20125 0.17956
# Poissons Ratio (z) = 0.13032 0.16170
#
# Static dielectric constant tensor:
#      x y z
#    x 4.190590 0.389310 0.163390 
#    y 0.389310 4.516510 0.009130 
#    z 0.163390 0.009130 4.182770 
# 
# 
# High freq. dielectric constant tensor:
#      x y z
#    x 1.851920 0.016600 0.015440 
#    y 0.016600 1.864170 0.000050 
#    z 0.015440 0.000050 1.873220 
# 
# From -- ./inp_files/55492.got.cif
#   From: 2010.06.25/outbox.cif.g09.slc.cpg/sg2_28_cif.got.tgz:55492.got - 2010.06.27 13:26:56.
