data_PCOD8026334
_publ_section_title
;
Structure prediction by ZEFSAII (Michael W. Deem and Ramdas Pophale) SiO2 
 PCOD8026334
Probable space group: P -1
;
_chemical_formula_sum "Si O2"
_cell_formula_units_Z 16
_cell_length_a 8.810732
_cell_length_b 14.914023
_cell_length_c 12.206347
_cell_angle_alpha 70.390278
_cell_angle_beta 100.804599
_cell_angle_gamma 150.118529
_cell_volume 734.209118
_symmetry_space_group_name_H-M "P -1"
_symmetry_group_IT_number 2
_symmetry_cell_setting 'triclinic'
loop_
_space_group_symop_operation_xyz
x,y,z
-x,-y,-z
loop_
_atom_site_type_symbol
_atom_site_label
_atom_site_fract_x
_atom_site_fract_y
_atom_site_fract_z
Si Si1 0.664225 0.357054 0.757151
Si Si2 0.307523 0.303000 0.031205
Si Si3 0.641425 0.014423 0.741213
Si Si4 0.441027 0.113296 0.633564
Si Si5 0.640336 0.293053 0.018079
Si Si6 0.237419 0.234389 0.284736
Si Si7 0.692904 0.649748 0.224188
Si Si8 0.379119 0.750457 0.633506
O O1 0.502828 0.230251 0.679615
O O2 0.546751 0.402169 0.737386
O O3 0.036912 0.550243 0.718128
O O4 0.560824 0.243513 0.898298
O O5 0.507738 0.314964 0.049244
O O6 0.102825 0.177688 0.164579
O O7 0.500000 0.500000 0.000000
O O8 0.149600 0.232441 0.919451
O O9 0.530324 0.062470 0.724215
O O10 0.017659 0.211727 0.713139
O O11 0.486200 0.869381 0.875555
O O12 0.531892 0.921847 0.645178
O O13 0.651482 0.242405 0.501768
O O14 0.078484 0.923617 0.622828
O O15 0.000000 0.500000 0.000000
O O16 0.496771 0.449020 0.266661
O O17 0.396215 0.218179 0.328375
#
# Coordination Sequence:
#
# PCOD8026334 Si02
#       8
#     2   2   2   2   2   2   2   2
#     4  11  24  44  69  98 135 172 220 272 334 390
#     4   9  20  37  65  94 132 166 212 262 333 387
#     4  12  25  43  67  99 138 170 223 270 331 394
#     4  12  28  43  67  98 132 181 226 267 323 392
#     4  11  22  40  68  99 132 170 212 274 338 391
#     4  11  22  44  68  96 133 175 224 269 329 388
#     4  10  24  41  67 101 135 171 212 274 337 395
#     4  12  24  48  68  94 133 177 225 277 320 388
#
# _framework density 21.792158000000001
#
# number of rings (size 3 to 8) (size 9 to 14) (size 15 to 20)
#    0.000    1.000    2.500    3.375    5.250    2.500 
#    0.000    1.875    0.000    0.000    0.000    0.000 
#    0.000    0.000    0.000    0.000    0.000    0.000 
#
# Total GULP energy -198357.626154 kJ/mol
# GULP energy per Si atom -12397.351635 kJ/mol
# Density = 2.174256 g / cm^3
# Si number density = 21.792158 Si / 1000 Ang^3
#
#
#
# Elastic Constant Matrix: (Units=GPa)
#
#
# Indices 1 2 3 4 5 6 
#
# 1 91.6391 11.0102 25.9144 -10.7356 5.7984 3.8981
# 2 11.0102 73.8098 25.5085 6.6586 -2.5750 4.9259
# 3 25.9144 25.5085 97.9635 5.8435 -12.1410 -12.4008
# 4 -10.7356 6.6586 5.8435 27.6808 -2.4155 -6.9384
# 5 5.7984 -2.5750 -12.1410 -2.4155 28.0633 1.7477
# 6 3.8981 4.9259 -12.4008 -6.9384 1.7477 39.4812
#
#
#
# Elastic Compliance Matrix: (Units=1/GPa)
#
#
# Indices 1 2 3 4 5 6 
#
# 1 0.013204 -0.001067 -0.004224 0.005577 -0.004090 -0.001336
# 2 -0.001067 0.015763 -0.004085 -0.004340 -0.000232 -0.003897
# 3 -0.004224 -0.004085 0.013841 -0.001879 0.006033 0.004677
# 4 0.005577 -0.004340 -0.001879 0.041466 0.000791 0.006653
# 5 -0.004090 -0.000232 0.006033 0.000791 0.039090 0.000736
# 6 -0.001336 -0.003897 0.004677 0.006653 0.000736 0.028552
#
#
# Mechanical properties :
#
#
# Convention : Reuss Voigt Hill
#
# Bulk Modulus (GPa) = 41.56987 43.14205 42.35596
# Shear Modulus (GPa) = 27.98196 32.44370 30.21283
#
# Velocity S-wave (km/s) = 3.58724 3.86266 3.72749
# Velocity P-wave (km/s) = 6.02285 6.30345 6.16475
#
# Compressibility (1/GPa) = 0.02405589
#
# Stress axis : x y z
#
# Youngs Moduli (GPa) = 75.73451 63.44026 72.25024
#
# Poissons Ratio (x) = 0.06766 0.30518
# Poissons Ratio (y) = 0.08078 0.29517
# Poissons Ratio (z) = 0.31989 0.25918
#
# Static dielectric constant tensor:
#      x y z
#    x 3.972080 -0.076390 -0.097140 
#    y -0.076390 3.822140 0.060400 
#    z -0.097140 0.060400 4.254310 
# 
# 
# High freq. dielectric constant tensor:
#      x y z
#    x 1.867850 -0.004710 -0.002990 
#    y -0.004710 1.854540 0.003850 
#    z -0.002990 0.003850 1.861480 
# 
# From -- ./inp_files/200387.got.cif
#   From: 2010.06.25/outbox.cif.g09.slc.cpg/sg2_101_cif.got.tgz:200387.got - 2010.06.27 13:26:56.
