data_PCOD8026636
_publ_section_title
;
Structure prediction by ZEFSAII (Michael W. Deem and Ramdas Pophale) SiO2 
 PCOD8026636
Probable space group: P -1
;
_chemical_formula_sum "Si O2"
_cell_formula_units_Z 16
_cell_length_a 9.503151
_cell_length_b 9.595716
_cell_length_c 15.145403
_cell_angle_alpha 142.467536
_cell_angle_beta 65.720765
_cell_angle_gamma 102.389578
_cell_volume 751.341493
_symmetry_space_group_name_H-M "P -1"
_symmetry_group_IT_number 2
_symmetry_cell_setting 'triclinic'
loop_
_space_group_symop_operation_xyz
x,y,z
-x,-y,-z
loop_
_atom_site_type_symbol
_atom_site_label
_atom_site_fract_x
_atom_site_fract_y
_atom_site_fract_z
Si Si1 0.934192 0.265806 0.161761
Si Si2 0.368534 0.832066 0.719528
Si Si3 0.008898 0.552090 0.126199
Si Si4 0.412628 0.497237 0.382132
Si Si5 0.521748 0.233718 0.654738
Si Si6 0.635705 0.639141 0.061847
Si Si7 0.092221 0.510165 0.394304
Si Si8 0.118978 0.955407 0.526619
O O1 0.761581 0.278982 0.251558
O O2 0.934818 0.382023 0.123727
O O3 0.043212 0.370773 0.254407
O O4 0.000000 0.000000 0.000000
O O5 0.368551 0.736575 0.571525
O O6 0.522360 0.717639 0.678067
O O7 0.360838 0.111686 0.862716
O O8 0.195824 0.528170 0.086646
O O9 0.897140 0.802911 0.295990
O O10 0.000000 0.500000 0.000000
O O11 0.517549 0.561593 0.306228
O O12 0.272411 0.414723 0.324922
O O13 0.393694 0.308106 0.801146
O O14 0.703711 0.172560 0.612375
O O15 0.500000 0.000000 0.500000
O O16 0.500000 0.500000 0.000000
O O17 0.053938 0.783512 0.521675
O O18 0.000000 0.500000 0.500000
O O19 0.000000 0.000000 0.500000
#
# Coordination Sequence:
#
# PCOD8026636 Si02
#       8
#     2   2   2   2   2   2   2   2
#     4  12  26  46  72  99 147 185 227 294 357 419
#     4  11  24  46  69 103 137 181 231 291 353 409
#     4  12  28  46  70 105 144 187 234 286 362 418
#     4  10  24  42  72 103 133 175 240 290 340 410
#     4  11  23  41  71  97 133 177 234 282 335 405
#     4  12  27  47  67 102 146 184 224 290 355 419
#     4  11  24  43  71 104 137 181 237 291 345 413
#     4  11  24  43  69 101 134 180 240 288 333 413
#
# _framework density 21.295244
#
# number of rings (size 3 to 8) (size 9 to 14) (size 15 to 20)
#    0.000    0.750    5.000    1.500    8.750    2.000 
#    0.000    1.250    0.000    0.000    0.000    0.000 
#    0.000    0.000    0.000    0.000    0.000    0.000 
#
# Total GULP energy -198235.286485 kJ/mol
# GULP energy per Si atom -12389.705405 kJ/mol
# Density = 2.124677 g / cm^3
# Si number density = 21.295244 Si / 1000 Ang^3
#
#
#
# Elastic Constant Matrix: (Units=GPa)
#
#
# Indices 1 2 3 4 5 6 
#
# 1 80.3521 43.2853 7.2171 6.7827 10.8756 0.7202
# 2 43.2853 160.2756 36.3682 -5.7445 6.7599 4.7865
# 3 7.2171 36.3682 75.5963 6.8500 2.6073 -3.3697
# 4 6.7827 -5.7445 6.8500 42.2414 1.8488 1.1289
# 5 10.8756 6.7599 2.6073 1.8488 37.6961 -2.5905
# 6 0.7202 4.7865 -3.3697 1.1289 -2.5905 34.4181
#
#
#
# Elastic Compliance Matrix: (Units=1/GPa)
#
#
# Indices 1 2 3 4 5 6 
#
# 1 0.015453 -0.004377 0.001044 -0.003095 -0.003579 0.000220
# 2 -0.004377 0.008464 -0.003947 0.002545 -0.000215 -0.001572
# 3 0.001044 -0.003947 0.015428 -0.003247 -0.000356 0.002117
# 4 -0.003095 0.002545 -0.003247 0.025112 -0.000672 -0.001481
# 5 -0.003579 -0.000215 -0.000356 -0.000672 0.027807 0.002185
# 6 0.000220 -0.001572 0.002117 -0.001481 0.002185 0.029689
#
#
# Mechanical properties :
#
#
# Convention : Reuss Voigt Hill
#
# Bulk Modulus (GPa) = 40.34684 54.44057 47.39370
# Shear Modulus (GPa) = 34.53627 38.16135 36.34881
#
# Velocity S-wave (km/s) = 4.03151 4.23781 4.13594
# Velocity P-wave (km/s) = 6.37638 7.04028 6.71654
#
# Compressibility (1/GPa) = 0.02478509
#
# Stress axis : x y z
#
# Youngs Moduli (GPa) = 64.71298 118.14442 64.81538
#
# Poissons Ratio (x) = 0.51709 -0.06767
# Poissons Ratio (y) = 0.28323 0.25585
# Poissons Ratio (z) = -0.06756 0.46637
#
# Static dielectric constant tensor:
#      x y z
#    x 3.681320 -0.215110 0.517150 
#    y -0.215110 3.687800 0.291260 
#    z 0.517150 0.291260 2.531410 
# 
# 
# High freq. dielectric constant tensor:
#      x y z
#    x 1.842710 0.001600 0.002060 
#    y 0.001600 1.858460 -0.005040 
#    z 0.002060 -0.005040 1.828360 
# 
# From -- ./inp_files/495785.got.cif
#   From: 2010.06.25/outbox.cif.g09.slc.cpg/sg2_248_cif.got.tgz:495785.got - 2010.06.27 13:26:56.
