data_PCOD8026033
_publ_section_title
;
Structure prediction by ZEFSAII (Michael W. Deem and Ramdas Pophale) SiO2 
 PCOD8026033
Probable space group: P -1
;
_chemical_formula_sum "Si O2"
_cell_formula_units_Z 16
_cell_length_a 13.041206
_cell_length_b 9.398430
_cell_length_c 8.831049
_cell_angle_alpha 67.704454
_cell_angle_beta 128.288576
_cell_angle_gamma 79.687164
_cell_volume 645.744754
_symmetry_space_group_name_H-M "P -1"
_symmetry_group_IT_number 2
_symmetry_cell_setting 'triclinic'
loop_
_space_group_symop_operation_xyz
x,y,z
-x,-y,-z
loop_
_atom_site_type_symbol
_atom_site_label
_atom_site_fract_x
_atom_site_fract_y
_atom_site_fract_z
Si Si1 0.985654 0.915708 0.175651
Si Si2 0.935531 0.381156 0.845826
Si Si3 0.402603 0.413555 0.407770
Si Si4 0.587321 0.654354 0.890197
Si Si5 0.285664 0.716145 0.713698
Si Si6 0.499162 0.963055 0.230443
Si Si7 0.247631 0.966969 0.831366
Si Si8 0.125445 0.236744 0.364421
O O1 0.017115 0.719635 0.232259
O O2 0.115640 0.880259 0.430432
O O3 0.817505 0.038587 0.060065
O O4 0.000000 0.000000 0.000000
O O5 0.750792 0.475847 0.670354
O O6 0.966170 0.541250 0.787578
O O7 0.046500 0.226563 0.140639
O O8 0.500000 0.500000 0.500000
O O9 0.341810 0.435360 0.172110
O O10 0.511150 0.189530 0.623987
O O11 0.408380 0.709886 0.711285
O O12 0.594447 0.832187 0.858505
O O13 0.690566 0.484499 0.173510
O O14 0.311808 0.773909 0.880729
O O15 0.683485 0.883068 0.420182
O O16 0.397986 0.985742 0.976816
O O17 0.103124 0.142626 0.529243
#
# Coordination Sequence:
#
# PCOD8026033 Si02
#       8
#     2   2   2   2   2   2   2   2
#     4  12  29  45  72 103 145 187 244 291 358 435
#     4  10  25  45  72 104 144 189 236 298 360 421
#     4  11  24  44  74 105 148 191 239 293 358 427
#     4  11  25  43  74 103 144 183 244 291 359 422
#     4  11  26  47  71 104 143 187 236 302 356 427
#     4  11  25  44  74 108 143 187 241 296 355 426
#     4  12  26  45  77 102 143 191 236 295 366 420
#     4  10  23  47  74 102 148 183 238 300 359 427
#
# _framework density 24.777591999999999
#
# number of rings (size 3 to 8) (size 9 to 14) (size 15 to 20)
#    0.000    1.000    1.250    3.375    8.750    5.500 
#    0.000    0.000    0.000    0.000    0.000    0.000 
#    0.000    0.000    0.000    0.000    0.000    0.000 
#
# Total GULP energy -198314.529150 kJ/mol
# GULP energy per Si atom -12394.658072 kJ/mol
# Density = 2.472120 g / cm^3
# Si number density = 24.777592 Si / 1000 Ang^3
#
#
#
# Elastic Constant Matrix: (Units=GPa)
#
#
# Indices 1 2 3 4 5 6 
#
# 1 70.4196 20.6201 15.3747 -6.3917 -6.6367 -3.8538
# 2 20.6201 115.8280 23.7914 1.5793 -10.0970 5.0733
# 3 15.3747 23.7914 114.4435 -0.0252 -1.4394 13.4426
# 4 -6.3917 1.5793 -0.0252 40.3712 8.1208 -9.9335
# 5 -6.6367 -10.0970 -1.4394 8.1208 36.1938 -8.0377
# 6 -3.8538 5.0733 13.4426 -9.9335 -8.0377 42.8886
#
#
#
# Elastic Compliance Matrix: (Units=1/GPa)
#
#
# Indices 1 2 3 4 5 6 
#
# 1 0.016038 -0.002434 -0.002030 0.003035 0.002276 0.003495
# 2 -0.002434 0.009643 -0.001559 -0.001420 0.002331 -0.000763
# 3 -0.002030 -0.001559 0.009726 -0.000903 -0.000981 -0.003440
# 4 0.003035 -0.001420 -0.000903 0.027800 -0.004719 0.006278
# 5 0.002276 0.002331 -0.000981 -0.004719 0.030808 0.004917
# 6 0.003495 -0.000763 -0.003440 0.006278 0.004917 0.027174
#
#
# Mechanical properties :
#
#
# Convention : Reuss Voigt Hill
#
# Bulk Modulus (GPa) = 42.80632 46.69594 44.75113
# Shear Modulus (GPa) = 35.45541 39.95104 37.70322
#
# Velocity S-wave (km/s) = 3.78689 4.01981 3.90509
# Velocity P-wave (km/s) = 6.03609 6.35862 6.19946
#
# Compressibility (1/GPa) = 0.02336103
#
# Stress axis : x y z
#
# Youngs Moduli (GPa) = 62.35278 103.70161 102.81520
#
# Poissons Ratio (x) = 0.25243 0.20869
# Poissons Ratio (y) = 0.15178 0.16029
# Poissons Ratio (z) = 0.12656 0.16168
#
# Static dielectric constant tensor:
#      x y z
#    x 4.268730 0.192430 -0.246120 
#    y 0.192430 4.760070 -0.058590 
#    z -0.246120 -0.058590 4.642110 
# 
# 
# High freq. dielectric constant tensor:
#      x y z
#    x 1.972250 0.012590 -0.006760 
#    y 0.012590 1.998660 -0.004790 
#    z -0.006760 -0.004790 1.994010 
# 
# From -- ./inp_files/298377.got.cif
#   From: 2010.06.25/outbox.cif.g09.slc.cpg/sg2_150_cif.got.tgz:298377.got - 2010.06.27 13:26:56.
