data_PCOD8026884
_publ_section_title
;
Structure prediction by ZEFSAII (Michael W. Deem and Ramdas Pophale) SiO2 
 PCOD8026884
Probable space group: P -1
;
_chemical_formula_sum "Si O2"
_cell_formula_units_Z 16
_cell_length_a 15.313851
_cell_length_b 8.906990
_cell_length_c 7.742770
_cell_angle_alpha 103.888772
_cell_angle_beta 47.563909
_cell_angle_gamma 114.909173
_cell_volume 705.399080
_symmetry_space_group_name_H-M "P -1"
_symmetry_group_IT_number 2
_symmetry_cell_setting 'triclinic'
loop_
_space_group_symop_operation_xyz
x,y,z
-x,-y,-z
loop_
_atom_site_type_symbol
_atom_site_label
_atom_site_fract_x
_atom_site_fract_y
_atom_site_fract_z
Si Si1 0.116614 0.706507 0.777082
Si Si2 0.623949 0.327622 0.528349
Si Si3 0.911040 0.510641 0.775530
Si Si4 0.881449 0.086891 0.843742
Si Si5 0.366809 0.737041 0.888040
Si Si6 0.444842 0.383999 0.202679
Si Si7 0.020661 0.849326 0.647028
Si Si8 0.382235 0.090283 0.987046
O O1 0.243126 0.665619 0.568389
O O2 0.118969 0.848401 0.669917
O O3 0.992253 0.540914 0.855981
O O4 0.111026 0.766698 0.995804
O O5 0.597338 0.242669 0.354288
O O6 0.628998 0.519050 0.562226
O O7 0.511211 0.211987 0.764911
O O8 0.000000 0.500000 0.500000
O O9 0.892434 0.685056 0.801744
O O10 0.783135 0.356617 0.918804
O O11 0.982330 0.009265 0.754061
O O12 0.916792 0.161431 0.625228
O O13 0.737148 0.954373 0.996265
O O14 0.437850 0.629837 0.852318
O O15 0.400798 0.920387 0.975364
O O16 0.500000 0.500000 0.000000
O O17 0.355593 0.196062 0.212719
#
# Coordination Sequence:
#
# PCOD8026884 Si02
#       8
#     2   2   2   2   2   2   2   2
#     4  10  24  43  70 104 142 182 237 289 357 423
#     4  11  25  46  71 103 142 184 236 293 354 427
#     4  10  25  42  70  99 139 182 233 291 351 425
#     4  11  21  46  71 104 145 182 242 284 370 407
#     4  12  24  47  71 103 138 188 235 292 360 416
#     4  10  26  44  69 100 140 184 235 289 353 420
#     4   9  24  43  69 103 140 186 229 297 345 431
#     4  11  25  44  72 104 140 185 235 295 345 432
#
# _framework density 22.682195
#
# number of rings (size 3 to 8) (size 9 to 14) (size 15 to 20)
#    0.750    0.750    1.250    2.250    7.000    1.500 
#    4.500    0.000    0.000    0.000    0.000    0.000 
#    0.000    0.000    0.000    0.000    0.000    0.000 
#
# Total GULP energy -198252.213076 kJ/mol
# GULP energy per Si atom -12390.763317 kJ/mol
# Density = 2.263057 g / cm^3
# Si number density = 22.682195 Si / 1000 Ang^3
#
#
#
# Elastic Constant Matrix: (Units=GPa)
#
#
# Indices 1 2 3 4 5 6 
#
# 1 134.4577 50.0385 35.6345 15.2623 -21.1081 -9.1980
# 2 50.0385 145.8444 53.2139 12.0794 -15.6225 5.3061
# 3 35.6345 53.2139 87.4133 15.1776 -14.8522 5.3873
# 4 15.2623 12.0794 15.1776 31.1361 0.4611 -0.5893
# 5 -21.1081 -15.6225 -14.8522 0.4611 31.9092 5.8976
# 6 -9.1980 5.3061 5.3873 -0.5893 5.8976 50.4837
#
#
#
# Elastic Compliance Matrix: (Units=1/GPa)
#
#
# Indices 1 2 3 4 5 6 
#
# 1 0.009813 -0.002135 -0.001457 -0.003308 0.004519 0.001601
# 2 -0.002135 0.009455 -0.004516 -0.000459 0.001317 -0.001060
# 3 -0.001457 -0.004516 0.016813 -0.005848 0.005152 -0.002255
# 4 -0.003308 -0.000459 -0.005848 0.036877 -0.005888 0.001188
# 5 0.004519 0.001317 0.005152 -0.005888 0.038271 -0.004404
# 6 0.001601 -0.001060 -0.002255 0.001188 -0.004404 0.020981
#
#
# Mechanical properties :
#
#
# Convention : Reuss Voigt Hill
#
# Bulk Modulus (GPa) = 50.34340 71.72102 61.03221
# Shear Modulus (GPa) = 32.24835 37.96102 35.10469
#
# Velocity S-wave (km/s) = 3.77470 4.09541 3.93832
# Velocity P-wave (km/s) = 6.42192 7.35199 6.90264
#
# Compressibility (1/GPa) = 0.01986358
#
# Stress axis : x y z
#
# Youngs Moduli (GPa) = 101.91080 105.76632 59.47779
#
# Poissons Ratio (x) = 0.22584 0.08664
# Poissons Ratio (y) = 0.21761 0.26863
# Poissons Ratio (z) = 0.14845 0.47769
#
# Static dielectric constant tensor:
#      x y z
#    x 4.146900 -0.069300 0.028960 
#    y -0.069300 4.605990 0.385430 
#    z 0.028960 0.385430 4.169300 
# 
# 
# High freq. dielectric constant tensor:
#      x y z
#    x 1.897870 -0.008920 0.004790 
#    y -0.008920 1.909810 0.016400 
#    z 0.004790 0.016400 1.883520 
# 
# From -- ./inp_files/298711.got.cif
#   From: 2010.06.25/outbox.cif.g09.slc.cpg/sg2_150_cif.got.tgz:298711.got - 2010.06.27 13:26:56.
