data_PCOD8026932
_publ_section_title
;
Structure prediction by ZEFSAII (Michael W. Deem and Ramdas Pophale) SiO2 
 PCOD8026932
Probable space group: P -1
;
_chemical_formula_sum "Si O2"
_cell_formula_units_Z 12
_cell_length_a 7.819160
_cell_length_b 6.745756
_cell_length_c 13.476408
_cell_angle_alpha 103.493943
_cell_angle_beta 124.388096
_cell_angle_gamma 103.678999
_cell_volume 506.786947
_symmetry_space_group_name_H-M "P -1"
_symmetry_group_IT_number 2
_symmetry_cell_setting 'triclinic'
loop_
_space_group_symop_operation_xyz
x,y,z
-x,-y,-z
loop_
_atom_site_type_symbol
_atom_site_label
_atom_site_fract_x
_atom_site_fract_y
_atom_site_fract_z
Si Si1 0.774616 0.724421 0.688621
Si Si2 0.243167 0.849188 0.944452
Si Si3 0.523737 0.783895 0.442638
Si Si4 0.492966 0.162737 0.221430
Si Si5 0.331839 0.486378 0.856330
Si Si6 0.778159 0.930770 0.351435
O O1 0.749404 0.786320 0.573574
O O2 0.706445 0.454438 0.638692
O O3 0.587482 0.770791 0.695652
O O4 0.035720 0.888125 0.832369
O O5 0.166534 0.581006 0.865630
O O6 0.500000 0.000000 0.000000
O O7 0.280618 0.923334 0.081159
O O8 0.558865 0.794946 0.337102
O O9 0.500000 0.000000 0.500000
O O10 0.541370 0.361073 0.180493
O O11 0.729713 0.134116 0.312639
O O12 0.199372 0.224328 0.747044
O O13 0.500000 0.500000 0.000000
O O14 0.000000 0.000000 0.500000
#
# Coordination Sequence:
#
# PCOD8026932 Si02
#       6
#     2   2   2   2   2   2
#     4  11  24  45  71 100 141 180 231 290 344 417
#     4  10  24  43  71  99 138 182 229 289 349 407
#     4  11  25  45  67 102 139 184 231 278 352 415
#     4  11  23  46  67 102 138 180 233 285 349 411
#     4  11  24  45  67  97 141 179 233 284 347 414
#     4  12  27  42  71 105 140 183 232 287 344 418
#
# _framework density 23.678591000000001
#
# number of rings (size 3 to 8) (size 9 to 14) (size 15 to 20)
#    0.000    1.000    5.000    0.500    7.000    0.667 
#    0.000    1.667    0.000    0.000    0.000    0.000 
#    0.000    0.000    0.000    0.000    0.000    0.000 
#
# Total GULP energy -148690.512976 kJ/mol
# GULP energy per Si atom -12390.876081 kJ/mol
# Density = 2.362470 g / cm^3
# Si number density = 23.678591 Si / 1000 Ang^3
#
#
#
# Elastic Constant Matrix: (Units=GPa)
#
#
# Indices 1 2 3 4 5 6 
#
# 1 35.3087 27.6712 22.1473 4.9045 -0.7956 -22.3379
# 2 27.6712 108.2347 38.2694 -5.4030 -2.7137 -20.8904
# 3 22.1473 38.2694 156.1339 -7.4976 12.6156 -16.6630
# 4 4.9045 -5.4030 -7.4976 49.8137 -12.6836 -13.8681
# 5 -0.7956 -2.7137 12.6156 -12.6836 49.8798 -1.0812
# 6 -22.3379 -20.8904 -16.6630 -13.8681 -1.0812 36.4958
#
#
#
# Elastic Compliance Matrix: (Units=1/GPa)
#
#
# Indices 1 2 3 4 5 6 
#
# 1 0.053122 -0.006989 -0.002929 0.001951 0.002310 0.027987
# 2 -0.006989 0.012486 -0.001709 0.003202 0.001887 0.003362
# 3 -0.002929 -0.001709 0.007542 0.001080 -0.001750 0.001031
# 4 0.001951 0.003202 0.001080 0.025904 0.006813 0.013564
# 5 0.002310 0.001887 -0.001750 0.006813 0.022470 0.004950
# 6 0.027987 0.003362 0.001031 0.013564 0.004950 0.052226
#
#
# Mechanical properties :
#
#
# Convention : Reuss Voigt Hill
#
# Bulk Modulus (GPa) = 20.04083 52.87256 36.45669
# Shear Modulus (GPa) = 23.40430 41.34382 32.37406
#
# Velocity S-wave (km/s) = 3.14732 4.18310 3.70162
# Velocity P-wave (km/s) = 4.65720 6.76083 5.80510
#
# Compressibility (1/GPa) = 0.04989815
#
# Stress axis : x y z
#
# Youngs Moduli (GPa) = 18.82455 80.08848 132.58363
#
# Poissons Ratio (x) = 0.55972 0.38827
# Poissons Ratio (y) = 0.13156 0.22659
# Poissons Ratio (z) = 0.05513 0.13688
#
# Static dielectric constant tensor:
#      x y z
#    x 4.360170 -0.345000 -0.494870 
#    y -0.345000 4.446540 -0.014420 
#    z -0.494870 -0.014420 4.677650 
# 
# 
# High freq. dielectric constant tensor:
#      x y z
#    x 1.917810 -0.023660 -0.023320 
#    y -0.023660 1.938610 -0.011230 
#    z -0.023320 -0.011230 1.956040 
# 
# From -- ./inp_files/59523.got.cif
#   From: 2010.06.25/outbox.cif.g09.slc.cpg/sg2_30_cif.got.tgz:59523.got - 2010.06.27 13:26:56.
