data_PCOD8026939
_publ_section_title
;
Structure prediction by ZEFSAII (Michael W. Deem and Ramdas Pophale) SiO2 
 PCOD8026939
Probable space group: P -1
;
_chemical_formula_sum "Si O2"
_cell_formula_units_Z 14
_cell_length_a 9.296870
_cell_length_b 7.999411
_cell_length_c 11.212344
_cell_angle_alpha 111.199973
_cell_angle_beta 71.571606
_cell_angle_gamma 64.773466
_cell_volume 583.823714
_symmetry_space_group_name_H-M "P -1"
_symmetry_group_IT_number 2
_symmetry_cell_setting 'triclinic'
loop_
_space_group_symop_operation_xyz
x,y,z
-x,-y,-z
loop_
_atom_site_type_symbol
_atom_site_label
_atom_site_fract_x
_atom_site_fract_y
_atom_site_fract_z
Si Si1 0.014265 0.364310 0.216253
Si Si2 0.068222 0.205641 0.764472
Si Si3 0.309160 0.908452 0.412175
Si Si4 0.377565 0.520831 0.648699
Si Si5 0.699116 0.266577 0.862600
Si Si6 0.286273 0.963944 0.876251
Si Si7 0.667905 0.894711 0.765788
O O1 0.145481 0.338687 0.286583
O O2 0.973130 0.557063 0.187510
O O3 0.818722 0.422619 0.335026
O O4 0.114569 0.135772 0.054063
O O5 0.230939 0.069662 0.785800
O O6 0.872894 0.251225 0.871745
O O7 0.141597 0.050958 0.587721
O O8 0.511536 0.716824 0.371978
O O9 0.260827 0.778491 0.302225
O O10 0.323908 0.082485 0.374598
O O11 0.500000 0.500000 0.500000
O O12 0.330790 0.719384 0.801414
O O13 0.677847 0.083052 0.876797
O O14 0.500000 0.500000 0.000000
O O15 0.476474 0.930174 0.860480
#
# Coordination Sequence:
#
# PCOD8026939 Si02
#       7
#     2   2   2   2   2   2   2
#     4  12  28  44  72 104 140 184 235 286 346 410
#     4  12  25  46  73 102 142 185 230 284 352 410
#     4  10  26  45  71  98 145 177 232 279 351 405
#     4  12  27  45  72 102 138 183 235 286 347 410
#     4  10  24  43  72 101 140 179 232 282 348 406
#     4  12  26  47  72 102 143 180 236 287 346 411
#     4  10  26  44  71 103 138 179 233 280 351 404
#
# _framework density 23.979841
#
# number of rings (size 3 to 8) (size 9 to 14) (size 15 to 20)
#    0.857    0.000    1.429    4.286    8.000    1.714 
#    0.000    0.000    0.000    0.000    0.000    0.000 
#    0.000    0.000    0.000    0.000    0.000    0.000 
#
# Total GULP energy -173580.333005 kJ/mol
# GULP energy per Si atom -12398.595215 kJ/mol
# Density = 2.392526 g / cm^3
# Si number density = 23.979841 Si / 1000 Ang^3
#
#
#
# Elastic Constant Matrix: (Units=GPa)
#
#
# Indices 1 2 3 4 5 6 
#
# 1 144.3105 16.3954 25.2781 8.3941 -33.9661 3.7601
# 2 16.3954 88.4300 18.4481 3.4825 -8.8570 -10.7640
# 3 25.2781 18.4481 94.9200 10.9485 -8.6100 -3.2688
# 4 8.3941 3.4825 10.9485 31.2729 -0.3805 -1.2839
# 5 -33.9661 -8.8570 -8.6100 -0.3805 38.3013 -1.5065
# 6 3.7601 -10.7640 -3.2688 -1.2839 -1.5065 30.9061
#
#
#
# Elastic Compliance Matrix: (Units=1/GPa)
#
#
# Indices 1 2 3 4 5 6 
#
# 1 0.009191 -0.000718 -0.001450 -0.001837 0.007592 -0.001228
# 2 -0.000718 0.012580 -0.001881 -0.000346 0.002017 0.004354
# 3 -0.001450 -0.001881 0.011796 -0.003493 0.000923 0.000669
# 4 -0.001837 -0.000346 -0.003493 0.033748 -0.002119 0.001032
# 5 0.007592 0.002017 0.000923 -0.002119 0.033550 0.001424
# 6 -0.001228 0.004354 0.000669 0.001032 0.001424 0.034205
#
#
# Mechanical properties :
#
#
# Convention : Reuss Voigt Hill
#
# Bulk Modulus (GPa) = 39.26312 49.76709 44.51510
# Shear Modulus (GPa) = 32.96918 37.93198 35.45058
#
# Velocity S-wave (km/s) = 3.71195 3.98153 3.84910
# Velocity P-wave (km/s) = 5.89749 6.47577 6.19338
#
# Compressibility (1/GPa) = 0.02546920
#
# Stress axis : x y z
#
# Youngs Moduli (GPa) = 108.80399 79.49440 84.77174
#
# Poissons Ratio (x) = 0.05710 0.12289
# Poissons Ratio (y) = 0.07816 0.15944
# Poissons Ratio (z) = 0.15773 0.14951
#
# Static dielectric constant tensor:
#      x y z
#    x 4.142920 -0.245270 0.068400 
#    y -0.245270 4.604010 0.046420 
#    z 0.068400 0.046420 4.154000 
# 
# 
# High freq. dielectric constant tensor:
#      x y z
#    x 1.948810 -0.014950 -0.005100 
#    y -0.014950 1.960500 0.001700 
#    z -0.005100 0.001700 1.948160 
# 
# From -- ./inp_files/242484.got.cif
#   From: 2010.06.25/outbox.cif.g09.slc.cpg/sg2_122_cif.got.tgz:242484.got - 2010.06.27 13:26:56.
