data_PCOD8026376
_publ_section_title
;
Structure prediction by ZEFSAII (Michael W. Deem and Ramdas Pophale) SiO2 
 PCOD8026376
Probable space group: P -1
;
_chemical_formula_sum "Si O2"
_cell_formula_units_Z 16
_cell_length_a 15.551695
_cell_length_b 11.847148
_cell_length_c 8.763433
_cell_angle_alpha 106.782792
_cell_angle_beta 48.573354
_cell_angle_gamma 69.151496
_cell_volume 750.710957
_symmetry_space_group_name_H-M "P -1"
_symmetry_group_IT_number 2
_symmetry_cell_setting 'triclinic'
loop_
_space_group_symop_operation_xyz
x,y,z
-x,-y,-z
loop_
_atom_site_type_symbol
_atom_site_label
_atom_site_fract_x
_atom_site_fract_y
_atom_site_fract_z
Si Si1 0.299923 0.865046 0.240426
Si Si2 0.598988 0.483368 0.583022
Si Si3 0.119562 0.841685 0.672484
Si Si4 0.978431 0.828176 0.543031
Si Si5 0.649473 0.804248 0.323727
Si Si6 0.166804 0.291264 0.203602
Si Si7 0.466362 0.969651 0.186265
Si Si8 0.659292 0.517416 0.191373
O O1 0.255024 0.821012 0.420311
O O2 0.130576 0.006305 0.382566
O O3 0.347338 0.949402 0.296860
O O4 0.461112 0.688541 0.883088
O O5 0.761395 0.349523 0.457806
O O6 0.684766 0.457103 0.312443
O O7 0.505262 0.428389 0.660862
O O8 0.998011 0.878183 0.700609
O O9 0.000000 0.000000 0.000000
O O10 0.856463 0.812535 0.721577
O O11 0.165628 0.647758 0.177433
O O12 0.651359 0.840312 0.511903
O O13 0.617351 0.689204 0.298969
O O14 0.500000 0.000000 0.500000
O O15 0.822404 0.716879 0.997616
O O16 0.000000 0.500000 0.500000
O O17 0.347373 0.209929 0.022046
O O18 0.500000 0.000000 0.000000
#
# Coordination Sequence:
#
# PCOD8026376 Si02
#       8
#     2   2   2   2   2   2   2   2
#     4  12  26  47  73 101 144 186 234 288 351 418
#     4  11  27  44  74 104 137 191 230 291 344 421
#     4  12  29  44  70 106 139 181 234 289 351 411
#     4  12  26  47  70 100 145 182 229 294 355 412
#     4  10  24  41  70 102 135 184 232 285 339 412
#     4  11  24  43  68  99 135 182 226 288 343 408
#     4  11  24  45  68 103 135 183 236 276 348 416
#     4  11  24  47  71 101 145 181 241 280 358 414
#
# _framework density 21.313130999999998
#
# number of rings (size 3 to 8) (size 9 to 14) (size 15 to 20)
#    0.000    0.750    3.750    2.250   12.250    0.000 
#    0.000    1.250    0.000    0.000    0.000    0.000 
#    0.000    0.000    0.000    0.000    0.000    0.000 
#
# Total GULP energy -198331.861619 kJ/mol
# GULP energy per Si atom -12395.741351 kJ/mol
# Density = 2.126462 g / cm^3
# Si number density = 21.313131 Si / 1000 Ang^3
#
#
#
# Elastic Constant Matrix: (Units=GPa)
#
#
# Indices 1 2 3 4 5 6 
#
# 1 106.3820 29.2874 48.0304 7.6848 14.4279 -9.8273
# 2 29.2874 100.5885 36.7577 -1.6008 7.7154 -7.6071
# 3 48.0304 36.7577 135.2024 -1.5359 26.5805 -11.6979
# 4 7.6848 -1.6008 -1.5359 48.3383 -2.3734 1.7468
# 5 14.4279 7.7154 26.5805 -2.3734 40.6766 0.0188
# 6 -9.8273 -7.6071 -11.6979 1.7468 0.0188 35.5778
#
#
#
# Elastic Compliance Matrix: (Units=1/GPa)
#
#
# Indices 1 2 3 4 5 6 
#
# 1 0.012010 -0.002076 -0.003183 -0.002243 -0.001918 0.001938
# 2 -0.002076 0.011471 -0.002299 0.000602 0.000097 0.001094
# 3 -0.003183 -0.002299 0.010348 0.000432 -0.005173 0.002013
# 4 -0.002243 0.000602 0.000432 0.021209 0.001637 -0.001391
# 5 -0.001918 0.000097 -0.005173 0.001637 0.028723 -0.002305
# 6 0.001938 0.001094 0.002013 -0.001391 -0.002305 0.029608
#
#
# Mechanical properties :
#
#
# Convention : Reuss Voigt Hill
#
# Bulk Modulus (GPa) = 53.43630 63.36930 58.40280
# Shear Modulus (GPa) = 37.11380 40.12503 38.61941
#
# Velocity S-wave (km/s) = 4.17749 4.34365 4.26138
# Velocity P-wave (km/s) = 6.95665 7.41306 7.18848
#
# Compressibility (1/GPa) = 0.01871387
#
# Stress axis : x y z
#
# Youngs Moduli (GPa) = 83.26546 87.17826 96.63643
#
# Poissons Ratio (x) = 0.18096 0.30758
# Poissons Ratio (y) = 0.17283 0.22215
# Poissons Ratio (z) = 0.26502 0.20041
#
# Static dielectric constant tensor:
#      x y z
#    x 4.043700 -0.168780 0.388610 
#    y -0.168780 4.241880 -0.178300 
#    z 0.388610 -0.178300 4.211780 
# 
# 
# High freq. dielectric constant tensor:
#      x y z
#    x 1.831290 -0.003390 0.013640 
#    y -0.003390 1.851900 -0.014200 
#    z 0.013640 -0.014200 1.853720 
# 
# From -- ./inp_files/307903.got.cif
#   From: 2010.06.25/outbox.cif.g09.slc.cpg/sg2_154_cif.got.tgz:307903.got - 2010.06.27 13:26:56.
