data_PCOD8026530
_publ_section_title
;
Structure prediction by ZEFSAII (Michael W. Deem and Ramdas Pophale) SiO2 
 PCOD8026530
Probable space group: P -1
;
_chemical_formula_sum "Si O2"
_cell_formula_units_Z 10
_cell_length_a 7.497217
_cell_length_b 9.079357
_cell_length_c 9.917685
_cell_angle_alpha 150.287179
_cell_angle_beta 95.758980
_cell_angle_gamma 82.258679
_cell_volume 331.373274
_symmetry_space_group_name_H-M "P -1"
_symmetry_group_IT_number 2
_symmetry_cell_setting 'triclinic'
loop_
_space_group_symop_operation_xyz
x,y,z
-x,-y,-z
loop_
_atom_site_type_symbol
_atom_site_label
_atom_site_fract_x
_atom_site_fract_y
_atom_site_fract_z
Si Si1 0.037159 0.154335 0.259841
Si Si2 0.332464 0.834586 0.683083
Si Si3 0.207431 0.289185 0.719800
Si Si4 0.377616 0.751990 0.933260
Si Si5 0.204623 0.624551 0.252043
O O1 0.000000 0.500000 0.500000
O O2 0.881446 0.053283 0.268128
O O3 0.239630 0.020719 0.203126
O O4 0.000000 0.000000 0.000000
O O5 0.349238 0.589217 0.364772
O O6 0.434782 0.129636 0.912269
O O7 0.367594 0.693580 0.722961
O O8 0.004535 0.389435 0.730072
O O9 0.238994 0.934138 0.428032
O O10 0.343182 0.438855 0.749296
O O11 0.248611 0.374171 0.943680
#
# Coordination Sequence:
#
# PCOD8026530 Si02
#       5
#     2   2   2   2   2
#     4  10  24  42  68 100 142 184 226 289 358 410
#     4  10  24  44  74 110 143 188 242 298 354 432
#     4  10  24  44  71 103 143 189 240 291 358 427
#     4  10  24  46  74 109 145 188 242 298 356 433
#     4  10  24  43  71 104 142 189 239 294 354 429
#
# _framework density 30.177447000000001
#
# number of rings (size 3 to 8) (size 9 to 14) (size 15 to 20)
#    0.000    2.000    0.000    0.000   14.000    4.000 
#    0.000    8.000    0.000    0.000    0.000    0.000 
#    0.000    0.000    0.000    0.000    0.000    0.000 
#
# Total GULP energy -123881.988635 kJ/mol
# GULP energy per Si atom -12388.198864 kJ/mol
# Density = 3.010876 g / cm^3
# Si number density = 30.177447 Si / 1000 Ang^3
#
#
#
# Elastic Constant Matrix: (Units=GPa)
#
#
# Indices 1 2 3 4 5 6 
#
# 1 133.0858 76.4497 57.4284 -19.8415 43.2404 33.8368
# 2 76.4497 141.1234 29.6942 -17.7452 31.8849 -5.1948
# 3 57.4284 29.6942 153.9403 -17.2540 38.9177 -9.4609
# 4 -19.8415 -17.7452 -17.2540 59.6907 -15.3628 23.4044
# 5 43.2404 31.8849 38.9177 -15.3628 31.8555 8.4790
# 6 33.8368 -5.1948 -9.4609 23.4044 8.4790 52.1594
#
#
#
# Elastic Compliance Matrix: (Units=1/GPa)
#
#
# Indices 1 2 3 4 5 6 
#
# 1 0.025687 -0.011060 -0.006621 0.011566 -0.003869 -0.023527
# 2 -0.011060 0.014577 0.004559 -0.006918 -0.012362 0.014567
# 3 -0.006621 0.004559 0.012602 -0.006867 -0.017744 0.013001
# 4 0.011566 -0.006918 -0.006867 0.033708 0.023422 -0.028370
# 5 -0.003869 -0.012362 -0.017744 0.023422 0.089162 -0.026944
# 6 -0.023527 0.014567 0.013001 -0.028370 -0.026944 0.055354
#
#
# Mechanical properties :
#
#
# Convention : Reuss Voigt Hill
#
# Bulk Modulus (GPa) = 37.56117 83.92156 60.74136
# Shear Modulus (GPa) = 18.78235 46.37961 32.58098
#
# Velocity S-wave (km/s) = 2.49750 3.92458 3.28936
# Velocity P-wave (km/s) = 4.55965 6.95745 5.88203
#
# Compressibility (1/GPa) = 0.02662324
#
# Stress axis : x y z
#
# Youngs Moduli (GPa) = 38.92988 68.59934 79.35415
#
# Poissons Ratio (x) = 0.75870 0.52540
# Poissons Ratio (y) = 0.43056 -0.36179
# Poissons Ratio (z) = 0.25775 -0.31276
#
# Static dielectric constant tensor:
#      x y z
#    x 5.798800 -0.006110 0.785760 
#    y -0.006110 5.239530 -0.433040 
#    z 0.785760 -0.433040 5.292860 
# 
# 
# High freq. dielectric constant tensor:
#      x y z
#    x 2.248720 -0.004490 0.010030 
#    y -0.004490 2.232040 -0.010300 
#    z 0.010030 -0.010300 2.266050 
# 
# From -- ./inp_files/228184.got.cif
#   From: 2010.06.25/outbox.cif.g09.slc.cpg/sg2_115_cif.got.tgz:228184.got - 2010.06.27 13:26:56.
