data_PCOD8026839
_publ_section_title
;
Structure prediction by ZEFSAII (Michael W. Deem and Ramdas Pophale) SiO2 
 PCOD8026839
Probable space group: P -1
;
_chemical_formula_sum "Si O2"
_cell_formula_units_Z 16
_cell_length_a 10.540881
_cell_length_b 9.210869
_cell_length_c 15.478595
_cell_angle_alpha 61.455828
_cell_angle_beta 116.362403
_cell_angle_gamma 64.586934
_cell_volume 685.757978
_symmetry_space_group_name_H-M "P -1"
_symmetry_group_IT_number 2
_symmetry_cell_setting 'triclinic'
loop_
_space_group_symop_operation_xyz
x,y,z
-x,-y,-z
loop_
_atom_site_type_symbol
_atom_site_label
_atom_site_fract_x
_atom_site_fract_y
_atom_site_fract_z
Si Si1 0.061220 0.586060 0.562310
Si Si2 0.725886 0.194831 0.235341
Si Si3 0.977726 0.747201 0.675164
Si Si4 0.995011 0.543856 0.084771
Si Si5 0.743881 0.198375 0.045661
Si Si6 0.558897 0.759207 0.611797
Si Si7 0.290021 0.674787 0.318022
Si Si8 0.605388 0.169618 0.839276
O O1 0.324799 0.401335 0.670754
O O2 0.000000 0.500000 0.500000
O O3 0.048770 0.556806 0.669918
O O4 0.872018 0.916587 0.408003
O O5 0.450257 0.465251 0.114374
O O6 0.848344 0.258964 0.265705
O O7 0.709718 0.151380 0.143291
O O8 0.998840 0.624368 0.805148
O O9 0.697991 0.080205 0.484282
O O10 0.233645 0.433374 0.197659
O O11 0.000000 0.500000 0.000000
O O12 0.747152 0.875236 0.934152
O O13 0.675592 0.130501 0.971375
O O14 0.026962 0.983519 0.185950
O O15 0.691302 0.537664 0.635890
O O16 0.500000 0.000000 0.500000
O O17 0.500000 0.500000 0.500000
O O18 0.330260 0.729677 0.224493
#
# Coordination Sequence:
#
# PCOD8026839 Si02
#       8
#     2   2   2   2   2   2   2   2
#     4  12  29  48  75 108 148 198 249 304 371 444
#     4  11  26  49  77 105 148 190 255 296 368 457
#     4  11  25  48  74 102 147 201 236 307 370 434
#     4  11  28  45  71 108 152 188 248 305 372 439
#     4  11  25  46  75 107 143 193 243 306 371 427
#     4  10  24  43  69 102 140 188 237 298 362 433
#     4  12  26  45  76 104 147 193 243 302 370 435
#     4  12  27  46  72 111 148 187 255 306 366 439
#
# _framework density 23.331845999999999
#
# number of rings (size 3 to 8) (size 9 to 14) (size 15 to 20)
#    0.000    0.750    2.500    3.000   10.500    3.500 
#    0.000    0.000    0.000    0.000    0.000    0.000 
#    0.000    0.000    0.000    0.000    0.000    0.000 
#
# Total GULP energy -198325.053868 kJ/mol
# GULP energy per Si atom -12395.315867 kJ/mol
# Density = 2.327874 g / cm^3
# Si number density = 23.331846 Si / 1000 Ang^3
#
#
#
# Elastic Constant Matrix: (Units=GPa)
#
#
# Indices 1 2 3 4 5 6 
#
# 1 84.4840 53.5134 51.3489 -7.9576 10.7999 -6.1410
# 2 53.5134 183.6254 76.3073 11.5357 4.2291 -14.8185
# 3 51.3489 76.3073 152.8893 -13.6024 27.2631 -6.1570
# 4 -7.9576 11.5357 -13.6024 58.4383 -10.4648 8.0788
# 5 10.7999 4.2291 27.2631 -10.4648 43.1831 -4.2214
# 6 -6.1410 -14.8185 -6.1570 8.0788 -4.2214 35.1309
#
#
#
# Elastic Compliance Matrix: (Units=1/GPa)
#
#
# Indices 1 2 3 4 5 6 
#
# 1 0.016436 -0.003439 -0.003425 0.001882 -0.001131 0.000254
# 2 -0.003439 0.008285 -0.003442 -0.003025 0.001801 0.003203
# 3 -0.003425 -0.003442 0.010428 0.001911 -0.005051 -0.001269
# 4 0.001882 -0.003025 0.001911 0.019589 0.002900 -0.004768
# 5 -0.001131 0.001801 -0.005051 0.002900 0.027380 0.002300
# 6 0.000254 0.003203 -0.001269 -0.004768 0.002300 0.031011
#
#
# Mechanical properties :
#
#
# Convention : Reuss Voigt Hill
#
# Bulk Modulus (GPa) = 68.77617 87.03755 77.90686
# Shear Modulus (GPa) = 36.07863 43.33906 39.70884
#
# Velocity S-wave (km/s) = 3.93660 4.31456 4.12990
# Velocity P-wave (km/s) = 7.08546 7.88706 7.49698
#
# Compressibility (1/GPa) = 0.01453992
#
# Stress axis : x y z
#
# Youngs Moduli (GPa) = 60.84045 120.69763 95.89288
#
# Poissons Ratio (x) = 0.41502 0.32841
# Poissons Ratio (y) = 0.20920 0.33003
# Poissons Ratio (z) = 0.20837 0.41540
#
# Static dielectric constant tensor:
#      x y z
#    x 4.027600 -0.288740 0.386200 
#    y -0.288740 4.541110 -0.009660 
#    z 0.386200 -0.009660 4.795140 
# 
# 
# High freq. dielectric constant tensor:
#      x y z
#    x 1.902180 -0.012610 0.016570 
#    y -0.012610 1.940620 0.000530 
#    z 0.016570 0.000530 1.949710 
# 
# From -- ./inp_files/419131.got.cif
#   From: 2010.06.25/outbox.cif.g09.slc.cpg/sg2_210_cif.got.tgz:419131.got - 2010.06.27 13:26:56.
