data_PCOD8026632
_publ_section_title
;
Structure prediction by ZEFSAII (Michael W. Deem and Ramdas Pophale) SiO2 
 PCOD8026632
Probable space group: P -1
;
_chemical_formula_sum "Si O2"
_cell_formula_units_Z 12
_cell_length_a 14.731629
_cell_length_b 14.531586
_cell_length_c 11.122407
_cell_angle_alpha 151.065137
_cell_angle_beta 150.092680
_cell_angle_gamma 29.562653
_cell_volume 509.717842
_symmetry_space_group_name_H-M "P -1"
_symmetry_group_IT_number 2
_symmetry_cell_setting 'triclinic'
loop_
_space_group_symop_operation_xyz
x,y,z
-x,-y,-z
loop_
_atom_site_type_symbol
_atom_site_label
_atom_site_fract_x
_atom_site_fract_y
_atom_site_fract_z
Si Si1 0.069179 0.344007 0.233872
Si Si2 0.159075 0.843336 0.096088
Si Si3 0.347811 0.394452 0.014734
Si Si4 0.545345 0.754095 0.293453
Si Si5 0.333259 0.032465 0.987083
Si Si6 0.661976 0.162215 0.465372
O O1 0.249137 0.374837 0.538557
O O2 0.894887 0.555145 0.207246
O O3 0.934152 0.311567 0.146590
O O4 0.161856 0.140379 0.016239
O O5 0.373006 0.724405 0.135477
O O6 0.199865 0.948238 0.383745
O O7 0.000000 0.000000 0.000000
O O8 0.439971 0.354211 0.940747
O O9 0.477617 0.193148 0.015916
O O10 0.359938 0.603169 0.316569
O O11 0.500000 0.000000 0.500000
O O12 0.232667 0.989718 0.703095
O O13 0.432228 0.189893 0.251574
#
# Coordination Sequence:
#
# PCOD8026632 Si02
#       6
#     2   2   2   2   2   2
#     4  11  24  41  70 101 134 186 224 281 345 405
#     4  11  21  38  66 101 129 177 227 266 343 401
#     4  11  24  42  69 102 133 183 229 278 344 408
#     4  12  21  43  67  96 148 178 218 294 340 393
#     4  11  22  49  69  95 147 174 226 293 332 403
#     4  10  24  42  71  99 136 184 224 283 343 401
#
# _framework density 23.542435000000001
#
# number of rings (size 3 to 8) (size 9 to 14) (size 15 to 20)
#    0.000    1.000    5.000    1.000    0.000    5.333 
#    3.000    8.333    0.000    0.000    0.000    0.000 
#    0.000    0.000    0.000    0.000    0.000    0.000 
#
# Total GULP energy -148721.112956 kJ/mol
# GULP energy per Si atom -12393.426080 kJ/mol
# Density = 2.348885 g / cm^3
# Si number density = 23.542435 Si / 1000 Ang^3
#
#
#
# Elastic Constant Matrix: (Units=GPa)
#
#
# Indices 1 2 3 4 5 6 
#
# 1 105.0968 28.3723 30.4373 -17.1900 -6.1743 -15.1446
# 2 28.3723 108.1039 12.6588 -26.6087 -4.9480 -2.1545
# 3 30.4373 12.6588 76.6540 -24.4998 -9.6793 -12.9520
# 4 -17.1900 -26.6087 -24.4998 36.0480 3.8887 -2.2470
# 5 -6.1743 -4.9480 -9.6793 3.8887 50.7071 -12.3069
# 6 -15.1446 -2.1545 -12.9520 -2.2470 -12.3069 26.1287
#
#
#
# Elastic Compliance Matrix: (Units=1/GPa)
#
#
# Indices 1 2 3 4 5 6 
#
# 1 0.012379 -0.001929 -0.001929 0.003366 0.002522 0.007537
# 2 -0.001929 0.011932 0.002431 0.009558 0.001264 0.002488
# 3 -0.001929 0.002431 0.021655 0.015789 0.006365 0.014172
# 4 0.003366 0.009558 0.015789 0.047669 0.004810 0.016931
# 5 0.002522 0.001264 0.006365 0.004810 0.025115 0.016964
# 6 0.007537 0.002488 0.014172 0.016931 0.016964 0.059318
#
#
# Mechanical properties :
#
#
# Convention : Reuss Voigt Hill
#
# Bulk Modulus (GPa) = 23.19564 48.08795 35.64180
# Shear Modulus (GPa) = 25.60252 37.13584 31.36918
#
# Velocity S-wave (km/s) = 3.30131 3.97596 3.65424
# Velocity P-wave (km/s) = 4.94021 6.44578 5.74255
#
# Compressibility (1/GPa) = 0.04311155
#
# Stress axis : x y z
#
# Youngs Moduli (GPa) = 80.77965 83.80703 46.17894
#
# Poissons Ratio (x) = 0.16166 0.08908
# Poissons Ratio (y) = 0.15582 -0.11224
# Poissons Ratio (z) = 0.15583 -0.20370
#
# Static dielectric constant tensor:
#      x y z
#    x 5.805300 2.655200 -0.009380 
#    y 2.655200 9.983470 -0.007480 
#    z -0.009380 -0.007480 4.349830 
# 
# 
# High freq. dielectric constant tensor:
#      x y z
#    x 1.937450 -0.004630 -0.012190 
#    y -0.004630 1.921230 -0.010850 
#    z -0.012190 -0.010850 1.939610 
# 
# From -- ./inp_files/378266.got.cif
#   From: 2010.06.25/outbox.cif.g09.slc.cpg/sg2_190_cif.got.tgz:378266.got - 2010.06.27 13:26:56.
