data_PCOD8026910
_publ_section_title
;
Structure prediction by ZEFSAII (Michael W. Deem and Ramdas Pophale) SiO2 
 PCOD8026910
Probable space group: P -1
;
_chemical_formula_sum "Si O2"
_cell_formula_units_Z 16
_cell_length_a 12.328501
_cell_length_b 20.908548
_cell_length_c 5.587522
_cell_angle_alpha 76.121013
_cell_angle_beta 102.215090
_cell_angle_gamma 152.005660
_cell_volume 656.317110
_symmetry_space_group_name_H-M "P -1"
_symmetry_group_IT_number 2
_symmetry_cell_setting 'triclinic'
loop_
_space_group_symop_operation_xyz
x,y,z
-x,-y,-z
loop_
_atom_site_type_symbol
_atom_site_label
_atom_site_fract_x
_atom_site_fract_y
_atom_site_fract_z
Si Si1 0.791419 0.164031 0.721225
Si Si2 0.354250 0.849692 0.835728
Si Si3 0.971284 0.931033 0.847201
Si Si4 0.763691 0.344374 0.246066
Si Si5 0.817423 0.711412 0.038488
Si Si6 0.649405 0.540701 0.728018
Si Si7 0.391119 0.198625 0.528548
Si Si8 0.757162 0.451935 0.779598
O O1 0.762709 0.186551 0.436455
O O2 0.616626 0.011491 0.804445
O O3 0.764029 0.192362 0.928356
O O4 0.055589 0.273830 0.734848
O O5 0.335881 0.760496 0.899022
O O6 0.964957 0.854291 0.011303
O O7 0.727562 0.815657 0.706691
O O8 0.192282 0.048364 0.673225
O O9 0.000000 0.000000 0.000000
O O10 0.587963 0.253382 0.466836
O O11 0.021680 0.458350 0.352127
O O12 0.770784 0.421497 0.067486
O O13 0.831904 0.686572 0.801422
O O14 0.548051 0.585573 0.064943
O O15 0.500000 0.500000 0.500000
O O16 0.787104 0.546155 0.721197
O O17 0.508879 0.307621 0.678599
#
# Coordination Sequence:
#
# PCOD8026910 Si02
#       8
#     2   2   2   2   2   2   2   2
#     4  10  24  43  71 102 148 188 248 296 369 450
#     4  10  24  46  67 107 145 193 239 306 368 443
#     4  11  25  45  69 104 145 181 238 301 367 443
#     4  11  25  43  73 102 144 186 238 306 366 435
#     4  11  25  42  71 101 135 193 237 306 369 437
#     4  11  25  46  71  99 141 187 249 300 364 447
#     4  11  24  43  70 104 138 187 233 302 366 440
#     4  11  25  46  68 104 141 186 247 301 369 432
#
# _framework density 24.378458999999999
#
# number of rings (size 3 to 8) (size 9 to 14) (size 15 to 20)
#    0.000    1.250    0.000    4.125    8.750    4.000 
#    0.000    0.000    0.000    0.000    0.000    0.000 
#    0.000    0.000    0.000    0.000    0.000    0.000 
#
# Total GULP energy -198328.177111 kJ/mol
# GULP energy per Si atom -12395.511069 kJ/mol
# Density = 2.432297 g / cm^3
# Si number density = 24.378459 Si / 1000 Ang^3
#
#
#
# Elastic Constant Matrix: (Units=GPa)
#
#
# Indices 1 2 3 4 5 6 
#
# 1 134.9338 42.5253 44.4231 0.0165 9.4085 -6.4842
# 2 42.5253 89.4325 11.0861 10.0357 1.3966 -3.3095
# 3 44.4231 11.0861 98.6689 16.0137 3.8340 -3.9664
# 4 0.0165 10.0357 16.0137 40.5301 3.5487 -2.1055
# 5 9.4085 1.3966 3.8340 3.5487 27.9496 -3.7076
# 6 -6.4842 -3.3095 -3.9664 -2.1055 -3.7076 57.4090
#
#
#
# Elastic Compliance Matrix: (Units=1/GPa)
#
#
# Indices 1 2 3 4 5 6 
#
# 1 0.010711 -0.004819 -0.004681 0.003335 -0.003075 0.000532
# 2 -0.004819 0.013758 0.001232 -0.003992 0.001309 0.000272
# 3 -0.004681 0.001232 0.012983 -0.005459 0.000462 0.000269
# 4 0.003335 -0.003992 -0.005459 0.028168 -0.003676 0.000565
# 5 -0.003075 0.001309 0.000462 -0.003676 0.037423 0.002042
# 6 0.000532 0.000272 0.000269 0.000565 0.002042 0.017666
#
#
# Mechanical properties :
#
#
# Convention : Reuss Voigt Hill
#
# Bulk Modulus (GPa) = 47.81343 57.67826 52.74584
# Shear Modulus (GPa) = 34.67000 40.17779 37.42390
#
# Velocity S-wave (km/s) = 3.77524 4.06407 3.92231
# Velocity P-wave (km/s) = 6.21762 6.76262 6.49584
#
# Compressibility (1/GPa) = 0.02091463
#
# Stress axis : x y z
#
# Youngs Moduli (GPa) = 93.36566 72.68487 77.02422
#
# Poissons Ratio (x) = 0.35028 0.36056
# Poissons Ratio (y) = 0.44995 -0.09488
# Poissons Ratio (z) = 0.43706 -0.08954
#
# Static dielectric constant tensor:
#      x y z
#    x 4.462550 0.219490 -0.189510 
#    y 0.219490 4.771400 0.012460 
#    z -0.189510 0.012460 4.274370 
# 
# 
# High freq. dielectric constant tensor:
#      x y z
#    x 1.969400 0.007780 -0.000620 
#    y 0.007780 1.988790 0.003300 
#    z -0.000620 0.003300 1.957910 
# 
# From -- ./inp_files/83214.got.cif
#   From: 2010.06.25/outbox.cif.g09.slc.cpg/sg2_42_cif.got.tgz:83214.got - 2010.06.27 13:26:56.
