data_PCOD8026177
_publ_section_title
;
Structure prediction by ZEFSAII (Michael W. Deem and Ramdas Pophale) SiO2 
 PCOD8026177
Probable space group: P -1
;
_chemical_formula_sum "Si O2"
_cell_formula_units_Z 16
_cell_length_a 12.064934
_cell_length_b 6.517999
_cell_length_c 9.529440
_cell_angle_alpha 80.604076
_cell_angle_beta 101.875878
_cell_angle_gamma 98.061545
_cell_volume 719.081930
_symmetry_space_group_name_H-M "P -1"
_symmetry_group_IT_number 2
_symmetry_cell_setting 'triclinic'
loop_
_space_group_symop_operation_xyz
x,y,z
-x,-y,-z
loop_
_atom_site_type_symbol
_atom_site_label
_atom_site_fract_x
_atom_site_fract_y
_atom_site_fract_z
Si Si1 0.603652 0.336710 0.301136
Si Si2 0.262280 0.053339 0.599919
Si Si3 0.747778 0.725491 0.153156
Si Si4 0.573181 0.927602 0.903296
Si Si5 0.808277 0.923321 0.710870
Si Si6 0.118472 0.408664 0.038484
Si Si7 0.608887 0.653082 0.585554
Si Si8 0.721561 0.293111 0.773088
O O1 0.671874 0.536851 0.228143
O O2 0.506307 0.245374 0.181514
O O3 0.528110 0.392758 0.413778
O O4 0.692771 0.172752 0.375766
O O5 0.214038 0.100717 0.736081
O O6 0.164958 0.068764 0.451960
O O7 0.368623 0.231402 0.572247
O O8 0.682489 0.827707 0.000136
O O9 0.857593 0.653808 0.109988
O O10 0.612163 0.140416 0.807754
O O11 0.500000 0.000000 0.000000
O O12 0.891586 0.789714 0.834826
O O13 0.674982 0.814210 0.701891
O O14 0.815866 0.159554 0.743804
O O15 0.219524 0.582771 0.093256
O O16 0.000000 0.500000 0.000000
O O17 0.676380 0.447767 0.629323
#
# Coordination Sequence:
#
# PCOD8026177 Si02
#       8
#     2   2   2   2   2   2   2   2
#     4  12  22  37  60  92 136 181 215 245 302 380
#     4  10  24  40  59  94 137 170 215 253 309 378
#     4  12  25  41  60  95 135 165 216 273 309 368
#     4  12  20  36  58  92 133 171 205 247 310 375
#     4   9  21  43  63  90 126 163 212 258 313 380
#     4  11  25  46  71  94 116 163 222 274 333 382
#     4   9  21  36  58  92 129 175 209 237 302 379
#     4  11  20  41  68  88 129 168 210 267 309 375
#
# _framework density 22.250595000000001
#
# number of rings (size 3 to 8) (size 9 to 14) (size 15 to 20)
#    0.750    0.500    3.750    3.000    1.750    1.000 
#    0.000    0.625    0.000    1.500    0.000    0.000 
#    0.000    0.000    0.000    0.000    0.000    0.000 
#
# Total GULP energy -198296.751655 kJ/mol
# GULP energy per Si atom -12393.546978 kJ/mol
# Density = 2.219995 g / cm^3
# Si number density = 22.250595 Si / 1000 Ang^3
#
#
#
# Elastic Constant Matrix: (Units=GPa)
#
#
# Indices 1 2 3 4 5 6 
#
# 1 70.8961 14.8675 18.4663 11.6726 -4.6193 -31.9188
# 2 14.8675 95.1281 22.7669 -7.1174 1.6543 -26.7329
# 3 18.4663 22.7669 91.1297 10.1917 -4.2068 -20.4099
# 4 11.6726 -7.1174 10.1917 30.2151 -7.8405 -6.4556
# 5 -4.6193 1.6543 -4.2068 -7.8405 22.5924 -0.3017
# 6 -31.9188 -26.7329 -20.4099 -6.4556 -0.3017 32.1157
#
#
#
# Elastic Compliance Matrix: (Units=1/GPa)
#
#
# Indices 1 2 3 4 5 6 
#
# 1 0.027671 0.003922 0.000809 -0.002083 0.005211 0.030910
# 2 0.003922 0.015612 -0.001487 0.006892 0.002005 0.017352
# 3 0.000809 -0.001487 0.013264 -0.003100 0.001767 0.007390
# 4 -0.002083 0.006892 -0.003100 0.042218 0.013281 0.010308
# 5 0.005211 0.002005 0.001767 0.013281 0.050268 0.011113
# 6 0.030910 0.017352 0.007390 0.010308 0.011113 0.083174
#
#
# Mechanical properties :
#
#
# Convention : Reuss Voigt Hill
#
# Bulk Modulus (GPa) = 15.86424 41.03948 28.45186
# Shear Modulus (GPa) = 20.26498 30.38819 25.32658
#
# Velocity S-wave (km/s) = 3.02116 3.69958 3.37745
# Velocity P-wave (km/s) = 4.39490 6.06081 5.29380
#
# Compressibility (1/GPa) = 0.06303484
#
# Stress axis : x y z
#
# Youngs Moduli (GPa) = 36.13946 64.05248 75.39128
#
# Poissons Ratio (x) = -0.25118 -0.06102
# Poissons Ratio (y) = -0.14172 0.11210
# Poissons Ratio (z) = -0.02925 0.09524
#
# Static dielectric constant tensor:
#      x y z
#    x 3.350480 -0.028540 -0.093950 
#    y -0.028540 3.833390 0.151220 
#    z -0.093950 0.151220 3.993070 
# 
# 
# High freq. dielectric constant tensor:
#      x y z
#    x 1.821200 -0.022790 -0.005590 
#    y -0.022790 1.897250 0.006870 
#    z -0.005590 0.006870 1.891040 
# 
# From -- ./inp_files/409216.got.cif
#   From: 2010.06.25/outbox.cif.g09.slc.cpg/sg2_205_cif.got.tgz:409216.got - 2010.06.27 13:26:56.
