data_PCOD8026340
_publ_section_title
;
Structure prediction by ZEFSAII (Michael W. Deem and Ramdas Pophale) SiO2 
 PCOD8026340
Probable space group: P -1
;
_chemical_formula_sum "Si O2"
_cell_formula_units_Z 16
_cell_length_a 5.469900
_cell_length_b 10.959463
_cell_length_c 19.022701
_cell_angle_alpha 34.408906
_cell_angle_beta 97.532107
_cell_angle_gamma 99.397016
_cell_volume 635.749352
_symmetry_space_group_name_H-M "P -1"
_symmetry_group_IT_number 2
_symmetry_cell_setting 'triclinic'
loop_
_space_group_symop_operation_xyz
x,y,z
-x,-y,-z
loop_
_atom_site_type_symbol
_atom_site_label
_atom_site_fract_x
_atom_site_fract_y
_atom_site_fract_z
Si Si1 0.755739 0.126858 0.423819
Si Si2 0.878081 0.981998 0.752530
Si Si3 0.327882 0.630990 0.383759
Si Si4 0.206196 0.649406 0.108376
Si Si5 0.190938 0.426160 0.983116
Si Si6 0.462119 0.287550 0.223681
Si Si7 0.984703 0.562131 0.288154
Si Si8 0.701433 0.930617 0.174080
O O1 0.691311 0.168145 0.320002
O O2 0.800532 0.354947 0.357870
O O3 0.500000 0.000000 0.500000
O O4 0.000000 0.000000 0.500000
O O5 0.785610 0.878540 0.722958
O O6 0.815719 0.229588 0.632999
O O7 0.733222 0.814962 0.882590
O O8 0.163692 0.984258 0.787522
O O9 0.500000 0.500000 0.500000
O O10 0.146576 0.476920 0.400072
O O11 0.448871 0.805593 0.249761
O O12 0.387478 0.461626 0.194624
O O13 0.157341 0.661255 0.183837
O O14 0.945480 0.582931 0.092667
O O15 0.337850 0.873365 0.974036
O O16 0.440548 0.590279 0.902934
O O17 0.000000 0.500000 0.000000
O O18 0.848922 0.760482 0.218165
#
# Coordination Sequence:
#
# PCOD8026340 Si02
#       8
#     2   2   2   2   2   2   2   2
#     4  12  30  50  77 112 150 203 259 318 387 459
#     4  10  24  41  67 109 139 193 243 305 380 445
#     4  11  27  46  73 101 146 204 257 312 375 455
#     4  11  23  44  75 113 150 197 249 319 399 461
#     4  11  22  39  67 107 150 186 241 305 388 454
#     4  12  25  42  74 107 152 193 247 316 387 455
#     4  11  26  50  73 109 150 195 262 314 389 457
#     4  10  25  45  75 108 153 197 254 314 382 461
#
# _framework density 25.167149999999999
#
# number of rings (size 3 to 8) (size 9 to 14) (size 15 to 20)
#    0.000    1.000    2.500    2.250    8.750    3.500 
#    0.000    0.000    0.000    0.000    0.000    0.000 
#    0.000    0.000    0.000    0.000    0.000    0.000 
#
# Total GULP energy -198214.998952 kJ/mol
# GULP energy per Si atom -12388.437435 kJ/mol
# Density = 2.510987 g / cm^3
# Si number density = 25.167150 Si / 1000 Ang^3
#
#
#
# Elastic Constant Matrix: (Units=GPa)
#
#
# Indices 1 2 3 4 5 6 
#
# 1 53.5145 14.0858 9.3799 -5.9294 0.8853 11.5889
# 2 14.0858 119.3487 29.4539 -1.5153 9.7186 21.4186
# 3 9.3799 29.4539 102.8370 -0.4591 15.3144 17.0523
# 4 -5.9294 -1.5153 -0.4591 30.7498 8.6935 -1.5362
# 5 0.8853 9.7186 15.3144 8.6935 52.6995 1.6420
# 6 11.5889 21.4186 17.0523 -1.5362 1.6420 32.6012
#
#
#
# Elastic Compliance Matrix: (Units=1/GPa)
#
#
# Indices 1 2 3 4 5 6 
#
# 1 0.020839 -0.001148 -0.000461 0.003767 -0.000432 -0.006214
# 2 -0.001148 0.009967 -0.001711 0.000330 -0.001215 -0.005169
# 3 -0.000461 -0.001711 0.011450 0.000610 -0.002964 -0.004524
# 4 0.003767 0.000330 0.000610 0.034994 -0.006077 0.000080
# 5 -0.000432 -0.001215 -0.002964 -0.006077 0.021035 0.001157
# 6 -0.006214 -0.005169 -0.004524 0.000080 0.001157 0.038590
#
#
# Mechanical properties :
#
#
# Convention : Reuss Voigt Hill
#
# Bulk Modulus (GPa) = 28.07459 42.39327 35.23393
# Shear Modulus (GPa) = 32.17786 38.06213 35.11999
#
# Velocity S-wave (km/s) = 3.57958 3.89314 3.73965
# Velocity P-wave (km/s) = 5.31639 6.09016 5.71638
#
# Compressibility (1/GPa) = 0.03561940
#
# Stress axis : x y z
#
# Youngs Moduli (GPa) = 47.98582 100.32956 87.33434
#
# Poissons Ratio (x) = 0.11515 0.04022
# Poissons Ratio (y) = 0.05507 0.14939
# Poissons Ratio (z) = 0.02210 0.17162
#
# Static dielectric constant tensor:
#      x y z
#    x 4.496750 0.358820 0.128970 
#    y 0.358820 4.715830 -0.041020 
#    z 0.128970 -0.041020 4.718330 
# 
# 
# High freq. dielectric constant tensor:
#      x y z
#    x 1.995970 0.023430 0.006530 
#    y 0.023430 2.009340 -0.001280 
#    z 0.006530 -0.001280 2.012470 
# 
# From -- ./inp_files/583218.got.cif
#   From: 2010.06.25/outbox.cif.g09.slc.cpg/sg2_292_cif.got.tgz:583218.got - 2010.06.27 13:26:56.
