data_PCOD8026666
_publ_section_title
;
Structure prediction by ZEFSAII (Michael W. Deem and Ramdas Pophale) SiO2 
 PCOD8026666
Probable space group: P -1
;
_chemical_formula_sum "Si O2"
_cell_formula_units_Z 14
_cell_length_a 12.077987
_cell_length_b 11.537482
_cell_length_c 9.414053
_cell_angle_alpha 37.229979
_cell_angle_beta 57.362682
_cell_angle_gamma 64.628468
_cell_volume 668.363266
_symmetry_space_group_name_H-M "P -1"
_symmetry_group_IT_number 2
_symmetry_cell_setting 'triclinic'
loop_
_space_group_symop_operation_xyz
x,y,z
-x,-y,-z
loop_
_atom_site_type_symbol
_atom_site_label
_atom_site_fract_x
_atom_site_fract_y
_atom_site_fract_z
Si Si1 0.145404 0.445998 0.063552
Si Si2 0.884539 0.273744 0.414295
Si Si3 0.383061 0.353456 0.180283
Si Si4 0.349207 0.259416 0.596290
Si Si5 0.786934 0.871926 0.900714
Si Si6 0.460119 0.063732 0.171326
Si Si7 0.388403 0.613917 0.380015
O O1 0.269626 0.463564 0.064132
O O2 0.170106 0.311813 0.038899
O O3 0.015556 0.360805 0.315350
O O4 0.112091 0.659524 0.819489
O O5 0.752596 0.373169 0.463889
O O6 0.892983 0.044559 0.654989
O O7 0.311055 0.249701 0.465935
O O8 0.436261 0.179231 0.219411
O O9 0.500000 0.500000 0.000000
O O10 0.374236 0.485541 0.374978
O O11 0.486453 0.146821 0.628030
O O12 0.243036 0.184105 0.859116
O O13 0.664411 0.965922 0.812636
O O14 0.568621 0.173763 0.895681
O O15 0.500000 0.500000 0.500000
#
# Coordination Sequence:
#
# PCOD8026666 Si02
#       7
#     2   2   2   2   2   2   2
#     4  10  24  43  60  90 120 161 201 248 300 357
#     4  11  22  40  67  87 120 157 206 251 296 350
#     4  11  24  40  62  88 128 158 196 247 304 363
#     4  12  22  36  59  91 124 157 196 249 301 354
#     4  11  21  36  66  90 117 155 206 252 290 352
#     4  11  22  37  59  94 120 156 201 248 301 350
#     4  12  20  35  62  94 121 152 201 254 294 344
#
# _framework density 20.946691999999999
#
# number of rings (size 3 to 8) (size 9 to 14) (size 15 to 20)
#    0.000    0.857    5.714    3.000    2.000    0.000 
#    0.000    1.429    0.000    0.000    0.000    0.000 
#    0.000    0.000    0.000    0.000    0.000    0.000 
#
# Total GULP energy -173451.687777 kJ/mol
# GULP energy per Si atom -12389.406270 kJ/mol
# Density = 2.089902 g / cm^3
# Si number density = 20.946692 Si / 1000 Ang^3
#
#
#
# Elastic Constant Matrix: (Units=GPa)
#
#
# Indices 1 2 3 4 5 6 
#
# 1 96.5291 12.7296 30.1321 12.8023 -10.7154 -0.3797
# 2 12.7296 54.8936 21.0949 11.9378 -1.8777 7.3894
# 3 30.1321 21.0949 88.7838 11.0106 -0.4316 11.3645
# 4 12.8023 11.9378 11.0106 36.6256 0.5377 1.6808
# 5 -10.7154 -1.8777 -0.4316 0.5377 34.0150 1.4402
# 6 -0.3797 7.3894 11.3645 1.6808 1.4402 24.3939
#
#
#
# Elastic Compliance Matrix: (Units=1/GPa)
#
#
# Indices 1 2 3 4 5 6 
#
# 1 0.012546 -0.000908 -0.003937 -0.003067 0.003804 0.002291
# 2 -0.000908 0.021645 -0.003561 -0.005473 0.001145 -0.004602
# 3 -0.003937 -0.003561 0.014331 -0.001504 -0.000998 -0.005496
# 4 -0.003067 -0.005473 -0.001504 0.030624 -0.001784 0.000306
# 5 0.003804 0.001145 -0.000998 -0.001784 0.030740 -0.001514
# 6 0.002291 -0.004602 -0.005496 0.000306 -0.001514 0.045053
#
#
# Mechanical properties :
#
#
# Convention : Reuss Voigt Hill
#
# Bulk Modulus (GPa) = 31.53567 40.90218 36.21893
# Shear Modulus (GPa) = 27.42432 30.75688 29.09060
#
# Velocity S-wave (km/s) = 3.62227 3.83605 3.73069
# Velocity P-wave (km/s) = 5.70810 6.26016 5.99049
#
# Compressibility (1/GPa) = 0.03171012
#
# Stress axis : x y z
#
# Youngs Moduli (GPa) = 79.70559 46.20003 69.77974
#
# Poissons Ratio (x) = 0.04194 0.27470
# Poissons Ratio (y) = 0.07236 0.24851
# Poissons Ratio (z) = 0.31378 0.16453
#
# Static dielectric constant tensor:
#      x y z
#    x 3.717250 -0.082690 -0.067310 
#    y -0.082690 3.960940 -0.041590 
#    z -0.067310 -0.041590 4.046750 
# 
# 
# High freq. dielectric constant tensor:
#      x y z
#    x 1.792190 -0.013170 -0.006420 
#    y -0.013170 1.826920 -0.006040 
#    z -0.006420 -0.006040 1.831600 
# 
# From -- ./inp_files/183782.got.cif
#   From: 2010.06.25/outbox.cif.g09.slc.cpg/sg2_92_cif.got.tgz:183782.got - 2010.06.27 13:26:56.
