data_PCOD8026411
_publ_section_title
;
Structure prediction by ZEFSAII (Michael W. Deem and Ramdas Pophale) SiO2 
 PCOD8026411
Probable space group: P -1
;
_chemical_formula_sum "Si O2"
_cell_formula_units_Z 14
_cell_length_a 13.509412
_cell_length_b 13.950076
_cell_length_c 7.208116
_cell_angle_alpha 105.167817
_cell_angle_beta 86.764900
_cell_angle_gamma 149.374721
_cell_volume 627.347051
_symmetry_space_group_name_H-M "P -1"
_symmetry_group_IT_number 2
_symmetry_cell_setting 'triclinic'
loop_
_space_group_symop_operation_xyz
x,y,z
-x,-y,-z
loop_
_atom_site_type_symbol
_atom_site_label
_atom_site_fract_x
_atom_site_fract_y
_atom_site_fract_z
Si Si1 0.470777 0.373011 0.676005
Si Si2 0.879762 0.999844 0.211043
Si Si3 0.093062 0.688299 0.128605
Si Si4 0.776568 0.471818 0.787709
Si Si5 0.077003 0.732463 0.580693
Si Si6 0.278113 0.224337 0.245911
Si Si7 0.486621 0.942316 0.274141
O O1 0.292495 0.209694 0.762320
O O2 0.667385 0.479634 0.765206
O O3 0.379501 0.257181 0.427573
O O4 0.544212 0.551528 0.752926
O O5 0.904643 0.133171 0.344596
O O6 0.809791 0.933853 0.969157
O O7 0.095261 0.134421 0.291587
O O8 0.059544 0.684803 0.345782
O O9 0.338236 0.889457 0.151037
O O10 0.000000 0.500000 0.000000
O O11 0.973740 0.664046 0.002326
O O12 0.616340 0.256786 0.791730
O O13 0.875420 0.517484 0.606763
O O14 0.280606 0.865150 0.729210
O O15 0.500000 0.000000 0.500000
#
# Coordination Sequence:
#
# PCOD8026411 Si02
#       7
#     2   2   2   2   2   2   2
#     4  11  22  42  63  90 126 166 201 257 305 360
#     4  11  22  42  63  92 123 165 205 255 304 363
#     4   9  22  41  62  89 122 159 204 254 305 365
#     4  11  22  40  63  92 123 163 204 251 307 368
#     4  11  22  40  65  91 124 161 207 255 302 369
#     4  10  24  42  62  94 125 160 214 246 308 367
#     4   9  20  41  60  87 121 154 204 253 299 363
#
# _framework density 22.316193999999999
#
# number of rings (size 3 to 8) (size 9 to 14) (size 15 to 20)
#    0.000    1.714    2.857    0.857    0.000    8.000 
#    2.571    0.000    0.000    0.000    0.000    0.000 
#    0.000    0.000    0.000    0.000    0.000    0.000 
#
# Total GULP energy -173498.385763 kJ/mol
# GULP energy per Si atom -12392.741840 kJ/mol
# Density = 2.226540 g / cm^3
# Si number density = 22.316194 Si / 1000 Ang^3
#
#
#
# Elastic Constant Matrix: (Units=GPa)
#
#
# Indices 1 2 3 4 5 6 
#
# 1 74.0593 16.4269 51.4678 10.3334 15.5583 3.7567
# 2 16.4269 63.6548 6.1215 -2.6116 -0.8974 22.1921
# 3 51.4678 6.1215 117.1637 14.1803 10.6085 -0.3541
# 4 10.3334 -2.6116 14.1803 29.0198 2.7423 -0.4542
# 5 15.5583 -0.8974 10.6085 2.7423 45.5058 3.8142
# 6 3.7567 22.1921 -0.3541 -0.4542 3.8142 17.4363
#
#
#
# Elastic Compliance Matrix: (Units=1/GPa)
#
#
# Indices 1 2 3 4 5 6 
#
# 1 0.022512 -0.007032 -0.008492 -0.003846 -0.006056 0.005152
# 2 -0.007032 0.031722 0.000273 0.004023 0.006083 -0.040080
# 3 -0.008492 0.000273 0.012630 -0.003098 0.000012 0.001656
# 4 -0.003846 0.004023 -0.003098 0.037639 0.000134 -0.003404
# 5 -0.006056 0.006083 0.000012 0.000134 0.025155 -0.011937
# 6 0.005152 -0.040080 0.001656 -0.003404 -0.011937 0.109809
#
#
# Mechanical properties :
#
#
# Convention : Reuss Voigt Hill
#
# Bulk Modulus (GPa) = 27.50197 44.76782 36.13489
# Shear Modulus (GPa) = 17.72482 30.44981 24.08731
#
# Velocity S-wave (km/s) = 2.82132 3.69788 3.28893
# Velocity P-wave (km/s) = 4.79204 6.19166 5.53626
#
# Compressibility (1/GPa) = 0.03636103
#
# Stress axis : x y z
#
# Youngs Moduli (GPa) = 44.42162 31.52374 79.17584
#
# Poissons Ratio (x) = 0.22168 0.67237
# Poissons Ratio (y) = 0.31237 -0.02160
# Poissons Ratio (z) = 0.37723 -0.00860
#
# Static dielectric constant tensor:
#      x y z
#    x 4.453080 0.587560 0.427130 
#    y 0.587560 4.230730 0.446140 
#    z 0.427130 0.446140 4.327290 
# 
# 
# High freq. dielectric constant tensor:
#      x y z
#    x 1.877590 0.021600 0.009370 
#    y 0.021600 1.879030 0.010970 
#    z 0.009370 0.010970 1.879870 
# 
# From -- ./inp_files/98232.got.cif
#   From: 2010.06.25/outbox.cif.g09.slc.cpg/sg2_50_cif.got.tgz:98232.got - 2010.06.27 13:26:56.
