data_PCOD8026501
_publ_section_title
;
Structure prediction by ZEFSAII (Michael W. Deem and Ramdas Pophale) SiO2 
 PCOD8026501
Probable space group: P -1
;
_chemical_formula_sum "Si O2"
_cell_formula_units_Z 16
_cell_length_a 11.038920
_cell_length_b 17.475613
_cell_length_c 20.472339
_cell_angle_alpha 21.468118
_cell_angle_beta 33.647986
_cell_angle_gamma 34.136572
_cell_volume 773.043392
_symmetry_space_group_name_H-M "P -1"
_symmetry_group_IT_number 2
_symmetry_cell_setting 'triclinic'
loop_
_space_group_symop_operation_xyz
x,y,z
-x,-y,-z
loop_
_atom_site_type_symbol
_atom_site_label
_atom_site_fract_x
_atom_site_fract_y
_atom_site_fract_z
Si Si1 0.543824 0.916251 0.473651
Si Si2 0.527357 0.410667 0.662118
Si Si3 0.006907 0.185301 0.902026
Si Si4 0.222252 0.287465 0.003725
Si Si5 0.000480 0.594304 0.496635
Si Si6 0.453489 0.693397 0.918737
Si Si7 0.719647 0.435991 0.120969
Si Si8 0.497250 0.175934 0.728456
O O1 0.412214 0.737468 0.661884
O O2 0.807592 0.813620 0.421509
O O3 0.500000 0.000000 0.500000
O O4 0.453081 0.115812 0.306236
O O5 0.765596 0.342603 0.646750
O O6 0.543217 0.283619 0.688919
O O7 0.465136 0.669919 0.470465
O O8 0.343184 0.336100 0.845923
O O9 0.959985 0.417477 0.705175
O O10 0.249101 0.132172 0.871518
O O11 0.812954 0.208544 0.025097
O O12 0.000000 0.000000 0.000000
O O13 0.962246 0.315387 0.077623
O O14 0.318603 0.051245 0.178861
O O15 0.246701 0.458158 0.910564
O O16 0.000000 0.500000 0.500000
O O17 0.500000 0.500000 0.000000
O O18 0.583475 0.615207 0.989531
#
# Coordination Sequence:
#
# PCOD8026501 Si02
#       8
#     2   2   2   2   2   2   2   2
#     4  12  25  43  69  99 136 176 223 283 338 404
#     4  10  24  42  66  99 131 174 226 278 335 396
#     4  11  23  41  67 101 136 171 222 281 337 401
#     4  11  25  44  70  90 141 179 221 277 325 419
#     4  11  23  41  67 101 136 171 222 281 337 401
#     4  12  25  43  69  99 136 176 223 283 338 404
#     4  11  26  46  64 102 131 179 229 267 342 406
#     4  10  24  42  66  99 131 174 226 278 335 396
#
# _framework density 20.697414999999999
#
# number of rings (size 3 to 8) (size 9 to 14) (size 15 to 20)
#    0.000    1.000    2.500    2.625    7.000    4.000 
#    0.000    2.500    0.000    0.000    0.000    0.000 
#    0.000    0.000    0.000    0.000    0.000    0.000 
#
# Total GULP energy -198456.120717 kJ/mol
# GULP energy per Si atom -12403.507545 kJ/mol
# Density = 2.065031 g / cm^3
# Si number density = 20.697415 Si / 1000 Ang^3
#
#
#
# Elastic Constant Matrix: (Units=GPa)
#
#
# Indices 1 2 3 4 5 6 
#
# 1 76.3753 11.2593 11.3130 -2.6872 -5.9654 -11.8294
# 2 11.2593 104.3990 22.7183 -6.1803 -1.7998 -9.3894
# 3 11.3130 22.7183 114.6415 -9.1769 14.9032 -20.8188
# 4 -2.6872 -6.1803 -9.1769 32.3221 1.5823 0.7148
# 5 -5.9654 -1.7998 14.9032 1.5823 29.5957 1.3165
# 6 -11.8294 -9.3894 -20.8188 0.7148 1.3165 38.1052
#
#
#
# Elastic Compliance Matrix: (Units=1/GPa)
#
#
# Indices 1 2 3 4 5 6 
#
# 1 0.014176 -0.000924 -0.000932 0.000508 0.003086 0.003548
# 2 -0.000924 0.010271 -0.001779 0.001296 0.001211 0.001206
# 3 -0.000932 -0.001779 0.011246 0.002963 -0.006366 0.005581
# 4 0.000508 0.001296 0.002963 0.032186 -0.003103 0.001600
# 5 0.003086 0.001211 -0.006366 -0.003103 0.038010 -0.003477
# 6 0.003548 0.001206 0.005581 0.001600 -0.003477 0.030781
#
#
# Mechanical properties :
#
#
# Convention : Reuss Voigt Hill
#
# Bulk Modulus (GPa) = 35.18237 42.88856 39.03546
# Shear Modulus (GPa) = 32.59147 36.67962 34.63554
#
# Velocity S-wave (km/s) = 3.97251 4.21430 4.09519
# Velocity P-wave (km/s) = 6.17061 6.66687 6.42353
#
# Compressibility (1/GPa) = 0.02842333
#
# Stress axis : x y z
#
# Youngs Moduli (GPa) = 70.54258 97.35698 88.92422
#
# Poissons Ratio (x) = 0.08993 0.08288
# Poissons Ratio (y) = 0.06516 0.15820
# Poissons Ratio (z) = 0.06575 0.17320
#
# Static dielectric constant tensor:
#      x y z
#    x 2.971070 -0.130820 0.077400 
#    y -0.130820 4.171760 -0.127950 
#    z 0.077400 -0.127950 4.277470 
# 
# 
# High freq. dielectric constant tensor:
#      x y z
#    x 1.816030 -0.000550 0.000690 
#    y -0.000550 1.816000 -0.004290 
#    z 0.000690 -0.004290 1.826910 
# 
# From -- ./inp_files/257360.got.cif
#   From: 2010.06.25/outbox.cif.g09.slc.cpg/sg2_129_cif.got.tgz:257360.got - 2010.06.27 13:26:56.
