data_PCOD8026080
_publ_section_title
;
Structure prediction by ZEFSAII (Michael W. Deem and Ramdas Pophale) SiO2 
 PCOD8026080
Probable space group: P -1
;
_chemical_formula_sum "Si O2"
_cell_formula_units_Z 16
_cell_length_a 8.852034
_cell_length_b 21.660675
_cell_length_c 8.521287
_cell_angle_alpha 122.088315
_cell_angle_beta 122.901741
_cell_angle_gamma 31.060473
_cell_volume 699.535794
_symmetry_space_group_name_H-M "P -1"
_symmetry_group_IT_number 2
_symmetry_cell_setting 'triclinic'
loop_
_space_group_symop_operation_xyz
x,y,z
-x,-y,-z
loop_
_atom_site_type_symbol
_atom_site_label
_atom_site_fract_x
_atom_site_fract_y
_atom_site_fract_z
Si Si1 0.643345 0.871374 0.928672
Si Si2 0.997170 0.155711 0.404303
Si Si3 0.224427 0.543782 0.469338
Si Si4 0.512080 0.646219 0.843666
Si Si5 0.294807 0.599836 0.882281
Si Si6 0.444126 0.104968 0.740946
Si Si7 0.397578 0.256361 0.738864
Si Si8 0.720481 0.131350 0.452284
O O1 0.507398 0.858753 0.711295
O O2 0.006498 0.744138 0.957812
O O3 0.545508 0.873567 0.045044
O O4 0.500000 0.000000 0.000000
O O5 0.105528 0.185097 0.622096
O O6 0.812396 0.240533 0.263656
O O7 0.810558 0.155669 0.394845
O O8 0.305419 0.035836 0.333363
O O9 0.500000 0.500000 0.500000
O O10 0.268973 0.445109 0.303564
O O11 0.198529 0.561653 0.667216
O O12 0.925216 0.668903 0.389671
O O13 0.512862 0.580451 0.879368
O O14 0.627989 0.677760 0.046327
O O15 0.500000 0.500000 0.000000
O O16 0.557593 0.134576 0.737726
O O17 0.575798 0.225061 0.641362
O O18 0.000000 0.000000 0.500000
#
# Coordination Sequence:
#
# PCOD8026080 Si02
#       8
#     2   2   2   2   2   2   2   2
#     4  12  27  44  74 109 148 190 247 299 364 442
#     4  11  25  46  69 108 141 193 236 297 361 433
#     4  10  23  48  71  96 139 187 237 293 355 428
#     4  11  26  43  75 100 142 187 245 294 362 431
#     4  11  26  47  73 108 147 193 241 303 369 431
#     4  11  25  42  74  99 146 188 242 288 367 432
#     4  12  25  46  72 107 143 185 241 302 362 436
#     4  12  26  45  70 108 153 186 236 309 369 428
#
# _framework density 22.872309000000001
#
# number of rings (size 3 to 8) (size 9 to 14) (size 15 to 20)
#    0.000    0.750    2.500    4.125   12.250    1.000 
#    2.250    1.250    0.000    0.000    0.000    0.000 
#    0.000    0.000    0.000    0.000    0.000    0.000 
#
# Total GULP energy -198220.813056 kJ/mol
# GULP energy per Si atom -12388.800816 kJ/mol
# Density = 2.282025 g / cm^3
# Si number density = 22.872309 Si / 1000 Ang^3
#
#
#
# Elastic Constant Matrix: (Units=GPa)
#
#
# Indices 1 2 3 4 5 6 
#
# 1 69.0397 25.8999 20.0396 -2.5826 -9.9428 6.0165
# 2 25.8999 128.0284 52.6663 -10.9413 -13.0978 4.1682
# 3 20.0396 52.6663 141.6442 4.5347 -16.1031 6.9867
# 4 -2.5826 -10.9413 4.5347 43.8109 1.4101 -7.0882
# 5 -9.9428 -13.0978 -16.1031 1.4101 29.5767 2.6800
# 6 6.0165 4.1682 6.9867 -7.0882 2.6800 33.1991
#
#
#
# Elastic Compliance Matrix: (Units=1/GPa)
#
#
# Indices 1 2 3 4 5 6 
#
# 1 0.016512 -0.002506 -0.000767 -0.000181 0.004295 -0.002902
# 2 -0.002506 0.010067 -0.003303 0.002708 0.001658 0.000330
# 3 -0.000767 -0.003303 0.008965 -0.002248 0.003457 -0.002092
# 4 -0.000181 0.002708 -0.002248 0.024683 -0.001768 0.005578
# 5 0.004295 0.001658 0.003457 -0.001768 0.038425 -0.005193
# 6 -0.002902 0.000330 -0.002092 0.005578 -0.005193 0.032656
#
#
# Mechanical properties :
#
#
# Convention : Reuss Voigt Hill
#
# Bulk Modulus (GPa) = 44.66107 59.54710 52.10409
# Shear Modulus (GPa) = 32.91105 37.32445 35.11775
#
# Velocity S-wave (km/s) = 3.79740 4.04401 3.92265
# Velocity P-wave (km/s) = 6.22862 6.92073 6.58377
#
# Compressibility (1/GPa) = 0.02239086
#
# Stress axis : x y z
#
# Youngs Moduli (GPa) = 60.56225 99.33585 111.54850
#
# Poissons Ratio (x) = 0.24898 0.08555
# Poissons Ratio (y) = 0.15180 0.36844
# Poissons Ratio (z) = 0.04645 0.32810
#
# Static dielectric constant tensor:
#      x y z
#    x 3.912030 -0.083360 -0.166990 
#    y -0.083360 4.371110 0.219490 
#    z -0.166990 0.219490 4.823270 
# 
# 
# High freq. dielectric constant tensor:
#      x y z
#    x 1.879110 -0.006760 -0.008420 
#    y -0.006760 1.912090 -0.001670 
#    z -0.008420 -0.001670 1.926830 
# 
# From -- ./inp_files/223875.got.cif
#   From: 2010.06.25/outbox.cif.g09.slc.cpg/sg2_112_cif.got.tgz:223875.got - 2010.06.27 13:26:56.
