data_PCOD8026834
_publ_section_title
;
Structure prediction by ZEFSAII (Michael W. Deem and Ramdas Pophale) SiO2 
 PCOD8026834
Probable space group: P -1
;
_chemical_formula_sum "Si O2"
_cell_formula_units_Z 16
_cell_length_a 21.560428
_cell_length_b 9.925327
_cell_length_c 20.773643
_cell_angle_alpha 44.657637
_cell_angle_beta 18.567241
_cell_angle_gamma 34.232505
_cell_volume 728.335334
_symmetry_space_group_name_H-M "P -1"
_symmetry_group_IT_number 2
_symmetry_cell_setting 'triclinic'
loop_
_space_group_symop_operation_xyz
x,y,z
-x,-y,-z
loop_
_atom_site_type_symbol
_atom_site_label
_atom_site_fract_x
_atom_site_fract_y
_atom_site_fract_z
Si Si1 0.788431 0.887438 0.094673
Si Si2 0.813941 0.226149 0.156180
Si Si3 0.320495 0.733703 0.397032
Si Si4 0.552354 0.552495 0.999828
Si Si5 0.536134 0.254097 0.533784
Si Si6 0.030624 0.977877 0.725099
Si Si7 0.718399 0.491175 0.613173
Si Si8 0.699543 0.853986 0.794957
O O1 0.722547 0.705538 0.221560
O O2 0.510399 0.192780 0.270525
O O3 0.989008 0.778586 0.993339
O O4 0.950259 0.833765 0.889051
O O5 0.595850 0.504443 0.240768
O O6 0.671263 0.155664 0.363414
O O7 0.000000 0.000000 0.000000
O O8 0.074395 0.897806 0.634253
O O9 0.262406 0.614543 0.440529
O O10 0.329507 0.937344 0.289326
O O11 0.602337 0.745774 0.881560
O O12 0.500000 0.500000 0.000000
O O13 0.332532 0.643419 0.238581
O O14 0.817614 0.274102 0.855397
O O15 0.500000 0.500000 0.500000
O O16 0.720523 0.072143 0.473834
O O17 0.004283 0.386037 0.387417
O O18 0.500000 0.000000 0.000000
#
# Coordination Sequence:
#
# PCOD8026834 Si02
#       8
#     2   2   2   2   2   2   2   2
#     4  10  24  45  74  97 139 192 226 286 358 411
#     4  11  24  46  68 103 143 181 232 286 343 419
#     4  12  24  46  71 107 142 181 237 295 344 424
#     4  11  25  47  70 102 138 187 233 293 352 421
#     4  11  23  46  65 101 140 179 233 287 340 415
#     4  10  24  43  69 101 142 178 238 289 345 416
#     4  11  24  47  72 100 142 183 235 286 352 424
#     4  12  27  45  74 106 142 186 232 293 360 411
#
# _framework density 21.967901999999999
#
# number of rings (size 3 to 8) (size 9 to 14) (size 15 to 20)
#    0.000    1.000    3.750    1.875    1.750    7.500 
#    4.500    0.000    0.000    0.000    0.000    0.000 
#    0.000    0.000    0.000    0.000    0.000    0.000 
#
# Total GULP energy -198291.164543 kJ/mol
# GULP energy per Si atom -12393.197784 kJ/mol
# Density = 2.191790 g / cm^3
# Si number density = 21.967902 Si / 1000 Ang^3
#
#
#
# Elastic Constant Matrix: (Units=GPa)
#
#
# Indices 1 2 3 4 5 6 
#
# 1 140.2338 35.3721 59.6911 -18.5549 11.4319 10.6331
# 2 35.3721 86.0236 36.1540 -25.3081 -0.0854 10.0276
# 3 59.6911 36.1540 136.8018 -16.9015 6.3691 12.8575
# 4 -18.5549 -25.3081 -16.9015 34.3887 5.0129 -5.3649
# 5 11.4319 -0.0854 6.3691 5.0129 52.7210 7.8622
# 6 10.6331 10.0276 12.8575 -5.3649 7.8622 35.3279
#
#
#
# Elastic Compliance Matrix: (Units=1/GPa)
#
#
# Indices 1 2 3 4 5 6 
#
# 1 0.009454 -0.001774 -0.003236 0.002411 -0.001833 -0.000390
# 2 -0.001774 0.016338 -0.002172 0.009708 0.000026 -0.001844
# 3 -0.003236 -0.002172 0.009611 0.001168 -0.000327 -0.001657
# 4 0.002411 0.009708 0.001168 0.039296 -0.004853 0.003141
# 5 -0.001833 0.000026 -0.000327 -0.004853 0.020560 -0.004649
# 6 -0.000390 -0.001844 -0.001657 0.003141 -0.004649 0.031062
#
#
# Mechanical properties :
#
#
# Convention : Reuss Voigt Hill
#
# Bulk Modulus (GPa) = 47.53312 69.49930 58.51621
# Shear Modulus (GPa) = 33.85253 39.94366 36.89810
#
# Velocity S-wave (km/s) = 3.92982 4.26875 4.10278
# Velocity P-wave (km/s) = 6.50198 7.48343 7.00990
#
# Compressibility (1/GPa) = 0.02103796
#
# Stress axis : x y z
#
# Youngs Moduli (GPa) = 105.77462 61.20622 104.04395
#
# Poissons Ratio (x) = 0.10860 0.33672
# Poissons Ratio (y) = 0.18768 0.22600
# Poissons Ratio (z) = 0.34232 0.13295
#
# Static dielectric constant tensor:
#      x y z
#    x 4.170330 -0.251150 -0.315990 
#    y -0.251150 4.412540 0.582640 
#    z -0.315990 0.582640 4.647850 
# 
# 
# High freq. dielectric constant tensor:
#      x y z
#    x 1.873480 -0.005580 0.000060 
#    y -0.005580 1.865380 0.017810 
#    z 0.000060 0.017810 1.879620 
# 
# From -- ./inp_files/591610.got.cif
#   From: 2010.06.25/outbox.cif.g09.slc.cpg/sg2_296_cif.got.tgz:591610.got - 2010.06.27 13:26:56.
