data_PCOD8026197
_publ_section_title
;
Structure prediction by ZEFSAII (Michael W. Deem and Ramdas Pophale) SiO2 
 PCOD8026197
Probable space group: P -1
;
_chemical_formula_sum "Si O2"
_cell_formula_units_Z 10
_cell_length_a 5.144892
_cell_length_b 5.178117
_cell_length_c 21.431580
_cell_angle_alpha 61.425251
_cell_angle_beta 116.412184
_cell_angle_gamma 120.055437
_cell_volume 417.865732
_symmetry_space_group_name_H-M "P -1"
_symmetry_group_IT_number 2
_symmetry_cell_setting 'triclinic'
loop_
_space_group_symop_operation_xyz
x,y,z
-x,-y,-z
loop_
_atom_site_type_symbol
_atom_site_label
_atom_site_fract_x
_atom_site_fract_y
_atom_site_fract_z
Si Si1 0.786970 0.311825 0.815608
Si Si2 0.455424 0.383267 0.884744
Si Si3 0.492847 0.456303 0.645549
Si Si4 0.904838 0.126465 0.412635
Si Si5 0.351012 0.152016 0.046198
O O1 0.721643 0.513448 0.844241
O O2 0.586075 0.324702 0.733538
O O3 0.152633 0.447615 0.822013
O O4 0.690847 0.949798 0.871000
O O5 0.407608 0.011621 0.932319
O O6 0.513452 0.470848 0.957489
O O7 0.293622 0.664125 0.616734
O O8 0.790817 0.665447 0.615297
O O9 0.292419 0.163377 0.617092
O O10 0.000000 0.000000 0.500000
O O11 0.000000 0.000000 0.000000
#
# Coordination Sequence:
#
# PCOD8026197 Si02
#       5
#     2   2   2   2   2
#     4  10  26  40  66  95 132 170 224 271 334 394
#     4  10  24  40  64  89 131 164 228 266 333 389
#     4  12  26  43  75 102 142 182 228 285 341 406
#     4  12  26  48  72 105 140 182 228 280 345 414
#     4  10  24  42  64  92 129 172 219 272 330 392
#
# _framework density 23.931132999999999
#
# number of rings (size 3 to 8) (size 9 to 14) (size 15 to 20)
#    1.200    0.000    0.000    4.800    8.400    1.600 
#    0.000    0.000    0.000    0.000    0.000    0.000 
#    0.000    0.000    0.000    0.000    0.000    0.000 
#
# Total GULP energy -123890.899729 kJ/mol
# GULP energy per Si atom -12389.089973 kJ/mol
# Density = 2.387666 g / cm^3
# Si number density = 23.931133 Si / 1000 Ang^3
#
#
#
# Elastic Constant Matrix: (Units=GPa)
#
#
# Indices 1 2 3 4 5 6 
#
# 1 215.2777 82.0154 80.6440 13.3018 18.0193 -12.4045
# 2 82.0154 171.7729 77.8632 29.9543 5.6411 -14.7891
# 3 80.6440 77.8632 231.3767 14.0497 3.8047 -16.3772
# 4 13.3018 29.9543 14.0497 41.6316 -0.6753 -8.6764
# 5 18.0193 5.6411 3.8047 -0.6753 50.6246 -4.0481
# 6 -12.4045 -14.7891 -16.3772 -8.6764 -4.0481 49.2763
#
#
#
# Elastic Compliance Matrix: (Units=1/GPa)
#
#
# Indices 1 2 3 4 5 6 
#
# 1 0.006178 -0.002282 -0.001343 0.000155 -0.001817 0.000302
# 2 -0.002282 0.008588 -0.001766 -0.004734 -0.000029 0.000580
# 3 -0.001343 -0.001766 0.005444 0.000073 0.000345 0.000982
# 4 0.000155 -0.004734 0.000073 0.028140 0.001137 0.003691
# 5 -0.001817 -0.000029 0.000345 0.001137 0.020515 0.001534
# 6 0.000302 0.000580 0.000982 0.003691 0.001534 0.021646
#
#
# Mechanical properties :
#
#
# Convention : Reuss Voigt Hill
#
# Bulk Modulus (GPa) = 106.07486 122.16362 114.11924
# Shear Modulus (GPa) = 47.87653 53.50015 50.68834
#
# Velocity S-wave (km/s) = 4.47765 4.73333 4.60727
# Velocity P-wave (km/s) = 8.43527 9.00174 8.72311
#
# Compressibility (1/GPa) = 0.00942730
#
# Stress axis : x y z
#
# Youngs Moduli (GPa) = 161.87119 116.44195 183.69520
#
# Poissons Ratio (x) = 0.26573 0.24678
# Poissons Ratio (y) = 0.36940 0.32434
# Poissons Ratio (z) = 0.21746 0.20560
#
# Static dielectric constant tensor:
#      x y z
#    x 4.620140 -0.213310 -0.262580 
#    y -0.213310 4.563380 -0.216370 
#    z -0.262580 -0.216370 4.743160 
# 
# 
# High freq. dielectric constant tensor:
#      x y z
#    x 1.981640 -0.015710 -0.015620 
#    y -0.015710 1.956070 -0.006590 
#    z -0.015620 -0.006590 1.977220 
# 
# From -- ./inp_files/5814.got.cif
#   From: 2010.06.25/outbox.cif.g09.slc.cpg/sg2_3_cif.got.tgz:5814.got - 2010.06.27 13:26:56.
