data_PCOD8026683
_publ_section_title
;
Structure prediction by ZEFSAII (Michael W. Deem and Ramdas Pophale) SiO2 
 PCOD8026683
Probable space group: P -1
;
_chemical_formula_sum "Si O2"
_cell_formula_units_Z 16
_cell_length_a 21.182160
_cell_length_b 8.178160
_cell_length_c 14.820240
_cell_angle_alpha 62.606953
_cell_angle_beta 157.902738
_cell_angle_gamma 105.821664
_cell_volume 761.360306
_symmetry_space_group_name_H-M "P -1"
_symmetry_group_IT_number 2
_symmetry_cell_setting 'triclinic'
loop_
_space_group_symop_operation_xyz
x,y,z
-x,-y,-z
loop_
_atom_site_type_symbol
_atom_site_label
_atom_site_fract_x
_atom_site_fract_y
_atom_site_fract_z
Si Si1 0.486662 0.180257 0.373965
Si Si2 0.588192 0.800428 0.935651
Si Si3 0.875339 0.175256 0.860257
Si Si4 0.929354 0.834801 0.426362
Si Si5 0.201553 0.015745 0.472395
Si Si6 0.919178 0.539666 0.782313
Si Si7 0.124762 0.671765 0.540283
Si Si8 0.101681 0.449963 0.864028
O O1 0.433893 0.151722 0.210750
O O2 0.685875 0.178206 0.642376
O O3 0.500000 0.000000 0.500000
O O4 0.317736 0.385879 0.140436
O O5 0.380775 0.890799 0.679007
O O6 0.702827 0.920940 0.094626
O O7 0.695619 0.555131 0.162781
O O8 0.807237 0.401744 0.666020
O O9 0.004396 0.133523 0.129328
O O10 0.000000 0.000000 0.000000
O O11 0.021981 0.704772 0.491674
O O12 0.985079 0.688547 0.623584
O O13 0.000000 0.000000 0.500000
O O14 0.214795 0.216538 0.481911
O O15 0.189922 0.851871 0.568723
O O16 0.084938 0.433964 0.953746
O O17 0.000000 0.500000 0.000000
O O18 0.982424 0.685307 0.267303
#
# Coordination Sequence:
#
# PCOD8026683 Si02
#       8
#     2   2   2   2   2   2   2   2
#     4  12  23  38  68 102 125 168 233 269 323 390
#     4  11  23  42  65  99 132 174 225 274 323 407
#     4  11  22  40  66  96 129 180 221 266 325 398
#     4  11  23  42  67  98 135 173 214 278 344 390
#     4  11  23  41  63  95 136 172 216 279 332 385
#     4  10  24  43  63  94 138 175 218 274 341 389
#     4  11  21  43  68  97 128 177 229 269 328 397
#     4  11  22  43  66  95 131 176 226 274 323 399
#
# _framework density 21.015018000000001
#
# number of rings (size 3 to 8) (size 9 to 14) (size 15 to 20)
#    0.000    1.000    3.750    4.125    1.750    1.000 
#    0.000    5.625    0.000    0.000    0.000    0.000 
#    0.000    0.000    0.000    0.000    0.000    0.000 
#
# Total GULP energy -198282.243639 kJ/mol
# GULP energy per Si atom -12392.640227 kJ/mol
# Density = 2.096719 g / cm^3
# Si number density = 21.015018 Si / 1000 Ang^3
#
#
#
# Elastic Constant Matrix: (Units=GPa)
#
#
# Indices 1 2 3 4 5 6 
#
# 1 122.2120 24.9791 44.3606 7.2605 11.4318 8.8173
# 2 24.9791 143.6064 38.9446 0.6624 4.0696 24.6999
# 3 44.3606 38.9446 123.2608 8.8394 18.8682 10.4455
# 4 7.2605 0.6624 8.8394 23.2015 4.4754 3.3459
# 5 11.4318 4.0696 18.8682 4.4754 35.2496 1.1810
# 6 8.8173 24.6999 10.4455 3.3459 1.1810 37.9633
#
#
#
# Elastic Compliance Matrix: (Units=1/GPa)
#
#
# Indices 1 2 3 4 5 6 
#
# 1 0.009640 -0.000717 -0.002867 -0.001539 -0.001286 -0.000808
# 2 -0.000717 0.008505 -0.002178 0.001442 0.000397 -0.004907
# 3 -0.002867 -0.002178 0.010686 -0.002218 -0.004239 -0.000530
# 4 -0.001539 0.001442 -0.002218 0.045747 -0.004159 -0.003873
# 5 -0.001286 0.000397 -0.004239 -0.004159 0.031518 0.000593
# 6 -0.000808 -0.004907 -0.000530 -0.003873 0.000593 0.030191
#
#
# Mechanical properties :
#
#
# Convention : Reuss Voigt Hill
#
# Bulk Modulus (GPa) = 57.77854 67.29419 62.53637
# Shear Modulus (GPa) = 32.55696 38.00252 35.27974
#
# Velocity S-wave (km/s) = 3.94029 4.25708 4.10175
# Velocity P-wave (km/s) = 6.94657 7.50034 7.22876
#
# Compressibility (1/GPa) = 0.01730746
#
# Stress axis : x y z
#
# Youngs Moduli (GPa) = 103.73714 117.58060 93.58401
#
# Poissons Ratio (x) = 0.08427 0.26831
# Poissons Ratio (y) = 0.07435 0.20379
# Poissons Ratio (z) = 0.29742 0.25604
#
# Static dielectric constant tensor:
#      x y z
#    x 3.897380 0.159800 0.081320 
#    y 0.159800 4.314250 0.131080 
#    z 0.081320 0.131080 4.364020 
# 
# 
# High freq. dielectric constant tensor:
#      x y z
#    x 1.837470 0.013850 0.001830 
#    y 0.013850 1.828480 -0.005480 
#    z 0.001830 -0.005480 1.811230 
# 
# From -- ./inp_files/200298.got.cif
#   From: 2010.06.25/outbox.cif.g09.slc.cpg/sg2_101_cif.got.tgz:200298.got - 2010.06.27 13:26:56.
