data_PCOD8026008
_publ_section_title
;
Structure prediction by ZEFSAII (Michael W. Deem and Ramdas Pophale) SiO2 
 PCOD8026008
Probable space group: P -1
;
_chemical_formula_sum "Si O2"
_cell_formula_units_Z 16
_cell_length_a 11.146514
_cell_length_b 11.757381
_cell_length_c 14.637102
_cell_angle_alpha 31.318381
_cell_angle_beta 61.930300
_cell_angle_gamma 82.373538
_cell_volume 712.227558
_symmetry_space_group_name_H-M "P -1"
_symmetry_group_IT_number 2
_symmetry_cell_setting 'triclinic'
loop_
_space_group_symop_operation_xyz
x,y,z
-x,-y,-z
loop_
_atom_site_type_symbol
_atom_site_label
_atom_site_fract_x
_atom_site_fract_y
_atom_site_fract_z
Si Si1 0.174682 0.758579 0.792342
Si Si2 0.298964 0.706132 0.119216
Si Si3 0.689459 0.913864 0.660862
Si Si4 0.182742 0.195938 0.606362
Si Si5 0.700465 0.442242 0.968016
Si Si6 0.824140 0.059926 0.868351
Si Si7 0.316502 0.860394 0.310772
Si Si8 0.192542 0.257740 0.756005
O O1 0.274076 0.662439 0.875417
O O2 0.279097 0.917980 0.556489
O O3 0.147849 0.937242 0.745791
O O4 0.000000 0.500000 0.000000
O O5 0.309493 0.466547 0.317094
O O6 0.170637 0.723492 0.215431
O O7 0.222509 0.619228 0.103309
O O8 0.483500 0.989875 0.860110
O O9 0.492154 0.704291 0.887935
O O10 0.758850 0.103818 0.594786
O O11 0.779388 0.760664 0.729574
O O12 0.267629 0.234850 0.649068
O O13 0.009982 0.165962 0.700714
O O14 0.717970 0.010648 0.850069
O O15 0.729961 0.780114 0.154308
O O16 0.218552 0.541257 0.553156
O O17 0.000000 0.000000 0.000000
#
# Coordination Sequence:
#
# PCOD8026008 Si02
#       8
#     2   2   2   2   2   2   2   2
#     4  12  27  43  68 102 135 173 226 274 329 397
#     4  11  22  45  69  98 131 173 224 276 332 390
#     4  10  24  45  69  98 133 176 226 268 334 392
#     4  11  24  44  65  97 133 178 218 269 336 400
#     4  10  23  47  71  95 133 180 217 279 333 389
#     4  11  24  42  68  92 134 179 213 271 336 389
#     4  11  25  42  68 100 133 168 224 278 324 395
#     4  10  24  41  64  96 133 170 215 263 332 399
#
# _framework density 22.464732999999999
#
# number of rings (size 3 to 8) (size 9 to 14) (size 15 to 20)
#    0.000    1.250    2.500    1.875    7.000    2.000 
#    4.500    0.000    0.000    0.000    0.000    0.000 
#    0.000    0.000    0.000    0.000    0.000    0.000 
#
# Total GULP energy -198354.314329 kJ/mol
# GULP energy per Si atom -12397.144646 kJ/mol
# Density = 2.241360 g / cm^3
# Si number density = 22.464733 Si / 1000 Ang^3
#
#
#
# Elastic Constant Matrix: (Units=GPa)
#
#
# Indices 1 2 3 4 5 6 
#
# 1 81.5382 47.9486 29.7064 -1.5238 33.8213 12.2769
# 2 47.9486 165.4992 36.1113 1.2115 15.3784 25.3677
# 3 29.7064 36.1113 99.9317 -7.7690 26.6590 17.7825
# 4 -1.5238 1.2115 -7.7690 38.2406 11.5433 8.2802
# 5 33.8213 15.3784 26.6590 11.5433 44.0168 13.9698
# 6 12.2769 25.3677 17.7825 8.2802 13.9698 32.6817
#
#
#
# Elastic Compliance Matrix: (Units=1/GPa)
#
#
# Indices 1 2 3 4 5 6 
#
# 1 0.022435 -0.005161 0.000079 0.006044 -0.017545 0.001504
# 2 -0.005161 0.008323 -0.001691 -0.000904 0.003922 -0.005048
# 3 0.000079 -0.001691 0.014089 0.006379 -0.008257 -0.004469
# 4 0.006044 -0.000904 0.006379 0.033740 -0.014725 -0.007294
# 5 -0.017545 0.003922 -0.008257 -0.014725 0.046228 -0.007990
# 6 0.001504 -0.005048 -0.004469 -0.007294 -0.007990 0.041647
#
#
# Mechanical properties :
#
#
# Convention : Reuss Voigt Hill
#
# Bulk Modulus (GPa) = 31.95086 63.83352 47.89219
# Shear Modulus (GPa) = 26.25478 38.53467 32.39472
#
# Velocity S-wave (km/s) = 3.42235 4.14616 3.80152
# Velocity P-wave (km/s) = 5.46536 7.16921 6.37447
#
# Compressibility (1/GPa) = 0.03129806
#
# Stress axis : x y z
#
# Youngs Moduli (GPa) = 44.57378 120.15225 70.97970
#
# Poissons Ratio (x) = 0.62017 -0.00559
# Poissons Ratio (y) = 0.23007 0.12005
# Poissons Ratio (z) = -0.00351 0.20321
#
# Static dielectric constant tensor:
#      x y z
#    x 3.958530 0.149960 0.273350 
#    y 0.149960 4.213760 -0.202830 
#    z 0.273350 -0.202830 3.594220 
# 
# 
# High freq. dielectric constant tensor:
#      x y z
#    x 1.867340 0.011820 0.024310 
#    y 0.011820 1.901930 0.004610 
#    z 0.024310 0.004610 1.892830 
# 
# From -- ./inp_files/519485.got.cif
#   From: 2010.06.25/outbox.cif.g09.slc.cpg/sg2_260_cif.got.tgz:519485.got - 2010.06.27 13:26:56.
