data_PCOD8026413
_publ_section_title
;
Structure prediction by ZEFSAII (Michael W. Deem and Ramdas Pophale) SiO2 
 PCOD8026413
Probable space group: P -1
;
_chemical_formula_sum "Si O2"
_cell_formula_units_Z 14
_cell_length_a 6.202867
_cell_length_b 8.731710
_cell_length_c 24.847614
_cell_angle_alpha 29.553088
_cell_angle_beta 87.236963
_cell_angle_gamma 85.484298
_cell_volume 661.158638
_symmetry_space_group_name_H-M "P -1"
_symmetry_group_IT_number 2
_symmetry_cell_setting 'triclinic'
loop_
_space_group_symop_operation_xyz
x,y,z
-x,-y,-z
loop_
_atom_site_type_symbol
_atom_site_label
_atom_site_fract_x
_atom_site_fract_y
_atom_site_fract_z
Si Si1 0.928220 0.728861 0.180626
Si Si2 0.904297 0.611962 0.821060
Si Si3 0.189700 0.723575 0.415204
Si Si4 0.862113 0.683194 0.991811
Si Si5 0.569589 0.192758 0.991456
Si Si6 0.795989 0.196869 0.415604
Si Si7 0.502012 0.770860 0.491671
O O1 0.871137 0.523558 0.294784
O O2 0.018510 0.497480 0.204714
O O3 0.732212 0.964775 0.092605
O O4 0.112952 0.950224 0.128095
O O5 0.906872 0.985422 0.707786
O O6 0.670201 0.498714 0.873081
O O7 0.070954 0.456119 0.908865
O O8 0.310098 0.864301 0.422646
O O9 0.372672 0.548296 0.430364
O O10 0.000000 0.500000 0.500000
O O11 0.603794 0.674132 0.002212
O O12 0.000000 0.500000 0.000000
O O13 0.500000 0.000000 0.000000
O O14 0.609605 0.285970 0.433241
O O15 0.682684 0.022604 0.420545
O O16 0.000000 0.000000 0.500000
#
# Coordination Sequence:
#
# PCOD8026413 Si02
#       7
#     2   2   2   2   2   2   2
#     4  11  23  40  66  94 123 172 220 261 325 393
#     4  11  23  40  66  94 123 172 220 261 325 393
#     4  11  24  42  66  94 134 170 222 273 328 389
#     4  11  25  41  63  97 131 165 213 272 331 382
#     4  11  21  41  67  90 127 163 215 269 314 390
#     4  11  24  42  66  94 134 170 222 273 328 389
#     4  10  24  42  62  96 128 174 220 266 334 398
#
# _framework density 21.174947
#
# number of rings (size 3 to 8) (size 9 to 14) (size 15 to 20)
#    0.000    1.143    2.857    3.429    2.000   11.429 
#    0.000    0.000    0.000    0.000    0.000    0.000 
#    0.000    0.000    0.000    0.000    0.000    0.000 
#
# Total GULP energy -173521.426956 kJ/mol
# GULP energy per Si atom -12394.387640 kJ/mol
# Density = 2.112675 g / cm^3
# Si number density = 21.174947 Si / 1000 Ang^3
#
#
#
# Elastic Constant Matrix: (Units=GPa)
#
#
# Indices 1 2 3 4 5 6 
#
# 1 110.9724 21.7337 40.0029 -2.9650 -19.3190 -7.3759
# 2 21.7337 83.1377 17.5784 -1.3135 -6.2263 -15.5692
# 3 40.0029 17.5784 162.5128 -14.3978 -22.7847 -0.8065
# 4 -2.9650 -1.3135 -14.3978 24.6183 -2.5980 -1.6309
# 5 -19.3190 -6.2263 -22.7847 -2.5980 21.8187 2.9995
# 6 -7.3759 -15.5692 -0.8065 -1.6309 2.9995 48.6363
#
#
#
# Elastic Compliance Matrix: (Units=1/GPa)
#
#
# Indices 1 2 3 4 5 6 
#
# 1 0.011376 -0.001942 -0.001307 0.001412 0.008236 0.000621
# 2 -0.001942 0.013520 -0.000826 0.000350 0.000770 0.003984
# 3 -0.001307 -0.000826 0.008130 0.005337 0.007820 -0.000631
# 4 0.001412 0.000350 0.005337 0.045291 0.012154 0.001184
# 5 0.008236 0.000770 0.007820 0.012154 0.063214 -0.001866
# 6 0.000621 0.003984 -0.000631 0.001184 -0.001866 0.022075
#
#
# Mechanical properties :
#
#
# Convention : Reuss Voigt Hill
#
# Bulk Modulus (GPa) = 40.19877 57.25031 48.72454
# Shear Modulus (GPa) = 27.77048 37.50184 32.63616
#
# Velocity S-wave (km/s) = 3.62536 4.21295 3.93015
# Velocity P-wave (km/s) = 6.04563 7.12466 6.60721
#
# Compressibility (1/GPa) = 0.02487638
#
# Stress axis : x y z
#
# Youngs Moduli (GPa) = 87.90764 73.96591 122.99418
#
# Poissons Ratio (x) = 0.14364 0.16078
# Poissons Ratio (y) = 0.17071 0.10154
# Poissons Ratio (z) = 0.11491 0.06106
#
# Static dielectric constant tensor:
#      x y z
#    x 4.139540 0.105430 -0.146210 
#    y 0.105430 3.989510 -0.092120 
#    z -0.146210 -0.092120 3.803080 
# 
# 
# High freq. dielectric constant tensor:
#      x y z
#    x 1.842950 -0.012170 -0.007630 
#    y -0.012170 1.833450 -0.000900 
#    z -0.007630 -0.000900 1.828520 
# 
# From -- ./inp_files/34538.got.cif
#   From: 2010.06.25/outbox.cif.g09.slc.cpg/sg2_18_cif.got.tgz:34538.got - 2010.06.27 13:26:56.
