data_PCOD8026321
_publ_section_title
;
Structure prediction by ZEFSAII (Michael W. Deem and Ramdas Pophale) SiO2 
 PCOD8026321
Probable space group: P -1
;
_chemical_formula_sum "Si O2"
_cell_formula_units_Z 14
_cell_length_a 9.066606
_cell_length_b 5.791428
_cell_length_c 15.210772
_cell_angle_alpha 89.535075
_cell_angle_beta 59.751482
_cell_angle_gamma 108.553699
_cell_volume 640.114161
_symmetry_space_group_name_H-M "P -1"
_symmetry_group_IT_number 2
_symmetry_cell_setting 'triclinic'
loop_
_space_group_symop_operation_xyz
x,y,z
-x,-y,-z
loop_
_atom_site_type_symbol
_atom_site_label
_atom_site_fract_x
_atom_site_fract_y
_atom_site_fract_z
Si Si1 0.752038 0.065100 0.013618
Si Si2 0.095507 0.956304 0.845491
Si Si3 0.970450 0.591535 0.730898
Si Si4 0.932079 0.211837 0.484686
Si Si5 0.418671 0.149240 0.463645
Si Si6 0.256397 0.371089 0.662581
Si Si7 0.387386 0.652078 0.072251
O O1 0.748234 0.307781 0.962618
O O2 0.810055 0.111852 0.097546
O O3 0.894541 0.962727 0.925054
O O4 0.538102 0.891166 0.070409
O O5 0.069532 0.739877 0.786229
O O6 0.232958 0.210031 0.758745
O O7 0.749798 0.482539 0.807116
O O8 0.015627 0.770399 0.633336
O O9 0.059887 0.383890 0.695351
O O10 0.000000 0.500000 0.500000
O O11 0.711860 0.064950 0.562629
O O12 0.000000 0.000000 0.500000
O O13 0.304335 0.265983 0.558499
O O14 0.581202 0.364984 0.363116
O O15 0.500000 0.000000 0.500000
O O16 0.500000 0.500000 0.000000
#
# Coordination Sequence:
#
# PCOD8026321 Si02
#       7
#     2   2   2   2   2   2   2
#     4  10  24  41  66 103 137 182 233 304 351 430
#     4  11  22  42  72 100 136 182 247 291 360 430
#     4  12  24  44  71  99 138 195 231 299 367 437
#     4  12  28  48  73 108 150 190 241 305 375 440
#     4  11  23  44  74  97 135 184 242 301 353 429
#     4  11  22  41  73  99 137 183 246 293 363 428
#     4  11  23  44  68  98 144 181 231 293 367 427
#
# _framework density 21.871099999999998
#
# number of rings (size 3 to 8) (size 9 to 14) (size 15 to 20)
#    0.000    0.857    5.714    0.857    2.000    2.857 
#    2.571    0.000    0.000    0.000    0.000    0.000 
#    0.000    0.000    0.000    0.000    0.000    0.000 
#
# Total GULP energy -173438.028674 kJ/mol
# GULP energy per Si atom -12388.430620 kJ/mol
# Density = 2.182132 g / cm^3
# Si number density = 21.871100 Si / 1000 Ang^3
#
#
#
# Elastic Constant Matrix: (Units=GPa)
#
#
# Indices 1 2 3 4 5 6 
#
# 1 130.1799 35.9929 26.5644 0.4922 -1.8870 -5.8057
# 2 35.9929 103.4097 16.1056 -5.2823 -8.7832 7.2693
# 3 26.5644 16.1056 88.6933 -6.7186 -10.1545 4.6722
# 4 0.4922 -5.2823 -6.7186 40.8211 2.4015 -10.1973
# 5 -1.8870 -8.7832 -10.1545 2.4015 43.9664 -4.3927
# 6 -5.8057 7.2693 4.6722 -10.1973 -4.3927 46.4293
#
#
#
# Elastic Compliance Matrix: (Units=1/GPa)
#
#
# Indices 1 2 3 4 5 6 
#
# 1 0.009053 -0.002972 -0.002357 -0.000427 -0.000558 0.001688
# 2 -0.002972 0.011133 -0.000785 0.000824 0.001701 -0.001694
# 3 -0.002357 -0.000785 0.012575 0.001640 0.002473 -0.000843
# 4 -0.000427 0.000824 0.001640 0.026245 -0.000371 0.005382
# 5 -0.000558 0.001701 0.002473 -0.000371 0.023810 0.001586
# 6 0.001688 -0.001694 -0.000843 0.005382 0.001586 0.023431
#
#
# Mechanical properties :
#
#
# Convention : Reuss Voigt Hill
#
# Bulk Modulus (GPa) = 48.70196 53.28985 50.99591
# Shear Modulus (GPa) = 39.89808 42.48468 41.19138
#
# Velocity S-wave (km/s) = 4.27574 4.41217 4.34449
# Velocity P-wave (km/s) = 6.83316 7.09751 6.96658
#
# Compressibility (1/GPa) = 0.02053305
#
# Stress axis : x y z
#
# Youngs Moduli (GPa) = 110.45941 89.82690 79.52257
#
# Poissons Ratio (x) = 0.26695 0.18743
# Poissons Ratio (y) = 0.32826 0.06243
# Poissons Ratio (z) = 0.26035 0.07052
#
# Static dielectric constant tensor:
#      x y z
#    x 4.070810 0.090810 -0.030600 
#    y 0.090810 4.316820 -0.320560 
#    z -0.030600 -0.320560 3.985430 
# 
# 
# High freq. dielectric constant tensor:
#      x y z
#    x 1.864560 -0.006460 -0.013980 
#    y -0.006460 1.866690 -0.016650 
#    z -0.013980 -0.016650 1.860580 
# 
# From -- ./inp_files/38540.got.cif
#   From: 2010.06.25/outbox.cif.g09.slc.cpg/sg2_20_cif.got.tgz:38540.got - 2010.06.27 13:26:56.
