data_PCOD8026333
_publ_section_title
;
Structure prediction by ZEFSAII (Michael W. Deem and Ramdas Pophale) SiO2 
 PCOD8026333
Probable space group: P -1
;
_chemical_formula_sum "Si O2"
_cell_formula_units_Z 16
_cell_length_a 12.971116
_cell_length_b 15.387114
_cell_length_c 11.033924
_cell_angle_alpha 89.441420
_cell_angle_beta 91.429535
_cell_angle_gamma 18.821388
_cell_volume 706.452886
_symmetry_space_group_name_H-M "P -1"
_symmetry_group_IT_number 2
_symmetry_cell_setting 'triclinic'
loop_
_space_group_symop_operation_xyz
x,y,z
-x,-y,-z
loop_
_atom_site_type_symbol
_atom_site_label
_atom_site_fract_x
_atom_site_fract_y
_atom_site_fract_z
Si Si1 0.120078 0.367246 0.831299
Si Si2 0.755919 0.946335 0.540426
Si Si3 0.536029 0.803372 0.969718
Si Si4 0.169931 0.936692 0.928041
Si Si5 0.807846 0.234133 0.435777
Si Si6 0.081620 0.502309 0.607764
Si Si7 0.183477 0.145576 0.717671
Si Si8 0.360685 0.528447 0.223463
O O1 0.969686 0.564644 0.740905
O O2 0.208242 0.229595 0.728652
O O3 0.885662 0.510285 0.921973
O O4 0.427748 0.157179 0.919272
O O5 0.631144 0.034762 0.395200
O O6 0.984425 0.845593 0.562130
O O7 0.936366 0.712854 0.578655
O O8 0.468658 0.196652 0.620168
O O9 0.346942 0.870058 0.015065
O O10 0.317837 0.007093 0.850567
O O11 0.486649 0.643770 0.881211
O O12 0.899699 0.190537 0.825989
O O13 0.000000 0.000000 0.000000
O O14 0.500000 0.500000 0.500000
O O15 0.673949 0.319572 0.298001
O O16 0.000000 0.000000 0.500000
O O17 0.000000 0.500000 0.500000
O O18 0.818376 0.399072 0.695575
#
# Coordination Sequence:
#
# PCOD8026333 Si02
#       8
#     2   2   2   2   2   2   2   2
#     4  11  23  42  68  95 140 176 237 282 344 411
#     4  12  27  43  71 102 142 182 230 285 350 417
#     4  10  24  41  67 101 126 184 228 290 337 410
#     4  11  24  45  70  97 136 177 228 283 352 413
#     4  12  25  43  69 103 137 176 234 290 343 408
#     4  12  26  45  67 102 139 188 225 284 354 419
#     4  11  22  41  70  95 137 175 234 276 345 411
#     4  11  24  42  69  99 131 180 224 282 343 410
#
# _framework density 22.64836
#
# number of rings (size 3 to 8) (size 9 to 14) (size 15 to 20)
#    0.000    0.750    3.750    3.375    3.500    2.000 
#    0.000    0.000    0.000    0.000    0.000    0.000 
#    0.000    0.000    0.000    0.000    0.000    0.000 
#
# Total GULP energy -198241.726348 kJ/mol
# GULP energy per Si atom -12390.107897 kJ/mol
# Density = 2.259681 g / cm^3
# Si number density = 22.648360 Si / 1000 Ang^3
#
#
#
# Elastic Constant Matrix: (Units=GPa)
#
#
# Indices 1 2 3 4 5 6 
#
# 1 157.0194 36.9021 43.2073 -21.5620 -2.7924 -13.3749
# 2 36.9021 93.0045 8.8499 -2.6678 -2.2098 6.9104
# 3 43.2073 8.8499 81.1638 -16.6102 7.7052 -8.1075
# 4 -21.5620 -2.6678 -16.6102 34.3437 -8.1004 3.8454
# 5 -2.7924 -2.2098 7.7052 -8.1004 30.6122 -8.1189
# 6 -13.3749 6.9104 -8.1075 3.8454 -8.1189 37.4722
#
#
#
# Elastic Compliance Matrix: (Units=1/GPa)
#
#
# Indices 1 2 3 4 5 6 
#
# 1 0.009055 -0.003300 -0.003608 0.004126 0.003487 0.003392
# 2 -0.003300 0.012288 -0.000060 -0.000888 -0.000559 -0.003487
# 3 -0.003608 -0.000060 0.015529 0.004469 -0.002789 0.001020
# 4 0.004126 -0.000888 0.004469 0.035801 0.008888 0.000855
# 5 0.003487 -0.000559 -0.002789 0.008888 0.038146 0.008097
# 6 0.003392 -0.003487 0.001020 0.000855 0.008097 0.030428
#
#
# Mechanical properties :
#
#
# Convention : Reuss Voigt Hill
#
# Bulk Modulus (GPa) = 43.60144 56.56734 50.08439
# Shear Modulus (GPa) = 30.70736 36.63416 33.67076
#
# Velocity S-wave (km/s) = 3.68616 4.02620 3.85993
# Velocity P-wave (km/s) = 6.11639 6.82966 6.48285
#
# Compressibility (1/GPa) = 0.02293502
#
# Stress axis : x y z
#
# Youngs Moduli (GPa) = 110.44057 81.38263 64.39428
#
# Poissons Ratio (x) = 0.26857 0.23235
# Poissons Ratio (y) = 0.36447 0.00386
# Poissons Ratio (z) = 0.39849 0.00488
#
# Static dielectric constant tensor:
#      x y z
#    x 4.419550 0.002110 0.039400 
#    y 0.002110 3.994580 -0.037200 
#    z 0.039400 -0.037200 3.907390 
# 
# 
# High freq. dielectric constant tensor:
#      x y z
#    x 1.911590 -0.011060 0.005700 
#    y -0.011060 1.895770 -0.002840 
#    z 0.005700 -0.002840 1.882230 
# 
# From -- ./inp_files/69043.got.cif
#   From: 2010.06.25/outbox.cif.g09.slc.cpg/sg2_35_cif.got.tgz:69043.got - 2010.06.27 13:26:56.
