data_PCOD8026873
_publ_section_title
;
Structure prediction by ZEFSAII (Michael W. Deem and Ramdas Pophale) SiO2 
 PCOD8026873
Probable space group: P -1
;
_chemical_formula_sum "Si O2"
_cell_formula_units_Z 16
_cell_length_a 12.109850
_cell_length_b 16.364377
_cell_length_c 7.962601
_cell_angle_alpha 145.867690
_cell_angle_beta 61.533451
_cell_angle_gamma 128.713929
_cell_volume 687.812365
_symmetry_space_group_name_H-M "P -1"
_symmetry_group_IT_number 2
_symmetry_cell_setting 'triclinic'
loop_
_space_group_symop_operation_xyz
x,y,z
-x,-y,-z
loop_
_atom_site_type_symbol
_atom_site_label
_atom_site_fract_x
_atom_site_fract_y
_atom_site_fract_z
Si Si1 0.220389 0.384452 0.579058
Si Si2 0.531867 0.030711 0.226616
Si Si3 0.768454 0.313594 0.739801
Si Si4 0.691316 0.558073 0.755726
Si Si5 0.303773 0.128290 0.596957
Si Si6 0.935489 0.561193 0.791045
Si Si7 0.076998 0.823378 0.381140
Si Si8 0.406885 0.242373 0.354923
O O1 0.214369 0.400514 0.410695
O O2 0.336456 0.324779 0.430494
O O3 0.068392 0.245234 0.522962
O O4 0.281127 0.567984 0.923918
O O5 0.662383 0.203165 0.482184
O O6 0.397027 0.035471 0.419960
O O7 0.500000 0.000000 0.000000
O O8 0.563945 0.880744 0.999515
O O9 0.912278 0.440204 0.758358
O O10 0.804385 0.203661 0.652365
O O11 0.790625 0.563348 0.847225
O O12 0.557360 0.378822 0.548074
O O13 0.636371 0.691816 0.057897
O O14 0.304989 0.146892 0.424493
O O15 0.147965 0.016208 0.603667
O O16 0.000000 0.500000 0.500000
O O17 0.049036 0.739672 0.075764
#
# Coordination Sequence:
#
# PCOD8026873 Si02
#       8
#     2   2   2   2   2   2   2   2
#     4  11  25  47  69 105 140 183 234 279 348 416
#     4  10  24  43  70 102 132 176 230 287 342 401
#     4  11  23  45  70  98 142 182 228 285 343 407
#     4  12  25  45  73 102 136 187 235 286 341 410
#     4  11  25  45  70 103 141 178 230 286 350 405
#     4  11  23  40  72 100 137 186 232 279 340 415
#     4  11  26  44  69 104 144 182 226 285 348 416
#     4  11  25  45  73 100 139 178 235 292 343 408
#
# _framework density 23.262159
#
# number of rings (size 3 to 8) (size 9 to 14) (size 15 to 20)
#    0.000    1.000    0.000    7.500    8.750    3.000 
#    0.000    0.000    0.000    0.000    0.000    0.000 
#    0.000    0.000    0.000    0.000    0.000    0.000 
#
# Total GULP energy -198311.734125 kJ/mol
# GULP energy per Si atom -12394.483383 kJ/mol
# Density = 2.320921 g / cm^3
# Si number density = 23.262159 Si / 1000 Ang^3
#
#
#
# Elastic Constant Matrix: (Units=GPa)
#
#
# Indices 1 2 3 4 5 6 
#
# 1 86.7103 10.1904 24.6811 4.0827 -0.5715 -1.2657
# 2 10.1904 97.1265 22.2174 4.4477 1.2870 -3.6963
# 3 24.6811 22.2174 140.2717 -0.2879 -10.8749 5.3605
# 4 4.0827 4.4477 -0.2879 38.6436 4.5030 2.0547
# 5 -0.5715 1.2870 -10.8749 4.5030 33.8640 1.4969
# 6 -1.2657 -3.6963 5.3605 2.0547 1.4969 26.2713
#
#
#
# Elastic Compliance Matrix: (Units=1/GPa)
#
#
# Indices 1 2 3 4 5 6 
#
# 1 0.012290 -0.000704 -0.002119 -0.001251 -0.000326 0.001042
# 2 -0.000704 0.010914 -0.001755 -0.001194 -0.000920 0.002006
# 3 -0.002119 -0.001755 0.008071 0.000289 0.002680 -0.002171
# 4 -0.001251 -0.001194 0.000289 0.026653 -0.003331 -0.002182
# 5 -0.000326 -0.000920 0.002680 -0.003331 0.030960 -0.002196
# 6 0.001042 0.002006 -0.002171 -0.002182 -0.002196 0.039136
#
#
# Mechanical properties :
#
#
# Convention : Reuss Voigt Hill
#
# Bulk Modulus (GPa) = 45.20665 48.69848 46.95257
# Shear Modulus (GPa) = 34.58914 37.55707 36.07311
#
# Velocity S-wave (km/s) = 3.86025 4.02246 3.94219
# Velocity P-wave (km/s) = 6.27252 6.52332 6.39915
#
# Compressibility (1/GPa) = 0.02212064
#
# Stress axis : x y z
#
# Youngs Moduli (GPa) = 81.36456 91.62188 123.89699
#
# Poissons Ratio (x) = 0.06446 0.26250
# Poissons Ratio (y) = 0.05725 0.21748
# Poissons Ratio (z) = 0.17239 0.16083
#
# Static dielectric constant tensor:
#      x y z
#    x 4.551880 -0.197040 -0.150700 
#    y -0.197040 3.780540 0.200240 
#    z -0.150700 0.200240 4.424850 
# 
# 
# High freq. dielectric constant tensor:
#      x y z
#    x 1.918200 -0.006300 -0.003740 
#    y -0.006300 1.918820 0.001800 
#    z -0.003740 0.001800 1.930730 
# 
# From -- ./inp_files/280245.got.cif
#   From: 2010.06.25/outbox.cif.g09.slc.cpg/sg2_141_cif.got.tgz:280245.got - 2010.06.27 13:26:56.
