data_PCOD8026796
_publ_section_title
;
Structure prediction by ZEFSAII (Michael W. Deem and Ramdas Pophale) SiO2 
 PCOD8026796
Probable space group: P -1
;
_chemical_formula_sum "Si O2"
_cell_formula_units_Z 14
_cell_length_a 5.223762
_cell_length_b 26.605376
_cell_length_c 8.940728
_cell_angle_alpha 32.965592
_cell_angle_beta 60.422426
_cell_angle_gamma 71.742833
_cell_volume 574.517955
_symmetry_space_group_name_H-M "P -1"
_symmetry_group_IT_number 2
_symmetry_cell_setting 'triclinic'
loop_
_space_group_symop_operation_xyz
x,y,z
-x,-y,-z
loop_
_atom_site_type_symbol
_atom_site_label
_atom_site_fract_x
_atom_site_fract_y
_atom_site_fract_z
Si Si1 0.555917 0.109342 0.748317
Si Si2 0.495558 0.470965 0.823168
Si Si3 0.402134 0.895531 0.727949
Si Si4 0.800624 0.621688 0.587950
Si Si5 0.632237 0.373749 0.749596
Si Si6 0.301699 0.184165 0.904938
Si Si7 0.246872 0.181418 0.402912
O O1 0.498905 0.126126 0.896329
O O2 0.322752 0.166718 0.592451
O O3 0.908803 0.151326 0.517157
O O4 0.500000 0.000000 0.000000
O O5 0.704434 0.528185 0.747460
O O6 0.683459 0.410427 0.816850
O O7 0.379707 0.539469 0.572000
O O8 0.212824 0.408190 0.156785
O O9 0.537739 0.887920 0.543910
O O10 0.500000 0.000000 0.500000
O O11 0.583678 0.827499 0.932989
O O12 0.045281 0.861440 0.913555
O O13 0.607399 0.702675 0.432278
O O14 0.114830 0.671569 0.292626
O O15 0.337848 0.290374 0.051468
#
# Coordination Sequence:
#
# PCOD8026796 Si02
#       7
#     2   2   2   2   2   2   2
#     4  12  26  47  70 105 141 186 235 292 359 427
#     4  10  24  43  68 101 137 190 231 299 356 426
#     4  12  24  44  70 103 136 184 231 289 355 421
#     4  11  23  44  67 102 141 184 240 290 363 420
#     4  11  23  44  69 101 142 180 245 288 360 424
#     4  12  25  44  71 100 143 181 234 294 349 429
#     4  12  25  44  73 101 142 184 233 295 353 425
#
# _framework density 24.368254
#
# number of rings (size 3 to 8) (size 9 to 14) (size 15 to 20)
#    0.000    0.571    1.429    6.857    2.000    0.000 
#   10.286    0.000    0.000    0.000    0.000    0.000 
#    0.000    0.000    0.000    0.000    0.000    0.000 
#
# Total GULP energy -173449.022912 kJ/mol
# GULP energy per Si atom -12389.215922 kJ/mol
# Density = 2.431279 g / cm^3
# Si number density = 24.368254 Si / 1000 Ang^3
#
#
#
# Elastic Constant Matrix: (Units=GPa)
#
#
# Indices 1 2 3 4 5 6 
#
# 1 93.7248 9.6452 55.1325 0.1820 -3.4126 1.2528
# 2 9.6452 121.4076 28.4550 13.3871 -7.0318 -9.2073
# 3 55.1325 28.4550 90.1799 14.6550 -8.7715 -0.0233
# 4 0.1820 13.3871 14.6550 36.7196 1.0807 1.4831
# 5 -3.4126 -7.0318 -8.7715 1.0807 40.3987 3.1276
# 6 1.2528 -9.2073 -0.0233 1.4831 3.1276 30.2124
#
#
#
# Elastic Compliance Matrix: (Units=1/GPa)
#
#
# Indices 1 2 3 4 5 6 
#
# 1 0.017445 0.000775 -0.011716 0.004361 -0.001005 -0.000606
# 2 0.000775 0.009402 -0.002964 -0.002391 0.000901 0.002855
# 3 -0.011716 -0.002964 0.020667 -0.007189 0.003203 -0.000380
# 4 0.004361 -0.002391 -0.007189 0.031108 -0.002270 -0.002207
# 5 -0.001005 0.000901 0.003203 -0.002270 0.025755 -0.002236
# 6 -0.000606 0.002855 -0.000380 -0.002207 -0.002236 0.034334
#
#
# Mechanical properties :
#
#
# Convention : Reuss Voigt Hill
#
# Bulk Modulus (GPa) = 50.75148 54.64196 52.69672
# Shear Modulus (GPa) = 28.88711 35.60477 32.24594
#
# Velocity S-wave (km/s) = 3.44676 3.82660 3.64163
# Velocity P-wave (km/s) = 6.05907 6.48042 6.27328
#
# Compressibility (1/GPa) = 0.01970386
#
# Stress axis : x y z
#
# Youngs Moduli (GPa) = 57.32383 106.35959 48.38726
#
# Poissons Ratio (x) = -0.08243 0.56692
# Poissons Ratio (y) = -0.04443 0.14340
# Poissons Ratio (z) = 0.67162 0.31521
#
# Static dielectric constant tensor:
#      x y z
#    x 4.004320 0.068610 -0.018700 
#    y 0.068610 4.901550 0.237530 
#    z -0.018700 0.237530 4.561450 
# 
# 
# High freq. dielectric constant tensor:
#      x y z
#    x 1.943940 0.007630 0.002250 
#    y 0.007630 1.998900 0.003460 
#    z 0.002250 0.003460 1.981960 
# 
# From -- ./inp_files/39624.got.cif
#   From: 2010.06.25/outbox.cif.g09.slc.cpg/sg2_20_cif.got.tgz:39624.got - 2010.06.27 13:26:56.
