data_PCOD8026892
_publ_section_title
;
Structure prediction by ZEFSAII (Michael W. Deem and Ramdas Pophale) SiO2 
 PCOD8026892
Probable space group: P -1
;
_chemical_formula_sum "Si O2"
_cell_formula_units_Z 14
_cell_length_a 8.214270
_cell_length_b 11.974619
_cell_length_c 8.224547
_cell_angle_alpha 114.284673
_cell_angle_beta 119.031562
_cell_angle_gamma 88.686556
_cell_volume 628.711655
_symmetry_space_group_name_H-M "P -1"
_symmetry_group_IT_number 2
_symmetry_cell_setting 'triclinic'
loop_
_space_group_symop_operation_xyz
x,y,z
-x,-y,-z
loop_
_atom_site_type_symbol
_atom_site_label
_atom_site_fract_x
_atom_site_fract_y
_atom_site_fract_z
Si Si1 0.422279 0.098639 0.127992
Si Si2 0.433894 0.481343 0.776627
Si Si3 0.155936 0.009808 0.219842
Si Si4 0.109867 0.247240 0.530988
Si Si5 0.827691 0.521717 0.820931
Si Si6 0.258105 0.666595 0.616340
Si Si7 0.904135 0.792615 0.115473
O O1 0.580715 0.224104 0.319352
O O2 0.252680 0.128239 0.953327
O O3 0.500000 0.000000 0.000000
O O4 0.356951 0.038542 0.238012
O O5 0.276669 0.354433 0.603138
O O6 0.614711 0.468331 0.750418
O O7 0.351945 0.604461 0.771193
O O8 0.500000 0.500000 0.000000
O O9 0.145348 0.115909 0.409722
O O10 0.113218 0.878477 0.221670
O O11 0.000000 0.000000 0.000000
O O12 0.102384 0.249405 0.725125
O O13 0.913237 0.269843 0.372234
O O14 0.835259 0.449069 0.614616
O O15 0.861170 0.671408 0.904242
O O16 0.000000 0.500000 0.000000
#
# Coordination Sequence:
#
# PCOD8026892 Si02
#       7
#     2   2   2   2   2   2   2
#     4  11  24  48  70 101 136 183 242 293 347 412
#     4  12  24  44  66 103 139 179 232 290 348 416
#     4  10  24  43  70  96 134 184 233 285 345 410
#     4  12  24  45  69 105 139 185 234 286 351 414
#     4  12  24  45  69 102 145 180 234 287 352 417
#     4  12  24  42  72 100 140 188 228 290 354 413
#     4  11  23  47  66  98 149 182 230 294 341 414
#
# _framework density 22.267759999999999
#
# number of rings (size 3 to 8) (size 9 to 14) (size 15 to 20)
#    0.000    0.571    4.286    3.857    4.000    0.000 
#    7.714    1.429    0.000    0.000    0.000    0.000 
#    0.000    0.000    0.000    0.000    0.000    0.000 
#
# Total GULP energy -173587.464612 kJ/mol
# GULP energy per Si atom -12399.104615 kJ/mol
# Density = 2.221708 g / cm^3
# Si number density = 22.267760 Si / 1000 Ang^3
#
#
#
# Elastic Constant Matrix: (Units=GPa)
#
#
# Indices 1 2 3 4 5 6 
#
# 1 130.5880 72.0148 33.9559 12.9688 14.9113 16.1367
# 2 72.0148 124.7596 37.1337 17.5150 6.1183 13.5075
# 3 33.9559 37.1337 87.2840 18.6517 -1.6703 5.0860
# 4 12.9688 17.5150 18.6517 47.5992 -4.7729 16.6436
# 5 14.9113 6.1183 -1.6703 -4.7729 40.8394 10.6480
# 6 16.1367 13.5075 5.0860 16.6436 10.6480 42.9698
#
#
#
# Elastic Compliance Matrix: (Units=1/GPa)
#
#
# Indices 1 2 3 4 5 6 
#
# 1 0.012087 -0.006019 -0.002107 -0.000010 -0.003180 -0.001606
# 2 -0.006019 0.012573 -0.002601 -0.001669 0.000219 -0.000792
# 3 -0.002107 -0.002601 0.014273 -0.004484 0.000841 0.001447
# 4 -0.000010 -0.001669 -0.004484 0.027978 0.006296 -0.011338
# 5 -0.003180 0.000219 0.000841 0.006296 0.028601 -0.008500
# 6 -0.001606 -0.000792 0.001447 -0.011338 -0.008500 0.030451
#
#
# Mechanical properties :
#
#
# Convention : Reuss Voigt Hill
#
# Bulk Modulus (GPa) = 57.20611 69.87115 63.53863
# Shear Modulus (GPa) = 32.62812 39.58349 36.10580
#
# Velocity S-wave (km/s) = 3.83203 4.22075 4.03108
# Velocity P-wave (km/s) = 6.73239 7.42959 7.08957
#
# Compressibility (1/GPa) = 0.01748065
#
# Stress axis : x y z
#
# Youngs Moduli (GPa) = 82.73202 79.53588 70.06400
#
# Poissons Ratio (x) = 0.47871 0.14761
# Poissons Ratio (y) = 0.49794 0.18221
# Poissons Ratio (z) = 0.17429 0.20684
#
# Static dielectric constant tensor:
#      x y z
#    x 4.257520 0.161610 0.263370 
#    y 0.161610 4.166820 0.291160 
#    z 0.263370 0.291160 4.030510 
# 
# 
# High freq. dielectric constant tensor:
#      x y z
#    x 1.884670 0.009000 0.009300 
#    y 0.009000 1.883900 0.014930 
#    z 0.009300 0.014930 1.879570 
# 
# From -- ./inp_files/190380.got.cif
#   From: 2010.06.25/outbox.cif.g09.slc.cpg/sg2_96_cif.got.tgz:190380.got - 2010.06.27 13:26:56.
