data_PCOD8026204
_publ_section_title
;
Structure prediction by ZEFSAII (Michael W. Deem and Ramdas Pophale) SiO2 
 PCOD8026204
Probable space group: P -1
;
_chemical_formula_sum "Si O2"
_cell_formula_units_Z 14
_cell_length_a 9.083053
_cell_length_b 15.551167
_cell_length_c 6.782490
_cell_angle_alpha 102.011541
_cell_angle_beta 45.602404
_cell_angle_gamma 118.522072
_cell_volume 589.212442
_symmetry_space_group_name_H-M "P -1"
_symmetry_group_IT_number 2
_symmetry_cell_setting 'triclinic'
loop_
_space_group_symop_operation_xyz
x,y,z
-x,-y,-z
loop_
_atom_site_type_symbol
_atom_site_label
_atom_site_fract_x
_atom_site_fract_y
_atom_site_fract_z
Si Si1 0.871653 0.784807 0.805003
Si Si2 0.753350 0.904609 0.230459
Si Si3 0.487910 0.592430 0.215988
Si Si4 0.719734 0.138446 0.224873
Si Si5 0.993596 0.901949 0.363305
Si Si6 0.232737 0.511616 0.042595
Si Si7 0.763271 0.347934 0.222402
O O1 0.098301 0.830009 0.752519
O O2 0.951259 0.817870 0.523181
O O3 0.701192 0.829425 0.060772
O O4 0.717073 0.665477 0.905271
O O5 0.540695 0.930338 0.472182
O O6 0.778177 0.856090 0.390032
O O7 0.000000 0.000000 0.000000
O O8 0.257489 0.539068 0.266189
O O9 0.449122 0.656023 0.451976
O O10 0.548104 0.510010 0.217910
O O11 0.730110 0.237924 0.168161
O O12 0.773307 0.077528 0.973327
O O13 0.000000 0.000000 0.500000
O O14 0.998658 0.413585 0.155500
O O15 0.243983 0.605563 0.959308
#
# Coordination Sequence:
#
# PCOD8026204 Si02
#       7
#     2   2   2   2   2   2   2
#     4  11  24  44  67  98 140 175 230 283 334 412
#     4  11  24  48  70  98 134 177 224 283 347 407
#     4  11  22  42  67  97 135 183 228 277 337 393
#     4  11  26  43  72 100 138 184 223 282 348 401
#     4  11  26  47  68 103 134 177 230 280 345 416
#     4  10  24  40  65 101 136 181 224 280 336 403
#     4  11  22  44  65  99 139 178 230 277 340 399
#
# _framework density 23.760531
#
# number of rings (size 3 to 8) (size 9 to 14) (size 15 to 20)
#    0.000    1.143    4.286    0.857    2.000    5.143 
#   10.286    0.000    0.000    0.000    0.000    0.000 
#    0.000    0.000    0.000    0.000    0.000    0.000 
#
# Total GULP energy -173506.069468 kJ/mol
# GULP energy per Si atom -12393.290676 kJ/mol
# Density = 2.370645 g / cm^3
# Si number density = 23.760531 Si / 1000 Ang^3
#
#
#
# Elastic Constant Matrix: (Units=GPa)
#
#
# Indices 1 2 3 4 5 6 
#
# 1 97.6953 21.3358 22.2597 6.5634 -4.5228 -5.9345
# 2 21.3358 71.4915 20.0226 10.5173 -11.8201 -5.9194
# 3 22.2597 20.0226 96.8878 20.9938 -19.4167 1.8651
# 4 6.5634 10.5173 20.9938 38.7534 -1.5783 -6.6497
# 5 -4.5228 -11.8201 -19.4167 -1.5783 37.1751 3.2960
# 6 -5.9345 -5.9194 1.8651 -6.6497 3.2960 35.5846
#
#
#
# Elastic Compliance Matrix: (Units=1/GPa)
#
#
# Indices 1 2 3 4 5 6 
#
# 1 0.011419 -0.002808 -0.002321 0.000343 -0.000852 0.001702
# 2 -0.002808 0.016391 -0.001376 -0.002821 0.003903 0.001442
# 3 -0.002321 -0.001376 0.014081 -0.007159 0.006624 -0.003305
# 4 0.000343 -0.002821 -0.007159 0.031292 -0.003812 0.006164
# 5 -0.000852 0.003903 0.006624 -0.003812 0.031644 -0.003483
# 6 0.001702 0.001442 -0.003305 0.006164 -0.003483 0.030273
#
#
# Mechanical properties :
#
#
# Convention : Reuss Voigt Hill
#
# Bulk Modulus (GPa) = 34.62623 43.70122 39.16373
# Shear Modulus (GPa) = 31.69807 35.79972 33.74889
#
# Velocity S-wave (km/s) = 3.65645 3.88582 3.77288
# Velocity P-wave (km/s) = 5.69480 6.21008 5.95801
#
# Compressibility (1/GPa) = 0.02887984
#
# Stress axis : x y z
#
# Youngs Moduli (GPa) = 87.57395 61.00918 71.01692
#
# Poissons Ratio (x) = 0.17133 0.16483
# Poissons Ratio (y) = 0.24593 0.09775
# Poissons Ratio (z) = 0.20325 0.08397
#
# Static dielectric constant tensor:
#      x y z
#    x 4.547000 -0.241380 -0.067660 
#    y -0.241380 4.302320 0.129770 
#    z -0.067660 0.129770 4.354360 
# 
# 
# High freq. dielectric constant tensor:
#      x y z
#    x 1.950230 -0.013100 -0.002150 
#    y -0.013100 1.942050 0.002650 
#    z -0.002150 0.002650 1.932910 
# 
# From -- ./inp_files/45252.got.cif
#   From: 2010.06.25/outbox.cif.g09.slc.cpg/sg2_23_cif.got.tgz:45252.got - 2010.06.27 13:26:56.
