data_PCOD8026391
_publ_section_title
;
Structure prediction by ZEFSAII (Michael W. Deem and Ramdas Pophale) SiO2 
 PCOD8026391
Probable space group: P -1
;
_chemical_formula_sum "Si O2"
_cell_formula_units_Z 16
_cell_length_a 8.717359
_cell_length_b 20.507671
_cell_length_c 9.084879
_cell_angle_alpha 131.875070
_cell_angle_beta 89.808139
_cell_angle_gamma 127.302123
_cell_volume 707.703702
_symmetry_space_group_name_H-M "P -1"
_symmetry_group_IT_number 2
_symmetry_cell_setting 'triclinic'
loop_
_space_group_symop_operation_xyz
x,y,z
-x,-y,-z
loop_
_atom_site_type_symbol
_atom_site_label
_atom_site_fract_x
_atom_site_fract_y
_atom_site_fract_z
Si Si1 0.924685 0.101882 0.922602
Si Si2 0.215210 0.403613 0.327282
Si Si3 0.977442 0.081561 0.206170
Si Si4 0.514837 0.611945 0.158825
Si Si5 0.681938 0.865600 0.118469
Si Si6 0.490186 0.900194 0.416674
Si Si7 0.269469 0.560358 0.792298
Si Si8 0.060385 0.439043 0.108585
O O1 0.028139 0.235898 0.040958
O O2 0.947022 0.132115 0.143329
O O3 0.069274 0.083184 0.827667
O O4 0.619228 0.954167 0.659072
O O5 0.500000 0.500000 0.500000
O O6 0.130413 0.414804 0.493144
O O7 0.215747 0.470011 0.291325
O O8 0.223937 0.226858 0.524492
O O9 0.716529 0.952408 0.115257
O O10 0.000000 0.000000 0.000000
O O11 0.258740 0.534529 0.117210
O O12 0.500000 0.500000 0.000000
O O13 0.488828 0.630781 0.017229
O O14 0.666092 0.914902 0.341207
O O15 0.417912 0.684819 0.849645
O O16 0.500000 0.000000 0.500000
O O17 0.190859 0.735690 0.190694
O O18 0.032032 0.505081 0.778042
#
# Coordination Sequence:
#
# PCOD8026391 Si02
#       8
#     2   2   2   2   2   2   2   2
#     4  11  22  43  68 101 139 180 231 281 343 408
#     4  12  22  42  71 100 136 180 234 285 341 421
#     4  10  25  43  68 103 135 174 232 287 335 406
#     4  12  27  46  73 103 136 184 238 289 347 417
#     4  10  24  41  72  98 132 181 230 280 337 414
#     4  11  24  43  67 100 138 183 226 281 347 408
#     4  11  25  44  70 102 139 185 225 292 350 409
#     4  11  26  45  67 100 142 178 230 288 352 419
#
# _framework density 22.608332999999998
#
# number of rings (size 3 to 8) (size 9 to 14) (size 15 to 20)
#    0.000    1.000    2.500    3.375   12.250    0.000 
#    0.000    0.625    0.000    0.000    0.000    0.000 
#    0.000    0.000    0.000    0.000    0.000    0.000 
#
# Total GULP energy -198257.371688 kJ/mol
# GULP energy per Si atom -12391.085730 kJ/mol
# Density = 2.255687 g / cm^3
# Si number density = 22.608333 Si / 1000 Ang^3
#
#
#
# Elastic Constant Matrix: (Units=GPa)
#
#
# Indices 1 2 3 4 5 6 
#
# 1 88.6255 15.2407 29.6680 7.9749 -3.2659 -0.7946
# 2 15.2407 104.1992 22.5265 3.6449 3.4050 9.2614
# 3 29.6680 22.5265 112.9722 2.6718 1.0169 3.8481
# 4 7.9749 3.6449 2.6718 21.9261 -10.1948 3.6542
# 5 -3.2659 3.4050 1.0169 -10.1948 38.0659 3.0315
# 6 -0.7946 9.2614 3.8481 3.6542 3.0315 29.8470
#
#
#
# Elastic Compliance Matrix: (Units=1/GPa)
#
#
# Indices 1 2 3 4 5 6 
#
# 1 0.012945 -0.001214 -0.003110 -0.004410 -0.000011 0.001663
# 2 -0.001214 0.010453 -0.001633 -0.001126 -0.001073 -0.002818
# 3 -0.003110 -0.001633 0.010021 0.000202 -0.000265 -0.000866
# 4 -0.004410 -0.001126 0.000202 0.055868 0.015332 -0.008191
# 5 -0.000011 -0.001073 -0.000265 0.015332 0.030848 -0.004644
# 6 0.001663 -0.002818 -0.000866 -0.008191 -0.004644 0.036009
#
#
# Mechanical properties :
#
#
# Convention : Reuss Voigt Hill
#
# Bulk Modulus (GPa) = 46.50214 48.96302 47.73258
# Shear Modulus (GPa) = 28.53461 33.85857 31.19659
#
# Velocity S-wave (km/s) = 3.55650 3.87410 3.71869
# Velocity P-wave (km/s) = 6.12194 6.45876 6.29261
#
# Compressibility (1/GPa) = 0.02150439
#
# Stress axis : x y z
#
# Youngs Moduli (GPa) = 77.25283 95.66995 99.78980
#
# Poissons Ratio (x) = 0.11617 0.31030
# Poissons Ratio (y) = 0.09381 0.16296
# Poissons Ratio (z) = 0.24022 0.15623
#
# Static dielectric constant tensor:
#      x y z
#    x 4.155800 -0.284100 -0.041800 
#    y -0.284100 4.607980 -0.187560 
#    z -0.041800 -0.187560 3.682360 
# 
# 
# High freq. dielectric constant tensor:
#      x y z
#    x 1.889930 -0.012140 -0.011320 
#    y -0.012140 1.889510 -0.002870 
#    z -0.011320 -0.002870 1.899190 
# 
# From -- ./inp_files/226647.got.cif
#   From: 2010.06.25/outbox.cif.g09.slc.cpg/sg2_114_cif.got.tgz:226647.got - 2010.06.27 13:26:56.
