data_PCOD8026387
_publ_section_title
;
Structure prediction by ZEFSAII (Michael W. Deem and Ramdas Pophale) SiO2 
 PCOD8026387
Probable space group: P -1
;
_chemical_formula_sum "Si O2"
_cell_formula_units_Z 16
_cell_length_a 15.533467
_cell_length_b 9.405827
_cell_length_c 9.169866
_cell_angle_alpha 126.069058
_cell_angle_beta 88.972482
_cell_angle_gamma 55.403187
_cell_volume 756.291889
_symmetry_space_group_name_H-M "P -1"
_symmetry_group_IT_number 2
_symmetry_cell_setting 'triclinic'
loop_
_space_group_symop_operation_xyz
x,y,z
-x,-y,-z
loop_
_atom_site_type_symbol
_atom_site_label
_atom_site_fract_x
_atom_site_fract_y
_atom_site_fract_z
Si Si1 0.361328 0.264631 0.630616
Si Si2 0.399635 0.903945 0.862804
Si Si3 0.202725 0.272635 0.853473
Si Si4 0.123757 0.815691 0.667805
Si Si5 0.731830 0.223896 0.098340
Si Si6 0.950308 0.770615 0.637638
Si Si7 0.962254 0.775876 0.300593
Si Si8 0.646400 0.715961 0.687607
O O1 0.257927 0.331083 0.775161
O O2 0.340128 0.503911 0.800925
O O3 0.330811 0.254407 0.460438
O O4 0.500000 0.000000 0.500000
O O5 0.311932 0.049170 0.816124
O O6 0.379695 0.739876 0.828559
O O7 0.538386 0.728234 0.698114
O O8 0.376355 0.082018 0.093951
O O9 0.149303 0.189959 0.713936
O O10 0.096505 0.503852 0.098878
O O11 0.177334 0.858925 0.821152
O O12 0.233978 0.558768 0.422162
O O13 0.037085 0.789858 0.724965
O O14 0.050030 0.031414 0.678875
O O15 0.812941 0.996974 0.841404
O O16 0.952479 0.822230 0.500051
O O17 0.000000 0.500000 0.500000
#
# Coordination Sequence:
#
# PCOD8026387 Si02
#       8
#     2   2   2   2   2   2   2   2
#     4  11  24  44  67  96 132 175 219 273 327 385
#     4  11  22  46  66  95 131 170 226 264 328 387
#     4  11  23  42  68  94 133 169 223 266 329 395
#     4  11  23  43  65  95 133 171 223 264 330 391
#     4  11  25  41  68  98 132 175 219 271 325 394
#     4  12  26  42  68 100 138 172 216 272 333 389
#     4  11  25  41  66  99 128 177 213 272 330 390
#     4  10  24  41  71  94 129 177 216 274 326 389
#
# _framework density 21.155853
#
# number of rings (size 3 to 8) (size 9 to 14) (size 15 to 20)
#    0.000    1.000    2.500    3.750    7.000    4.000 
#    0.000    0.625    0.000    0.000    0.000    0.000 
#    0.000    0.000    0.000    0.000    0.000    0.000 
#
# Total GULP energy -198404.406190 kJ/mol
# GULP energy per Si atom -12400.275387 kJ/mol
# Density = 2.110770 g / cm^3
# Si number density = 21.155853 Si / 1000 Ang^3
#
#
#
# Elastic Constant Matrix: (Units=GPa)
#
#
# Indices 1 2 3 4 5 6 
#
# 1 133.0122 45.3672 8.5545 -5.1927 -7.8317 22.1671
# 2 45.3672 186.8332 -10.1541 2.3939 12.2592 14.0682
# 3 8.5545 -10.1541 69.4133 -3.5091 -3.3335 11.5616
# 4 -5.1927 2.3939 -3.5091 36.2747 3.0105 0.6207
# 5 -7.8317 12.2592 -3.3335 3.0105 28.9287 -1.1226
# 6 22.1671 14.0682 11.5616 0.6207 -1.1226 37.5866
#
#
#
# Elastic Compliance Matrix: (Units=1/GPa)
#
#
# Indices 1 2 3 4 5 6 
#
# 1 0.009252 -0.002158 -0.000510 0.001239 0.003060 -0.004421
# 2 -0.002158 0.006272 0.001277 -0.000314 -0.003123 -0.001555
# 3 -0.000510 0.001277 0.015591 0.001371 0.000782 -0.004972
# 4 0.001239 -0.000314 0.001371 0.028121 -0.002361 -0.001570
# 5 0.003060 -0.003123 0.000782 -0.002361 0.037066 0.000270
# 6 -0.004421 -0.001555 -0.004972 -0.001570 0.000270 0.031358
#
#
# Mechanical properties :
#
#
# Convention : Reuss Voigt Hill
#
# Bulk Modulus (GPa) = 35.29515 52.97709 44.13612
# Shear Modulus (GPa) = 35.74304 43.59073 39.66689
#
# Velocity S-wave (km/s) = 4.11483 4.54415 4.33481
# Velocity P-wave (km/s) = 6.26860 7.25452 6.77951
#
# Compressibility (1/GPa) = 0.02833251
#
# Stress axis : x y z
#
# Youngs Moduli (GPa) = 108.08058 159.44273 64.13903
#
# Poissons Ratio (x) = 0.34410 0.03271
# Poissons Ratio (y) = 0.23326 -0.08189
# Poissons Ratio (z) = 0.05512 -0.20356
#
# Static dielectric constant tensor:
#      x y z
#    x 4.169770 0.069780 -0.200060 
#    y 0.069780 3.811410 0.034700 
#    z -0.200060 0.034700 3.957200 
# 
# 
# High freq. dielectric constant tensor:
#      x y z
#    x 1.845590 0.004780 -0.005510 
#    y 0.004780 1.827780 0.001420 
#    z -0.005510 0.001420 1.837860 
# 
# From -- ./inp_files/188773.got.cif
#   From: 2010.06.25/outbox.cif.g09.slc.cpg/sg2_95_cif.got.tgz:188773.got - 2010.06.27 13:26:56.
