data_PCOD8026492
_publ_section_title
;
Structure prediction by ZEFSAII (Michael W. Deem and Ramdas Pophale) SiO2 
 PCOD8026492
Probable space group: P -1
;
_chemical_formula_sum "Si O2"
_cell_formula_units_Z 12
_cell_length_a 12.351128
_cell_length_b 6.520220
_cell_length_c 8.344044
_cell_angle_alpha 109.037766
_cell_angle_beta 128.814497
_cell_angle_gamma 82.962766
_cell_volume 491.869605
_symmetry_space_group_name_H-M "P -1"
_symmetry_group_IT_number 2
_symmetry_cell_setting 'triclinic'
loop_
_space_group_symop_operation_xyz
x,y,z
-x,-y,-z
loop_
_atom_site_type_symbol
_atom_site_label
_atom_site_fract_x
_atom_site_fract_y
_atom_site_fract_z
Si Si1 0.854549 0.034352 0.084839
Si Si2 0.241903 0.265892 0.343950
Si Si3 0.404870 0.263873 0.200207
Si Si4 0.145034 0.097474 0.535372
Si Si5 0.298342 0.706412 0.648508
Si Si6 0.745386 0.468461 0.100735
O O1 0.839387 0.282551 0.076617
O O2 0.983172 0.031047 0.324498
O O3 0.875796 0.871406 0.911999
O O4 0.707962 0.938936 0.010942
O O5 0.389796 0.290058 0.387685
O O6 0.244303 0.137091 0.480612
O O7 0.210523 0.512277 0.415565
O O8 0.557902 0.207116 0.284562
O O9 0.366390 0.480888 0.125792
O O10 0.152906 0.311617 0.708835
O O11 0.198578 0.894607 0.625748
O O12 0.335579 0.617248 0.835049
#
# Coordination Sequence:
#
# PCOD8026492 Si02
#       6
#     2   2   2   2   2   2
#     4  10  24  42  66  95 124 168 210 257 314 370
#     4   9  24  42  66  93 124 170 208 257 314 368
#     4  10  24  42  66  95 124 168 210 257 314 370
#     4  11  24  43  66  94 128 164 211 260 313 371
#     4  11  24  43  66  94 128 164 211 260 313 371
#     4  11  24  42  64  93 130 166 210 257 310 376
#
# _framework density 24.396709999999999
#
# number of rings (size 3 to 8) (size 9 to 14) (size 15 to 20)
#    1.000    0.667    0.000    3.000    2.333   12.000 
#    0.000    0.000    0.000    0.000    0.000    0.000 
#    0.000    0.000    0.000    0.000    0.000    0.000 
#
# Total GULP energy -148682.416895 kJ/mol
# GULP energy per Si atom -12390.201408 kJ/mol
# Density = 2.434118 g / cm^3
# Si number density = 24.396710 Si / 1000 Ang^3
#
#
#
# Elastic Constant Matrix: (Units=GPa)
#
#
# Indices 1 2 3 4 5 6 
#
# 1 100.8305 42.3577 22.9384 4.9081 2.1364 6.7620
# 2 42.3577 148.1877 51.1820 19.0340 14.8698 -13.3770
# 3 22.9384 51.1820 95.9190 16.8465 -5.8249 -11.0806
# 4 4.9081 19.0340 16.8465 33.8177 -10.8934 0.6866
# 5 2.1364 14.8698 -5.8249 -10.8934 27.2675 -1.8407
# 6 6.7620 -13.3770 -11.0806 0.6866 -1.8407 31.1210
#
#
#
# Elastic Compliance Matrix: (Units=1/GPa)
#
#
# Indices 1 2 3 4 5 6 
#
# 1 0.012030 -0.003549 -0.001740 0.001506 0.000903 -0.004739
# 2 -0.003549 0.011343 -0.004122 -0.006883 -0.009283 0.003782
# 3 -0.001740 -0.004122 0.014345 -0.003228 0.004432 0.004047
# 4 0.001506 -0.006883 -0.003228 0.041061 0.019065 -0.004213
# 5 0.000903 -0.009283 0.004432 0.019065 0.050225 -0.000058
# 6 -0.004739 0.003782 0.004047 -0.004213 -0.000058 0.036318
#
#
# Mechanical properties :
#
#
# Convention : Reuss Voigt Hill
#
# Bulk Modulus (GPa) = 52.92311 64.21037 58.56674
# Shear Modulus (GPa) = 26.25464 33.67186 29.96325
#
# Velocity S-wave (km/s) = 3.28404 3.71911 3.50832
# Velocity P-wave (km/s) = 6.00997 6.69468 6.36154
#
# Compressibility (1/GPa) = 0.01889534
#
# Stress axis : x y z
#
# Youngs Moduli (GPa) = 83.12612 88.15709 69.71292
#
# Poissons Ratio (x) = 0.31291 0.12130
# Poissons Ratio (y) = 0.29505 0.28735
# Poissons Ratio (z) = 0.14463 0.36337
#
# Static dielectric constant tensor:
#      x y z
#    x 4.194560 0.289670 -0.299110 
#    y 0.289670 4.401390 0.280870 
#    z -0.299110 0.280870 4.331250 
# 
# 
# High freq. dielectric constant tensor:
#      x y z
#    x 1.964890 0.021030 -0.023330 
#    y 0.021030 1.967370 0.022510 
#    z -0.023330 0.022510 1.970270 
# 
# From -- ./inp_files/88568.got.cif
#   From: 2010.06.25/outbox.cif.g09.slc.cpg/sg2_45_cif.got.tgz:88568.got - 2010.06.27 13:26:56.
