data_PCOD8026367
_publ_section_title
;
Structure prediction by ZEFSAII (Michael W. Deem and Ramdas Pophale) SiO2 
 PCOD8026367
Probable space group: P -1
;
_chemical_formula_sum "Si O2"
_cell_formula_units_Z 16
_cell_length_a 8.906571
_cell_length_b 13.581128
_cell_length_c 11.774443
_cell_angle_alpha 81.606859
_cell_angle_beta 69.687060
_cell_angle_gamma 32.536445
_cell_volume 687.320961
_symmetry_space_group_name_H-M "P -1"
_symmetry_group_IT_number 2
_symmetry_cell_setting 'triclinic'
loop_
_space_group_symop_operation_xyz
x,y,z
-x,-y,-z
loop_
_atom_site_type_symbol
_atom_site_label
_atom_site_fract_x
_atom_site_fract_y
_atom_site_fract_z
Si Si1 0.238834 0.432774 0.044162
Si Si2 0.290604 0.185278 0.593065
Si Si3 0.889205 0.082692 0.641463
Si Si4 0.629784 0.528599 0.773128
Si Si5 0.541548 0.856390 0.197843
Si Si6 0.660273 0.509816 0.219068
Si Si7 0.493035 0.203574 0.353494
Si Si8 0.325130 0.183174 0.173390
O O1 0.386614 0.427139 0.099728
O O2 0.369406 0.249813 0.058960
O O3 0.865460 0.633732 0.113217
O O4 0.342496 0.412496 0.898139
O O5 0.465407 0.125675 0.668880
O O6 0.257922 0.298755 0.500442
O O7 0.967023 0.307541 0.691625
O O8 0.500000 0.000000 0.500000
O O9 0.749235 0.063214 0.753388
O O10 0.624356 0.307275 0.658188
O O11 0.000000 0.000000 0.500000
O O12 0.157137 0.988902 0.662394
O O13 0.372763 0.582884 0.808457
O O14 0.576595 0.647592 0.683905
O O15 0.496783 0.988531 0.125887
O O16 0.961212 0.354188 0.244942
O O17 0.451001 0.150877 0.267469
#
# Coordination Sequence:
#
# PCOD8026367 Si02
#       8
#     2   2   2   2   2   2   2   2
#     4  10  24  48  71 100 136 182 230 285 345 401
#     4  11  20  39  68  95 135 181 218 278 347 399
#     4  12  26  43  68 103 138 179 227 280 342 405
#     4  10  24  41  69 101 133 178 231 283 339 405
#     4  11  23  43  70 100 138 178 230 280 339 408
#     4  12  25  47  70  98 142 179 228 289 339 402
#     4  11  23  44  65 101 138 178 228 277 343 411
#     4  11  24  43  72 104 131 184 233 277 343 405
#
# _framework density 23.278790000000001
#
# number of rings (size 3 to 8) (size 9 to 14) (size 15 to 20)
#    0.000    1.000    3.750    2.625    1.750    1.500 
#    2.250    3.125    0.000    0.000    0.000    0.000 
#    0.000    0.000    0.000    0.000    0.000    0.000 
#
# Total GULP energy -198345.362755 kJ/mol
# GULP energy per Si atom -12396.585172 kJ/mol
# Density = 2.322581 g / cm^3
# Si number density = 23.278790 Si / 1000 Ang^3
#
#
#
# Elastic Constant Matrix: (Units=GPa)
#
#
# Indices 1 2 3 4 5 6 
#
# 1 133.7657 34.8634 11.3019 -9.9859 -19.8511 -6.0079
# 2 34.8634 98.5372 16.8525 -5.9059 2.1604 4.5154
# 3 11.3019 16.8525 67.4485 -10.3805 -10.8756 3.8460
# 4 -9.9859 -5.9059 -10.3805 31.8143 -0.8707 1.1448
# 5 -19.8511 2.1604 -10.8756 -0.8707 10.2876 -1.5314
# 6 -6.0079 4.5154 3.8460 1.1448 -1.5314 55.8435
#
#
#
# Elastic Compliance Matrix: (Units=1/GPa)
#
#
# Indices 1 2 3 4 5 6 
#
# 1 0.014942 -0.006901 0.006122 0.006342 0.037684 0.002647
# 2 -0.006901 0.014163 -0.006401 -0.002196 -0.023548 -0.002048
# 3 0.006122 -0.006401 0.022974 0.009261 0.038295 0.000454
# 4 0.006342 -0.002196 0.009261 0.036732 0.025624 0.000172
# 5 0.037684 -0.023548 0.038295 0.025624 0.218828 0.008796
# 6 0.002647 -0.002048 0.000454 0.000172 0.008796 0.018564
#
#
# Mechanical properties :
#
#
# Convention : Reuss Voigt Hill
#
# Bulk Modulus (GPa) = 26.51125 47.30965 36.91045
# Shear Modulus (GPa) = 14.15888 35.37132 24.76510
#
# Velocity S-wave (km/s) = 2.46891 3.90226 3.26521
# Velocity P-wave (km/s) = 4.42048 6.37736 5.48687
#
# Compressibility (1/GPa) = 0.03771984
#
# Stress axis : x y z
#
# Youngs Moduli (GPa) = 66.92592 70.60521 43.52786
#
# Poissons Ratio (x) = 0.48725 -0.26648
# Poissons Ratio (y) = 0.46186 0.27860
# Poissons Ratio (z) = -0.40972 0.45191
#
# Static dielectric constant tensor:
#      x y z
#    x 5.006250 0.171620 0.678930 
#    y 0.171620 4.338270 0.106730 
#    z 0.678930 0.106730 6.229010 
# 
# 
# High freq. dielectric constant tensor:
#      x y z
#    x 1.944910 0.003470 0.004850 
#    y 0.003470 1.918820 -0.007770 
#    z 0.004850 -0.007770 1.912950 
# 
# From -- ./inp_files/333202.got.cif
#   From: 2010.06.25/outbox.cif.g09.slc.cpg/sg2_167_cif.got.tgz:333202.got - 2010.06.27 13:26:56.
