data_PCOD8026997
_publ_section_title
;
Structure prediction by ZEFSAII (Michael W. Deem and Ramdas Pophale) SiO2 
 PCOD8026997
Probable space group: P -1
;
_chemical_formula_sum "Si O2"
_cell_formula_units_Z 16
_cell_length_a 9.027946
_cell_length_b 15.561432
_cell_length_c 9.601840
_cell_angle_alpha 132.664456
_cell_angle_beta 96.179385
_cell_angle_gamma 112.716119
_cell_volume 767.435245
_symmetry_space_group_name_H-M "P -1"
_symmetry_group_IT_number 2
_symmetry_cell_setting 'triclinic'
loop_
_space_group_symop_operation_xyz
x,y,z
-x,-y,-z
loop_
_atom_site_type_symbol
_atom_site_label
_atom_site_fract_x
_atom_site_fract_y
_atom_site_fract_z
Si Si1 0.664922 0.771663 0.246808
Si Si2 0.959615 0.308695 0.028659
Si Si3 0.798585 0.451799 0.474855
Si Si4 0.740788 0.437041 0.154076
Si Si5 0.062922 0.289775 0.712536
Si Si6 0.462459 0.118418 0.134423
Si Si7 0.838659 0.974479 0.227993
Si Si8 0.796196 0.982939 0.738313
O O1 0.745899 0.693743 0.237623
O O2 0.681665 0.885906 0.483058
O O3 0.793088 0.862872 0.225374
O O4 0.446952 0.643255 0.045375
O O5 0.803003 0.333137 0.054105
O O6 0.154727 0.431360 0.270842
O O7 0.013593 0.324391 0.891127
O O8 0.862583 0.147570 0.906413
O O9 0.705220 0.464063 0.339681
O O10 0.663826 0.284862 0.340940
O O11 0.000000 0.500000 0.500000
O O12 0.906049 0.594741 0.272097
O O13 0.885660 0.124669 0.460663
O O14 0.345955 0.096074 0.234226
O O15 0.500000 0.000000 0.000000
O O16 0.344753 0.103809 0.973174
O O17 0.021716 0.011291 0.206777
#
# Coordination Sequence:
#
# PCOD8026997 Si02
#       8
#     2   2   2   2   2   2   2   2
#     4  11  22  46  66  92 135 171 225 267 318 391
#     4  11  23  42  65  95 135 166 214 274 327 386
#     4  10  24  44  61  93 136 168 210 270 329 383
#     4  11  24  40  65  95 129 174 216 269 328 382
#     4  11  23  42  67  94 129 176 212 271 328 384
#     4  12  26  43  71  99 129 173 224 272 320 390
#     4  11  23  46  69  92 135 175 220 267 324 389
#     4  11  24  44  68  99 132 173 218 270 326 384
#
# _framework density 20.848665
#
# number of rings (size 3 to 8) (size 9 to 14) (size 15 to 20)
#    0.000    1.000    3.750    3.375    7.000    1.500 
#    0.000    1.250    0.000    0.000    0.000    0.000 
#    0.000    0.000    0.000    0.000    0.000    0.000 
#
# Total GULP energy -198455.200909 kJ/mol
# GULP energy per Si atom -12403.450057 kJ/mol
# Density = 2.080121 g / cm^3
# Si number density = 20.848665 Si / 1000 Ang^3
#
#
#
# Elastic Constant Matrix: (Units=GPa)
#
#
# Indices 1 2 3 4 5 6 
#
# 1 62.0218 12.8104 27.4822 -6.8950 -1.5790 9.2143
# 2 12.8104 107.0395 42.9201 1.7035 -10.3290 15.5844
# 3 27.4822 42.9201 89.5640 -3.0665 6.6163 18.8926
# 4 -6.8950 1.7035 -3.0665 31.9296 4.0558 1.2785
# 5 -1.5790 -10.3290 6.6163 4.0558 31.7573 -7.2814
# 6 9.2143 15.5844 18.8926 1.2785 -7.2814 28.0931
#
#
#
# Elastic Compliance Matrix: (Units=1/GPa)
#
#
# Indices 1 2 3 4 5 6 
#
# 1 0.019310 0.000329 -0.005472 0.003592 0.001128 -0.002707
# 2 0.000329 0.012570 -0.006288 -0.001825 0.005329 -0.001388
# 3 -0.005472 -0.006288 0.018608 0.002431 -0.008705 -0.009598
# 4 0.003592 -0.001825 0.002431 0.033428 -0.006328 -0.004962
# 5 0.001128 0.005329 -0.008705 -0.006328 0.038855 0.012887
# 6 -0.002707 -0.001388 -0.009598 -0.004962 0.012887 0.047274
#
#
# Mechanical properties :
#
#
# Convention : Reuss Voigt Hill
#
# Bulk Modulus (GPa) = 36.19741 47.22786 41.71263
# Shear Modulus (GPa) = 24.73819 30.05017 27.39418
#
# Velocity S-wave (km/s) = 3.44838 3.80063 3.62878
# Velocity P-wave (km/s) = 5.76670 6.47777 6.13255
#
# Compressibility (1/GPa) = 0.02762629
#
# Stress axis : x y z
#
# Youngs Moduli (GPa) = 51.78551 79.55677 53.73896
#
# Poissons Ratio (x) = -0.02617 0.29407
# Poissons Ratio (y) = -0.01704 0.33791
# Poissons Ratio (z) = 0.28338 0.50025
#
# Static dielectric constant tensor:
#      x y z
#    x 3.592720 0.024860 0.005360 
#    y 0.024860 3.834160 -0.194130 
#    z 0.005360 -0.194130 4.305610 
# 
# 
# High freq. dielectric constant tensor:
#      x y z
#    x 1.802330 0.002840 0.002470 
#    y 0.002840 1.827240 -0.002770 
#    z 0.002470 -0.002770 1.834520 
# 
# From -- ./inp_files/184126.got.cif
#   From: 2010.06.25/outbox.cif.g09.slc.cpg/sg2_93_cif.got.tgz:184126.got - 2010.06.27 13:26:56.
