data_PCOD8026187
_publ_section_title
;
Structure prediction by ZEFSAII (Michael W. Deem and Ramdas Pophale) SiO2 
 PCOD8026187
Probable space group: P -1
;
_chemical_formula_sum "Si O2"
_cell_formula_units_Z 16
_cell_length_a 18.173204
_cell_length_b 9.058698
_cell_length_c 5.750346
_cell_angle_alpha 48.727171
_cell_angle_beta 85.918183
_cell_angle_gamma 72.262422
_cell_volume 666.430166
_symmetry_space_group_name_H-M "P -1"
_symmetry_group_IT_number 2
_symmetry_cell_setting 'triclinic'
loop_
_space_group_symop_operation_xyz
x,y,z
-x,-y,-z
loop_
_atom_site_type_symbol
_atom_site_label
_atom_site_fract_x
_atom_site_fract_y
_atom_site_fract_z
Si Si1 0.614237 0.977218 0.628541
Si Si2 0.503529 0.206472 0.008348
Si Si3 0.239415 0.345517 0.267651
Si Si4 0.248240 0.636936 0.335981
Si Si5 0.010415 0.103601 0.639932
Si Si6 0.128583 0.467872 0.780658
Si Si7 0.839468 0.889232 0.195305
Si Si8 0.599890 0.361496 0.466469
O O1 0.646435 0.161546 0.506008
O O2 0.687277 0.765189 0.799160
O O3 0.569568 0.061240 0.311899
O O4 0.556548 0.921899 0.887009
O O5 0.539097 0.271659 0.703915
O O6 0.448988 0.435026 0.886941
O O7 0.249985 0.553085 0.158669
O O8 0.233457 0.175573 0.632894
O O9 0.153532 0.409892 0.100747
O O10 0.204859 0.513884 0.624640
O O11 0.338690 0.581924 0.443267
O O12 0.198944 0.878636 0.134135
O O13 0.098203 0.110197 0.618049
O O14 0.950995 0.338871 0.414549
O O15 0.000000 0.000000 0.500000
O O16 0.000000 0.000000 0.000000
O O17 0.116604 0.272144 0.852392
#
# Coordination Sequence:
#
# PCOD8026187 Si02
#       8
#     2   2   2   2   2   2   2   2
#     4  11  23  42  64  94 131 171 227 280 350 415
#     4  10  24  40  62  94 130 170 223 285 347 420
#     4  11  26  42  67 100 132 181 225 291 345 426
#     4  11  24  44  65  97 137 174 229 287 347 422
#     4  12  27  47  78 110 150 193 240 297 360 423
#     4  11  25  45  71 100 139 182 236 282 354 417
#     4  11  25  45  71 100 139 183 234 284 354 417
#     4  11  23  40  66  92 127 176 224 280 351 414
#
# _framework density 24.008519
#
# number of rings (size 3 to 8) (size 9 to 14) (size 15 to 20)
#    0.000    1.000    1.250    4.125    3.500   13.500 
#    0.000    0.000    0.000    0.000    0.000    0.000 
#    0.000    0.000    0.000    0.000    0.000    0.000 
#
# Total GULP energy -198235.846651 kJ/mol
# GULP energy per Si atom -12389.740416 kJ/mol
# Density = 2.395387 g / cm^3
# Si number density = 24.008519 Si / 1000 Ang^3
#
#
#
# Elastic Constant Matrix: (Units=GPa)
#
#
# Indices 1 2 3 4 5 6 
#
# 1 90.4253 16.9960 11.6756 -8.2680 8.7566 6.5178
# 2 16.9960 121.7781 5.2014 -23.4303 16.5391 14.0926
# 3 11.6756 5.2014 63.5357 -22.6822 13.4219 2.6756
# 4 -8.2680 -23.4303 -22.6822 37.8725 -2.7663 7.7663
# 5 8.7566 16.5391 13.4219 -2.7663 41.4922 -6.1996
# 6 6.5178 14.0926 2.6756 7.7663 -6.1996 40.4109
#
#
#
# Elastic Compliance Matrix: (Units=1/GPa)
#
#
# Indices 1 2 3 4 5 6 
#
# 1 0.011856 -0.000672 -0.000861 0.001977 -0.002173 -0.002334
# 2 -0.000672 0.012057 0.004901 0.011325 -0.006632 -0.007615
# 3 -0.000861 0.004901 0.024492 0.018493 -0.009692 -0.008233
# 4 0.001977 0.011325 0.018493 0.047493 -0.010165 -0.016179
# 5 -0.002173 -0.006632 -0.009692 -0.010165 0.031160 0.010039
# 6 -0.002334 -0.007615 -0.008233 -0.016179 0.010039 0.032972
#
#
# Mechanical properties :
#
#
# Convention : Reuss Voigt Hill
#
# Bulk Modulus (GPa) = 18.13521 38.16500 28.15011
# Shear Modulus (GPa) = 29.12468 40.07954 34.60211
#
# Velocity S-wave (km/s) = 3.48673 4.09025 3.80049
# Velocity P-wave (km/s) = 4.87645 6.18367 5.56855
#
# Compressibility (1/GPa) = 0.05514135
#
# Stress axis : x y z
#
# Youngs Moduli (GPa) = 84.34753 82.93904 40.82903
#
# Poissons Ratio (x) = 0.05577 0.03514
# Poissons Ratio (y) = 0.05672 -0.20011
# Poissons Ratio (z) = 0.07260 -0.40650
#
# Static dielectric constant tensor:
#      x y z
#    x 4.298750 0.137780 -0.077750 
#    y 0.137780 4.594360 -0.194660 
#    z -0.077750 -0.194660 4.349620 
# 
# 
# High freq. dielectric constant tensor:
#      x y z
#    x 1.958410 0.006660 0.000860 
#    y 0.006660 1.957760 -0.022290 
#    z 0.000860 -0.022290 1.953650 
# 
# From -- ./inp_files/106092.got.cif
#   From: 2010.06.25/outbox.cif.g09.slc.cpg/sg2_54_cif.got.tgz:106092.got - 2010.06.27 13:26:56.
