data_PCOD8026964
_publ_section_title
;
Structure prediction by ZEFSAII (Michael W. Deem and Ramdas Pophale) SiO2 
 PCOD8026964
Probable space group: P -1
;
_chemical_formula_sum "Si O2"
_cell_formula_units_Z 14
_cell_length_a 8.067889
_cell_length_b 11.264036
_cell_length_c 8.177839
_cell_angle_alpha 113.747421
_cell_angle_beta 81.487547
_cell_angle_gamma 119.422982
_cell_volume 591.353894
_symmetry_space_group_name_H-M "P -1"
_symmetry_group_IT_number 2
_symmetry_cell_setting 'triclinic'
loop_
_space_group_symop_operation_xyz
x,y,z
-x,-y,-z
loop_
_atom_site_type_symbol
_atom_site_label
_atom_site_fract_x
_atom_site_fract_y
_atom_site_fract_z
Si Si1 0.723608 0.982593 0.417436
Si Si2 0.033555 0.114676 0.195001
Si Si3 0.339368 0.819783 0.227371
Si Si4 0.281772 0.534436 0.670396
Si Si5 0.064507 0.684742 0.894052
Si Si6 0.671033 0.465694 0.976609
Si Si7 0.649382 0.728008 0.539453
O O1 0.561430 0.947951 0.281490
O O2 0.667177 0.838260 0.454660
O O3 0.919312 0.026956 0.322657
O O4 0.766863 0.125999 0.599123
O O5 0.253737 0.190581 0.260148
O O6 0.969374 0.229448 0.200656
O O7 0.000000 0.000000 0.000000
O O8 0.239417 0.794780 0.048557
O O9 0.336833 0.668493 0.204718
O O10 0.425924 0.623828 0.551963
O O11 0.239863 0.364917 0.575473
O O12 0.098815 0.563148 0.719265
O O13 0.368233 0.595603 0.868712
O O14 0.876923 0.606304 0.992468
O O15 0.500000 0.500000 0.000000
#
# Coordination Sequence:
#
# PCOD8026964 Si02
#       7
#     2   2   2   2   2   2   2
#     4  11  26  45  72  99 144 189 228 286 340 418
#     4  12  29  43  68 104 140 191 229 280 351 415
#     4  10  24  45  72 101 136 184 237 276 355 401
#     4  10  24  43  73 102 133 183 232 293 345 403
#     4  11  26  45  74 102 140 181 232 291 347 410
#     4  11  23  44  74 102 141 180 231 290 349 410
#     4  11  25  47  71 102 141 181 238 287 347 408
#
# _framework density 23.674488
#
# number of rings (size 3 to 8) (size 9 to 14) (size 15 to 20)
#    0.000    1.143    0.000    4.714   16.000    2.286 
#    0.000    0.000    0.000    0.000    0.000    0.000 
#    0.000    0.000    0.000    0.000    0.000    0.000 
#
# Total GULP energy -173445.187405 kJ/mol
# GULP energy per Si atom -12388.941958 kJ/mol
# Density = 2.362060 g / cm^3
# Si number density = 23.674488 Si / 1000 Ang^3
#
#
#
# Elastic Constant Matrix: (Units=GPa)
#
#
# Indices 1 2 3 4 5 6 
#
# 1 94.2516 30.3266 14.8316 -7.0819 -10.1636 -7.6151
# 2 30.3266 105.5089 38.4488 -11.5013 -18.1685 -16.1989
# 3 14.8316 38.4488 94.0230 6.7151 -14.4200 -2.2740
# 4 -7.0819 -11.5013 6.7151 36.4808 0.1179 2.1667
# 5 -10.1636 -18.1685 -14.4200 0.1179 47.6564 5.9049
# 6 -7.6151 -16.1989 -2.2740 2.1667 5.9049 34.8930
#
#
#
# Elastic Compliance Matrix: (Units=1/GPa)
#
#
# Indices 1 2 3 4 5 6 
#
# 1 0.011895 -0.002631 -0.000703 0.001544 0.001189 0.001031
# 2 -0.002631 0.013711 -0.005003 0.004442 0.002552 0.004757
# 3 -0.000703 -0.005003 0.013382 -0.004082 0.002216 -0.001725
# 4 0.001544 0.004442 -0.004082 0.029851 0.000694 0.000162
# 5 0.001189 0.002552 0.002216 0.000694 0.023173 -0.002376
# 6 0.001031 0.004757 -0.001725 0.000162 -0.002376 0.031372
#
#
# Mechanical properties :
#
#
# Convention : Reuss Voigt Hill
#
# Bulk Modulus (GPa) = 44.81557 51.22195 48.01876
# Shear Modulus (GPa) = 33.89897 37.81782 35.85839
#
# Velocity S-wave (km/s) = 3.78812 4.00109 3.89606
# Velocity P-wave (km/s) = 6.17286 6.55957 6.36915
#
# Compressibility (1/GPa) = 0.02231367
#
# Stress axis : x y z
#
# Youngs Moduli (GPa) = 84.07053 72.93271 74.72722
#
# Poissons Ratio (x) = 0.19190 0.05256
# Poissons Ratio (y) = 0.22121 0.37384
# Poissons Ratio (z) = 0.05913 0.36486
#
# Static dielectric constant tensor:
#      x y z
#    x 3.987430 0.343620 -0.119420 
#    y 0.343620 3.578390 0.200920 
#    z -0.119420 0.200920 4.413240 
# 
# 
# High freq. dielectric constant tensor:
#      x y z
#    x 1.948630 -0.009800 -0.006180 
#    y -0.009800 1.926120 0.011520 
#    z -0.006180 0.011520 1.945650 
# 
# From -- ./inp_files/189953.got.cif
#   From: 2010.06.25/outbox.cif.g09.slc.cpg/sg2_95_cif.got.tgz:189953.got - 2010.06.27 13:26:56.
