data_PCOD8026009
_publ_section_title
;
Structure prediction by ZEFSAII (Michael W. Deem and Ramdas Pophale) SiO2 
 PCOD8026009
Probable space group: P -1
;
_chemical_formula_sum "Si O2"
_cell_formula_units_Z 16
_cell_length_a 8.860502
_cell_length_b 17.820994
_cell_length_c 11.698032
_cell_angle_alpha 30.421407
_cell_angle_beta 55.136819
_cell_angle_gamma 51.041513
_cell_volume 725.270505
_symmetry_space_group_name_H-M "P -1"
_symmetry_group_IT_number 2
_symmetry_cell_setting 'triclinic'
loop_
_space_group_symop_operation_xyz
x,y,z
-x,-y,-z
loop_
_atom_site_type_symbol
_atom_site_label
_atom_site_fract_x
_atom_site_fract_y
_atom_site_fract_z
Si Si1 0.625738 0.295164 0.493077
Si Si2 0.791213 0.482522 0.612687
Si Si3 0.479180 0.106083 0.191471
Si Si4 0.561877 0.788617 0.673483
Si Si5 0.166270 0.525477 0.974144
Si Si6 0.347449 0.670312 0.316831
Si Si7 0.172738 0.721897 0.922285
Si Si8 0.159529 0.019358 0.318081
O O1 0.389771 0.353506 0.535476
O O2 0.678671 0.437271 0.225500
O O3 0.733978 0.259045 0.617063
O O4 0.700940 0.137037 0.595502
O O5 0.807444 0.363379 0.656592
O O6 0.000000 0.500000 0.500000
O O7 0.748730 0.409818 0.844361
O O8 0.424948 0.192024 0.222279
O O9 0.285682 0.110682 0.204448
O O10 0.609300 0.924982 0.401584
O O11 0.581629 0.199081 0.946238
O O12 0.349324 0.787053 0.727151
O O13 0.728811 0.624543 0.793959
O O14 0.093759 0.663261 0.917628
O O15 0.000000 0.500000 0.000000
O O16 0.500000 0.500000 0.500000
O O17 0.982594 0.860579 0.870182
O O18 0.000000 0.000000 0.500000
#
# Coordination Sequence:
#
# PCOD8026009 Si02
#       8
#     2   2   2   2   2   2   2   2
#     4  11  25  47  70 102 146 187 238 288 359 430
#     4  11  26  47  73 102 138 190 243 294 348 423
#     4  11  23  41  68 100 144 184 231 299 362 415
#     4  11  22  41  69 103 140 186 236 301 361 409
#     4  12  25  41  72 106 140 185 240 295 361 426
#     4  10  23  47  71  97 141 187 238 287 350 429
#     4  12  24  43  69 102 146 179 241 301 352 417
#     4  12  25  43  68 107 144 183 232 295 362 428
#
# _framework density 22.060735000000001
#
# number of rings (size 3 to 8) (size 9 to 14) (size 15 to 20)
#    0.000    0.750    5.000    1.875    7.000    0.500 
#    0.000    1.875    0.000    0.000    0.000    0.000 
#    0.000    0.000    0.000    0.000    0.000    0.000 
#
# Total GULP energy -198275.642142 kJ/mol
# GULP energy per Si atom -12392.227634 kJ/mol
# Density = 2.201052 g / cm^3
# Si number density = 22.060735 Si / 1000 Ang^3
#
#
#
# Elastic Constant Matrix: (Units=GPa)
#
#
# Indices 1 2 3 4 5 6 
#
# 1 158.0466 60.8306 39.2786 -9.8166 -18.0661 9.8881
# 2 60.8306 107.0261 35.8717 -10.9137 -4.1624 1.2630
# 3 39.2786 35.8717 133.2493 -6.6863 3.1718 0.9647
# 4 -9.8166 -10.9137 -6.6863 30.8729 3.1241 8.6665
# 5 -18.0661 -4.1624 3.1718 3.1241 39.7628 -0.4102
# 6 9.8881 1.2630 0.9647 8.6665 -0.4102 43.7226
#
#
#
# Elastic Compliance Matrix: (Units=1/GPa)
#
#
# Indices 1 2 3 4 5 6 
#
# 1 0.008980 -0.004312 -0.001496 0.001224 0.003630 -0.002082
# 2 -0.004312 0.012715 -0.001999 0.002730 -0.000682 0.000104
# 3 -0.001496 -0.001999 0.008564 0.000830 -0.001637 0.000027
# 4 0.001224 0.002730 0.000830 0.036272 -0.002152 -0.007584
# 5 0.003630 -0.000682 -0.001637 -0.002152 0.027026 -0.000085
# 6 -0.002082 0.000104 0.000027 -0.007584 -0.000085 0.024841
#
#
# Mechanical properties :
#
#
# Convention : Reuss Voigt Hill
#
# Bulk Modulus (GPa) = 68.28538 74.47599 71.38068
# Shear Modulus (GPa) = 35.99837 40.36106 38.17971
#
# Velocity S-wave (km/s) = 4.04392 4.28196 4.16464
# Velocity P-wave (km/s) = 7.26807 7.63411 7.45334
#
# Compressibility (1/GPa) = 0.01464442
#
# Stress axis : x y z
#
# Youngs Moduli (GPa) = 111.35903 78.64661 116.76123
#
# Poissons Ratio (x) = 0.33912 0.17470
# Poissons Ratio (y) = 0.48017 0.23346
# Poissons Ratio (z) = 0.16662 0.15725
#
# Static dielectric constant tensor:
#      x y z
#    x 4.316550 0.196560 0.200320 
#    y 0.196560 4.038220 -0.240780 
#    z 0.200320 -0.240780 4.256760 
# 
# 
# High freq. dielectric constant tensor:
#      x y z
#    x 1.885890 0.015910 0.010400 
#    y 0.015910 1.847450 -0.018640 
#    z 0.010400 -0.018640 1.874270 
# 
# From -- ./inp_files/402621.got.cif
#   From: 2010.06.25/outbox.cif.g09.slc.cpg/sg2_202_cif.got.tgz:402621.got - 2010.06.27 13:26:56.
