data_PCOD8026114
_publ_section_title
;
Structure prediction by ZEFSAII (Michael W. Deem and Ramdas Pophale) SiO2 
 PCOD8026114
Probable space group: P -1
;
_chemical_formula_sum "Si O2"
_cell_formula_units_Z 14
_cell_length_a 6.131413
_cell_length_b 23.541456
_cell_length_c 6.435639
_cell_angle_alpha 135.776577
_cell_angle_beta 77.232572
_cell_angle_gamma 109.744382
_cell_volume 609.488327
_symmetry_space_group_name_H-M "P -1"
_symmetry_group_IT_number 2
_symmetry_cell_setting 'triclinic'
loop_
_space_group_symop_operation_xyz
x,y,z
-x,-y,-z
loop_
_atom_site_type_symbol
_atom_site_label
_atom_site_fract_x
_atom_site_fract_y
_atom_site_fract_z
Si Si1 0.330318 0.204194 0.310428
Si Si2 0.392979 0.519121 0.356986
Si Si3 0.128661 0.429474 0.837289
Si Si4 0.394624 0.904406 0.832901
Si Si5 0.000117 0.096185 0.774564
Si Si6 0.950651 0.202161 0.687804
Si Si7 0.225240 0.673024 0.655708
O O1 0.405376 0.140058 0.279715
O O2 0.535080 0.279871 0.380018
O O3 0.152764 0.243241 0.584782
O O4 0.216374 0.147350 0.994169
O O5 0.500000 0.500000 0.500000
O O6 0.618317 0.550666 0.255972
O O7 0.262288 0.594137 0.574693
O O8 0.198179 0.436243 0.088440
O O9 0.959866 0.346006 0.550131
O O10 0.000000 0.500000 0.000000
O O11 0.265482 0.856337 0.536976
O O12 0.236898 0.896986 0.051330
O O13 0.500000 0.000000 0.000000
O O14 0.034660 0.139302 0.657100
O O15 0.000000 0.000000 0.500000
O O16 0.873620 0.273917 0.017658
#
# Coordination Sequence:
#
# PCOD8026114 Si02
#       7
#     2   2   2   2   2   2   2
#     4  11  26  45  66 103 141 178 237 288 346 405
#     4  10  23  49  75 102 135 181 225 275 347 420
#     4   9  22  47  69 102 139 173 225 274 344 426
#     4  11  24  43  68 100 138 187 238 285 344 415
#     4  11  24  43  69  98 140 186 237 288 341 417
#     4  11  26  45  66 104 139 180 238 283 352 404
#     4  11  25  47  71 101 144 179 225 293 346 409
#
# _framework density 22.970085999999998
#
# number of rings (size 3 to 8) (size 9 to 14) (size 15 to 20)
#    0.000    1.429    1.429    1.714    6.000    5.714 
#   20.571    0.000    0.000    0.000    0.000    0.000 
#    0.000    0.000    0.000    0.000    0.000    0.000 
#
# Total GULP energy -173464.046259 kJ/mol
# GULP energy per Si atom -12390.289018 kJ/mol
# Density = 2.291780 g / cm^3
# Si number density = 22.970086 Si / 1000 Ang^3
#
#
#
# Elastic Constant Matrix: (Units=GPa)
#
#
# Indices 1 2 3 4 5 6 
#
# 1 129.7328 42.6806 89.9657 0.3428 29.4939 -2.8205
# 2 42.6806 92.7638 63.3548 -0.3001 19.0182 -2.8982
# 3 89.9657 63.3548 198.2675 1.2056 23.3470 3.4659
# 4 0.3428 -0.3001 1.2056 31.1139 -8.4673 6.4200
# 5 29.4939 19.0182 23.3470 -8.4673 52.4014 0.1681
# 6 -2.8205 -2.8982 3.4659 6.4200 0.1681 51.5093
#
#
#
# Elastic Compliance Matrix: (Units=1/GPa)
#
#
# Indices 1 2 3 4 5 6 
#
# 1 0.012540 -0.001622 -0.004635 -0.001466 -0.004645 0.001105
# 2 -0.001622 0.014616 -0.003607 -0.000713 -0.002903 0.001075
# 3 -0.004635 -0.003607 0.008292 -0.000036 0.000221 -0.001011
# 4 -0.001466 -0.000713 -0.000036 0.034916 0.006757 -0.004492
# 5 -0.004645 -0.002903 0.000221 0.006757 0.023749 -0.001352
# 6 0.001105 0.001075 -0.001011 -0.004492 -0.001352 0.020167
#
#
# Mechanical properties :
#
#
# Convention : Reuss Voigt Hill
#
# Bulk Modulus (GPa) = 63.61650 90.30737 76.96193
# Shear Modulus (GPa) = 35.90690 41.98911 38.94801
#
# Velocity S-wave (km/s) = 3.95803 4.28014 4.12223
# Velocity P-wave (km/s) = 6.97449 7.98916 7.49900
#
# Compressibility (1/GPa) = 0.01571919
#
# Stress axis : x y z
#
# Youngs Moduli (GPa) = 79.74439 68.41629 120.60517
#
# Poissons Ratio (x) = 0.11096 0.55905
# Poissons Ratio (y) = 0.12933 0.43505
# Poissons Ratio (z) = 0.36965 0.24679
#
# Static dielectric constant tensor:
#      x y z
#    x 4.542120 0.066760 0.206960 
#    y 0.066760 2.065630 -0.727700 
#    z 0.206960 -0.727700 4.463660 
# 
# 
# High freq. dielectric constant tensor:
#      x y z
#    x 1.932240 -0.003110 0.004010 
#    y -0.003110 1.896090 -0.001570 
#    z 0.004010 -0.001570 1.926590 
# 
# From -- ./inp_files/6513.got.cif
#   From: 2010.06.25/outbox.cif.g09.slc.cpg/sg2_4_cif.got.tgz:6513.got - 2010.06.27 13:26:56.
