data_PCOD8026566
_publ_section_title
;
Structure prediction by ZEFSAII (Michael W. Deem and Ramdas Pophale) SiO2 
 PCOD8026566
Probable space group: P -1
;
_chemical_formula_sum "Si O2"
_cell_formula_units_Z 14
_cell_length_a 7.501910
_cell_length_b 12.248215
_cell_length_c 7.861621
_cell_angle_alpha 107.625135
_cell_angle_beta 103.657855
_cell_angle_gamma 118.112140
_cell_volume 542.091478
_symmetry_space_group_name_H-M "P -1"
_symmetry_group_IT_number 2
_symmetry_cell_setting 'triclinic'
loop_
_space_group_symop_operation_xyz
x,y,z
-x,-y,-z
loop_
_atom_site_type_symbol
_atom_site_label
_atom_site_fract_x
_atom_site_fract_y
_atom_site_fract_z
Si Si1 0.539775 0.673805 0.797461
Si Si2 0.357924 0.054750 0.927002
Si Si3 0.084238 0.368804 0.101057
Si Si4 0.082599 0.362726 0.493302
Si Si5 0.793841 0.332196 0.730022
Si Si6 0.124419 0.132121 0.310981
Si Si7 0.641183 0.942175 0.454847
O O1 0.716671 0.648160 0.902896
O O2 0.305170 0.523576 0.636732
O O3 0.647876 0.769050 0.699805
O O4 0.504438 0.774599 0.953131
O O5 0.280556 0.007370 0.693950
O O6 0.103030 0.960651 0.906044
O O7 0.500000 0.000000 0.000000
O O8 0.000288 0.334734 0.262814
O O9 0.172178 0.525209 0.145244
O O10 0.888345 0.278351 0.872278
O O11 0.121880 0.243583 0.487277
O O12 0.892115 0.340741 0.567458
O O13 0.525794 0.224848 0.627745
O O14 0.143190 0.018249 0.364961
O O15 0.500000 0.000000 0.500000
#
# Coordination Sequence:
#
# PCOD8026566 Si02
#       7
#     2   2   2   2   2   2   2
#     4  11  25  44  75 103 147 187 244 297 371 426
#     4  12  29  46  75 106 142 192 247 301 370 432
#     4  10  24  42  69 105 148 190 236 299 363 431
#     4  11  24  45  75 105 148 195 242 294 371 426
#     4  11  25  42  71 109 148 183 251 297 361 427
#     4  11  25  49  72 104 147 193 240 305 362 436
#     4  12  27  46  72 103 147 191 248 293 366 441
#
# _framework density 25.825899
#
# number of rings (size 3 to 8) (size 9 to 14) (size 15 to 20)
#    0.000    0.857    0.000    6.429   12.000    1.714 
#    0.000    0.000    0.000    0.000    0.000    0.000 
#    0.000    0.000    0.000    0.000    0.000    0.000 
#
# Total GULP energy -173458.165348 kJ/mol
# GULP energy per Si atom -12389.868953 kJ/mol
# Density = 2.576712 g / cm^3
# Si number density = 25.825899 Si / 1000 Ang^3
#
#
#
# Elastic Constant Matrix: (Units=GPa)
#
#
# Indices 1 2 3 4 5 6 
#
# 1 93.3463 35.7388 30.4769 -18.2115 6.9997 -26.9767
# 2 35.7388 95.8851 31.4052 -9.2757 12.3056 -24.1928
# 3 30.4769 31.4052 77.2856 -17.7927 13.8558 -9.2197
# 4 -18.2115 -9.2757 -17.7927 47.6690 -9.3117 6.1393
# 5 6.9997 12.3056 13.8558 -9.3117 33.3087 -2.3741
# 6 -26.9767 -24.1928 -9.2197 6.1393 -2.3741 65.7345
#
#
#
# Elastic Compliance Matrix: (Units=1/GPa)
#
#
# Indices 1 2 3 4 5 6 
#
# 1 0.014840 -0.003117 -0.003436 0.003381 0.000705 0.004171
# 2 -0.003117 0.013935 -0.003709 -0.000867 -0.002957 0.003303
# 3 -0.003436 -0.003709 0.017297 0.003726 -0.004122 -0.000846
# 4 0.003381 -0.000867 0.003726 0.024511 0.004875 -0.000522
# 5 0.000705 -0.002957 -0.004122 0.004875 0.034001 -0.000605
# 6 0.004171 0.003303 -0.000846 -0.000522 -0.000605 0.018048
#
#
# Mechanical properties :
#
#
# Convention : Reuss Voigt Hill
#
# Bulk Modulus (GPa) = 39.14092 51.30655 45.22374
# Shear Modulus (GPa) = 32.96611 40.60218 36.78415
#
# Velocity S-wave (km/s) = 3.57665 3.96934 3.77810
# Velocity P-wave (km/s) = 5.67849 6.39664 6.04823
#
# Compressibility (1/GPa) = 0.02554871
#
# Stress axis : x y z
#
# Youngs Moduli (GPa) = 67.38507 71.76324 57.81466
#
# Poissons Ratio (x) = 0.22368 0.19864
# Poissons Ratio (y) = 0.21004 0.21441
# Poissons Ratio (z) = 0.23153 0.26614
#
# Static dielectric constant tensor:
#      x y z
#    x 4.160500 -0.518630 -0.666180 
#    y -0.518630 4.828660 -0.260740 
#    z -0.666180 -0.260740 4.045950 
# 
# 
# High freq. dielectric constant tensor:
#      x y z
#    x 2.043700 -0.010620 0.008250 
#    y -0.010620 2.048030 0.005940 
#    z 0.008250 0.005940 2.024500 
# 
# From -- ./inp_files/180612.got.cif
#   From: 2010.06.25/outbox.cif.g09.slc.cpg/sg2_91_cif.got.tgz:180612.got - 2010.06.27 13:26:56.
