data_PCOD8026702
_publ_section_title
;
Structure prediction by ZEFSAII (Michael W. Deem and Ramdas Pophale) SiO2 
 PCOD8026702
Probable space group: P -1
;
_chemical_formula_sum "Si O2"
_cell_formula_units_Z 16
_cell_length_a 16.908837
_cell_length_b 11.103209
_cell_length_c 6.512379
_cell_angle_alpha 49.274614
_cell_angle_beta 107.988167
_cell_angle_gamma 130.555726
_cell_volume 689.710790
_symmetry_space_group_name_H-M "P -1"
_symmetry_group_IT_number 2
_symmetry_cell_setting 'triclinic'
loop_
_space_group_symop_operation_xyz
x,y,z
-x,-y,-z
loop_
_atom_site_type_symbol
_atom_site_label
_atom_site_fract_x
_atom_site_fract_y
_atom_site_fract_z
Si Si1 0.313460 0.379274 0.290228
Si Si2 0.982910 0.234940 0.736740
Si Si3 0.233217 0.171725 0.053876
Si Si4 0.803701 0.593785 0.483043
Si Si5 0.930310 0.465440 0.178192
Si Si6 0.359509 0.154400 0.846592
Si Si7 0.724647 0.214491 0.039879
Si Si8 0.541346 0.161432 0.167662
O O1 0.255176 0.193706 0.288229
O O2 0.219500 0.350675 0.376768
O O3 0.386598 0.350815 0.526510
O O4 0.385307 0.596739 0.987625
O O5 0.071527 0.273521 0.610226
O O6 0.027611 0.325549 0.902130
O O7 0.928735 0.327009 0.499544
O O8 0.888716 0.994765 0.931610
O O9 0.258591 0.381117 0.767270
O O10 0.309635 0.135137 0.048834
O O11 0.753847 0.359052 0.706818
O O12 0.809568 0.345395 0.143292
O O13 0.000000 0.500000 0.000000
O O14 0.273403 0.962541 0.846153
O O15 0.450851 0.134353 0.984535
O O16 0.607707 0.119190 0.130080
O O17 0.500000 0.000000 0.500000
#
# Coordination Sequence:
#
# PCOD8026702 Si02
#       8
#     2   2   2   2   2   2   2   2
#     4  10  25  49  70  98 143 184 224 283 353 408
#     4  11  24  39  67 103 136 183 233 273 337 408
#     4  11  25  43  70 101 140 183 228 278 345 412
#     4  10  24  43  65 102 137 183 223 290 329 409
#     4  11  23  41  66 101 139 179 224 282 341 404
#     4  11  25  47  70 101 140 180 233 282 348 411
#     4  11  24  46  71  99 141 180 230 288 345 401
#     4  11  27  45  74 106 130 182 233 290 346 409
#
# _framework density 23.198129000000002
#
# number of rings (size 3 to 8) (size 9 to 14) (size 15 to 20)
#    0.000    1.250    1.250    2.625   10.500    2.000 
#    2.250    0.000    0.000    0.000    0.000    0.000 
#    0.000    0.000    0.000    0.000    0.000    0.000 
#
# Total GULP energy -198267.009440 kJ/mol
# GULP energy per Si atom -12391.688090 kJ/mol
# Density = 2.314533 g / cm^3
# Si number density = 23.198129 Si / 1000 Ang^3
#
#
#
# Elastic Constant Matrix: (Units=GPa)
#
#
# Indices 1 2 3 4 5 6 
#
# 1 131.4666 47.9902 51.0807 6.8351 -5.2080 5.2217
# 2 47.9902 123.1463 43.9170 11.9088 -9.3895 -10.5264
# 3 51.0807 43.9170 115.1319 0.0717 4.7164 -3.5276
# 4 6.8351 11.9088 0.0717 23.7513 -4.5490 1.8668
# 5 -5.2080 -9.3895 4.7164 -4.5490 38.2243 0.1351
# 6 5.2217 -10.5264 -3.5276 1.8668 0.1351 32.6690
#
#
#
# Elastic Compliance Matrix: (Units=1/GPa)
#
#
# Indices 1 2 3 4 5 6 
#
# 1 0.010230 -0.002751 -0.003619 -0.001130 0.001040 -0.002852
# 2 -0.002751 0.011239 -0.003030 -0.004730 0.002183 0.003995
# 3 -0.003619 -0.003030 0.011568 0.002002 -0.002429 0.000747
# 4 -0.001130 -0.004730 0.002002 0.045838 0.003905 -0.003763
# 5 0.001040 0.002183 -0.002429 0.003905 0.027604 -0.000063
# 6 -0.002852 0.003995 0.000747 -0.003763 -0.000063 0.032649
#
#
# Mechanical properties :
#
#
# Convention : Reuss Voigt Hill
#
# Bulk Modulus (GPa) = 70.24264 72.85786 71.55025
# Shear Modulus (GPa) = 30.73639 34.04604 32.39122
#
# Velocity S-wave (km/s) = 3.64394 3.83511 3.74074
# Velocity P-wave (km/s) = 6.93178 7.14743 7.04043
#
# Compressibility (1/GPa) = 0.01423637
#
# Stress axis : x y z
#
# Youngs Moduli (GPa) = 97.75099 88.97852 86.44388
#
# Poissons Ratio (x) = 0.24482 0.31280
# Poissons Ratio (y) = 0.26895 0.26195
# Poissons Ratio (z) = 0.35372 0.26963
#
# Static dielectric constant tensor:
#      x y z
#    x 4.163020 -0.101310 0.150220 
#    y -0.101310 4.124920 -0.170540 
#    z 0.150220 -0.170540 4.325600 
# 
# 
# High freq. dielectric constant tensor:
#      x y z
#    x 1.925410 -0.008170 0.011120 
#    y -0.008170 1.905610 -0.005590 
#    z 0.011120 -0.005590 1.923400 
# 
# From -- ./inp_files/109502.got.cif
#   From: 2010.06.25/outbox.cif.g09.slc.cpg/sg2_55_cif.got.tgz:109502.got - 2010.06.27 13:26:56.
