data_PCOD8026934
_publ_section_title
;
Structure prediction by ZEFSAII (Michael W. Deem and Ramdas Pophale) SiO2 
 PCOD8026934
Probable space group: P -1
;
_chemical_formula_sum "Si O2"
_cell_formula_units_Z 12
_cell_length_a 14.864510
_cell_length_b 5.645852
_cell_length_c 15.433371
_cell_angle_alpha 86.711920
_cell_angle_beta 26.588276
_cell_angle_gamma 73.373177
_cell_volume 492.372392
_symmetry_space_group_name_H-M "P -1"
_symmetry_group_IT_number 2
_symmetry_cell_setting 'triclinic'
loop_
_space_group_symop_operation_xyz
x,y,z
-x,-y,-z
loop_
_atom_site_type_symbol
_atom_site_label
_atom_site_fract_x
_atom_site_fract_y
_atom_site_fract_z
Si Si1 0.778677 0.029064 0.750850
Si Si2 0.110983 0.526243 0.110872
Si Si3 0.786069 0.300902 0.152978
Si Si4 0.344614 0.311026 0.596140
Si Si5 0.000623 0.376427 0.602969
Si Si6 0.512228 0.009458 0.132777
O O1 0.576157 0.158275 0.848559
O O2 0.894651 0.686422 0.646911
O O3 0.949813 0.159603 0.595457
O O4 0.646184 0.121760 0.955775
O O5 0.844696 0.621921 0.316177
O O6 0.108096 0.617750 0.210107
O O7 0.198838 0.665214 0.963331
O O8 0.300371 0.193504 0.951789
O O9 0.520671 0.385864 0.399313
O O10 0.807847 0.514767 0.192388
O O11 0.000000 0.000000 0.000000
O O12 0.500000 0.000000 0.500000
O O13 0.280682 0.253080 0.375064
#
# Coordination Sequence:
#
# PCOD8026934 Si02
#       6
#     2   2   2   2   2   2
#     4  10  24  46  69 103 139 192 230 280 354 409
#     4  11  26  41  67 105 131 175 231 284 343 412
#     4  11  25  44  72  96 132 180 229 288 350 417
#     4  11  25  46  69  95 134 180 226 282 351 420
#     4  11  25  44  71 102 143 183 234 286 345 416
#     4  10  24  43  71  99 143 180 232 289 340 416
#
# _framework density 24.371796
#
# number of rings (size 3 to 8) (size 9 to 14) (size 15 to 20)
#    0.000    1.333    1.667    1.500    2.333   15.333 
#    0.000    0.000    0.000    0.000    0.000    0.000 
#    0.000    0.000    0.000    0.000    0.000    0.000 
#
# Total GULP energy -148683.642241 kJ/mol
# GULP energy per Si atom -12390.303520 kJ/mol
# Density = 2.431632 g / cm^3
# Si number density = 24.371796 Si / 1000 Ang^3
#
#
#
# Elastic Constant Matrix: (Units=GPa)
#
#
# Indices 1 2 3 4 5 6 
#
# 1 84.6580 72.2453 33.3454 16.3363 -10.1340 -10.3983
# 2 72.2453 114.3681 58.8764 -8.4637 13.8863 -14.5774
# 3 33.3454 58.8764 158.2130 8.0502 -8.3922 -4.6773
# 4 16.3363 -8.4637 8.0502 45.7868 -1.2111 1.5204
# 5 -10.1340 13.8863 -8.3922 -1.2111 49.1422 6.9615
# 6 -10.3983 -14.5774 -4.6773 1.5204 6.9615 43.7099
#
#
#
# Elastic Compliance Matrix: (Units=1/GPa)
#
#
# Indices 1 2 3 4 5 6 
#
# 1 0.053125 -0.042728 0.007266 -0.027369 0.024123 -0.003724
# 2 -0.042728 0.047078 -0.010860 0.024966 -0.024401 0.007392
# 3 0.007266 -0.010860 0.009420 -0.006035 0.006264 -0.001673
# 4 -0.027369 0.024966 -0.006035 0.036869 -0.013100 0.001974
# 5 0.024123 -0.024401 0.006264 -0.013100 0.033911 -0.006674
# 6 -0.003724 0.007392 -0.001673 0.001974 -0.006674 0.025272
#
#
# Mechanical properties :
#
#
# Convention : Reuss Voigt Hill
#
# Bulk Modulus (GPa) = 58.89636 76.24147 67.56891
# Shear Modulus (GPa) = 16.44839 40.57925 28.51382
#
# Velocity S-wave (km/s) = 2.60069 4.08488 3.42417
# Velocity P-wave (km/s) = 5.76510 7.32113 6.58921
#
# Compressibility (1/GPa) = 0.01697898
#
# Stress axis : x y z
#
# Youngs Moduli (GPa) = 18.82338 21.24136 106.15248
#
# Poissons Ratio (x) = 0.90761 -0.77130
# Poissons Ratio (y) = 0.80429 1.15280
# Poissons Ratio (z) = -0.13677 0.23068
#
# Static dielectric constant tensor:
#      x y z
#    x 1.664100 0.446550 1.404220 
#    y 0.446550 4.033230 -0.238240 
#    z 1.404220 -0.238240 3.860210 
# 
# 
# High freq. dielectric constant tensor:
#      x y z
#    x 1.963530 -0.017510 0.012960 
#    y -0.017510 1.955440 -0.013170 
#    z 0.012960 -0.013170 2.010230 
# 
# From -- ./inp_files/571541.got.cif
#   From: 2010.06.25/outbox.cif.g09.slc.cpg/sg2_286_cif.got.tgz:571541.got - 2010.06.27 13:26:56.
