data_PCOD8026800
_publ_section_title
;
Structure prediction by ZEFSAII (Michael W. Deem and Ramdas Pophale) SiO2 
 PCOD8026800
Probable space group: P -1
;
_chemical_formula_sum "Si O2"
_cell_formula_units_Z 16
_cell_length_a 8.605760
_cell_length_b 8.969244
_cell_length_c 21.401214
_cell_angle_alpha 147.850988
_cell_angle_beta 62.718889
_cell_angle_gamma 116.488269
_cell_volume 775.354535
_symmetry_space_group_name_H-M "P -1"
_symmetry_group_IT_number 2
_symmetry_cell_setting 'triclinic'
loop_
_space_group_symop_operation_xyz
x,y,z
-x,-y,-z
loop_
_atom_site_type_symbol
_atom_site_label
_atom_site_fract_x
_atom_site_fract_y
_atom_site_fract_z
Si Si1 0.520174 0.220449 0.755613
Si Si2 0.802844 0.041738 0.722738
Si Si3 0.772386 0.219188 0.294381
Si Si4 0.055509 0.814384 0.120651
Si Si5 0.395120 0.752595 0.391977
Si Si6 0.511654 0.221080 0.238537
Si Si7 0.574262 0.172425 0.988890
Si Si8 0.996647 0.796079 0.488384
O O1 0.686476 0.254360 0.784206
O O2 0.594502 0.182018 0.659809
O O3 0.386339 0.935761 0.689570
O O4 0.421665 0.494242 0.882630
O O5 0.920295 0.184098 0.808176
O O6 0.658010 0.797950 0.690858
O O7 0.941654 0.941877 0.613321
O O8 0.695695 0.275878 0.260484
O O9 0.852765 0.522315 0.412552
O O10 0.922019 0.016622 0.191287
O O11 0.233314 0.918675 0.088504
O O12 0.000000 0.500000 0.000000
O O13 0.491549 0.477068 0.286657
O O14 0.189964 0.706278 0.432522
O O15 0.500000 0.000000 0.500000
O O16 0.527683 0.935666 0.094270
O O17 0.500000 0.000000 0.000000
O O18 0.000000 0.000000 0.500000
#
# Coordination Sequence:
#
# PCOD8026800 Si02
#       8
#     2   2   2   2   2   2   2   2
#     4  11  24  44  69 100 134 184 223 278 344 408
#     4  10  25  42  70  97 134 180 226 276 341 402
#     4  11  26  44  70  98 139 176 232 276 339 406
#     4  11  24  43  67 103 133 175 231 282 335 401
#     4  12  26  43  69 101 140 176 227 280 343 409
#     4  10  24  43  68 102 133 183 225 273 347 405
#     4  11  22  43  68  95 139 176 224 281 342 400
#     4  12  25  46  70 102 140 176 228 289 335 402
#
# _framework density 20.635719999999999
#
# number of rings (size 3 to 8) (size 9 to 14) (size 15 to 20)
#    0.000    1.000    3.750    2.250    5.250    3.500 
#    2.250    0.625    0.000    0.000    0.000    0.000 
#    0.000    0.000    0.000    0.000    0.000    0.000 
#
# Total GULP energy -198364.079220 kJ/mol
# GULP energy per Si atom -12397.754951 kJ/mol
# Density = 2.058875 g / cm^3
# Si number density = 20.635720 Si / 1000 Ang^3
#
#
#
# Elastic Constant Matrix: (Units=GPa)
#
#
# Indices 1 2 3 4 5 6 
#
# 1 147.0534 45.2580 55.4432 -7.5463 4.4707 -5.7946
# 2 45.2580 116.1469 57.4653 -9.4998 5.5823 -3.8119
# 3 55.4432 57.4653 121.4939 -6.6625 8.7198 6.2734
# 4 -7.5463 -9.4998 -6.6625 41.0296 3.9300 -4.9926
# 5 4.4707 5.5823 8.7198 3.9300 35.9965 6.1271
# 6 -5.7946 -3.8119 6.2734 -4.9926 6.1271 27.5207
#
#
#
# Elastic Compliance Matrix: (Units=1/GPa)
#
#
# Indices 1 2 3 4 5 6 
#
# 1 0.008693 -0.001566 -0.003260 0.001094 -0.000625 0.002694
# 2 -0.001566 0.011990 -0.004908 0.002191 -0.001247 0.003125
# 3 -0.003260 -0.004908 0.012319 -0.000106 -0.001136 -0.003941
# 4 0.001094 0.002191 -0.000106 0.026250 -0.004388 0.006297
# 5 -0.000625 -0.001247 -0.001136 -0.004388 0.030089 -0.007540
# 6 0.002694 0.003125 -0.003941 0.006297 -0.007540 0.041056
#
#
# Mechanical properties :
#
#
# Convention : Reuss Voigt Hill
#
# Bulk Modulus (GPa) = 73.89409 77.89192 75.89301
# Shear Modulus (GPa) = 32.38795 36.01121 34.19958
#
# Velocity S-wave (km/s) = 3.96600 4.18196 4.07541
# Velocity P-wave (km/s) = 7.54048 7.81962 7.68132
#
# Compressibility (1/GPa) = 0.01353288
#
# Stress axis : x y z
#
# Youngs Moduli (GPa) = 115.03690 83.40186 81.17246
#
# Poissons Ratio (x) = 0.13062 0.26466
# Poissons Ratio (y) = 0.18017 0.39841
# Poissons Ratio (z) = 0.37507 0.40935
#
# Static dielectric constant tensor:
#      x y z
#    x 4.009930 -0.124140 -0.006860 
#    y -0.124140 4.562320 0.535760 
#    z -0.006860 0.535760 4.142970 
# 
# 
# High freq. dielectric constant tensor:
#      x y z
#    x 1.820760 -0.002370 0.001530 
#    y -0.002370 1.810820 -0.003550 
#    z 0.001530 -0.003550 1.810340 
# 
# From -- ./inp_files/185350.got.cif
#   From: 2010.06.25/outbox.cif.g09.slc.cpg/sg2_93_cif.got.tgz:185350.got - 2010.06.27 13:26:56.
