data_PCOD8026060
_publ_section_title
;
Structure prediction by ZEFSAII (Michael W. Deem and Ramdas Pophale) SiO2 
 PCOD8026060
Probable space group: P -1
;
_chemical_formula_sum "Si O2"
_cell_formula_units_Z 14
_cell_length_a 8.867325
_cell_length_b 20.378114
_cell_length_c 6.774446
_cell_angle_alpha 71.130508
_cell_angle_beta 88.285771
_cell_angle_gamma 34.963996
_cell_volume 598.158349
_symmetry_space_group_name_H-M "P -1"
_symmetry_group_IT_number 2
_symmetry_cell_setting 'triclinic'
loop_
_space_group_symop_operation_xyz
x,y,z
-x,-y,-z
loop_
_atom_site_type_symbol
_atom_site_label
_atom_site_fract_x
_atom_site_fract_y
_atom_site_fract_z
Si Si1 0.327737 0.395758 0.064726
Si Si2 0.594462 0.269369 0.759794
Si Si3 0.912258 0.371784 0.148578
Si Si4 0.224481 0.171825 0.978125
Si Si5 0.434039 0.235213 0.479359
Si Si6 0.717439 0.364965 0.508548
Si Si7 0.762579 0.988690 0.885157
O O1 0.532302 0.259806 0.305547
O O2 0.423450 0.360144 0.870383
O O3 0.000000 0.500000 0.000000
O O4 0.326082 0.476758 0.062233
O O5 0.416977 0.276452 0.658096
O O6 0.603349 0.331174 0.550607
O O7 0.919936 0.115435 0.947196
O O8 0.089717 0.273387 0.052164
O O9 0.124396 0.325815 0.342269
O O10 0.746397 0.376189 0.267759
O O11 0.243263 0.085478 0.142538
O O12 0.030964 0.246596 0.716346
O O13 0.539671 0.077446 0.994369
O O14 0.670991 0.079944 0.630578
O O15 0.500000 0.500000 0.500000
#
# Coordination Sequence:
#
# PCOD8026060 Si02
#       7
#     2   2   2   2   2   2   2
#     4  10  25  42  64 105 135 176 224 273 349 407
#     4  11  25  45  68 102 141 176 228 286 334 410
#     4  11  24  44  73 103 133 181 229 281 347 406
#     4  10  24  45  71 100 139 175 233 290 331 407
#     4  11  25  44  69 100 135 186 221 274 352 399
#     4  11  23  44  71 102 136 180 227 281 349 393
#     4  10  23  48  68  98 138 185 231 279 339 400
#
# _framework density 23.405173000000001
#
# number of rings (size 3 to 8) (size 9 to 14) (size 15 to 20)
#    0.000    1.429    2.857    0.429    6.000    6.286 
#    2.571    0.000    0.000    0.000    0.000    0.000 
#    0.000    0.000    0.000    0.000    0.000    0.000 
#
# Total GULP energy -173560.229126 kJ/mol
# GULP energy per Si atom -12397.159223 kJ/mol
# Density = 2.335190 g / cm^3
# Si number density = 23.405173 Si / 1000 Ang^3
#
#
#
# Elastic Constant Matrix: (Units=GPa)
#
#
# Indices 1 2 3 4 5 6 
#
# 1 94.7496 42.4857 50.0363 -2.8233 -15.2484 15.0018
# 2 42.4857 101.0335 37.3145 8.4766 -18.1877 16.6618
# 3 50.0363 37.3145 96.2294 -17.7656 -43.0196 18.6329
# 4 -2.8233 8.4766 -17.7656 43.6236 11.2125 -10.3259
# 5 -15.2484 -18.1877 -43.0196 11.2125 48.6409 -6.3656
# 6 15.0018 16.6618 18.6329 -10.3259 -6.3656 42.7682
#
#
#
# Elastic Compliance Matrix: (Units=1/GPa)
#
#
# Indices 1 2 3 4 5 6 
#
# 1 0.016553 -0.004193 -0.008725 -0.000911 -0.004042 -0.001193
# 2 -0.004193 0.014143 -0.002399 -0.005608 0.002627 -0.003957
# 3 -0.008725 -0.002399 0.024920 0.004973 0.016849 -0.003153
# 4 -0.000911 -0.005608 0.004973 0.028505 -0.003682 0.006672
# 5 -0.004042 0.002627 0.016849 -0.003682 0.035694 -0.002523
# 6 -0.001193 -0.003957 -0.003153 0.006672 -0.002523 0.027951
#
#
# Mechanical properties :
#
#
# Convention : Reuss Voigt Hill
#
# Bulk Modulus (GPa) = 40.02816 61.29842 50.66329
# Shear Modulus (GPa) = 26.77704 37.81826 32.29765
#
# Velocity S-wave (km/s) = 3.38607 4.02407 3.71878
# Velocity P-wave (km/s) = 5.69445 6.91649 6.33500
#
# Compressibility (1/GPa) = 0.02498241
#
# Stress axis : x y z
#
# Youngs Moduli (GPa) = 60.41113 70.70778 40.12882
#
# Poissons Ratio (x) = 0.29645 0.35014
# Poissons Ratio (y) = 0.25328 0.09625
# Poissons Ratio (z) = 0.52711 0.16960
#
# Static dielectric constant tensor:
#      x y z
#    x 4.603460 0.254800 -0.595920 
#    y 0.254800 4.193040 -0.486250 
#    z -0.595920 -0.486250 4.636430 
# 
# 
# High freq. dielectric constant tensor:
#      x y z
#    x 1.939820 0.012720 -0.014590 
#    y 0.012720 1.919220 -0.020220 
#    z -0.014590 -0.020220 1.925110 
# 
# From -- ./inp_files/52738.got.cif
#   From: 2010.06.25/outbox.cif.g09.slc.cpg/sg2_27_cif.got.tgz:52738.got - 2010.06.27 13:26:56.
