data_PCOD8026649
_publ_section_title
;
Structure prediction by ZEFSAII (Michael W. Deem and Ramdas Pophale) SiO2 
 PCOD8026649
Probable space group: P -1
;
_chemical_formula_sum "Si O2"
_cell_formula_units_Z 16
_cell_length_a 19.824373
_cell_length_b 5.907909
_cell_length_c 8.214447
_cell_angle_alpha 121.362821
_cell_angle_beta 117.725380
_cell_angle_gamma 81.679037
_cell_volume 721.125695
_symmetry_space_group_name_H-M "P -1"
_symmetry_group_IT_number 2
_symmetry_cell_setting 'triclinic'
loop_
_space_group_symop_operation_xyz
x,y,z
-x,-y,-z
loop_
_atom_site_type_symbol
_atom_site_label
_atom_site_fract_x
_atom_site_fract_y
_atom_site_fract_z
Si Si1 0.280129 0.896241 0.686780
Si Si2 0.041070 0.250567 0.528244
Si Si3 0.249342 0.345981 0.316077
Si Si4 0.175915 0.536620 0.002879
Si Si5 0.843729 0.952085 0.635576
Si Si6 0.697603 0.152582 0.945275
Si Si7 0.443775 0.202188 0.961479
Si Si8 0.472917 0.769770 0.256565
O O1 0.299159 0.632246 0.512073
O O2 0.207520 0.002990 0.562761
O O3 0.354204 0.111386 0.839907
O O4 0.259010 0.847569 0.833781
O O5 0.073460 0.110908 0.354794
O O6 0.000000 0.500000 0.500000
O O7 0.111167 0.386415 0.762959
O O8 0.000000 0.000000 0.500000
O O9 0.193965 0.344980 0.097723
O O10 0.197464 0.294742 0.399444
O O11 0.304646 0.122008 0.262862
O O12 0.255234 0.612790 0.019819
O O13 0.143743 0.795763 0.136147
O O14 0.609317 0.185705 0.895064
O O15 0.460689 0.248941 0.807669
O O16 0.460322 0.464965 0.195250
O O17 0.500000 0.000000 0.000000
O O18 0.500000 0.000000 0.500000
#
# Coordination Sequence:
#
# PCOD8026649 Si02
#       8
#     2   2   2   2   2   2   2   2
#     4  11  24  41  72  98 138 184 238 291 356 418
#     4  12  30  48  77 110 148 191 236 297 371 438
#     4  10  24  42  73 101 136 180 241 289 346 418
#     4  10  25  46  71 105 143 182 244 279 353 431
#     4  10  25  46  73 103 142 185 233 293 347 431
#     4  11  24  41  70 102 134 189 233 298 343 430
#     4  11  26  45  62  98 136 188 233 297 357 423
#     4  11  28  42  65  96 143 181 241 292 363 418
#
# _framework density 22.187529999999999
#
# number of rings (size 3 to 8) (size 9 to 14) (size 15 to 20)
#    0.000    1.250    1.250    1.500   21.000    1.500 
#    0.000    0.000    0.000    0.000    0.000    0.000 
#    0.000    0.000    0.000    0.000    0.000    0.000 
#
# Total GULP energy -198281.305791 kJ/mol
# GULP energy per Si atom -12392.581612 kJ/mol
# Density = 2.213703 g / cm^3
# Si number density = 22.187530 Si / 1000 Ang^3
#
#
#
# Elastic Constant Matrix: (Units=GPa)
#
#
# Indices 1 2 3 4 5 6 
#
# 1 102.4065 31.6827 16.2080 4.1739 -12.9228 -4.7631
# 2 31.6827 114.6330 30.1409 9.3065 -0.7854 4.1142
# 3 16.2080 30.1409 104.4744 16.4499 -5.8980 3.9467
# 4 4.1739 9.3065 16.4499 38.3103 5.8750 -10.8665
# 5 -12.9228 -0.7854 -5.8980 5.8750 27.8229 -0.7051
# 6 -4.7631 4.1142 3.9467 -10.8665 -0.7051 28.3731
#
#
#
# Elastic Compliance Matrix: (Units=1/GPa)
#
#
# Indices 1 2 3 4 5 6 
#
# 1 0.011616 -0.003062 -0.000658 -0.000348 0.005306 0.002484
# 2 -0.003062 0.010372 -0.002232 -0.001707 -0.001303 -0.002394
# 3 -0.000658 -0.002232 0.011555 -0.005851 0.003226 -0.003555
# 4 -0.000348 -0.001707 -0.005851 0.034298 -0.008339 0.013931
# 5 0.005306 -0.001303 0.003226 -0.008339 0.040775 -0.001550
# 6 0.002484 -0.002394 -0.003555 0.013931 -0.001550 0.041800
#
#
# Mechanical properties :
#
#
# Convention : Reuss Voigt Hill
#
# Bulk Modulus (GPa) = 46.21139 53.06412 49.63776
# Shear Modulus (GPa) = 29.49280 35.13341 32.31311
#
# Velocity S-wave (km/s) = 3.64985 3.98361 3.82037
# Velocity P-wave (km/s) = 6.21568 6.71766 6.47154
#
# Compressibility (1/GPa) = 0.02163968
#
# Stress axis : x y z
#
# Youngs Moduli (GPa) = 86.09021 96.41263 86.54000
#
# Poissons Ratio (x) = 0.29520 0.05696
# Poissons Ratio (y) = 0.26360 0.19313
# Poissons Ratio (z) = 0.05666 0.21516
#
# Static dielectric constant tensor:
#      x y z
#    x -40.456220 -21.875000 -13.723920 
#    y -21.875000 -6.273820 -6.453310 
#    z -13.723920 -6.453310 -0.069710 
# 
# 
# High freq. dielectric constant tensor:
#      x y z
#    x 1.871950 0.000730 -0.016200 
#    y 0.000730 1.888970 0.013010 
#    z -0.016200 0.013010 1.875850 
# 
# From -- ./inp_files/138782.got.cif
#   From: 2010.06.25/outbox.cif.g09.slc.cpg/sg2_70_cif.got.tgz:138782.got - 2010.06.27 13:26:56.
