data_PCOD8026815
_publ_section_title
;
Structure prediction by ZEFSAII (Michael W. Deem and Ramdas Pophale) SiO2 
 PCOD8026815
Probable space group: P -1
;
_chemical_formula_sum "Si O2"
_cell_formula_units_Z 14
_cell_length_a 6.459525
_cell_length_b 14.354565
_cell_length_c 14.028300
_cell_angle_alpha 146.669380
_cell_angle_beta 73.052020
_cell_angle_gamma 95.178061
_cell_volume 653.957257
_symmetry_space_group_name_H-M "P -1"
_symmetry_group_IT_number 2
_symmetry_cell_setting 'triclinic'
loop_
_space_group_symop_operation_xyz
x,y,z
-x,-y,-z
loop_
_atom_site_type_symbol
_atom_site_label
_atom_site_fract_x
_atom_site_fract_y
_atom_site_fract_z
Si Si1 0.072265 0.673841 0.663235
Si Si2 0.753216 0.377368 0.860821
Si Si3 0.808383 0.054668 0.250165
Si Si4 0.237188 0.717736 0.872808
Si Si5 0.170001 0.485175 0.844631
Si Si6 0.421265 0.853287 0.440102
Si Si7 0.395710 0.107311 0.013994
O O1 0.148239 0.761697 0.634715
O O2 0.259970 0.651825 0.702908
O O3 0.000000 0.500000 0.500000
O O4 0.863884 0.808319 0.857318
O O5 0.748300 0.198014 0.656114
O O6 0.922083 0.459252 0.848857
O O7 0.500000 0.500000 0.000000
O O8 0.838214 0.358598 0.943262
O O9 0.728546 0.070906 0.383135
O O10 0.604345 0.017099 0.183793
O O11 0.038159 0.895123 0.074541
O O12 0.217102 0.548971 0.789479
O O13 0.472689 0.748797 0.901225
O O14 0.360414 0.306046 0.695471
O O15 0.500000 0.000000 0.500000
O O16 0.500000 0.000000 0.000000
#
# Coordination Sequence:
#
# PCOD8026815 Si02
#       7
#     2   2   2   2   2   2   2
#     4  11  25  41  64  98 135 163 211 271 317 380
#     4   9  22  44  66  87 131 164 221 264 318 377
#     4  11  25  42  64  95 133 171 213 266 320 376
#     4  11  24  42  69  92 128 173 214 259 322 388
#     4  10  24  43  68  94 122 175 219 259 328 383
#     4  11  27  43  64  97 135 165 215 274 320 377
#     4  11  21  44  66  90 129 173 215 252 321 389
#
# _framework density 21.408124999999998
#
# number of rings (size 3 to 8) (size 9 to 14) (size 15 to 20)
#    0.000    1.429    2.857    0.857   12.000    5.714 
#    0.000    0.000    0.000    0.000    0.000    0.000 
#    0.000    0.000    0.000    0.000    0.000    0.000 
#
# Total GULP energy -173529.819278 kJ/mol
# GULP energy per Si atom -12394.987091 kJ/mol
# Density = 2.135940 g / cm^3
# Si number density = 21.408125 Si / 1000 Ang^3
#
#
#
# Elastic Constant Matrix: (Units=GPa)
#
#
# Indices 1 2 3 4 5 6 
#
# 1 113.1340 35.0966 31.1884 2.9795 29.8162 20.4076
# 2 35.0966 159.6946 45.5134 5.0443 14.2029 16.0808
# 3 31.1884 45.5134 85.7913 -9.1812 32.0598 0.0706
# 4 2.9795 5.0443 -9.1812 36.5979 0.8245 -0.3564
# 5 29.8162 14.2029 32.0598 0.8245 42.7294 2.3591
# 6 20.4076 16.0808 0.0706 -0.3564 2.3591 33.9906
#
#
#
# Elastic Compliance Matrix: (Units=1/GPa)
#
#
# Indices 1 2 3 4 5 6 
#
# 1 0.012640 -0.000997 -0.001617 -0.001207 -0.006885 -0.006648
# 2 -0.000997 0.008127 -0.004912 -0.002347 0.001913 -0.003393
# 3 -0.001617 -0.004912 0.020307 0.006233 -0.012828 0.004208
# 4 -0.001207 -0.002347 0.006233 0.029417 -0.003754 0.002391
# 5 -0.006885 0.001913 -0.012828 -0.003754 0.037234 0.000632
# 6 -0.006648 -0.003393 0.004208 0.002391 0.000632 0.034989
#
#
# Mechanical properties :
#
#
# Convention : Reuss Voigt Hill
#
# Bulk Modulus (GPa) = 38.42926 64.69075 51.56000
# Shear Modulus (GPa) = 30.04077 39.11835 34.57956
#
# Velocity S-wave (km/s) = 3.75005 4.27929 4.02338
# Velocity P-wave (km/s) = 6.06137 7.39594 6.76166
#
# Compressibility (1/GPa) = 0.02602184
#
# Stress axis : x y z
#
# Youngs Moduli (GPa) = 79.11577 123.05027 49.24334
#
# Poissons Ratio (x) = 0.12270 0.07962
# Poissons Ratio (y) = 0.07889 0.24188
# Poissons Ratio (z) = 0.12792 0.60442
#
# Static dielectric constant tensor:
#      x y z
#    x 4.587390 0.122440 0.354520 
#    y 0.122440 3.876910 -0.170820 
#    z 0.354520 -0.170820 3.929760 
# 
# 
# High freq. dielectric constant tensor:
#      x y z
#    x 1.857380 0.006700 0.013990 
#    y 0.006700 1.839960 -0.008600 
#    z 0.013990 -0.008600 1.831980 
# 
# From -- ./inp_files/37088.got.cif
#   From: 2010.06.25/outbox.cif.g09.slc.cpg/sg2_19_cif.got.tgz:37088.got - 2010.06.27 13:26:56.
