data_PCOD8026475
_publ_section_title
;
Structure prediction by ZEFSAII (Michael W. Deem and Ramdas Pophale) SiO2 
 PCOD8026475
Probable space group: P -1
;
_chemical_formula_sum "Si O2"
_cell_formula_units_Z 16
_cell_length_a 15.648134
_cell_length_b 11.342225
_cell_length_c 15.330844
_cell_angle_alpha 151.822379
_cell_angle_beta 140.092220
_cell_angle_gamma 57.255510
_cell_volume 737.566273
_symmetry_space_group_name_H-M "P -1"
_symmetry_group_IT_number 2
_symmetry_cell_setting 'triclinic'
loop_
_space_group_symop_operation_xyz
x,y,z
-x,-y,-z
loop_
_atom_site_type_symbol
_atom_site_label
_atom_site_fract_x
_atom_site_fract_y
_atom_site_fract_z
Si Si1 0.799054 0.468688 0.887209
Si Si2 0.121599 0.870371 0.407729
Si Si3 0.848217 0.521759 0.690278
Si Si4 0.194919 0.813209 0.125547
Si Si5 0.612972 0.589003 0.274344
Si Si6 0.663699 0.678557 0.779598
Si Si7 0.369221 0.818901 0.845232
Si Si8 0.699160 0.519999 0.110787
O O1 0.839716 0.246135 0.725458
O O2 0.741870 0.327647 0.843811
O O3 0.674279 0.521095 0.773211
O O4 0.944292 0.766305 0.204609
O O5 0.174927 0.759490 0.461342
O O6 0.201475 0.202273 0.685233
O O7 0.783647 0.691725 0.810170
O O8 0.763686 0.429356 0.472232
O O9 0.020606 0.725581 0.941773
O O10 0.284349 0.144766 0.413939
O O11 0.231950 0.699382 0.990691
O O12 0.567249 0.315309 0.119452
O O13 0.707456 0.577865 0.257761
O O14 0.468491 0.612292 0.142356
O O15 0.500000 0.500000 0.500000
O O16 0.693096 0.990210 0.029496
O O17 0.500000 0.000000 0.000000
#
# Coordination Sequence:
#
# PCOD8026475 Si02
#       8
#     2   2   2   2   2   2   2   2
#     4   9  20  36  68  98 131 164 215 269 322 381
#     4   9  18  39  66  99 132 164 210 277 322 374
#     4  10  24  42  66 102 133 170 223 270 322 387
#     4  11  24  43  69  98 131 174 217 274 330 387
#     4  11  27  45  63  97 136 168 221 273 327 396
#     4  11  24  40  66 100 135 172 211 275 325 376
#     4  12  26  45  68  95 129 176 223 265 326 400
#     4  11  24  41  69  96 132 173 218 270 335 384
#
# _framework density 21.692964
#
# number of rings (size 3 to 8) (size 9 to 14) (size 15 to 20)
#    0.000    1.500    2.500    1.875    7.000    2.500 
#    0.000    1.250    0.000    0.000    0.000    0.000 
#    0.000    0.000    0.000    0.000    0.000    0.000 
#
# Total GULP energy -198465.483534 kJ/mol
# GULP energy per Si atom -12404.092721 kJ/mol
# Density = 2.164359 g / cm^3
# Si number density = 21.692964 Si / 1000 Ang^3
#
#
#
# Elastic Constant Matrix: (Units=GPa)
#
#
# Indices 1 2 3 4 5 6 
#
# 1 101.1683 37.8233 33.6378 13.8868 -5.5330 -25.3422
# 2 37.8233 85.1898 30.7110 2.6532 2.2125 -6.7093
# 3 33.6378 30.7110 100.0677 10.0928 -1.1412 -12.6805
# 4 13.8868 2.6532 10.0928 36.3211 -3.0313 -0.2854
# 5 -5.5330 2.2125 -1.1412 -3.0313 31.9354 4.4266
# 6 -25.3422 -6.7093 -12.6805 -0.2854 4.4266 30.9737
#
#
#
# Elastic Compliance Matrix: (Units=1/GPa)
#
#
# Indices 1 2 3 4 5 6 
#
# 1 0.016038 -0.005479 -0.001794 -0.005056 0.001090 0.010999
# 2 -0.005479 0.015167 -0.003300 0.001749 -0.001633 -0.002298
# 3 -0.001794 -0.003300 0.012214 -0.002468 -0.000273 0.002834
# 4 -0.005056 0.001749 -0.002468 0.030190 0.002451 -0.004840
# 5 0.001090 -0.001633 -0.000273 0.002451 0.032418 -0.004184
# 6 0.010999 -0.002298 0.002834 -0.004840 -0.004184 0.042500
#
#
# Mechanical properties :
#
#
# Convention : Reuss Voigt Hill
#
# Bulk Modulus (GPa) = 44.89285 54.53001 49.71143
# Shear Modulus (GPa) = 28.23332 32.12961 30.18146
#
# Velocity S-wave (km/s) = 3.61154 3.85269 3.73406
# Velocity P-wave (km/s) = 6.17499 6.70692 6.44644
#
# Compressibility (1/GPa) = 0.02227526
#
# Stress axis : x y z
#
# Youngs Moduli (GPa) = 62.35255 65.93093 81.87506
#
# Poissons Ratio (x) = 0.36121 0.14685
# Poissons Ratio (y) = 0.34161 0.27015
# Poissons Ratio (z) = 0.11184 0.21754
#
# Static dielectric constant tensor:
#      x y z
#    x 4.015200 -0.028420 -0.183530 
#    y -0.028420 3.787730 -0.105070 
#    z -0.183530 -0.105070 3.882840 
# 
# 
# High freq. dielectric constant tensor:
#      x y z
#    x 1.856510 -0.004650 -0.010360 
#    y -0.004650 1.837450 -0.004190 
#    z -0.010360 -0.004190 1.855950 
# 
# From -- ./inp_files/532822.got.cif
#   From: 2010.06.25/outbox.cif.g09.slc.cpg/sg2_267_cif.got.tgz:532822.got - 2010.06.27 13:26:56.
