data_PCOD8026790
_publ_section_title
;
Structure prediction by ZEFSAII (Michael W. Deem and Ramdas Pophale) SiO2 
 PCOD8026790
Probable space group: P -1
;
_chemical_formula_sum "Si O2"
_cell_formula_units_Z 16
_cell_length_a 17.815344
_cell_length_b 7.562700
_cell_length_c 18.579171
_cell_angle_alpha 120.623125
_cell_angle_beta 22.433948
_cell_angle_gamma 107.770993
_cell_volume 709.837849
_symmetry_space_group_name_H-M "P -1"
_symmetry_group_IT_number 2
_symmetry_cell_setting 'triclinic'
loop_
_space_group_symop_operation_xyz
x,y,z
-x,-y,-z
loop_
_atom_site_type_symbol
_atom_site_label
_atom_site_fract_x
_atom_site_fract_y
_atom_site_fract_z
Si Si1 0.492807 0.229564 0.295196
Si Si2 0.545153 0.138593 0.674604
Si Si3 0.444662 0.656282 0.886812
Si Si4 0.683464 0.966187 0.272222
Si Si5 0.162836 0.684064 0.754826
Si Si6 0.095098 0.180913 0.289653
Si Si7 0.335484 0.441661 0.178977
Si Si8 0.005738 0.921306 0.788807
O O1 0.456097 0.001132 0.281013
O O2 0.414931 0.355490 0.312193
O O3 0.336031 0.405096 0.534005
O O4 0.755784 0.157816 0.061143
O O5 0.425213 0.418916 0.856104
O O6 0.387122 0.087151 0.752403
O O7 0.797544 0.019149 0.393170
O O8 0.564679 0.671702 0.855600
O O9 0.200026 0.898122 0.149975
O O10 0.500000 0.000000 0.500000
O O11 0.697453 0.205811 0.308716
O O12 0.942075 0.745189 0.012723
O O13 0.063730 0.796153 0.787944
O O14 0.288397 0.254344 0.140049
O O15 0.991445 0.247316 0.314313
O O16 0.900754 0.311996 0.548855
O O17 0.500000 0.500000 0.000000
#
# Coordination Sequence:
#
# PCOD8026790 Si02
#       8
#     2   2   2   2   2   2   2   2
#     4  11  25  44  72  99 135 184 228 284 345 392
#     4  12  24  44  71 101 133 185 232 279 335 416
#     4  11  24  45  70 100 140 173 229 278 334 405
#     4  11  23  42  69  98 140 179 228 282 345 401
#     4  11  23  44  68  97 138 182 220 295 341 391
#     4  10  24  43  68 100 137 176 216 286 332 391
#     4  11  24  44  70 103 136 175 227 270 336 414
#     4  11  22  45  68 100 138 170 238 278 328 418
#
# _framework density 22.540358000000001
#
# number of rings (size 3 to 8) (size 9 to 14) (size 15 to 20)
#    0.000    1.000    5.000    0.375    3.500    4.000 
#    0.000    7.500    0.000    0.000    0.000    0.000 
#    0.000    0.000    0.000    0.000    0.000    0.000 
#
# Total GULP energy -198303.207999 kJ/mol
# GULP energy per Si atom -12393.950500 kJ/mol
# Density = 2.248906 g / cm^3
# Si number density = 22.540358 Si / 1000 Ang^3
#
#
#
# Elastic Constant Matrix: (Units=GPa)
#
#
# Indices 1 2 3 4 5 6 
#
# 1 74.7479 45.5476 0.2107 -7.2991 -8.1841 22.1505
# 2 45.5476 146.6461 57.8581 -2.1588 -2.1943 10.0667
# 3 0.2107 57.8581 145.3332 -8.9931 13.8969 7.5877
# 4 -7.2991 -2.1588 -8.9931 45.3232 7.5291 -1.7506
# 5 -8.1841 -2.1943 13.8969 7.5291 29.6596 2.7383
# 6 22.1505 10.0667 7.5877 -1.7506 2.7383 25.3670
#
#
#
# Elastic Compliance Matrix: (Units=1/GPa)
#
#
# Indices 1 2 3 4 5 6 
#
# 1 0.024959 -0.007692 0.003695 0.002641 0.005790 -0.020290
# 2 -0.007692 0.010792 -0.004668 -0.001670 0.000954 0.003612
# 3 0.003695 -0.004668 0.009491 0.002809 -0.004156 -0.003571
# 4 0.002641 -0.001670 0.002809 0.024096 -0.006820 -0.000084
# 5 0.005790 0.000954 -0.004156 -0.006820 0.039891 -0.008967
# 6 -0.020290 0.003612 -0.003571 -0.000084 -0.008967 0.057736
#
#
# Mechanical properties :
#
#
# Convention : Reuss Voigt Hill
#
# Bulk Modulus (GPa) = 35.82585 63.77335 49.79960
# Shear Modulus (GPa) = 25.82654 37.61067 31.71861
#
# Velocity S-wave (km/s) = 3.38863 4.08927 3.75533
# Velocity P-wave (km/s) = 5.58918 7.11692 6.39881
#
# Compressibility (1/GPa) = 0.02791281
#
# Stress axis : x y z
#
# Youngs Moduli (GPa) = 40.06504 92.66359 105.35775
#
# Poissons Ratio (x) = 0.71275 -0.38931
# Poissons Ratio (y) = 0.30817 0.49183
# Poissons Ratio (z) = -0.14805 0.43257
#
# Static dielectric constant tensor:
#      x y z
#    x 4.439300 0.048410 -0.051520 
#    y 0.048410 3.977420 0.102900 
#    z -0.051520 0.102900 4.487190 
# 
# 
# High freq. dielectric constant tensor:
#      x y z
#    x 1.892490 0.014660 0.006510 
#    y 0.014660 1.868690 0.000350 
#    z 0.006510 0.000350 1.905780 
# 
# From -- ./inp_files/599547.got.cif
#   From: 2010.06.25/outbox.cif.g09.slc.cpg/sg2_300_cif.got.tgz:599547.got - 2010.06.27 13:26:56.
