data_PCOD8026037
_publ_section_title
;
Structure prediction by ZEFSAII (Michael W. Deem and Ramdas Pophale) SiO2 
 PCOD8026037
Probable space group: P -1
;
_chemical_formula_sum "Si O2"
_cell_formula_units_Z 14
_cell_length_a 11.712086
_cell_length_b 5.049366
_cell_length_c 11.298800
_cell_angle_alpha 101.833416
_cell_angle_beta 103.073459
_cell_angle_gamma 51.266669
_cell_volume 505.948831
_symmetry_space_group_name_H-M "P -1"
_symmetry_group_IT_number 2
_symmetry_cell_setting 'triclinic'
loop_
_space_group_symop_operation_xyz
x,y,z
-x,-y,-z
loop_
_atom_site_type_symbol
_atom_site_label
_atom_site_fract_x
_atom_site_fract_y
_atom_site_fract_z
Si Si1 0.720448 0.798248 0.542835
Si Si2 0.680525 0.625862 0.101319
Si Si3 0.812684 0.644683 0.791992
Si Si4 0.438124 0.301627 0.679635
Si Si5 0.625969 0.444229 0.837935
Si Si6 0.093813 0.136322 0.553213
Si Si7 0.136578 0.124172 0.836574
O O1 0.848510 0.569567 0.650531
O O2 0.705796 0.563747 0.423799
O O3 0.750540 0.038413 0.501429
O O4 0.577020 0.004178 0.611251
O O5 0.575060 0.836705 0.208823
O O6 0.760648 0.778109 0.082310
O O7 0.807547 0.240781 0.136936
O O8 0.584135 0.634045 0.972276
O O9 0.713706 0.525992 0.785419
O O10 0.970425 0.405030 0.871369
O O11 0.731039 0.035451 0.844168
O O12 0.471211 0.568348 0.749023
O O13 0.143820 0.115291 0.696203
O O14 0.000000 0.500000 0.500000
O O15 0.000000 0.000000 0.500000
#
# Coordination Sequence:
#
# PCOD8026037 Si02
#       7
#     2   2   2   2   2   2   2
#     4  10  23  47  74 106 143 179 229 292 354 419
#     4  12  26  47  70 104 140 190 237 283 341 411
#     4  11  25  45  72 108 137 183 228 293 358 410
#     4  10  24  47  71 103 141 186 237 284 348 408
#     4  11  26  47  73  98 142 188 239 288 337 409
#     4  12  25  43  73 106 143 182 221 288 358 421
#     4  12  26  43  72 107 142 179 234 288 355 415
#
# _framework density 27.670780000000001
#
# number of rings (size 3 to 8) (size 9 to 14) (size 15 to 20)
#    0.000    0.857    2.857    3.000    4.000    6.286 
#    0.000    5.000    0.000    0.000    0.000    0.000 
#    0.000    0.000    0.000    0.000    0.000    0.000 
#
# Total GULP energy -173488.655606 kJ/mol
# GULP energy per Si atom -12392.046829 kJ/mol
# Density = 2.760780 g / cm^3
# Si number density = 27.670780 Si / 1000 Ang^3
#
#
#
# Elastic Constant Matrix: (Units=GPa)
#
#
# Indices 1 2 3 4 5 6 
#
# 1 166.9124 30.0639 42.7033 13.3668 12.8290 26.7655
# 2 30.0639 72.2805 -6.1448 19.8115 5.0097 24.4338
# 3 42.7033 -6.1448 166.0524 23.2778 21.6040 7.3751
# 4 13.3668 19.8115 23.2778 31.0745 8.4785 -0.0354
# 5 12.8290 5.0097 21.6040 8.4785 42.8287 -2.2239
# 6 26.7655 24.4338 7.3751 -0.0354 -2.2239 42.9793
#
#
#
# Elastic Compliance Matrix: (Units=1/GPa)
#
#
# Indices 1 2 3 4 5 6 
#
# 1 0.007407 -0.001877 -0.001597 -0.000449 -0.001278 -0.003339
# 2 -0.001877 0.024806 0.004801 -0.018102 -0.001898 -0.013870
# 3 -0.001597 0.004801 0.008216 -0.007751 -0.002865 -0.003300
# 4 -0.000449 -0.018102 -0.007751 0.050621 -0.003248 0.011774
# 5 -0.001278 -0.001898 -0.002865 -0.003248 0.026235 0.003721
# 6 -0.003339 -0.013870 -0.003300 0.011774 0.003721 0.034000
#
#
# Mechanical properties :
#
#
# Convention : Reuss Voigt Hill
#
# Bulk Modulus (GPa) = 23.21012 59.83221 41.52117
# Shear Modulus (GPa) = 30.67658 45.95135 38.31397
#
# Velocity S-wave (km/s) = 3.33322 4.07952 3.72511
# Velocity P-wave (km/s) = 4.81871 6.62268 5.79136
#
# Compressibility (1/GPa) = 0.04308465
#
# Stress axis : x y z
#
# Youngs Moduli (GPa) = 135.00283 40.31352 121.70864
#
# Poissons Ratio (x) = 0.07565 0.19435
# Poissons Ratio (y) = 0.25333 -0.58433
# Poissons Ratio (z) = 0.21558 -0.19355
#
# Static dielectric constant tensor:
#      x y z
#    x 5.603930 -0.121320 0.292360 
#    y -0.121320 5.182150 -0.006850 
#    z 0.292360 -0.006850 5.984500 
# 
# 
# High freq. dielectric constant tensor:
#      x y z
#    x 2.146430 -0.001040 -0.000210 
#    y -0.001040 2.107550 -0.000390 
#    z -0.000210 -0.000390 2.137840 
# 
# From -- ./inp_files/410862.got.cif
#   From: 2010.06.25/outbox.cif.g09.slc.cpg/sg2_206_cif.got.tgz:410862.got - 2010.06.27 13:26:56.
