data_PCOD8026402
_publ_section_title
;
Structure prediction by ZEFSAII (Michael W. Deem and Ramdas Pophale) SiO2 
 PCOD8026402
Probable space group: P -1
;
_chemical_formula_sum "Si O2"
_cell_formula_units_Z 16
_cell_length_a 15.554233
_cell_length_b 24.661988
_cell_length_c 9.347774
_cell_angle_alpha 138.413138
_cell_angle_beta 140.297462
_cell_angle_gamma 18.966933
_cell_volume 740.914421
_symmetry_space_group_name_H-M "P -1"
_symmetry_group_IT_number 2
_symmetry_cell_setting 'triclinic'
loop_
_space_group_symop_operation_xyz
x,y,z
-x,-y,-z
loop_
_atom_site_type_symbol
_atom_site_label
_atom_site_fract_x
_atom_site_fract_y
_atom_site_fract_z
Si Si1 0.775892 0.346165 0.237786
Si Si2 0.927968 0.677084 0.556960
Si Si3 0.253393 0.812941 0.007856
Si Si4 0.663348 0.938609 0.948682
Si Si5 0.286423 0.369306 0.956325
Si Si6 0.228906 0.707978 0.199263
Si Si7 0.501847 0.706055 0.417866
Si Si8 0.321193 0.264272 0.077127
O O1 0.470136 0.539213 0.271746
O O2 0.005498 0.297343 0.443708
O O3 0.848656 0.227015 0.186599
O O4 0.778169 0.327673 0.036172
O O5 0.743203 0.816795 0.718633
O O6 0.763059 0.686905 0.307783
O O7 0.219797 0.495247 0.641540
O O8 0.491984 0.690368 0.953040
O O9 0.367162 0.789447 0.255124
O O10 0.000000 0.000000 0.000000
O O11 0.932531 0.847244 0.165557
O O12 0.500000 0.000000 0.000000
O O13 0.466883 0.099949 0.917703
O O14 0.009766 0.569669 0.013740
O O15 0.401777 0.283044 0.089286
O O16 0.288906 0.772417 0.382720
O O17 0.571033 0.756418 0.675060
#
# Coordination Sequence:
#
# PCOD8026402 Si02
#       8
#     2   2   2   2   2   2   2   2
#     4   8  16  35  61  87 114 153 206 251 297 351
#     4   9  20  41  68  88 115 164 212 246 306 360
#     4  11  23  36  62  96 122 155 210 252 294 361
#     4  11  23  33  57  95 127 152 207 252 297 356
#     4  10  24  43  63  87 127 165 200 249 307 367
#     4   8  16  34  59  86 115 155 198 253 299 354
#     4   9  20  41  69  87 115 162 209 248 304 363
#     4  10  24  42  61  89 126 163 197 250 313 360
#
# _framework density 21.594936000000001
#
# number of rings (size 3 to 8) (size 9 to 14) (size 15 to 20)
#    0.000    2.500    0.000    2.250   10.500    2.000 
#    0.000    0.000    0.000    3.000    0.000    0.000 
#    0.000    0.000    0.000    0.000    0.000    0.000 
#
# Total GULP energy -198340.769663 kJ/mol
# GULP energy per Si atom -12396.298104 kJ/mol
# Density = 2.154579 g / cm^3
# Si number density = 21.594936 Si / 1000 Ang^3
#
#
#
# Elastic Constant Matrix: (Units=GPa)
#
#
# Indices 1 2 3 4 5 6 
#
# 1 117.3310 58.8430 5.3102 2.4011 -3.5962 -11.7116
# 2 58.8430 120.0099 27.4099 9.2472 -5.0163 4.6599
# 3 5.3102 27.4099 40.8200 7.5034 -8.6870 2.1182
# 4 2.4011 9.2472 7.5034 22.4356 5.1061 -2.9001
# 5 -3.5962 -5.0163 -8.6870 5.1061 23.3797 -1.0765
# 6 -11.7116 4.6599 2.1182 -2.9001 -1.0765 40.4264
#
#
#
# Elastic Compliance Matrix: (Units=1/GPa)
#
#
# Indices 1 2 3 4 5 6 
#
# 1 0.012293 -0.006867 0.002993 0.000710 0.001572 0.004289
# 2 -0.006867 0.013799 -0.007839 -0.002633 -0.000588 -0.003374
# 3 0.002993 -0.007839 0.034631 -0.011980 0.014239 -0.000524
# 4 0.000710 -0.002633 -0.011980 0.053928 -0.016475 0.004567
# 5 0.001572 -0.000588 0.014239 -0.016475 0.051775 -0.000026
# 6 0.004289 -0.003374 -0.000524 0.004567 -0.000026 0.026722
#
#
# Mechanical properties :
#
#
# Convention : Reuss Voigt Hill
#
# Bulk Modulus (GPa) = 26.81032 51.25412 39.03222
# Shear Modulus (GPa) = 21.83352 29.68818 25.76085
#
# Velocity S-wave (km/s) = 3.18315 3.71182 3.45760
# Velocity P-wave (km/s) = 5.09431 6.49276 5.83558
#
# Compressibility (1/GPa) = 0.03729908
#
# Stress axis : x y z
#
# Youngs Moduli (GPa) = 81.34820 72.46863 28.87552
#
# Poissons Ratio (x) = 0.49761 -0.08643
# Poissons Ratio (y) = 0.55858 0.22635
# Poissons Ratio (z) = -0.24348 0.56806
#
# Static dielectric constant tensor:
#      x y z
#    x 3.967160 -0.111290 0.296480 
#    y -0.111290 4.025740 -0.049310 
#    z 0.296480 -0.049310 3.778410 
# 
# 
# High freq. dielectric constant tensor:
#      x y z
#    x 1.843400 -0.003090 0.016520 
#    y -0.003090 1.848840 0.003880 
#    z 0.016520 0.003880 1.822330 
# 
# From -- ./inp_files/320334.got.cif
#   From: 2010.06.25/outbox.cif.g09.slc.cpg/sg2_161_cif.got.tgz:320334.got - 2010.06.27 13:26:56.
