data_PCOD8026888
_publ_section_title
;
Structure prediction by ZEFSAII (Michael W. Deem and Ramdas Pophale) SiO2 
 PCOD8026888
Probable space group: P -1
;
_chemical_formula_sum "Si O2"
_cell_formula_units_Z 16
_cell_length_a 21.609928
_cell_length_b 11.133789
_cell_length_c 9.321831
_cell_angle_alpha 109.456360
_cell_angle_beta 140.585450
_cell_angle_gamma 41.401598
_cell_volume 762.548821
_symmetry_space_group_name_H-M "P -1"
_symmetry_group_IT_number 2
_symmetry_cell_setting 'triclinic'
loop_
_space_group_symop_operation_xyz
x,y,z
-x,-y,-z
loop_
_atom_site_type_symbol
_atom_site_label
_atom_site_fract_x
_atom_site_fract_y
_atom_site_fract_z
Si Si1 0.737458 0.387544 0.947140
Si Si2 0.572154 0.753517 0.585605
Si Si3 0.578445 0.250678 0.928455
Si Si4 0.034398 0.653029 0.198986
Si Si5 0.552405 0.340433 0.231775
Si Si6 0.260448 0.227681 0.283047
Si Si7 0.878764 0.026895 0.870356
Si Si8 0.976366 0.879454 0.448446
O O1 0.674074 0.530211 0.751526
O O2 0.596610 0.541079 0.880151
O O3 0.777268 0.200597 0.891798
O O4 0.913024 0.264963 0.267290
O O5 0.483288 0.802512 0.297234
O O6 0.698060 0.735431 0.770856
O O7 0.426470 0.964163 0.517569
O O8 0.467985 0.489829 0.775170
O O9 0.542599 0.266182 0.039595
O O10 0.779828 0.056692 0.188910
O O11 0.207248 0.386501 0.373010
O O12 0.066629 0.703194 0.414702
O O13 0.889052 0.708111 0.997006
O O14 0.989192 0.790262 0.035207
O O15 0.739830 0.119515 0.548611
O O16 0.000000 0.000000 0.000000
O O17 0.000000 0.000000 0.500000
#
# Coordination Sequence:
#
# PCOD8026888 Si02
#       8
#     2   2   2   2   2   2   2   2
#     4  12  24  40  68 104 135 169 219 281 339 393
#     4  11  23  45  70  93 127 179 229 276 319 394
#     4  11  23  40  63  96 140 170 215 266 338 406
#     4  11  23  42  67  97 133 177 223 269 328 405
#     4  11  24  36  63 102 136 172 207 273 346 398
#     4  10  24  43  70  88 126 186 234 261 318 394
#     4  12  23  38  67 104 140 168 216 280 342 397
#     4  12  23  40  66 102 138 171 209 280 351 398
#
# _framework density 20.982263
#
# number of rings (size 3 to 8) (size 9 to 14) (size 15 to 20)
#    0.000    0.750    5.000    2.625    1.750    0.000 
#    0.000    1.250   11.000    0.000    0.000    0.000 
#    0.000    0.000    0.000    0.000    0.000    0.000 
#
# Total GULP energy -198398.501308 kJ/mol
# GULP energy per Si atom -12399.906332 kJ/mol
# Density = 2.093451 g / cm^3
# Si number density = 20.982263 Si / 1000 Ang^3
#
#
#
# Elastic Constant Matrix: (Units=GPa)
#
#
# Indices 1 2 3 4 5 6 
#
# 1 76.7406 29.5397 41.6127 9.2218 7.2498 -10.2297
# 2 29.5397 128.1428 36.8099 10.7805 -3.4228 -6.1785
# 3 41.6127 36.8099 105.2666 8.1400 -8.2281 -0.8888
# 4 9.2218 10.7805 8.1400 24.5978 -7.0809 2.9834
# 5 7.2498 -3.4228 -8.2281 -7.0809 32.3229 0.3900
# 6 -10.2297 -6.1785 -0.8888 2.9834 0.3900 29.3737
#
#
#
# Elastic Compliance Matrix: (Units=1/GPa)
#
#
# Indices 1 2 3 4 5 6 
#
# 1 0.020502 -0.001793 -0.007477 -0.007771 -0.008484 0.007439
# 2 -0.001793 0.009174 -0.002261 -0.002732 0.000181 0.001512
# 3 -0.007477 -0.002261 0.013537 0.001149 0.005170 -0.002855
# 4 -0.007771 -0.002732 0.001149 0.049026 0.012587 -0.008393
# 5 -0.008484 0.000181 0.005170 0.012587 0.036988 -0.004530
# 6 0.007439 0.001512 -0.002855 -0.008393 -0.004530 0.037779
#
#
# Mechanical properties :
#
#
# Convention : Reuss Voigt Hill
#
# Bulk Modulus (GPa) = 49.62380 58.45271 54.03825
# Shear Modulus (GPa) = 25.40833 30.73808 28.07321
#
# Velocity S-wave (km/s) = 3.48364 3.83163 3.66177
# Velocity P-wave (km/s) = 6.31527 6.89157 6.60971
#
# Compressibility (1/GPa) = 0.02015162
#
# Stress axis : x y z
#
# Youngs Moduli (GPa) = 48.77480 109.00211 73.86935
#
# Poissons Ratio (x) = 0.19539 0.55235
# Poissons Ratio (y) = 0.08743 0.16704
# Poissons Ratio (z) = 0.36471 0.24648
#
# Static dielectric constant tensor:
#      x y z
#    x 3.757120 -0.155760 0.065250 
#    y -0.155760 4.140840 -0.087740 
#    z 0.065250 -0.087740 4.134240 
# 
# 
# High freq. dielectric constant tensor:
#      x y z
#    x 1.812730 -0.013830 0.012050 
#    y -0.013830 1.832440 -0.007560 
#    z 0.012050 -0.007560 1.820020 
# 
# From -- ./inp_files/186512.got.cif
#   From: 2010.06.25/outbox.cif.g09.slc.cpg/sg2_94_cif.got.tgz:186512.got - 2010.06.27 13:26:56.
