data_PCOD8026407
_publ_section_title
;
Structure prediction by ZEFSAII (Michael W. Deem and Ramdas Pophale) SiO2 
 PCOD8026407
Probable space group: P -1
;
_chemical_formula_sum "Si O2"
_cell_formula_units_Z 14
_cell_length_a 13.974647
_cell_length_b 11.570614
_cell_length_c 11.657446
_cell_angle_alpha 130.469408
_cell_angle_beta 42.000137
_cell_angle_gamma 148.633795
_cell_volume 655.936297
_symmetry_space_group_name_H-M "P -1"
_symmetry_group_IT_number 2
_symmetry_cell_setting 'triclinic'
loop_
_space_group_symop_operation_xyz
x,y,z
-x,-y,-z
loop_
_atom_site_type_symbol
_atom_site_label
_atom_site_fract_x
_atom_site_fract_y
_atom_site_fract_z
Si Si1 0.929954 0.063596 0.857160
Si Si2 0.781481 0.774439 0.002645
Si Si3 0.005543 0.408433 0.550869
Si Si4 0.383491 0.208153 0.222481
Si Si5 0.270112 0.093621 0.509605
Si Si6 0.171062 0.473270 0.066702
Si Si7 0.424894 0.583337 0.365904
O O1 0.141487 0.149392 0.678990
O O2 0.787340 0.012456 0.846454
O O3 0.997723 0.256296 0.001434
O O4 0.779898 0.823242 0.902475
O O5 0.592138 0.706531 0.193773
O O6 0.773172 0.586702 0.909434
O O7 0.000000 0.000000 0.000000
O O8 0.238950 0.542457 0.460503
O O9 0.000000 0.500000 0.500000
O O10 0.917094 0.435425 0.754227
O O11 0.866453 0.153764 0.488558
O O12 0.337377 0.128380 0.341643
O O13 0.346716 0.358281 0.331514
O O14 0.617297 0.334243 0.068610
O O15 0.475452 0.256712 0.509945
#
# Coordination Sequence:
#
# PCOD8026407 Si02
#       7
#     2   2   2   2   2   2   2
#     4  11  21  39  71  97 131 170 226 280 319 390
#     4   9  18  39  67  96 123 167 228 269 323 379
#     4  12  29  44  65 102 142 173 219 273 345 401
#     4  11  24  41  75  99 127 179 233 271 325 390
#     4  12  24  45  69 101 134 175 230 274 323 403
#     4  10  24  42  62 100 136 172 221 279 328 397
#     4  11  24  42  72  98 131 179 217 283 332 385
#
# _framework density 21.343537000000001
#
# number of rings (size 3 to 8) (size 9 to 14) (size 15 to 20)
#    0.000    1.143    5.714    1.714    4.000    3.429 
#    0.000    1.429    0.000    0.000    0.000    0.000 
#    0.000    0.000    0.000    0.000    0.000    0.000 
#
# Total GULP energy -173637.131294 kJ/mol
# GULP energy per Si atom -12402.652235 kJ/mol
# Density = 2.129496 g / cm^3
# Si number density = 21.343537 Si / 1000 Ang^3
#
#
#
# Elastic Constant Matrix: (Units=GPa)
#
#
# Indices 1 2 3 4 5 6 
#
# 1 110.6492 40.9311 41.1216 -15.5983 -3.6506 28.1216
# 2 40.9311 66.0517 15.6771 2.7622 1.8422 21.6785
# 3 41.1216 15.6771 88.3324 -2.6374 -10.2334 6.1213
# 4 -15.5983 2.7622 -2.6374 35.5511 -5.9676 9.6594
# 5 -3.6506 1.8422 -10.2334 -5.9676 28.8861 0.4652
# 6 28.1216 21.6785 6.1213 9.6594 0.4652 30.5658
#
#
#
# Elastic Compliance Matrix: (Units=1/GPa)
#
#
# Indices 1 2 3 4 5 6 
#
# 1 0.020213 -0.005936 -0.006239 0.014353 0.003974 -0.017734
# 2 -0.005936 0.022298 -0.000942 -0.002333 -0.002837 -0.009384
# 3 -0.006239 -0.000942 0.014502 -0.002041 0.003922 0.004089
# 4 0.014353 -0.002333 -0.002041 0.042983 0.010520 -0.024885
# 5 0.003974 -0.002837 0.003922 0.010520 0.038967 -0.006347
# 6 -0.017734 -0.009384 0.004089 -0.024885 -0.006347 0.062830
#
#
# Mechanical properties :
#
#
# Convention : Reuss Voigt Hill
#
# Bulk Modulus (GPa) = 32.48776 51.16588 41.82682
# Shear Modulus (GPa) = 20.98306 30.15416 25.56861
#
# Velocity S-wave (km/s) = 3.13886 3.76280 3.46490
# Velocity P-wave (km/s) = 5.32832 6.55002 5.97050
#
# Compressibility (1/GPa) = 0.03078083
#
# Stress axis : x y z
#
# Youngs Moduli (GPa) = 49.47217 44.84632 68.95375
#
# Poissons Ratio (x) = 0.26620 0.43018
# Poissons Ratio (y) = 0.29366 0.06496
# Poissons Ratio (z) = 0.30864 0.04225
#
# Static dielectric constant tensor:
#      x y z
#    x 3.875090 0.149720 0.146180 
#    y 0.149720 3.796480 0.027230 
#    z 0.146180 0.027230 3.860930 
# 
# 
# High freq. dielectric constant tensor:
#      x y z
#    x 1.830790 0.016720 0.014780 
#    y 0.016720 1.840530 -0.010740 
#    z 0.014780 -0.010740 1.840420 
# 
# From -- ./inp_files/181030.got.cif
#   From: 2010.06.25/outbox.cif.g09.slc.cpg/sg2_91_cif.got.tgz:181030.got - 2010.06.27 13:26:56.
