data_PCOD8026674
_publ_section_title
;
Structure prediction by ZEFSAII (Michael W. Deem and Ramdas Pophale) SiO2 
 PCOD8026674
Probable space group: P -1
;
_chemical_formula_sum "Si O2"
_cell_formula_units_Z 16
_cell_length_a 18.746025
_cell_length_b 22.047492
_cell_length_c 9.550364
_cell_angle_alpha 138.593129
_cell_angle_beta 41.604429
_cell_angle_gamma 162.659337
_cell_volume 767.925944
_symmetry_space_group_name_H-M "P -1"
_symmetry_group_IT_number 2
_symmetry_cell_setting 'triclinic'
loop_
_space_group_symop_operation_xyz
x,y,z
-x,-y,-z
loop_
_atom_site_type_symbol
_atom_site_label
_atom_site_fract_x
_atom_site_fract_y
_atom_site_fract_z
Si Si1 0.456740 0.153468 0.641779
Si Si2 0.653929 0.481879 0.032014
Si Si3 0.777321 0.554863 0.495572
Si Si4 0.032417 0.758379 0.744485
Si Si5 0.864568 0.831227 0.797212
Si Si6 0.992536 0.286580 0.857632
Si Si7 0.295296 0.093855 0.470677
Si Si8 0.172146 0.710940 0.664283
O O1 0.651599 0.372305 0.801466
O O2 0.376466 0.127773 0.564911
O O3 0.561984 0.131013 0.436846
O O4 0.224452 0.977196 0.779616
O O5 0.835421 0.664262 0.964486
O O6 0.387691 0.319216 0.143576
O O7 0.775640 0.583279 0.181125
O O8 0.798661 0.681100 0.696363
O O9 0.924413 0.627511 0.273392
O O10 0.497539 0.309458 0.470146
O O11 0.896063 0.603524 0.546458
O O12 0.177981 0.797307 0.693441
O O13 0.043903 0.958470 0.621289
O O14 0.000000 0.000000 0.000000
O O15 0.764663 0.041983 0.768364
O O16 0.907511 0.312964 0.107297
O O17 0.000000 0.500000 0.500000
#
# Coordination Sequence:
#
# PCOD8026674 Si02
#       8
#     2   2   2   2   2   2   2   2
#     4  12  21  42  66  92 129 168 213 267 314 381
#     4  11  23  41  67  94 130 167 217 267 310 381
#     4  11  22  42  65  92 139 168 207 267 324 376
#     4  11  21  40  64  95 125 168 211 262 317 380
#     4  11  21  40  68  99 126 172 217 261 317 378
#     4  10  24  43  62  93 133 166 211 263 328 376
#     4  11  23  42  62  95 136 167 211 267 318 382
#     4  11  22  43  68  92 129 168 213 267 320 378
#
# _framework density 20.835343000000002
#
# number of rings (size 3 to 8) (size 9 to 14) (size 15 to 20)
#    0.000    1.000    7.500    0.375    0.000    7.500 
#    2.250    2.500    0.000    0.000    0.000    0.000 
#    0.000    0.000    0.000    0.000    0.000    0.000 
#
# Total GULP energy -198355.889584 kJ/mol
# GULP energy per Si atom -12397.243099 kJ/mol
# Density = 2.078792 g / cm^3
# Si number density = 20.835343 Si / 1000 Ang^3
#
#
#
# Elastic Constant Matrix: (Units=GPa)
#
#
# Indices 1 2 3 4 5 6 
#
# 1 66.8000 17.4582 22.1128 -10.4026 6.6354 3.2388
# 2 17.4582 121.6761 36.3454 -3.9575 -6.2949 -6.7679
# 3 22.1128 36.3454 108.3302 -2.8719 1.7524 -7.4066
# 4 -10.4026 -3.9575 -2.8719 39.4899 3.0494 -3.2076
# 5 6.6354 -6.2949 1.7524 3.0494 32.8968 -1.2443
# 6 3.2388 -6.7679 -7.4066 -3.2076 -1.2443 24.6231
#
#
#
# Elastic Compliance Matrix: (Units=1/GPa)
#
#
# Indices 1 2 3 4 5 6 
#
# 1 0.017740 -0.001914 -0.003029 0.004316 -0.004313 -0.003426
# 2 -0.001914 0.009555 -0.002696 0.000251 0.002419 0.002222
# 3 -0.003029 -0.002696 0.010960 -0.000003 -0.000377 0.002935
# 4 0.004316 0.000251 -0.000003 0.026964 -0.003214 0.002851
# 5 -0.004313 0.002419 -0.000377 -0.003214 0.032137 0.002324
# 6 -0.003426 0.002222 0.002935 0.002851 0.002324 0.043045
#
#
# Mechanical properties :
#
#
# Convention : Reuss Voigt Hill
#
# Bulk Modulus (GPa) = 43.51980 49.84879 46.68430
# Shear Modulus (GPa) = 30.61131 34.12794 32.36963
#
# Velocity S-wave (km/s) = 3.83717 4.05159 3.94584
# Velocity P-wave (km/s) = 6.36904 6.77231 6.57377
#
# Compressibility (1/GPa) = 0.02297805
#
# Stress axis : x y z
#
# Youngs Moduli (GPa) = 56.37131 104.65422 91.23718
#
# Poissons Ratio (x) = 0.20029 0.27636
# Poissons Ratio (y) = 0.10788 0.24595
# Poissons Ratio (z) = 0.17075 0.28212
#
# Static dielectric constant tensor:
#      x y z
#    x 3.767940 0.165620 -0.058520 
#    y 0.165620 4.065930 -0.035970 
#    z -0.058520 -0.035970 3.861380 
# 
# 
# High freq. dielectric constant tensor:
#      x y z
#    x 1.802330 0.011040 0.007790 
#    y 0.011040 1.834290 -0.002480 
#    z 0.007790 -0.002480 1.805800 
# 
# From -- ./inp_files/338175.got.cif
#   From: 2010.06.25/outbox.cif.g09.slc.cpg/sg2_170_cif.got.tgz:338175.got - 2010.06.27 13:26:56.
