data_PCOD8026611
_publ_section_title
;
Structure prediction by ZEFSAII (Michael W. Deem and Ramdas Pophale) SiO2 
 PCOD8026611
Probable space group: P -1
;
_chemical_formula_sum "Si O2"
_cell_formula_units_Z 16
_cell_length_a 20.736560
_cell_length_b 11.487943
_cell_length_c 8.678662
_cell_angle_alpha 140.875802
_cell_angle_beta 46.549648
_cell_angle_gamma 151.103434
_cell_volume 630.154614
_symmetry_space_group_name_H-M "P -1"
_symmetry_group_IT_number 2
_symmetry_cell_setting 'triclinic'
loop_
_space_group_symop_operation_xyz
x,y,z
-x,-y,-z
loop_
_atom_site_type_symbol
_atom_site_label
_atom_site_fract_x
_atom_site_fract_y
_atom_site_fract_z
Si Si1 0.255691 0.697313 0.699193
Si Si2 0.271722 0.490307 0.898986
Si Si3 0.246170 0.277572 0.198555
Si Si4 0.475285 0.708707 0.033544
Si Si5 0.321148 0.250770 0.359021
Si Si6 0.886016 0.401228 0.455398
Si Si7 0.099209 0.943723 0.805250
Si Si8 0.848842 0.326439 0.849741
O O1 0.221072 0.429570 0.481354
O O2 0.234130 0.734955 0.598441
O O3 0.408811 0.976298 0.774813
O O4 0.153809 0.625858 0.915544
O O5 0.331618 0.475836 0.636702
O O6 0.154588 0.177733 0.836220
O O7 0.386484 0.691260 0.044255
O O8 0.222385 0.617332 0.068631
O O9 0.384989 0.495451 0.101740
O O10 0.258363 0.146837 0.181549
O O11 0.122099 0.041182 0.045335
O O12 0.533241 0.618701 0.758266
O O13 0.231741 0.991469 0.357241
O O14 0.839070 0.173204 0.425389
O O15 0.942850 0.671045 0.730092
O O16 0.000261 0.472955 0.243374
#
# Coordination Sequence:
#
# PCOD8026611 Si02
#       8
#     2   2   2   2   2   2   2   2
#     4  11  24  43  70 104 145 181 231 284 345 415
#     4  11  23  46  70 105 138 183 233 280 354 406
#     4  11  23  45  69 103 139 182 235 283 348 415
#     4  10  24  42  71 102 140 183 226 291 342 412
#     4  11  22  44  69 103 141 181 232 280 352 411
#     4  11  24  45  70 101 141 185 229 287 345 405
#     4  10  24  43  69  99 135 180 232 283 340 405
#     4  11  24  44  71 102 144 180 231 289 339 411
#
# _framework density 25.390595999999999
#
# number of rings (size 3 to 8) (size 9 to 14) (size 15 to 20)
#    0.000    1.250    2.500    3.000    0.000    9.000 
#    2.250    3.125    0.000    0.000    0.000    0.000 
#    0.000    0.000    0.000    0.000    0.000    0.000 
#
# Total GULP energy -198305.921899 kJ/mol
# GULP energy per Si atom -12394.120119 kJ/mol
# Density = 2.533281 g / cm^3
# Si number density = 25.390596 Si / 1000 Ang^3
#
#
#
# Elastic Constant Matrix: (Units=GPa)
#
#
# Indices 1 2 3 4 5 6 
#
# 1 146.6147 30.8343 31.3733 20.5234 14.1343 -22.9750
# 2 30.8343 66.2798 48.6211 11.9427 6.6940 -13.5247
# 3 31.3733 48.6211 114.8442 23.4716 1.7283 11.7712
# 4 20.5234 11.9427 23.4716 40.9606 7.9373 8.0211
# 5 14.1343 6.6940 1.7283 7.9373 49.7955 0.6904
# 6 -22.9750 -13.5247 11.7712 8.0211 0.6904 29.5635
#
#
#
# Elastic Compliance Matrix: (Units=1/GPa)
#
#
# Indices 1 2 3 4 5 6 
#
# 1 0.009929 0.001149 -0.003232 -0.005186 -0.002186 0.010987
# 2 0.001149 0.031227 -0.014778 -0.004930 -0.003537 0.022483
# 3 -0.003232 -0.014778 0.017784 -0.001674 0.002775 -0.015964
# 4 -0.005186 -0.004930 -0.001674 0.032787 -0.002833 -0.014448
# 5 -0.002186 -0.003537 0.002775 -0.002833 0.021591 -0.004158
# 6 0.010987 0.022483 -0.015964 -0.014448 -0.004158 0.063023
#
#
# Mechanical properties :
#
#
# Convention : Reuss Voigt Hill
#
# Bulk Modulus (GPa) = 39.65579 61.04403 50.34991
# Shear Modulus (GPa) = 22.88663 38.52458 30.70560
#
# Velocity S-wave (km/s) = 3.00556 3.89945 3.48131
# Velocity P-wave (km/s) = 5.26277 6.66097 6.00272
#
# Compressibility (1/GPa) = 0.02521700
#
# Stress axis : x y z
#
# Youngs Moduli (GPa) = 100.71567 32.02367 56.23167
#
# Poissons Ratio (x) = -0.03680 0.18176
# Poissons Ratio (y) = -0.11574 0.83099
# Poissons Ratio (z) = 0.32555 0.47325
#
# Static dielectric constant tensor:
#      x y z
#    x 4.730110 -0.253400 0.094570 
#    y -0.253400 4.435760 -0.058600 
#    z 0.094570 -0.058600 4.889560 
# 
# 
# High freq. dielectric constant tensor:
#      x y z
#    x 2.027480 -0.019540 0.002760 
#    y -0.019540 1.991360 -0.002200 
#    z 0.002760 -0.002200 2.038610 
# 
# From -- ./inp_files/346454.got.cif
#   From: 2010.06.25/outbox.cif.g09.slc.cpg/sg2_174_cif.got.tgz:346454.got - 2010.06.27 13:26:56.
