data_PCOD8026743
_publ_section_title
;
Structure prediction by ZEFSAII (Michael W. Deem and Ramdas Pophale) SiO2 
 PCOD8026743
Probable space group: P -1
;
_chemical_formula_sum "Si O2"
_cell_formula_units_Z 14
_cell_length_a 11.350238
_cell_length_b 18.849140
_cell_length_c 13.322135
_cell_angle_alpha 144.759178
_cell_angle_beta 34.247363
_cell_angle_gamma 155.838906
_cell_volume 631.860284
_symmetry_space_group_name_H-M "P -1"
_symmetry_group_IT_number 2
_symmetry_cell_setting 'triclinic'
loop_
_space_group_symop_operation_xyz
x,y,z
-x,-y,-z
loop_
_atom_site_type_symbol
_atom_site_label
_atom_site_fract_x
_atom_site_fract_y
_atom_site_fract_z
Si Si1 0.717059 0.951504 0.683036
Si Si2 0.896682 0.349794 0.326122
Si Si3 0.192182 0.746862 0.093390
Si Si4 0.865310 0.671531 0.443935
Si Si5 0.871978 0.455467 0.820216
Si Si6 0.194659 0.079128 0.197800
Si Si7 0.706132 0.688669 0.015308
O O1 0.781330 0.123670 0.848180
O O2 0.466459 0.821154 0.621719
O O3 0.632293 0.861445 0.747963
O O4 0.000000 0.000000 0.500000
O O5 0.000000 0.500000 0.500000
O O6 0.996525 0.415783 0.218023
O O7 0.046398 0.287935 0.192104
O O8 0.022716 0.717189 0.278551
O O9 0.535614 0.838545 0.977293
O O10 0.988002 0.556846 0.962161
O O11 0.500000 0.500000 0.500000
O O12 0.931483 0.836744 0.629152
O O13 0.024277 0.642488 0.374156
O O14 0.502093 0.315908 0.916092
O O15 0.900733 0.863190 0.151517
O O16 0.500000 0.500000 0.000000
#
# Coordination Sequence:
#
# PCOD8026743 Si02
#       7
#     2   2   2   2   2   2   2
#     4  12  23  39  70 105 132 177 233 288 350 399
#     4  11  24  42  66 101 138 175 231 291 348 408
#     4  12  24  44  74 100 141 180 236 289 342 411
#     4  12  26  45  72 104 139 184 240 283 338 421
#     4  11  25  44  67  99 140 188 226 281 351 410
#     4  12  24  46  71 104 141 181 233 290 344 417
#     4  10  24  43  66  97 139 178 221 287 350 405
#
# _framework density 22.156797000000001
#
# number of rings (size 3 to 8) (size 9 to 14) (size 15 to 20)
#    0.000    0.571    5.714    2.571    6.000    0.571 
#    0.000    0.714    0.000    0.000    0.000    0.000 
#    0.000    0.000    0.000    0.000    0.000    0.000 
#
# Total GULP energy -173537.431742 kJ/mol
# GULP energy per Si atom -12395.530839 kJ/mol
# Density = 2.210637 g / cm^3
# Si number density = 22.156797 Si / 1000 Ang^3
#
#
#
# Elastic Constant Matrix: (Units=GPa)
#
#
# Indices 1 2 3 4 5 6 
#
# 1 68.3589 36.4458 44.6673 -10.6737 -31.7584 18.7064
# 2 36.4458 129.7676 68.7639 0.7048 -13.5151 30.5402
# 3 44.6673 68.7639 175.5279 -1.3196 -37.1283 15.0374
# 4 -10.6737 0.7048 -1.3196 49.3449 0.7687 -2.1313
# 5 -31.7584 -13.5151 -37.1283 0.7687 51.7626 -8.0135
# 6 18.7064 30.5402 15.0374 -2.1313 -8.0135 39.4567
#
#
#
# Elastic Compliance Matrix: (Units=1/GPa)
#
#
# Indices 1 2 3 4 5 6 
#
# 1 0.026220 -0.003574 -0.002033 0.005210 0.012684 -0.006032
# 2 -0.003574 0.012063 -0.003841 -0.001299 -0.002836 -0.006825
# 3 -0.002033 -0.003841 0.008442 -0.000156 0.004045 0.001533
# 4 0.005210 -0.001299 -0.000156 0.021379 0.002467 0.000250
# 5 0.012684 -0.002836 0.004045 0.002467 0.029339 0.000732
# 6 -0.006032 -0.006825 0.001533 0.000250 0.000732 0.033064
#
#
# Mechanical properties :
#
#
# Convention : Reuss Voigt Hill
#
# Bulk Modulus (GPa) = 35.93465 74.82315 55.37890
# Shear Modulus (GPa) = 31.50969 43.03131 37.27050
#
# Velocity S-wave (km/s) = 3.77520 4.41174 4.10582
# Velocity P-wave (km/s) = 5.93771 7.73268 6.89386
#
# Compressibility (1/GPa) = 0.02782829
#
# Stress axis : x y z
#
# Youngs Moduli (GPa) = 38.13909 82.89609 118.44988
#
# Poissons Ratio (x) = 0.29630 0.24082
# Poissons Ratio (y) = 0.13632 0.45499
# Poissons Ratio (z) = 0.07754 0.31842
#
# Static dielectric constant tensor:
#      x y z
#    x 4.890790 0.362310 -0.234740 
#    y 0.362310 4.249860 -0.177190 
#    z -0.234740 -0.177190 4.577680 
# 
# 
# High freq. dielectric constant tensor:
#      x y z
#    x 1.844900 0.008360 -0.028170 
#    y 0.008360 1.875690 -0.007060 
#    z -0.028170 -0.007060 1.893370 
# 
# From -- ./inp_files/260929.got.cif
#   From: 2010.06.25/outbox.cif.g09.slc.cpg/sg2_131_cif.got.tgz:260929.got - 2010.06.27 13:26:56.
