data_PCOD8026032
_publ_section_title
;
Structure prediction by ZEFSAII (Michael W. Deem and Ramdas Pophale) SiO2 
 PCOD8026032
Probable space group: P -1
;
_chemical_formula_sum "Si O2"
_cell_formula_units_Z 12
_cell_length_a 8.098227
_cell_length_b 7.851125
_cell_length_c 9.559592
_cell_angle_alpha 105.150214
_cell_angle_beta 129.416070
_cell_angle_gamma 70.857988
_cell_volume 442.419624
_symmetry_space_group_name_H-M "P -1"
_symmetry_group_IT_number 2
_symmetry_cell_setting 'triclinic'
loop_
_space_group_symop_operation_xyz
x,y,z
-x,-y,-z
loop_
_atom_site_type_symbol
_atom_site_label
_atom_site_fract_x
_atom_site_fract_y
_atom_site_fract_z
Si Si1 0.264596 0.844744 0.753893
Si Si2 0.123257 0.309051 0.973172
Si Si3 0.602032 0.802877 0.160008
Si Si4 0.833585 0.052407 0.681418
Si Si5 0.247835 0.463257 0.577502
Si Si6 0.599226 0.782097 0.640191
O O1 0.327818 0.650693 0.670256
O O2 0.349248 0.998507 0.741045
O O3 0.369240 0.829269 0.962568
O O4 0.002127 0.906573 0.647039
O O5 0.203606 0.311060 0.857078
O O6 0.962716 0.170800 0.870537
O O7 0.341722 0.249571 0.171386
O O8 0.000000 0.500000 0.000000
O O9 0.599741 0.692054 0.277959
O O10 0.663339 0.182947 0.514879
O O11 0.693204 0.956392 0.687854
O O12 0.279918 0.393541 0.421006
O O13 0.000000 0.500000 0.500000
#
# Coordination Sequence:
#
# PCOD8026032 Si02
#       6
#     2   2   2   2   2   2
#     4  10  23  47  74 100 141 190 233 294 354 421
#     4  11  25  46  69 103 144 185 233 289 355 424
#     4  10  25  47  72 103 140 187 241 289 354 424
#     4  10  24  46  72  99 143 187 231 292 353 425
#     4  12  24  45  73 105 141 183 239 294 352 422
#     4  11  25  46  71 107 138 184 237 290 359 418
#
# _framework density 27.123570999999998
#
# number of rings (size 3 to 8) (size 9 to 14) (size 15 to 20)
#    0.000    1.333    1.667    2.000    2.333   10.667 
#    9.000    0.000    0.000    0.000    0.000    0.000 
#    0.000    0.000    0.000    0.000    0.000    0.000 
#
# Total GULP energy -148883.244395 kJ/mol
# GULP energy per Si atom -12406.937033 kJ/mol
# Density = 2.706184 g / cm^3
# Si number density = 27.123571 Si / 1000 Ang^3
#
#
#
# Elastic Constant Matrix: (Units=GPa)
#
#
# Indices 1 2 3 4 5 6 
#
# 1 76.5119 22.8824 22.2473 1.8965 17.8047 -8.7288
# 2 22.8824 175.4015 51.1941 25.6867 3.3323 -5.4366
# 3 22.2473 51.1941 130.0226 11.9050 9.8985 1.0464
# 4 1.8965 25.6867 11.9050 50.6637 -7.2918 -0.8822
# 5 17.8047 3.3323 9.8985 -7.2918 50.6788 -6.0716
# 6 -8.7288 -5.4366 1.0464 -0.8822 -6.0716 47.0141
#
#
#
# Elastic Compliance Matrix: (Units=1/GPa)
#
#
# Indices 1 2 3 4 5 6 
#
# 1 0.015314 -0.001312 -0.001749 -0.000140 -0.004719 0.002118
# 2 -0.001312 0.006979 -0.002266 -0.002934 0.000091 0.000571
# 3 -0.001749 -0.002266 0.009092 -0.001125 -0.001291 -0.000977
# 4 -0.000140 -0.002934 -0.001125 0.022037 0.003698 0.000551
# 5 -0.004719 0.000091 -0.001291 0.003698 0.022423 0.002128
# 6 0.002118 0.000571 -0.000977 0.000551 0.002128 0.022036
#
#
# Mechanical properties :
#
#
# Convention : Reuss Voigt Hill
#
# Bulk Modulus (GPa) = 48.23680 63.84262 56.03971
# Shear Modulus (GPa) = 43.31033 48.71213 46.01123
#
# Velocity S-wave (km/s) = 4.00031 4.24244 4.12315
# Velocity P-wave (km/s) = 6.25774 6.89830 6.58581
#
# Compressibility (1/GPa) = 0.02073106
#
# Stress axis : x y z
#
# Youngs Moduli (GPa) = 65.30048 143.27769 109.99003
#
# Poissons Ratio (x) = 0.18793 0.19236
# Poissons Ratio (y) = 0.08565 0.24929
# Poissons Ratio (z) = 0.11420 0.32474
#
# Static dielectric constant tensor:
#      x y z
#    x 4.666310 -0.155820 0.229680 
#    y -0.155820 5.179340 -0.026540 
#    z 0.229680 -0.026540 5.192090 
# 
# 
# High freq. dielectric constant tensor:
#      x y z
#    x 2.097330 -0.019080 0.008500 
#    y -0.019080 2.104490 0.007350 
#    z 0.008500 0.007350 2.103440 
# 
# From -- ./inp_files/160015.got.cif
#   From: 2010.06.25/outbox.cif.g09.slc.cpg/sg2_81_cif.got.tgz:160015.got - 2010.06.27 13:26:56.
