data_PCOD8026840
_publ_section_title
;
Structure prediction by ZEFSAII (Michael W. Deem and Ramdas Pophale) SiO2 
 PCOD8026840
Probable space group: P -1
;
_chemical_formula_sum "Si O2"
_cell_formula_units_Z 14
_cell_length_a 5.483822
_cell_length_b 8.639948
_cell_length_c 12.016745
_cell_angle_alpha 104.161567
_cell_angle_beta 83.838206
_cell_angle_gamma 90.283930
_cell_volume 548.726429
_symmetry_space_group_name_H-M "P -1"
_symmetry_group_IT_number 2
_symmetry_cell_setting 'triclinic'
loop_
_space_group_symop_operation_xyz
x,y,z
-x,-y,-z
loop_
_atom_site_type_symbol
_atom_site_label
_atom_site_fract_x
_atom_site_fract_y
_atom_site_fract_z
Si Si1 0.849521 0.418297 0.133762
Si Si2 0.486041 0.111607 0.627478
Si Si3 0.677642 0.422563 0.567512
Si Si4 0.235850 0.022124 0.200852
Si Si5 0.850104 0.785194 0.161627
Si Si6 0.380494 0.241727 0.047818
Si Si7 0.023054 0.668896 0.663667
O O1 0.900424 0.596808 0.124479
O O2 0.611474 0.356524 0.068935
O O3 0.786619 0.407924 0.267869
O O4 0.106675 0.322308 0.085325
O O5 0.575467 0.288591 0.629258
O O6 0.217098 0.146737 0.699837
O O7 0.500000 0.000000 0.500000
O O8 0.633432 0.019173 0.698313
O O9 0.500000 0.500000 0.500000
O O10 0.889834 0.335825 0.468617
O O11 0.777907 0.562693 0.665552
O O12 0.408196 0.098068 0.110578
O O13 0.025845 0.150054 0.268599
O O14 0.099907 0.870254 0.127317
O O15 0.625150 0.825183 0.091789
#
# Coordination Sequence:
#
# PCOD8026840 Si02
#       7
#     2   2   2   2   2   2   2
#     4  11  26  47  80 112 149 193 256 312 376 446
#     4  12  28  43  73 107 151 194 250 311 376 447
#     4  11  23  42  72 101 142 198 254 306 374 442
#     4  11  27  45  72 103 154 191 249 304 384 445
#     4  12  27  47  74 111 149 196 248 317 376 443
#     4  11  28  49  80 110 151 200 253 309 377 454
#     4  10  24  43  69 102 144 196 248 311 368 449
#
# _framework density 25.513622000000002
#
# number of rings (size 3 to 8) (size 9 to 14) (size 15 to 20)
#    0.000    0.857    0.000    4.714   18.000    5.143 
#    0.000    0.000    0.000    0.000    0.000    0.000 
#    0.000    0.000    0.000    0.000    0.000    0.000 
#
# Total GULP energy -173557.694142 kJ/mol
# GULP energy per Si atom -12396.978153 kJ/mol
# Density = 2.545555 g / cm^3
# Si number density = 25.513622 Si / 1000 Ang^3
#
#
#
# Elastic Constant Matrix: (Units=GPa)
#
#
# Indices 1 2 3 4 5 6 
#
# 1 84.2046 35.7763 20.3891 11.6598 18.2793 10.3729
# 2 35.7763 167.6987 44.3505 -16.1292 5.5333 14.6041
# 3 20.3891 44.3505 126.7295 3.1920 21.3838 -4.1168
# 4 11.6598 -16.1292 3.1920 39.6898 -2.2759 17.9091
# 5 18.2793 5.5333 21.3838 -2.2759 38.1559 -1.8829
# 6 10.3729 14.6041 -4.1168 17.9091 -1.8829 37.6316
#
#
#
# Elastic Compliance Matrix: (Units=1/GPa)
#
#
# Indices 1 2 3 4 5 6 
#
# 1 0.016073 -0.003875 0.000231 -0.006714 -0.007672 -0.000090
# 2 -0.003875 0.008941 -0.003362 0.008128 0.002607 -0.006507
# 3 0.000231 -0.003362 0.010189 -0.004462 -0.005392 0.004209
# 4 -0.006714 0.008128 -0.004462 0.040553 0.005931 -0.020794
# 5 -0.007672 0.002607 -0.005392 0.005931 0.032848 -0.000666
# 6 -0.000090 -0.006507 0.004209 -0.020794 -0.000666 0.039447
#
#
# Mechanical properties :
#
#
# Convention : Reuss Voigt Hill
#
# Bulk Modulus (GPa) = 47.18831 64.40715 55.79773
# Shear Modulus (GPa) = 29.56380 41.63659 35.60020
#
# Velocity S-wave (km/s) = 3.40773 4.04410 3.73948
# Velocity P-wave (km/s) = 5.83258 6.86334 6.36885
#
# Compressibility (1/GPa) = 0.02119169
#
# Stress axis : x y z
#
# Youngs Moduli (GPa) = 62.21805 111.84220 98.14431
#
# Poissons Ratio (x) = 0.43336 -0.02267
# Poissons Ratio (y) = 0.24108 0.32994
# Poissons Ratio (z) = -0.01437 0.37599
#
# Static dielectric constant tensor:
#      x y z
#    x 4.500550 -0.002160 -0.176810 
#    y -0.002160 4.741060 -0.202500 
#    z -0.176810 -0.202500 5.450770 
# 
# 
# High freq. dielectric constant tensor:
#      x y z
#    x 2.014070 -0.004420 -0.005570 
#    y -0.004420 2.035470 -0.005050 
#    z -0.005570 -0.005050 2.044710 
# 
# From -- ./inp_files/360859.got.cif
#   From: 2010.06.25/outbox.cif.g09.slc.cpg/sg2_181_cif.got.tgz:360859.got - 2010.06.27 13:26:56.
