data_PCOD8026698
_publ_section_title
;
Structure prediction by ZEFSAII (Michael W. Deem and Ramdas Pophale) SiO2 
 PCOD8026698
Probable space group: P -1
;
_chemical_formula_sum "Si O2"
_cell_formula_units_Z 14
_cell_length_a 23.707572
_cell_length_b 8.946567
_cell_length_c 9.197230
_cell_angle_alpha 136.036308
_cell_angle_beta 28.096965
_cell_angle_gamma 132.451165
_cell_volume 632.993834
_symmetry_space_group_name_H-M "P -1"
_symmetry_group_IT_number 2
_symmetry_cell_setting 'triclinic'
loop_
_space_group_symop_operation_xyz
x,y,z
-x,-y,-z
loop_
_atom_site_type_symbol
_atom_site_label
_atom_site_fract_x
_atom_site_fract_y
_atom_site_fract_z
Si Si1 0.182274 0.079765 0.399800
Si Si2 0.753506 0.818387 0.346749
Si Si3 0.662100 0.185687 0.635840
Si Si4 0.526139 0.515302 0.620570
Si Si5 0.361100 0.126219 0.788627
Si Si6 0.163815 0.404178 0.437810
Si Si7 0.023487 0.305058 0.412038
O O1 0.097567 0.857356 0.414670
O O2 0.199273 0.133791 0.565974
O O3 0.122314 0.273440 0.589142
O O4 0.312384 0.055706 0.011456
O O5 0.667871 0.588489 0.377907
O O6 0.675641 0.004543 0.599730
O O7 0.869201 0.815847 0.980079
O O8 0.785994 0.349284 0.464266
O O9 0.636030 0.082292 0.464160
O O10 0.547717 0.306388 0.015256
O O11 0.500000 0.500000 0.500000
O O12 0.490879 0.276436 0.606529
O O13 0.270222 0.285217 0.036109
O O14 0.054564 0.397452 0.567711
O O15 0.000000 0.500000 0.500000
#
# Coordination Sequence:
#
# PCOD8026698 Si02
#       7
#     2   2   2   2   2   2   2
#     4  10  24  43  64  97 137 172 220 277 328 391
#     4  12  23  41  68  99 133 172 226 274 323 398
#     4  11  20  42  72  98 127 177 219 265 336 393
#     4  11  22  41  70 101 133 171 223 269 328 396
#     4   9  21  42  65  98 132 169 219 262 334 391
#     4   9  21  42  66  93 134 167 216 271 327 387
#     4  12  24  45  67  96 133 177 226 277 321 390
#
# _framework density 22.117118000000001
#
# number of rings (size 3 to 8) (size 9 to 14) (size 15 to 20)
#    0.857    0.571    2.857    3.000    0.000    1.714 
#    0.000    2.857    0.000    0.000    0.000    0.000 
#    0.000    0.000    0.000    0.000    0.000    0.000 
#
# Total GULP energy -173575.502418 kJ/mol
# GULP energy per Si atom -12398.250173 kJ/mol
# Density = 2.206678 g / cm^3
# Si number density = 22.117118 Si / 1000 Ang^3
#
#
#
# Elastic Constant Matrix: (Units=GPa)
#
#
# Indices 1 2 3 4 5 6 
#
# 1 67.5912 21.8235 -0.9945 4.0332 5.9306 -0.0876
# 2 21.8235 149.6126 25.2238 -24.6433 5.9759 24.5769
# 3 -0.9945 25.2238 64.2452 -2.4784 16.2352 6.1841
# 4 4.0332 -24.6433 -2.4784 39.7070 4.4000 4.1513
# 5 5.9306 5.9759 16.2352 4.4000 24.0607 -3.3563
# 6 -0.0876 24.5769 6.1841 4.1513 -3.3563 34.6123
#
#
#
# Elastic Compliance Matrix: (Units=1/GPa)
#
#
# Indices 1 2 3 4 5 6 
#
# 1 0.016539 -0.003612 0.002258 -0.003605 -0.003727 0.002274
# 2 -0.003612 0.010325 -0.002366 0.007766 -0.002628 -0.008104
# 3 0.002258 -0.002366 0.020655 0.001600 -0.014704 -0.003623
# 4 -0.003605 0.007766 0.001600 0.032645 -0.009575 -0.010653
# 5 -0.003727 -0.002628 -0.014704 -0.009575 0.056354 0.011097
# 6 0.002274 -0.008104 -0.003623 -0.010653 0.011097 0.037653
#
#
# Mechanical properties :
#
#
# Convention : Reuss Voigt Hill
#
# Bulk Modulus (GPa) = 24.94997 41.50607 33.22802
# Shear Modulus (GPa) = 25.64488 35.36910 30.50699
#
# Velocity S-wave (km/s) = 3.40884 4.00330 3.71797
# Velocity P-wave (km/s) = 5.17677 6.33844 5.78683
#
# Compressibility (1/GPa) = 0.04008022
#
# Stress axis : x y z
#
# Youngs Moduli (GPa) = 60.46223 96.85230 48.41334
#
# Poissons Ratio (x) = 0.34981 -0.10931
# Poissons Ratio (y) = 0.21837 0.11454
# Poissons Ratio (z) = -0.13651 0.22913
#
# Static dielectric constant tensor:
#      x y z
#    x 3.770090 0.141340 0.029920 
#    y 0.141340 4.209420 -0.204770 
#    z 0.029920 -0.204770 3.850840 
# 
# 
# High freq. dielectric constant tensor:
#      x y z
#    x 1.862410 0.012280 0.012120 
#    y 0.012280 1.884960 -0.011540 
#    z 0.012120 -0.011540 1.856690 
# 
# From -- ./inp_files/352362.got.cif
#   From: 2010.06.25/outbox.cif.g09.slc.cpg/sg2_177_cif.got.tgz:352362.got - 2010.06.27 13:26:56.
