data_PCOD8026040
_publ_section_title
;
Structure prediction by ZEFSAII (Michael W. Deem and Ramdas Pophale) SiO2 
 PCOD8026040
Probable space group: P -1
;
_chemical_formula_sum "Si O2"
_cell_formula_units_Z 16
_cell_length_a 14.248141
_cell_length_b 8.686428
_cell_length_c 8.242229
_cell_angle_alpha 50.746121
_cell_angle_beta 97.034148
_cell_angle_gamma 124.298434
_cell_volume 607.295101
_symmetry_space_group_name_H-M "P -1"
_symmetry_group_IT_number 2
_symmetry_cell_setting 'triclinic'
loop_
_space_group_symop_operation_xyz
x,y,z
-x,-y,-z
loop_
_atom_site_type_symbol
_atom_site_label
_atom_site_fract_x
_atom_site_fract_y
_atom_site_fract_z
Si Si1 0.244437 0.811456 0.020468
Si Si2 0.389589 0.616831 0.603781
Si Si3 0.402722 0.821929 0.797349
Si Si4 0.792952 0.806557 0.387615
Si Si5 0.956915 0.838433 0.937067
Si Si6 0.596278 0.780205 0.965801
Si Si7 0.013991 0.547167 0.662774
Si Si8 0.780870 0.865062 0.698240
O O1 0.291622 0.712505 0.968196
O O2 0.233906 0.011132 0.804888
O O3 0.115715 0.554593 0.225650
O O4 0.333791 0.954603 0.097670
O O5 0.352986 0.721543 0.670734
O O6 0.276443 0.450009 0.566440
O O7 0.507342 0.869490 0.373016
O O8 0.427629 0.448250 0.782805
O O9 0.466052 0.696402 0.941633
O O10 0.741319 0.712750 0.621529
O O11 0.939198 0.971165 0.300946
O O12 0.828014 0.759717 0.904831
O O13 0.941434 0.586125 0.139653
O O14 0.000000 0.000000 0.000000
O O15 0.671065 0.834998 0.780608
O O16 0.000000 0.500000 0.500000
O O17 0.111855 0.843686 0.523203
#
# Coordination Sequence:
#
# PCOD8026040 Si02
#       8
#     2   2   2   2   2   2   2   2
#     4  10  23  47  74 113 147 191 255 303 369 448
#     4  10  25  50  74 102 148 198 248 314 374 431
#     4  11  25  48  80 108 141 197 254 308 380 434
#     4  10  25  46  70 108 154 196 244 310 368 445
#     4  11  22  44  72 106 150 194 251 297 363 443
#     4  11  24  47  73 110 152 192 245 310 367 447
#     4  11  22  46  77 107 154 200 234 309 367 437
#     4  12  25  45  73 112 152 199 247 293 377 444
#
# _framework density 26.346335
#
# number of rings (size 3 to 8) (size 9 to 14) (size 15 to 20)
#    0.000    1.250    2.500    2.625    3.500    7.000 
#   11.250    2.500    0.000    0.000    0.000    0.000 
#    0.000    0.000    0.000    0.000    0.000    0.000 
#
# Total GULP energy -198484.873251 kJ/mol
# GULP energy per Si atom -12405.304578 kJ/mol
# Density = 2.628637 g / cm^3
# Si number density = 26.346335 Si / 1000 Ang^3
#
#
#
# Elastic Constant Matrix: (Units=GPa)
#
#
# Indices 1 2 3 4 5 6 
#
# 1 112.7876 15.2991 20.0320 13.7441 -25.4381 -22.4277
# 2 15.2991 107.1323 23.0212 10.2747 5.1360 -11.6076
# 3 20.0320 23.0212 116.8661 -14.0207 -7.3111 -17.2669
# 4 13.7441 10.2747 -14.0207 54.2025 -11.2358 -3.1361
# 5 -25.4381 5.1360 -7.3111 -11.2358 31.1477 14.2754
# 6 -22.4277 -11.6076 -17.2669 -3.1361 14.2754 24.2157
#
#
#
# Elastic Compliance Matrix: (Units=1/GPa)
#
#
# Indices 1 2 3 4 5 6 
#
# 1 0.011977 -0.001099 -0.000690 -0.001297 0.006567 0.006035
# 2 -0.001099 0.011406 -0.001908 -0.003583 -0.007840 0.007247
# 3 -0.000690 -0.001908 0.010419 0.003750 0.000869 0.005850
# 4 -0.001297 -0.003583 0.003750 0.022299 0.009926 -0.003208
# 5 0.006567 -0.007840 0.000869 0.009926 0.055640 -0.028571
# 6 0.006035 0.007247 0.005850 -0.003208 -0.028571 0.070957
#
#
# Mechanical properties :
#
#
# Convention : Reuss Voigt Hill
#
# Bulk Modulus (GPa) = 37.86548 50.38784 44.12666
# Shear Modulus (GPa) = 25.13888 40.47542 32.80715
#
# Velocity S-wave (km/s) = 3.09232 3.92380 3.53260
# Velocity P-wave (km/s) = 5.21088 6.30039 5.78136
#
# Compressibility (1/GPa) = 0.02640928
#
# Stress axis : x y z
#
# Youngs Moduli (GPa) = 83.49374 87.67472 95.97428
#
# Poissons Ratio (x) = 0.09634 0.06618
# Poissons Ratio (y) = 0.09175 0.18312
# Poissons Ratio (z) = 0.05757 0.16729
#
# Static dielectric constant tensor:
#      x y z
#    x 4.756960 0.009400 -0.184030 
#    y 0.009400 5.115750 -0.019040 
#    z -0.184030 -0.019040 4.771830 
# 
# 
# High freq. dielectric constant tensor:
#      x y z
#    x 2.049260 -0.002950 -0.000660 
#    y -0.002950 2.070200 -0.006560 
#    z -0.000660 -0.006560 2.070440 
# 
# From -- ./inp_files/294151.got.cif
#   From: 2010.06.25/outbox.cif.g09.slc.cpg/sg2_148_cif.got.tgz:294151.got - 2010.06.27 13:26:56.
