data_PCOD8026992
_publ_section_title
;
Structure prediction by ZEFSAII (Michael W. Deem and Ramdas Pophale) SiO2 
 PCOD8026992
Probable space group: P -1
;
_chemical_formula_sum "Si O2"
_cell_formula_units_Z 14
_cell_length_a 13.714309
_cell_length_b 11.791079
_cell_length_c 5.301902
_cell_angle_alpha 64.727562
_cell_angle_beta 82.696794
_cell_angle_gamma 45.919133
_cell_volume 537.557306
_symmetry_space_group_name_H-M "P -1"
_symmetry_group_IT_number 2
_symmetry_cell_setting 'triclinic'
loop_
_space_group_symop_operation_xyz
x,y,z
-x,-y,-z
loop_
_atom_site_type_symbol
_atom_site_label
_atom_site_fract_x
_atom_site_fract_y
_atom_site_fract_z
Si Si1 0.769441 0.852781 0.597078
Si Si2 0.825855 0.459766 0.429327
Si Si3 0.416677 0.159030 0.074395
Si Si4 0.413909 0.771560 0.818554
Si Si5 0.930520 0.733068 0.148444
Si Si6 0.329649 0.592296 0.162749
Si Si7 0.057881 0.815557 0.741805
O O1 0.636037 0.878213 0.635886
O O2 0.823852 0.798497 0.344725
O O3 0.711983 0.048227 0.471264
O O4 0.876608 0.719948 0.917068
O O5 0.947245 0.292535 0.362446
O O6 0.911301 0.453458 0.635397
O O7 0.736749 0.416754 0.568853
O O8 0.727365 0.655313 0.167277
O O9 0.516044 0.182676 0.088061
O O10 0.500000 0.000000 0.000000
O O11 0.355716 0.716967 0.079915
O O12 0.523173 0.609819 0.745595
O O13 0.958805 0.856827 0.965762
O O14 0.222485 0.676628 0.885057
O O15 0.000000 0.000000 0.500000
#
# Coordination Sequence:
#
# PCOD8026992 Si02
#       7
#     2   2   2   2   2   2   2
#     4  12  26  47  77 111 154 206 261 312 377 457
#     4  11  25  48  78 112 155 194 258 316 395 455
#     4  12  27  51  77 110 153 212 261 318 373 458
#     4  11  24  48  73 113 155 197 262 312 394 454
#     4  11  26  48  74 116 148 198 256 318 383 461
#     4  10  24  43  77 113 151 196 244 331 390 465
#     4  11  23  46  77 113 156 197 248 316 397 463
#
# _framework density 26.043738000000001
#
# number of rings (size 3 to 8) (size 9 to 14) (size 15 to 20)
#    0.000    0.857    2.857    3.000    2.000    4.000 
#    2.571    0.000    0.000    0.000    0.000    0.000 
#    0.000    0.000    0.000    0.000    0.000    0.000 
#
# Total GULP energy -173474.140231 kJ/mol
# GULP energy per Si atom -12391.010016 kJ/mol
# Density = 2.598446 g / cm^3
# Si number density = 26.043738 Si / 1000 Ang^3
#
#
#
# Elastic Constant Matrix: (Units=GPa)
#
#
# Indices 1 2 3 4 5 6 
#
# 1 125.9131 24.9899 25.8146 19.6886 -40.2806 6.2078
# 2 24.9899 99.4610 56.3120 -8.2506 -17.5114 -3.0131
# 3 25.8146 56.3120 106.8396 11.8437 -26.2086 -7.2244
# 4 19.6886 -8.2506 11.8437 41.5985 -7.9013 -7.5674
# 5 -40.2806 -17.5114 -26.2086 -7.9013 53.1964 5.6747
# 6 6.2078 -3.0131 -7.2244 -7.5674 5.6747 38.0913
#
#
#
# Elastic Compliance Matrix: (Units=1/GPa)
#
#
# Indices 1 2 3 4 5 6 
#
# 1 0.012055 -0.002661 0.000861 -0.005699 0.008297 -0.004380
# 2 -0.002661 0.016245 -0.008617 0.007210 -0.000003 0.001517
# 3 0.000861 -0.008617 0.015455 -0.005592 0.004565 0.000318
# 4 -0.005699 0.007210 -0.005592 0.030817 -0.000833 0.006685
# 5 0.008297 -0.000003 0.004565 -0.000833 0.027715 -0.004781
# 6 -0.004380 0.001517 0.000318 0.006685 -0.004781 0.029187
#
#
# Mechanical properties :
#
#
# Convention : Reuss Voigt Hill
#
# Bulk Modulus (GPa) = 43.62883 60.71629 52.17256
# Shear Modulus (GPa) = 31.26029 41.58373 36.42201
#
# Velocity S-wave (km/s) = 3.46829 4.00019 3.74370
# Velocity P-wave (km/s) = 5.72951 6.68575 6.22601
#
# Compressibility (1/GPa) = 0.02292062
#
# Stress axis : x y z
#
# Youngs Moduli (GPa) = 82.95288 61.55852 64.70532
#
# Poissons Ratio (x) = 0.16379 -0.05569
# Poissons Ratio (y) = 0.22072 0.55755
# Poissons Ratio (z) = -0.07139 0.53043
#
# Static dielectric constant tensor:
#      x y z
#    x 5.166230 -0.283740 -0.130730 
#    y -0.283740 4.133300 0.026200 
#    z -0.130730 0.026200 4.741130 
# 
# 
# High freq. dielectric constant tensor:
#      x y z
#    x 2.072940 -0.019420 -0.014800 
#    y -0.019420 2.013450 -0.019080 
#    z -0.014800 -0.019080 2.059220 
# 
# From -- ./inp_files/93184.got.cif
#   From: 2010.06.25/outbox.cif.g09.slc.cpg/sg2_47_cif.got.tgz:93184.got - 2010.06.27 13:26:56.
