data_PCOD8026382
_publ_section_title
;
Structure prediction by ZEFSAII (Michael W. Deem and Ramdas Pophale) SiO2 
 PCOD8026382
Probable space group: P -1
;
_chemical_formula_sum "Si O2"
_cell_formula_units_Z 14
_cell_length_a 16.604394
_cell_length_b 22.969512
_cell_length_c 5.249397
_cell_angle_alpha 107.594053
_cell_angle_beta 106.409855
_cell_angle_gamma 18.444393
_cell_volume 603.740243
_symmetry_space_group_name_H-M "P -1"
_symmetry_group_IT_number 2
_symmetry_cell_setting 'triclinic'
loop_
_space_group_symop_operation_xyz
x,y,z
-x,-y,-z
loop_
_atom_site_type_symbol
_atom_site_label
_atom_site_fract_x
_atom_site_fract_y
_atom_site_fract_z
Si Si1 0.931478 0.276755 0.131509
Si Si2 0.209602 0.374301 0.723521
Si Si3 0.209712 0.265157 0.922204
Si Si4 0.927640 0.085706 0.300155
Si Si5 0.766746 0.005875 0.639753
Si Si6 0.283484 0.082598 0.818162
Si Si7 0.605538 0.494433 0.624022
O O1 0.783717 0.394601 0.417106
O O2 0.735005 0.402871 0.894366
O O3 0.106827 0.095573 0.104377
O O4 0.134940 0.188579 0.099641
O O5 0.467495 0.229186 0.663853
O O6 0.000000 0.500000 0.500000
O O7 0.074507 0.516207 0.974793
O O8 0.309580 0.242917 0.767087
O O9 0.410761 0.130505 0.157907
O O10 0.204543 0.197821 0.740071
O O11 0.075070 0.048348 0.412053
O O12 0.000000 0.000000 0.500000
O O13 0.625328 0.299961 0.301311
O O14 0.000000 0.000000 0.000000
O O15 0.814918 0.910714 0.397462
O O16 0.500000 0.500000 0.500000
#
# Coordination Sequence:
#
# PCOD8026382 Si02
#       7
#     2   2   2   2   2   2   2
#     4  12  24  43  76 107 138 190 251 299 360 435
#     4  11  23  44  69 105 154 192 240 301 378 443
#     4  10  24  41  70 106 146 193 244 309 364 438
#     4  12  30  51  75 110 152 191 245 312 381 443
#     4  12  26  46  76 103 150 201 246 312 376 440
#     4  11  23  45  71 107 144 193 256 302 363 442
#     4  12  25  46  78 103 142 185 247 306 362 437
#
# _framework density 23.188777999999999
#
# number of rings (size 3 to 8) (size 9 to 14) (size 15 to 20)
#    0.000    0.571    5.714    1.286    4.000    4.000 
#    2.571    0.000    0.000    0.000    0.000    0.000 
#    0.000    0.000    0.000    0.000    0.000    0.000 
#
# Total GULP energy -173481.003794 kJ/mol
# GULP energy per Si atom -12391.500271 kJ/mol
# Density = 2.313600 g / cm^3
# Si number density = 23.188778 Si / 1000 Ang^3
#
#
#
# Elastic Constant Matrix: (Units=GPa)
#
#
# Indices 1 2 3 4 5 6 
#
# 1 137.1997 45.6806 34.9066 -4.5552 3.1028 12.3714
# 2 45.6806 178.1674 49.8621 -11.8466 -7.8412 -3.4832
# 3 34.9066 49.8621 109.3153 -11.4595 -3.8335 5.1620
# 4 -4.5552 -11.8466 -11.4595 44.0484 1.8840 -9.3192
# 5 3.1028 -7.8412 -3.8335 1.8840 35.2784 0.9853
# 6 12.3714 -3.4832 5.1620 -9.3192 0.9853 44.9913
#
#
#
# Elastic Compliance Matrix: (Units=1/GPa)
#
#
# Indices 1 2 3 4 5 6 
#
# 1 0.008602 -0.001809 -0.001911 -0.000541 -0.001271 -0.002370
# 2 -0.001809 0.006947 -0.002481 0.001310 0.001320 0.001562
# 3 -0.001911 -0.002481 0.011140 0.001881 0.000743 -0.000571
# 4 -0.000541 0.001310 0.001881 0.024617 -0.000916 0.005154
# 5 -0.001271 0.001320 0.000743 -0.000916 0.028893 -0.000456
# 6 -0.002370 0.001562 -0.000571 0.005154 -0.000456 0.024142
#
#
# Mechanical properties :
#
#
# Convention : Reuss Voigt Hill
#
# Bulk Modulus (GPa) = 69.99750 76.17565 73.08657
# Shear Modulus (GPa) = 41.15055 44.47917 42.81486
#
# Velocity S-wave (km/s) = 4.21716 4.38440 4.30159
# Velocity P-wave (km/s) = 7.34602 7.65194 7.50054
#
# Compressibility (1/GPa) = 0.01428622
#
# Stress axis : x y z
#
# Youngs Moduli (GPa) = 116.25745 143.95622 89.76702
#
# Poissons Ratio (x) = 0.26039 0.17154
# Poissons Ratio (y) = 0.21029 0.22272
# Poissons Ratio (z) = 0.22217 0.35717
#
# Static dielectric constant tensor:
#      x y z
#    x 4.186440 0.070300 -0.234830 
#    y 0.070300 4.583730 0.035130 
#    z -0.234830 0.035130 4.111060 
# 
# 
# High freq. dielectric constant tensor:
#      x y z
#    x 1.910090 -0.006830 -0.015240 
#    y -0.006830 1.947630 -0.006050 
#    z -0.015240 -0.006050 1.904680 
# 
# From -- ./inp_files/100637.got.cif
#   From: 2010.06.25/outbox.cif.g09.slc.cpg/sg2_51_cif.got.tgz:100637.got - 2010.06.27 13:26:56.
