data_PCOD8026531
_publ_section_title
;
Structure prediction by ZEFSAII (Michael W. Deem and Ramdas Pophale) SiO2 
 PCOD8026531
Probable space group: P -1
;
_chemical_formula_sum "Si O2"
_cell_formula_units_Z 14
_cell_length_a 21.231922
_cell_length_b 6.807318
_cell_length_c 9.310537
_cell_angle_alpha 131.441649
_cell_angle_beta 138.510016
_cell_angle_gamma 60.555914
_cell_volume 668.267453
_symmetry_space_group_name_H-M "P -1"
_symmetry_group_IT_number 2
_symmetry_cell_setting 'triclinic'
loop_
_space_group_symop_operation_xyz
x,y,z
-x,-y,-z
loop_
_atom_site_type_symbol
_atom_site_label
_atom_site_fract_x
_atom_site_fract_y
_atom_site_fract_z
Si Si1 0.993663 0.007118 0.741567
Si Si2 0.696177 0.995975 0.541114
Si Si3 0.134640 0.186408 0.824297
Si Si4 0.440528 0.551058 0.562227
Si Si5 0.577422 0.514673 0.018894
Si Si6 0.110679 0.768966 0.069176
Si Si7 0.669657 0.983578 0.823569
O O1 0.947384 0.215375 0.872964
O O2 0.069777 0.140689 0.831185
O O3 0.913329 0.882790 0.442644
O O4 0.041730 0.792142 0.823797
O O5 0.634100 0.215583 0.463240
O O6 0.805923 0.013105 0.687259
O O7 0.690503 0.044603 0.723839
O O8 0.664452 0.703697 0.302389
O O9 0.161374 0.491033 0.013318
O O10 0.231790 0.028120 0.926588
O O11 0.500000 0.500000 0.500000
O O12 0.389598 0.284097 0.396340
O O13 0.522812 0.641617 0.854545
O O14 0.500000 0.500000 0.000000
O O15 0.612239 0.221695 0.907746
#
# Coordination Sequence:
#
# PCOD8026531 Si02
#       7
#     2   2   2   2   2   2   2
#     4  10  24  42  68 101 132 174 219 274 332 401
#     4  12  25  44  69 100 137 177 222 282 331 397
#     4  11  23  44  69  98 136 175 219 272 341 389
#     4  12  24  45  72  93 134 178 222 277 339 393
#     4  12  26  45  70  99 136 176 228 278 335 397
#     4  11  23  44  68 100 135 172 225 271 332 396
#     4  12  25  45  68 100 140 173 221 287 331 395
#
# _framework density 20.949695999999999
#
# number of rings (size 3 to 8) (size 9 to 14) (size 15 to 20)
#    0.000    0.571    5.714    2.571    0.000    4.571 
#   10.286    0.000    0.000    0.000    0.000    0.000 
#    0.000    0.000    0.000    0.000    0.000    0.000 
#
# Total GULP energy -173614.262426 kJ/mol
# GULP energy per Si atom -12401.018745 kJ/mol
# Density = 2.090201 g / cm^3
# Si number density = 20.949696 Si / 1000 Ang^3
#
#
#
# Elastic Constant Matrix: (Units=GPa)
#
#
# Indices 1 2 3 4 5 6 
#
# 1 91.4684 19.0797 34.9500 -21.3038 -9.0599 9.0879
# 2 19.0797 97.0725 34.0890 -9.7457 -7.4769 -9.4724
# 3 34.9500 34.0890 122.1725 -17.8029 -1.9782 3.7811
# 4 -21.3038 -9.7457 -17.8029 39.0239 2.5100 2.5277
# 5 -9.0599 -7.4769 -1.9782 2.5100 35.9450 -3.7846
# 6 9.0879 -9.4724 3.7811 2.5277 -3.7846 31.3990
#
#
#
# Elastic Compliance Matrix: (Units=1/GPa)
#
#
# Indices 1 2 3 4 5 6 
#
# 1 0.014423 -0.001558 -0.002571 0.006465 0.002235 -0.004586
# 2 -0.001558 0.012385 -0.003065 0.000371 0.002497 0.004827
# 3 -0.002571 -0.003065 0.010201 0.002669 -0.001095 -0.001756
# 4 0.006465 0.000371 0.002669 0.030817 -0.000789 -0.004657
# 5 0.002235 0.002497 -0.001095 -0.000789 0.029302 0.003833
# 6 -0.004586 0.004827 -0.001756 -0.004657 0.003833 0.035680
#
#
# Mechanical properties :
#
#
# Convention : Reuss Voigt Hill
#
# Bulk Modulus (GPa) = 44.20691 54.10565 49.15628
# Shear Modulus (GPa) = 32.31302 36.11323 34.21312
#
# Velocity S-wave (km/s) = 3.93161 4.15638 4.04556
# Velocity P-wave (km/s) = 6.46199 6.99403 6.73327
#
# Compressibility (1/GPa) = 0.02262090
#
# Stress axis : x y z
#
# Youngs Moduli (GPa) = 69.33396 80.74446 98.02630
#
# Poissons Ratio (x) = 0.12582 0.25203
# Poissons Ratio (y) = 0.10804 0.30043
# Poissons Ratio (z) = 0.17826 0.24747
#
# Static dielectric constant tensor:
#      x y z
#    x 3.727610 0.121700 0.067880 
#    y 0.121700 3.933480 -0.177570 
#    z 0.067880 -0.177570 3.876170 
# 
# 
# High freq. dielectric constant tensor:
#      x y z
#    x 1.830830 0.005440 0.001910 
#    y 0.005440 1.827080 -0.012450 
#    z 0.001910 -0.012450 1.832140 
# 
# From -- ./inp_files/34920.got.cif
#   From: 2010.06.25/outbox.cif.g09.slc.cpg/sg2_18_cif.got.tgz:34920.got - 2010.06.27 13:26:56.
