data_PCOD8026863
_publ_section_title
;
Structure prediction by ZEFSAII (Michael W. Deem and Ramdas Pophale) SiO2 
 PCOD8026863
Probable space group: P -1
;
_chemical_formula_sum "Si O2"
_cell_formula_units_Z 16
_cell_length_a 5.628759
_cell_length_b 11.716892
_cell_length_c 17.816780
_cell_angle_alpha 131.641206
_cell_angle_beta 53.172887
_cell_angle_gamma 106.623017
_cell_volume 690.424213
_symmetry_space_group_name_H-M "P -1"
_symmetry_group_IT_number 2
_symmetry_cell_setting 'triclinic'
loop_
_space_group_symop_operation_xyz
x,y,z
-x,-y,-z
loop_
_atom_site_type_symbol
_atom_site_label
_atom_site_fract_x
_atom_site_fract_y
_atom_site_fract_z
Si Si1 0.799818 0.848161 0.036772
Si Si2 0.023514 0.879161 0.806666
Si Si3 0.930473 0.340139 0.970447
Si Si4 0.183625 0.944033 0.517534
Si Si5 0.834266 0.395990 0.588426
Si Si6 0.294758 0.336999 0.163735
Si Si7 0.435232 0.396837 0.398803
Si Si8 0.129252 0.942957 0.226716
O O1 0.466848 0.951350 0.140978
O O2 0.799144 0.737618 0.061085
O O3 0.025394 0.970887 0.061732
O O4 0.887166 0.730999 0.899281
O O5 0.312814 0.755220 0.723475
O O6 0.725631 0.797548 0.828838
O O7 0.080920 0.937366 0.737322
O O8 0.920039 0.233614 0.852994
O O9 0.625783 0.355886 0.084742
O O10 0.000000 0.500000 0.000000
O O11 0.266774 0.757155 0.426023
O O12 0.500000 0.000000 0.500000
O O13 0.000000 0.000000 0.500000
O O14 0.939291 0.012469 0.655787
O O15 0.887328 0.499822 0.697025
O O16 0.580441 0.503753 0.632229
O O17 0.120481 0.344108 0.456818
O O18 0.500000 0.500000 0.500000
#
# Coordination Sequence:
#
# PCOD8026863 Si02
#       8
#     2   2   2   2   2   2   2   2
#     4  10  24  43  69  98 142 187 232 297 369 432
#     4  11  23  41  74 101 146 181 235 300 370 448
#     4  10  25  44  70  96 140 188 241 295 357 430
#     4  12  31  49  78 109 147 198 256 310 362 445
#     4  11  27  44  68 108 142 186 247 296 373 443
#     4  11  25  41  66 109 134 183 236 295 361 439
#     4  11  23  43  71 101 146 190 227 304 378 441
#     4  10  25  47  70 102 140 187 245 295 373 433
#
# _framework density 23.174160000000001
#
# number of rings (size 3 to 8) (size 9 to 14) (size 15 to 20)
#    0.000    1.250    1.250    1.875   14.000    7.500 
#    0.000    0.000    0.000    0.000    0.000    0.000 
#    0.000    0.000    0.000    0.000    0.000    0.000 
#
# Total GULP energy -198255.204922 kJ/mol
# GULP energy per Si atom -12390.950308 kJ/mol
# Density = 2.312141 g / cm^3
# Si number density = 23.174160 Si / 1000 Ang^3
#
#
#
# Elastic Constant Matrix: (Units=GPa)
#
#
# Indices 1 2 3 4 5 6 
#
# 1 94.3276 62.3458 37.5537 5.8638 4.8570 -7.8065
# 2 62.3458 194.0643 60.5950 26.3706 5.9177 7.3484
# 3 37.5537 60.5950 133.3063 3.1438 21.9640 -4.9050
# 4 5.8638 26.3706 3.1438 33.2117 3.1208 1.8453
# 5 4.8570 5.9177 21.9640 3.1208 40.6401 4.0387
# 6 -7.8065 7.3484 -4.9050 1.8453 4.0387 39.6105
#
#
#
# Elastic Compliance Matrix: (Units=1/GPa)
#
#
# Indices 1 2 3 4 5 6 
#
# 1 0.014449 -0.004266 -0.001951 0.000875 -0.000456 0.003403
# 2 -0.004266 0.008169 -0.002719 -0.005470 0.001467 -0.002588
# 3 -0.001951 -0.002719 0.010164 0.001929 -0.005193 0.001818
# 4 0.000875 -0.005470 0.001929 0.034391 -0.003004 0.000130
# 5 -0.000456 0.001467 -0.005193 -0.003004 0.027853 -0.003705
# 6 0.003403 -0.002588 0.001818 0.000130 -0.003705 0.026993
#
#
# Mechanical properties :
#
#
# Convention : Reuss Voigt Hill
#
# Bulk Modulus (GPa) = 67.07751 82.52082 74.79916
# Shear Modulus (GPa) = 34.51528 40.10604 37.31066
#
# Velocity S-wave (km/s) = 3.86344 4.16460 4.01685
# Velocity P-wave (km/s) = 6.99352 7.66887 7.33897
#
# Compressibility (1/GPa) = 0.01490813
#
# Stress axis : x y z
#
# Youngs Moduli (GPa) = 69.20953 122.41019 98.38287
#
# Poissons Ratio (x) = 0.52226 0.19197
# Poissons Ratio (y) = 0.29528 0.26755
# Poissons Ratio (z) = 0.13505 0.33289
#
# Static dielectric constant tensor:
#      x y z
#    x 4.357370 -0.051450 0.115480 
#    y -0.051450 4.268060 0.097750 
#    z 0.115480 0.097750 4.310290 
# 
# 
# High freq. dielectric constant tensor:
#      x y z
#    x 1.914410 0.003830 0.014720 
#    y 0.003830 1.917930 0.010090 
#    z 0.014720 0.010090 1.922340 
# 
# From -- ./inp_files/109067.got.cif
#   From: 2010.06.25/outbox.cif.g09.slc.cpg/sg2_55_cif.got.tgz:109067.got - 2010.06.27 13:26:56.
