data_PCOD8026355
_publ_section_title
;
Structure prediction by ZEFSAII (Michael W. Deem and Ramdas Pophale) SiO2 
 PCOD8026355
Probable space group: P -1
;
_chemical_formula_sum "Si O2"
_cell_formula_units_Z 16
_cell_length_a 8.453153
_cell_length_b 15.353484
_cell_length_c 21.166369
_cell_angle_alpha 159.028640
_cell_angle_beta 73.596170
_cell_angle_gamma 117.188559
_cell_volume 779.625137
_symmetry_space_group_name_H-M "P -1"
_symmetry_group_IT_number 2
_symmetry_cell_setting 'triclinic'
loop_
_space_group_symop_operation_xyz
x,y,z
-x,-y,-z
loop_
_atom_site_type_symbol
_atom_site_label
_atom_site_fract_x
_atom_site_fract_y
_atom_site_fract_z
Si Si1 0.418639 0.733344 0.066132
Si Si2 0.592400 0.353058 0.426764
Si Si3 0.876526 0.830711 0.801995
Si Si4 0.844703 0.944402 0.194964
Si Si5 0.101131 0.341561 0.736937
Si Si6 0.931167 0.459536 0.370235
Si Si7 0.732286 0.237468 0.118435
Si Si8 0.864998 0.471056 0.937889
O O1 0.626269 0.759955 0.062968
O O2 0.357226 0.728045 0.142855
O O3 0.426023 0.008488 0.221082
O O4 0.262842 0.448112 0.847667
O O5 0.500000 0.500000 0.500000
O O6 0.669715 0.520307 0.598318
O O7 0.770150 0.362887 0.377701
O O8 0.002296 0.768800 0.794564
O O9 0.993023 0.958475 0.810685
O O10 0.835416 0.061209 0.989192
O O11 0.890980 0.773153 0.123391
O O12 0.875391 0.219765 0.416799
O O13 0.219000 0.566372 0.817147
O O14 0.914545 0.350796 0.788855
O O15 0.000000 0.000000 0.500000
O O16 0.835386 0.466020 0.319425
O O17 0.500000 0.000000 0.000000
O O18 0.000000 0.500000 0.000000
#
# Coordination Sequence:
#
# PCOD8026355 Si02
#       8
#     2   2   2   2   2   2   2   2
#     4  11  22  42  69  95 127 169 228 267 317 396
#     4  11  21  36  66 102 129 163 222 277 320 381
#     4  11  21  42  64  97 135 171 207 277 340 381
#     4  11  21  43  68  95 129 167 221 274 325 385
#     4  11  26  47  63  95 137 177 216 269 333 388
#     4  11  23  39  66  98 135 170 210 270 343 384
#     4  12  26  43  67  97 136 178 222 267 328 401
#     4  10  24  41  68  92 124 173 219 271 320 380
#
# _framework density 20.522684000000002
#
# number of rings (size 3 to 8) (size 9 to 14) (size 15 to 20)
#    0.000    1.000    3.750    3.750    8.750    1.000 
#    0.000    0.625    0.000    0.000    0.000    0.000 
#    0.000    0.000    0.000    0.000    0.000    0.000 
#
# Total GULP energy -198267.506674 kJ/mol
# GULP energy per Si atom -12391.719167 kJ/mol
# Density = 2.047597 g / cm^3
# Si number density = 20.522684 Si / 1000 Ang^3
#
#
#
# Elastic Constant Matrix: (Units=GPa)
#
#
# Indices 1 2 3 4 5 6 
#
# 1 94.9976 25.1008 43.6534 12.2139 -5.9483 -8.8767
# 2 25.1008 104.4968 45.6530 11.8331 -0.4732 -3.9256
# 3 43.6534 45.6530 114.4842 9.0810 -0.5074 3.8185
# 4 12.2139 11.8331 9.0810 28.2186 -10.2605 -2.0177
# 5 -5.9483 -0.4732 -0.5074 -10.2605 42.4214 -0.3355
# 6 -8.8767 -3.9256 3.8185 -2.0177 -0.3355 31.8787
#
#
#
# Elastic Compliance Matrix: (Units=1/GPa)
#
#
# Indices 1 2 3 4 5 6 
#
# 1 0.013839 -0.000638 -0.004881 -0.003466 0.001070 0.004151
# 2 -0.000638 0.012085 -0.004348 -0.003592 -0.000863 0.001595
# 3 -0.004881 -0.004348 0.012489 -0.000604 -0.000757 -0.003437
# 4 -0.003466 -0.003592 -0.000604 0.042269 0.009702 0.001442
# 5 0.001070 -0.000863 -0.000757 0.009702 0.026060 0.001171
# 6 0.004151 0.001595 -0.003437 0.001442 0.001171 0.033237
#
#
# Mechanical properties :
#
#
# Convention : Reuss Voigt Hill
#
# Bulk Modulus (GPa) = 53.53830 60.31034 56.92432
# Shear Modulus (GPa) = 30.13146 33.80850 31.96998
#
# Velocity S-wave (km/s) = 3.83587 4.06319 3.95116
# Velocity P-wave (km/s) = 6.76480 7.17381 6.97231
#
# Compressibility (1/GPa) = 0.01867822
#
# Stress axis : x y z
#
# Youngs Moduli (GPa) = 72.26148 82.74494 80.07062
#
# Poissons Ratio (x) = 0.05283 0.39082
# Poissons Ratio (y) = 0.04614 0.34814
# Poissons Ratio (z) = 0.35271 0.35977
#
# Static dielectric constant tensor:
#      x y z
#    x 3.910920 0.224990 0.045740 
#    y 0.224990 4.091070 0.051620 
#    z 0.045740 0.051620 3.845350 
# 
# 
# High freq. dielectric constant tensor:
#      x y z
#    x 1.811810 -0.000490 -0.005910 
#    y -0.000490 1.804370 0.004220 
#    z -0.005910 0.004220 1.794020 
# 
# From -- ./inp_files/222861.got.cif
#   From: 2010.06.25/outbox.cif.g09.slc.cpg/sg2_112_cif.got.tgz:222861.got - 2010.06.27 13:26:56.
