data_PCOD8026489
_publ_section_title
;
Structure prediction by ZEFSAII (Michael W. Deem and Ramdas Pophale) SiO2 
 PCOD8026489
Probable space group: P -1
;
_chemical_formula_sum "Si O2"
_cell_formula_units_Z 16
_cell_length_a 20.628741
_cell_length_b 9.557860
_cell_length_c 12.720070
_cell_angle_alpha 66.919980
_cell_angle_beta 20.144643
_cell_angle_gamma 66.316698
_cell_volume 790.096906
_symmetry_space_group_name_H-M "P -1"
_symmetry_group_IT_number 2
_symmetry_cell_setting 'triclinic'
loop_
_space_group_symop_operation_xyz
x,y,z
-x,-y,-z
loop_
_atom_site_type_symbol
_atom_site_label
_atom_site_fract_x
_atom_site_fract_y
_atom_site_fract_z
Si Si1 0.089449 0.353361 0.350383
Si Si2 0.681488 0.897596 0.224582
Si Si3 0.772142 0.419081 0.327519
Si Si4 0.533358 0.790124 0.085309
Si Si5 0.322063 0.408231 0.782346
Si Si6 0.535176 0.878296 0.819730
Si Si7 0.832320 0.104893 0.773405
Si Si8 0.826762 0.719512 0.259590
O O1 0.000000 0.500000 0.500000
O O2 0.905958 0.267716 0.631104
O O3 0.245391 0.247466 0.211823
O O4 0.180220 0.421828 0.090390
O O5 0.622269 0.772195 0.268505
O O6 0.769247 0.822674 0.217212
O O7 0.500000 0.000000 0.500000
O O8 0.809331 0.016423 0.943084
O O9 0.577933 0.343825 0.657926
O O10 0.788414 0.519622 0.170003
O O11 0.781509 0.541852 0.372294
O O12 0.945118 0.285671 0.090434
O O13 0.446678 0.946292 0.227976
O O14 0.507539 0.792148 0.997716
O O15 0.500000 0.500000 0.500000
O O16 0.723999 0.799414 0.495955
O O17 0.355606 0.869614 0.019486
O O18 0.000000 0.000000 0.500000
#
# Coordination Sequence:
#
# PCOD8026489 Si02
#       8
#     2   2   2   2   2   2   2   2
#     4  12  28  44  67 101 136 175 222 272 335 390
#     4  11  23  40  69  96 124 169 224 271 319 387
#     4  10  24  42  66  93 131 170 219 271 326 391
#     4  11  25  45  63  99 136 171 217 277 327 387
#     4  11  23  42  65  92 132 170 216 272 325 383
#     4  11  25  43  68  96 134 172 221 271 329 391
#     4  12  24  45  69  97 134 178 222 271 327 398
#     4  10  24  43  65  97 126 173 222 265 329 393
#
# _framework density 20.250681
#
# number of rings (size 3 to 8) (size 9 to 14) (size 15 to 20)
#    0.000    1.000    5.000    0.000    7.000    2.000 
#    0.000    0.000    0.000    0.000    0.000    0.000 
#    0.000    0.000    0.000    0.000    0.000    0.000 
#
# Total GULP energy -198292.739977 kJ/mol
# GULP energy per Si atom -12393.296249 kJ/mol
# Density = 2.020459 g / cm^3
# Si number density = 20.250681 Si / 1000 Ang^3
#
#
#
# Elastic Constant Matrix: (Units=GPa)
#
#
# Indices 1 2 3 4 5 6 
#
# 1 84.9906 39.8676 42.4458 2.5705 10.3748 -0.2218
# 2 39.8676 111.3760 69.8785 9.7850 17.9009 11.7033
# 3 42.4458 69.8785 131.4146 4.2294 18.4763 8.6076
# 4 2.5705 9.7850 4.2294 55.6773 1.3127 -0.2960
# 5 10.3748 17.9009 18.4763 1.3127 38.8088 1.7016
# 6 -0.2218 11.7033 8.6076 -0.2960 1.7016 36.4150
#
#
#
# Elastic Compliance Matrix: (Units=1/GPa)
#
#
# Indices 1 2 3 4 5 6 
#
# 1 0.015050 -0.003604 -0.002933 0.000197 -0.001059 0.001994
# 2 -0.003604 0.015142 -0.006206 -0.001974 -0.002855 -0.003304
# 3 -0.002933 -0.006206 0.012199 0.000346 -0.002137 -0.000804
# 4 0.000197 -0.001974 0.000346 0.018275 0.000044 0.000700
# 5 -0.001059 -0.002855 -0.002137 0.000044 0.028379 0.000090
# 6 0.001994 -0.003304 -0.000804 0.000700 0.000090 0.028727
#
#
# Mechanical properties :
#
#
# Convention : Reuss Voigt Hill
#
# Bulk Modulus (GPa) = 59.15444 70.24057 64.69750
# Shear Modulus (GPa) = 33.58145 37.88617 35.73381
#
# Velocity S-wave (km/s) = 4.07663 4.33003 4.20524
# Velocity P-wave (km/s) = 7.17168 7.73044 7.45630
#
# Compressibility (1/GPa) = 0.01690490
#
# Stress axis : x y z
#
# Youngs Moduli (GPa) = 66.44685 66.04225 81.97417
#
# Poissons Ratio (x) = 0.23800 0.24041
# Poissons Ratio (y) = 0.23946 0.50876
# Poissons Ratio (z) = 0.19487 0.40988
#
# Static dielectric constant tensor:
#      x y z
#    x 3.740400 0.022390 0.159150 
#    y 0.022390 3.807940 0.035280 
#    z 0.159150 0.035280 3.805480 
# 
# 
# High freq. dielectric constant tensor:
#      x y z
#    x 1.794350 -0.004470 0.006750 
#    y -0.004470 1.804680 0.003500 
#    z 0.006750 0.003500 1.798210 
# 
# From -- ./inp_files/205214.got.cif
#   From: 2010.06.25/outbox.cif.g09.slc.cpg/sg2_103_cif.got.tgz:205214.got - 2010.06.27 13:26:56.
