data_PCOD8026412
_publ_section_title
;
Structure prediction by ZEFSAII (Michael W. Deem and Ramdas Pophale) SiO2 
 PCOD8026412
Probable space group: P -1
;
_chemical_formula_sum "Si O2"
_cell_formula_units_Z 16
_cell_length_a 15.099119
_cell_length_b 8.263690
_cell_length_c 12.262119
_cell_angle_alpha 50.110418
_cell_angle_beta 39.991808
_cell_angle_gamma 65.179036
_cell_volume 746.482162
_symmetry_space_group_name_H-M "P -1"
_symmetry_group_IT_number 2
_symmetry_cell_setting 'triclinic'
loop_
_space_group_symop_operation_xyz
x,y,z
-x,-y,-z
loop_
_atom_site_type_symbol
_atom_site_label
_atom_site_fract_x
_atom_site_fract_y
_atom_site_fract_z
Si Si1 0.618759 0.678499 0.768454
Si Si2 0.014776 0.612462 0.761322
Si Si3 0.539620 0.066086 0.557334
Si Si4 0.180958 0.646837 0.786919
Si Si5 0.877324 0.662066 0.664977
Si Si6 0.268014 0.211874 0.803086
Si Si7 0.074760 0.802543 0.231138
Si Si8 0.178053 0.319324 0.614447
O O1 0.733598 0.741180 0.728969
O O2 0.696630 0.604356 0.620375
O O3 0.539857 0.871904 0.724142
O O4 0.500000 0.500000 0.000000
O O5 0.101240 0.750931 0.716257
O O6 0.126552 0.537178 0.606188
O O7 0.909739 0.725872 0.735100
O O8 0.929482 0.404369 0.989812
O O9 0.695115 0.189515 0.353948
O O10 0.433843 0.209121 0.649666
O O11 0.500000 0.000000 0.500000
O O12 0.234590 0.429681 0.792032
O O13 0.857071 0.404857 0.779814
O O14 0.012396 0.771050 0.424756
O O15 0.226660 0.187816 0.725749
O O16 0.189198 0.011813 0.030625
O O17 0.946280 0.835976 0.259154
#
# Coordination Sequence:
#
# PCOD8026412 Si02
#       8
#     2   2   2   2   2   2   2   2
#     4  11  23  38  60  97 129 161 210 263 311 374
#     4   9  20  39  66  88 125 166 204 262 315 376
#     4  12  26  41  64  92 123 171 216 258 304 378
#     4  10  24  42  62  95 127 161 214 260 317 373
#     4   9  19  35  60  92 129 163 204 266 315 366
#     4  11  21  39  63  89 128 170 204 261 312 367
#     4   9  18  33  60  95 123 159 211 257 314 371
#     4   9  19  34  60  95 123 158 206 261 310 363
#
# _framework density 21.433869000000001
#
# number of rings (size 3 to 8) (size 9 to 14) (size 15 to 20)
#    0.000    2.000    1.250    2.250    5.250    6.000 
#    0.000    2.500    0.000    4.500    0.000    0.000 
#    0.000    0.000    0.000    0.000    0.000    0.000 
#
# Total GULP energy -198317.318877 kJ/mol
# GULP energy per Si atom -12394.832430 kJ/mol
# Density = 2.138508 g / cm^3
# Si number density = 21.433869 Si / 1000 Ang^3
#
#
#
# Elastic Constant Matrix: (Units=GPa)
#
#
# Indices 1 2 3 4 5 6 
#
# 1 162.3276 21.9842 36.8195 -4.6210 12.4801 -1.0168
# 2 21.9842 38.5061 17.9808 0.5153 4.0931 -5.1609
# 3 36.8195 17.9808 98.2586 -1.0753 -4.0565 8.8443
# 4 -4.6210 0.5153 -1.0753 32.6235 -0.2624 -2.8358
# 5 12.4801 4.0931 -4.0565 -0.2624 35.7324 -1.3025
# 6 -1.0168 -5.1609 8.8443 -2.8358 -1.3025 32.7065
#
#
#
# Elastic Compliance Matrix: (Units=1/GPa)
#
#
# Indices 1 2 3 4 5 6 
#
# 1 0.007290 -0.002756 -0.002356 0.001015 -0.002475 0.000418
# 2 -0.002756 0.031190 -0.005355 -0.000552 -0.002999 0.006117
# 3 -0.002356 -0.005355 0.012529 -0.000181 0.002704 -0.004214
# 4 0.001015 -0.000552 -0.000181 0.031033 0.000014 0.002685
# 5 -0.002475 -0.002999 0.002704 0.000014 0.029497 -0.000105
# 6 0.000418 0.006117 -0.004214 0.002685 -0.000105 0.032921
#
#
# Mechanical properties :
#
#
# Convention : Reuss Voigt Hill
#
# Bulk Modulus (GPa) = 33.25122 50.29571 41.77347
# Shear Modulus (GPa) = 28.50303 35.03300 31.76801
#
# Velocity S-wave (km/s) = 3.65062 4.04724 3.85403
# Velocity P-wave (km/s) = 5.77204 6.73474 6.27189
#
# Compressibility (1/GPa) = 0.03007408
#
# Stress axis : x y z
#
# Youngs Moduli (GPa) = 137.17676 32.06134 79.81467
#
# Poissons Ratio (x) = 0.08837 0.18804
# Poissons Ratio (y) = 0.37809 0.42743
# Poissons Ratio (z) = 0.32319 0.17170
#
# Static dielectric constant tensor:
#      x y z
#    x 4.337760 -0.209250 0.147910 
#    y -0.209250 3.625880 0.208440 
#    z 0.147910 0.208440 3.804500 
# 
# 
# High freq. dielectric constant tensor:
#      x y z
#    x 1.855320 -0.014970 0.008960 
#    y -0.014970 1.814880 0.014020 
#    z 0.008960 0.014020 1.837960 
# 
# From -- ./inp_files/243535.got.cif
#   From: 2010.06.25/outbox.cif.g09.slc.cpg/sg2_122_cif.got.tgz:243535.got - 2010.06.27 13:26:56.
