data_PCOD8026555
_publ_section_title
;
Structure prediction by ZEFSAII (Michael W. Deem and Ramdas Pophale) SiO2 
 PCOD8026555
Probable space group: P -1
;
_chemical_formula_sum "Si O2"
_cell_formula_units_Z 16
_cell_length_a 8.216048
_cell_length_b 15.842203
_cell_length_c 7.618621
_cell_angle_alpha 108.367092
_cell_angle_beta 47.096992
_cell_angle_gamma 107.398817
_cell_volume 684.267913
_symmetry_space_group_name_H-M "P -1"
_symmetry_group_IT_number 2
_symmetry_cell_setting 'triclinic'
loop_
_space_group_symop_operation_xyz
x,y,z
-x,-y,-z
loop_
_atom_site_type_symbol
_atom_site_label
_atom_site_fract_x
_atom_site_fract_y
_atom_site_fract_z
Si Si1 0.888872 0.220327 0.620644
Si Si2 0.286110 0.362495 0.530193
Si Si3 0.011361 0.499758 0.283798
Si Si4 0.574581 0.360024 0.988661
Si Si5 0.673166 0.999788 0.140840
Si Si6 0.970885 0.850436 0.899437
Si Si7 0.764197 0.033171 0.708974
Si Si8 0.213161 0.336886 0.949386
O O1 0.677280 0.274010 0.779166
O O2 0.987899 0.183682 0.346933
O O3 0.805180 0.140511 0.762168
O O4 0.080159 0.285534 0.614882
O O5 0.357888 0.356036 0.677008
O O6 0.201730 0.458603 0.612480
O O7 0.487981 0.344922 0.242492
O O8 0.245718 0.553250 0.085942
O O9 0.000000 0.500000 0.500000
O O10 0.009099 0.398736 0.144541
O O11 0.365639 0.371241 0.025061
O O12 0.400068 0.993487 0.360288
O O13 0.795767 0.095901 0.171129
O O14 0.779829 0.917178 0.094752
O O15 0.672597 0.986828 0.923977
O O16 0.891565 0.766620 0.027464
O O17 0.000000 0.000000 0.500000
#
# Coordination Sequence:
#
# PCOD8026555 Si02
#       8
#     2   2   2   2   2   2   2   2
#     4  11  23  44  67  97 142 183 224 295 347 415
#     4  11  25  44  69 102 138 180 232 284 343 419
#     4  11  23  46  72  99 146 181 224 287 350 413
#     4  11  24  46  67  99 141 182 231 284 347 415
#     4  10  24  42  68  98 136 184 237 291 353 425
#     4  11  22  46  67 100 142 183 237 292 356 421
#     4  11  22  42  66  98 136 182 233 293 351 415
#     4  12  23  44  72 101 137 184 233 288 348 416
#
# _framework density 23.382653999999999
#
# number of rings (size 3 to 8) (size 9 to 14) (size 15 to 20)
#    0.000    1.000    3.750    3.000    0.000    1.000 
#   15.750    0.000    0.000    0.000    0.000    0.000 
#    0.000    0.000    0.000    0.000    0.000    0.000 
#
# Total GULP energy -198366.077210 kJ/mol
# GULP energy per Si atom -12397.879826 kJ/mol
# Density = 2.332943 g / cm^3
# Si number density = 23.382654 Si / 1000 Ang^3
#
#
#
# Elastic Constant Matrix: (Units=GPa)
#
#
# Indices 1 2 3 4 5 6 
#
# 1 65.1169 29.1406 25.7360 2.9915 -4.0514 -5.4183
# 2 29.1406 131.7605 25.9406 2.0805 -5.9709 -21.2646
# 3 25.7360 25.9406 97.9363 -4.8225 8.4793 -8.1768
# 4 2.9915 2.0805 -4.8225 34.7115 -5.6833 6.0592
# 5 -4.0514 -5.9709 8.4793 -5.6833 46.4228 -4.4408
# 6 -5.4183 -21.2646 -8.1768 6.0592 -4.4408 24.7766
#
#
#
# Elastic Compliance Matrix: (Units=1/GPa)
#
#
# Indices 1 2 3 4 5 6 
#
# 1 0.018684 -0.003035 -0.004289 -0.001867 0.001877 0.000859
# 2 -0.003035 0.009964 -0.001402 -0.001652 0.001851 0.008161
# 3 -0.004289 -0.001402 0.012085 0.001549 -0.002474 0.001025
# 4 -0.001867 -0.001652 0.001549 0.031153 0.002341 -0.008514
# 5 0.001877 0.001851 -0.002474 0.002341 0.023137 0.004757
# 6 0.000859 0.008161 0.001025 -0.008514 0.004757 0.050826
#
#
# Mechanical properties :
#
#
# Convention : Reuss Voigt Hill
#
# Bulk Modulus (GPa) = 42.95120 50.71643 46.83382
# Shear Modulus (GPa) = 29.22945 35.44862 32.33904
#
# Velocity S-wave (km/s) = 3.53944 3.89784 3.72295
# Velocity P-wave (km/s) = 5.92555 6.48031 6.20913
#
# Compressibility (1/GPa) = 0.02328224
#
# Stress axis : x y z
#
# Youngs Moduli (GPa) = 53.52135 100.36398 82.74628
#
# Poissons Ratio (x) = 0.30457 0.35488
# Poissons Ratio (y) = 0.16242 0.11600
# Poissons Ratio (z) = 0.22954 0.14070
#
# Static dielectric constant tensor:
#      x y z
#    x 4.256320 -0.226470 -0.193090 
#    y -0.226470 4.301080 0.194240 
#    z -0.193090 0.194240 4.345560 
# 
# 
# High freq. dielectric constant tensor:
#      x y z
#    x 1.922650 -0.006470 -0.001410 
#    y -0.006470 1.936050 -0.004230 
#    z -0.001410 -0.004230 1.926150 
# 
# From -- ./inp_files/208117.got.cif
#   From: 2010.06.25/outbox.cif.g09.slc.cpg/sg2_105_cif.got.tgz:208117.got - 2010.06.27 13:26:56.
