data_PCOD8026120
_publ_section_title
;
Structure prediction by ZEFSAII (Michael W. Deem and Ramdas Pophale) SiO2 
 PCOD8026120
Probable space group: P -1
;
_chemical_formula_sum "Si O2"
_cell_formula_units_Z 14
_cell_length_a 8.905015
_cell_length_b 17.248596
_cell_length_c 24.235234
_cell_angle_alpha 19.515864
_cell_angle_beta 32.265156
_cell_angle_gamma 37.162237
_cell_volume 663.865212
_symmetry_space_group_name_H-M "P -1"
_symmetry_group_IT_number 2
_symmetry_cell_setting 'triclinic'
loop_
_space_group_symop_operation_xyz
x,y,z
-x,-y,-z
loop_
_atom_site_type_symbol
_atom_site_label
_atom_site_fract_x
_atom_site_fract_y
_atom_site_fract_z
Si Si1 0.928443 0.448004 0.698414
Si Si2 0.470275 0.077935 0.083350
Si Si3 0.328902 0.125799 0.729640
Si Si4 0.870008 0.756247 0.114608
Si Si5 0.866523 0.993022 0.347033
Si Si6 0.263721 0.991872 0.499219
Si Si7 0.802580 0.301752 0.384892
O O1 0.886962 0.716665 0.521687
O O2 0.133457 0.347433 0.654978
O O3 0.066865 0.401332 0.745931
O O4 0.624169 0.325257 0.871458
O O5 0.504307 0.944674 0.220074
O O6 0.602626 0.920107 0.099706
O O7 0.137181 0.110314 0.155150
O O8 0.542719 0.185181 0.575337
O O9 0.137735 0.912550 0.911192
O O10 0.797658 0.581086 0.204691
O O11 0.588326 0.074409 0.346587
O O12 0.850936 0.076016 0.359467
O O13 0.227506 0.762588 0.626755
O O14 0.096678 0.206833 0.380810
#
# Coordination Sequence:
#
# PCOD8026120 Si02
#       7
#     2   2   2   2   2   2   2
#     4   9  17  31  56  84 103 129 172 215 260 310
#     4   9  17  31  56  84 103 129 172 215 260 310
#     4   9  17  31  56  84 103 129 172 215 260 310
#     4   9  17  31  56  84 103 129 172 215 260 310
#     4  11  19  39  52  75 106 141 168 220 253 297
#     4  10  24  34  54  74 104 142 188 198 246 318
#     4  11  19  39  52  75 106 141 168 220 253 297
#
# _framework density 21.088616999999999
#
# number of rings (size 3 to 8) (size 9 to 14) (size 15 to 20)
#    0.000    2.286    2.857    2.571    0.000    2.286 
#    0.000   12.857    0.000    3.429    0.000    0.000 
#    0.000    0.000    0.000    0.000    0.000    0.000 
#
# Total GULP energy -173611.080844 kJ/mol
# GULP energy per Si atom -12400.791489 kJ/mol
# Density = 2.104062 g / cm^3
# Si number density = 21.088617 Si / 1000 Ang^3
#
#
#
# Elastic Constant Matrix: (Units=GPa)
#
#
# Indices 1 2 3 4 5 6 
#
# 1 63.6500 38.0557 21.0897 3.9922 -24.5278 6.5060
# 2 38.0557 107.3364 51.1166 14.1817 -21.9751 9.9816
# 3 21.0897 51.1166 82.5939 11.0604 -19.5436 6.4422
# 4 3.9922 14.1817 11.0604 32.3409 -3.6121 -25.2307
# 5 -24.5278 -21.9751 -19.5436 -3.6121 26.5075 -3.3266
# 6 6.5060 9.9816 6.4422 -25.2307 -3.3266 25.7897
#
#
#
# Elastic Compliance Matrix: (Units=1/GPa)
#
#
# Indices 1 2 3 4 5 6 
#
# 1 0.027525 -0.002837 0.003829 -0.018555 0.020614 -0.022296
# 2 -0.002837 0.036263 0.004464 -0.122188 -0.002780 -0.134333
# 3 0.003829 0.004464 0.025510 -0.071052 0.006615 -0.077724
# 4 -0.018555 -0.122188 -0.071052 0.721561 0.025224 0.778895
# 5 0.020614 -0.002780 0.006615 0.025224 0.066254 0.027446
# 6 -0.022296 -0.134333 -0.077724 0.778895 0.027446 0.881360
#
#
# Mechanical properties :
#
#
# Convention : Reuss Voigt Hill
#
# Bulk Modulus (GPa) = 9.97907 52.67825 31.32866
# Shear Modulus (GPa) = 2.80747 26.48217 14.64482
#
# Velocity S-wave (km/s) = 1.15506 3.54751 2.63809
# Velocity P-wave (km/s) = 2.55365 6.46633 4.91602
#
# Compressibility (1/GPa) = 0.10020977
#
# Stress axis : x y z
#
# Youngs Moduli (GPa) = 36.33075 27.57596 39.20104
#
# Poissons Ratio (x) = 0.07824 -0.15011
# Poissons Ratio (y) = 0.10307 -0.17499
# Poissons Ratio (z) = -0.13912 -0.12310
#
# Static dielectric constant tensor:
#      x y z
#    x 3.494700 0.013830 -0.350740 
#    y 0.013830 4.090890 0.087930 
#    z -0.350740 0.087930 3.668160 
# 
# 
# High freq. dielectric constant tensor:
#      x y z
#    x 1.793230 0.003040 -0.027490 
#    y 0.003040 1.839420 0.004370 
#    z -0.027490 0.004370 1.815920 
# 
# From -- ./inp_files/185621.got.cif
#   From: 2010.06.25/outbox.cif.g09.slc.cpg/sg2_93_cif.got.tgz:185621.got - 2010.06.27 13:26:56.
