data_PCOD8026371
_publ_section_title
;
Structure prediction by ZEFSAII (Michael W. Deem and Ramdas Pophale) SiO2 
 PCOD8026371
Probable space group: P -1
;
_chemical_formula_sum "Si O2"
_cell_formula_units_Z 16
_cell_length_a 14.624544
_cell_length_b 15.084132
_cell_length_c 12.595040
_cell_angle_alpha 144.088802
_cell_angle_beta 123.006659
_cell_angle_gamma 31.860211
_cell_volume 762.709867
_symmetry_space_group_name_H-M "P -1"
_symmetry_group_IT_number 2
_symmetry_cell_setting 'triclinic'
loop_
_space_group_symop_operation_xyz
x,y,z
-x,-y,-z
loop_
_atom_site_type_symbol
_atom_site_label
_atom_site_fract_x
_atom_site_fract_y
_atom_site_fract_z
Si Si1 0.333288 0.965758 0.537406
Si Si2 0.783978 0.564240 0.040584
Si Si3 0.038805 0.181339 0.034560
Si Si4 0.081027 0.811282 0.651769
Si Si5 0.316305 0.816505 0.179945
Si Si6 0.997038 0.164583 0.603500
Si Si7 0.337556 0.996473 0.174741
Si Si8 0.234863 0.452710 0.585904
O O1 0.320828 0.959005 0.396373
O O2 0.561261 0.694832 0.444277
O O3 0.237477 0.232979 0.767958
O O4 0.218105 0.965735 0.526690
O O5 0.572093 0.728276 0.054435
O O6 0.913177 0.360571 0.023829
O O7 0.894426 0.404100 0.845918
O O8 0.887011 0.346088 0.196352
O O9 0.212551 0.104099 0.092767
O O10 0.161614 0.883961 0.805297
O O11 0.133095 0.609806 0.563322
O O12 0.127463 0.708679 0.461073
O O13 0.851071 0.102841 0.807252
O O14 0.281050 0.922299 0.143235
O O15 0.500000 0.500000 0.000000
O O16 0.000000 0.000000 0.500000
O O17 0.262478 0.241756 0.411689
#
# Coordination Sequence:
#
# PCOD8026371 Si02
#       8
#     2   2   2   2   2   2   2   2
#     4  10  24  41  69  92 127 177 217 266 331 384
#     4  11  24  46  65  98 129 175 223 266 322 390
#     4  12  23  40  70  97 137 168 209 268 328 397
#     4  11  24  40  63  95 131 168 217 269 323 386
#     4  11  22  38  65  99 133 173 210 265 330 390
#     4  11  24  46  65  90 128 173 227 275 318 378
#     4  11  25  40  66 101 135 170 212 266 329 394
#     4  11  23  42  63 102 133 164 213 268 334 395
#
# _framework density 20.977833
#
# number of rings (size 3 to 8) (size 9 to 14) (size 15 to 20)
#    0.000    1.000    2.500    4.125    7.000    2.000 
#    2.250    2.500    0.000    0.000    0.000    0.000 
#    0.000    0.000    0.000    0.000    0.000    0.000 
#
# Total GULP energy -198317.111777 kJ/mol
# GULP energy per Si atom -12394.819486 kJ/mol
# Density = 2.093009 g / cm^3
# Si number density = 20.977833 Si / 1000 Ang^3
#
#
#
# Elastic Constant Matrix: (Units=GPa)
#
#
# Indices 1 2 3 4 5 6 
#
# 1 91.7333 39.9914 34.0943 -6.3595 0.7497 2.2346
# 2 39.9914 118.3243 52.2569 -9.0662 -9.7165 1.3518
# 3 34.0943 52.2569 81.4934 -17.8765 -6.9851 -6.0003
# 4 -6.3595 -9.0662 -17.8765 31.7877 3.6402 1.3292
# 5 0.7497 -9.7165 -6.9851 3.6402 29.0939 -4.6664
# 6 2.2346 1.3518 -6.0003 1.3292 -4.6664 39.3977
#
#
#
# Elastic Compliance Matrix: (Units=1/GPa)
#
#
# Indices 1 2 3 4 5 6 
#
# 1 0.013840 -0.003018 -0.004222 -0.000097 -0.002628 -0.001632
# 2 -0.003018 0.012691 -0.006978 -0.001169 0.002630 -0.000976
# 3 -0.004222 -0.006978 0.020834 0.008466 0.002305 0.003639
# 4 -0.000097 -0.001169 0.008466 0.036211 -0.002923 -0.000233
# 5 -0.002628 0.002630 0.002305 -0.002923 0.037022 0.004894
# 6 -0.001632 -0.000976 0.003639 -0.000233 0.004894 0.026650
#
#
# Mechanical properties :
#
#
# Convention : Reuss Voigt Hill
#
# Bulk Modulus (GPa) = 52.82624 60.47069 56.64846
# Shear Modulus (GPa) = 27.47338 31.06975 29.27157
#
# Velocity S-wave (km/s) = 3.62282 3.85265 3.73950
# Velocity P-wave (km/s) = 6.53731 6.97704 6.76075
#
# Compressibility (1/GPa) = 0.01892999
#
# Stress axis : x y z
#
# Youngs Moduli (GPa) = 72.25182 78.79799 47.99743
#
# Poissons Ratio (x) = 0.23780 0.20264
# Poissons Ratio (y) = 0.21804 0.33493
# Poissons Ratio (z) = 0.30505 0.54985
#
# Static dielectric constant tensor:
#      x y z
#    x 3.499630 -0.203160 0.034090 
#    y -0.203160 3.989320 -0.146690 
#    z 0.034090 -0.146690 3.937170 
# 
# 
# High freq. dielectric constant tensor:
#      x y z
#    x 1.817360 -0.008680 0.011290 
#    y -0.008680 1.828300 -0.006420 
#    z 0.011290 -0.006420 1.827960 
# 
# From -- ./inp_files/218610.got.cif
#   From: 2010.06.25/outbox.cif.g09.slc.cpg/sg2_110_cif.got.tgz:218610.got - 2010.06.27 13:26:56.
