data_PCOD8026527
_publ_section_title
;
Structure prediction by ZEFSAII (Michael W. Deem and Ramdas Pophale) SiO2 
 PCOD8026527
Probable space group: P -1
;
_chemical_formula_sum "Si O2"
_cell_formula_units_Z 14
_cell_length_a 11.833679
_cell_length_b 11.628354
_cell_length_c 5.207364
_cell_angle_alpha 69.698512
_cell_angle_beta 69.609562
_cell_angle_gamma 69.704748
_cell_volume 608.775364
_symmetry_space_group_name_H-M "P -1"
_symmetry_group_IT_number 2
_symmetry_cell_setting 'triclinic'
loop_
_space_group_symop_operation_xyz
x,y,z
-x,-y,-z
loop_
_atom_site_type_symbol
_atom_site_label
_atom_site_fract_x
_atom_site_fract_y
_atom_site_fract_z
Si Si1 0.223202 0.983701 0.721773
Si Si2 0.098771 0.374185 0.939461
Si Si3 0.693109 0.503237 0.216133
Si Si4 0.958004 0.755805 0.420201
Si Si5 0.207898 0.721957 0.017020
Si Si6 0.563460 0.340892 0.796638
Si Si7 0.384209 0.940290 0.146173
O O1 0.101857 0.100508 0.727762
O O2 0.311419 0.002490 0.407164
O O3 0.172948 0.858879 0.800506
O O4 0.295579 0.976645 0.940071
O O5 0.091470 0.269177 0.241036
O O6 0.236138 0.398301 0.799987
O O7 0.076075 0.333398 0.702435
O O8 0.000000 0.500000 0.000000
O O9 0.631145 0.436358 0.532465
O O10 0.578280 0.586744 0.070857
O O11 0.797446 0.396555 0.065620
O O12 0.109699 0.728619 0.323623
O O13 0.353986 0.700368 0.984578
O O14 0.567698 0.212382 0.734511
O O15 0.500000 0.000000 0.000000
#
# Coordination Sequence:
#
# PCOD8026527 Si02
#       7
#     2   2   2   2   2   2   2
#     4  11  25  45  70 102 134 180 230 276 349 399
#     4  12  26  46  69 103 139 187 220 288 335 405
#     4  11  23  43  68  96 140 176 237 273 347 404
#     4  12  27  44  73 102 141 178 233 276 346 402
#     4  11  23  45  68  98 138 179 227 287 335 414
#     4  10  24  42  68 100 131 185 227 285 340 406
#     4  11  24  46  68 101 139 180 225 286 337 408
#
# _framework density 22.996987000000001
#
# number of rings (size 3 to 8) (size 9 to 14) (size 15 to 20)
#    0.000    0.857    2.857    3.429    6.000    0.000 
#    0.000    3.571    0.000    0.000    0.000    0.000 
#    0.000    0.000    0.000    0.000    0.000    0.000 
#
# Total GULP energy -173557.217220 kJ/mol
# GULP energy per Si atom -12396.944087 kJ/mol
# Density = 2.294465 g / cm^3
# Si number density = 22.996987 Si / 1000 Ang^3
#
#
#
# Elastic Constant Matrix: (Units=GPa)
#
#
# Indices 1 2 3 4 5 6 
#
# 1 89.8785 25.5383 18.3178 -11.8519 -13.1227 -4.6527
# 2 25.5383 94.5582 3.6249 -7.9064 -3.5199 -15.5153
# 3 18.3178 3.6249 85.7108 0.9869 -7.1352 -0.8390
# 4 -11.8519 -7.9064 0.9869 33.4859 0.3646 2.7787
# 5 -13.1227 -3.5199 -7.1352 0.3646 39.9684 -0.6295
# 6 -4.6527 -15.5153 -0.8390 2.7787 -0.6295 33.4302
#
#
#
# Elastic Compliance Matrix: (Units=1/GPa)
#
#
# Indices 1 2 3 4 5 6 
#
# 1 0.013603 -0.003074 -0.002514 0.004112 0.003711 0.000132
# 2 -0.003074 0.012377 0.000184 0.001395 0.000183 0.005208
# 3 -0.002514 0.000184 0.012330 -0.001240 0.001406 0.000174
# 4 0.004112 0.001395 -0.001240 0.031793 0.000939 -0.001437
# 5 0.003711 0.000183 0.001406 0.000939 0.026513 0.001058
# 6 0.000132 0.005208 0.000174 -0.001437 0.001058 0.032492
#
#
# Mechanical properties :
#
#
# Convention : Reuss Voigt Hill
#
# Bulk Modulus (GPa) = 36.36341 40.56772 38.46556
# Shear Modulus (GPa) = 33.53808 36.22132 34.87970
#
# Velocity S-wave (km/s) = 3.82300 3.97299 3.89872
# Velocity P-wave (km/s) = 5.94422 6.22294 6.08517
#
# Compressibility (1/GPa) = 0.02750017
#
# Stress axis : x y z
#
# Youngs Moduli (GPa) = 73.51420 80.79699 81.10478
#
# Poissons Ratio (x) = 0.24837 0.20392
# Poissons Ratio (y) = 0.22598 -0.01490
# Poissons Ratio (z) = 0.18483 -0.01484
#
# Static dielectric constant tensor:
#      x y z
#    x 4.318070 -0.143390 -0.082430 
#    y -0.143390 4.600890 -0.167270 
#    z -0.082430 -0.167270 4.106290 
# 
# 
# High freq. dielectric constant tensor:
#      x y z
#    x 1.913510 -0.006420 -0.010260 
#    y -0.006420 1.922740 -0.009770 
#    z -0.010260 -0.009770 1.899290 
# 
# From -- ./inp_files/46720.got.cif
#   From: 2010.06.25/outbox.cif.g09.slc.cpg/sg2_24_cif.got.tgz:46720.got - 2010.06.27 13:26:56.
