data_PCOD8026883
_publ_section_title
;
Structure prediction by ZEFSAII (Michael W. Deem and Ramdas Pophale) SiO2 
 PCOD8026883
Probable space group: P -1
;
_chemical_formula_sum "Si O2"
_cell_formula_units_Z 14
_cell_length_a 12.757721
_cell_length_b 17.535346
_cell_length_c 5.059119
_cell_angle_alpha 62.282521
_cell_angle_beta 48.440040
_cell_angle_gamma 40.282218
_cell_volume 545.577706
_symmetry_space_group_name_H-M "P -1"
_symmetry_group_IT_number 2
_symmetry_cell_setting 'triclinic'
loop_
_space_group_symop_operation_xyz
x,y,z
-x,-y,-z
loop_
_atom_site_type_symbol
_atom_site_label
_atom_site_fract_x
_atom_site_fract_y
_atom_site_fract_z
Si Si1 0.902558 0.628209 0.548406
Si Si2 0.901576 0.851505 0.666669
Si Si3 0.800975 0.394811 0.655349
Si Si4 0.760845 0.062657 0.261345
Si Si5 0.187624 0.847654 0.481620
Si Si6 0.475552 0.591363 0.579823
Si Si7 0.318438 0.217884 0.817277
O O1 0.740470 0.722498 0.464459
O O2 0.000000 0.500000 0.500000
O O3 0.088231 0.612873 0.266530
O O4 0.801907 0.678482 0.924790
O O5 0.050845 0.710943 0.618560
O O6 0.996379 0.871311 0.704790
O O7 0.861401 0.926780 0.352885
O O8 0.709173 0.875576 0.003804
O O9 0.681713 0.520084 0.494037
O O10 0.669092 0.371142 0.003294
O O11 0.859528 0.088946 0.258458
O O12 0.542101 0.145111 0.593651
O O13 0.780062 0.090563 0.887566
O O14 0.388791 0.709441 0.378854
O O15 0.500000 0.500000 0.500000
#
# Coordination Sequence:
#
# PCOD8026883 Si02
#       7
#     2   2   2   2   2   2   2
#     4  11  25  45  71 102 145 181 235 293 355 418
#     4  11  24  51  72 102 143 191 244 284 354 429
#     4  10  24  43  70 104 137 191 236 288 354 423
#     4  12  28  47  73 107 146 186 235 305 348 416
#     4  12  26  45  73 109 143 185 237 295 365 408
#     4  11  23  42  70 103 144 182 234 292 353 430
#     4  11  26  48  72 106 138 195 240 283 355 430
#
# _framework density 25.660872999999999
#
# number of rings (size 3 to 8) (size 9 to 14) (size 15 to 20)
#    0.000    0.857    1.429    4.286    6.000    5.714 
#    0.000    5.000    0.000    0.000    0.000    0.000 
#    0.000    0.000    0.000    0.000    0.000    0.000 
#
# Total GULP energy -173459.175756 kJ/mol
# GULP energy per Si atom -12389.941125 kJ/mol
# Density = 2.560247 g / cm^3
# Si number density = 25.660873 Si / 1000 Ang^3
#
#
#
# Elastic Constant Matrix: (Units=GPa)
#
#
# Indices 1 2 3 4 5 6 
#
# 1 106.1906 17.3553 29.5291 -0.9505 2.3432 -4.2150
# 2 17.3553 118.8109 -8.3485 -22.5989 4.7388 -14.2236
# 3 29.5291 -8.3485 52.4207 -10.5782 3.4634 3.5732
# 4 -0.9505 -22.5989 -10.5782 33.5868 -2.8492 4.1978
# 5 2.3432 4.7388 3.4634 -2.8492 44.1519 -1.2475
# 6 -4.2150 -14.2236 3.5732 4.1978 -1.2475 43.7644
#
#
#
# Elastic Compliance Matrix: (Units=1/GPa)
#
#
# Indices 1 2 3 4 5 6 
#
# 1 0.012273 -0.003096 -0.008417 -0.004542 0.000085 0.001301
# 2 -0.003096 0.011176 0.005203 0.008745 -0.000821 0.002047
# 3 -0.008417 0.005203 0.027358 0.012067 -0.001551 -0.002555
# 4 -0.004542 0.008745 0.012067 0.039698 0.000851 -0.002364
# 5 0.000085 -0.000821 -0.001551 0.000851 0.022922 0.000440
# 6 0.001301 0.002047 -0.002555 -0.002364 0.000440 0.024088
#
#
# Mechanical properties :
#
#
# Convention : Reuss Voigt Hill
#
# Bulk Modulus (GPa) = 26.18677 39.38822 32.78749
# Shear Modulus (GPa) = 30.70068 40.22637 35.46353
#
# Velocity S-wave (km/s) = 3.46265 3.96361 3.72157
# Velocity P-wave (km/s) = 5.11993 6.02742 5.59211
#
# Compressibility (1/GPa) = 0.03818723
#
# Stress axis : x y z
#
# Youngs Moduli (GPa) = 81.48145 89.47913 36.55197
#
# Poissons Ratio (x) = 0.27700 0.30767
# Poissons Ratio (y) = 0.25225 -0.19019
# Poissons Ratio (z) = 0.68585 -0.46558
#
# Static dielectric constant tensor:
#      x y z
#    x 0.084680 -1.547450 2.938900 
#    y -1.547450 4.752690 0.689180 
#    z 2.938900 0.689180 3.013820 
# 
# 
# High freq. dielectric constant tensor:
#      x y z
#    x 2.037460 -0.015130 -0.003580 
#    y -0.015130 2.043980 0.003960 
#    z -0.003580 0.003960 2.013560 
# 
# From -- ./inp_files/81184.got.cif
#   From: 2010.06.25/outbox.cif.g09.slc.cpg/sg2_41_cif.got.tgz:81184.got - 2010.06.27 13:26:56.
