data_PCOD8026292
_publ_section_title
;
Structure prediction by ZEFSAII (Michael W. Deem and Ramdas Pophale) SiO2 
 PCOD8026292
Probable space group: P -1
;
_chemical_formula_sum "Si O2"
_cell_formula_units_Z 16
_cell_length_a 8.449636
_cell_length_b 22.865153
_cell_length_c 9.302070
_cell_angle_alpha 52.285935
_cell_angle_beta 147.951532
_cell_angle_gamma 128.676236
_cell_volume 729.758730
_symmetry_space_group_name_H-M "P -1"
_symmetry_group_IT_number 2
_symmetry_cell_setting 'triclinic'
loop_
_space_group_symop_operation_xyz
x,y,z
-x,-y,-z
loop_
_atom_site_type_symbol
_atom_site_label
_atom_site_fract_x
_atom_site_fract_y
_atom_site_fract_z
Si Si1 0.976922 0.199193 0.299629
Si Si2 0.676822 0.205842 0.355191
Si Si3 0.291321 0.571094 0.601152
Si Si4 0.811587 0.381431 0.260989
Si Si5 0.484272 0.470152 0.693484
Si Si6 0.294886 0.730842 0.247315
Si Si7 0.176906 0.946255 0.793133
Si Si8 0.978640 0.166169 0.912226
O O1 0.877105 0.188539 0.403497
O O2 0.817850 0.120755 0.213614
O O3 0.346381 0.223458 0.529908
O O4 0.827844 0.263158 0.017986
O O5 0.787391 0.293886 0.349229
O O6 0.737515 0.153728 0.613264
O O7 0.316929 0.188644 0.068956
O O8 0.414251 0.602734 0.807534
O O9 0.539619 0.540520 0.744284
O O10 0.224253 0.641304 0.356016
O O11 0.000000 0.500000 0.500000
O O12 0.151012 0.412843 0.538706
O O13 0.739968 0.423508 0.997374
O O14 0.500000 0.500000 0.500000
O O15 0.086515 0.767044 0.138691
O O16 0.041310 0.910057 0.895642
O O17 0.000000 0.000000 0.500000
O O18 0.500000 0.000000 0.000000
#
# Coordination Sequence:
#
# PCOD8026292 Si02
#       8
#     2   2   2   2   2   2   2   2
#     4  11  26  42  69 102 134 171 220 274 330 386
#     4  12  24  42  68  98 138 165 228 271 328 383
#     4  10  24  41  64  90 129 172 231 277 335 389
#     4  11  24  41  62  86 126 175 212 279 331 384
#     4  11  25  41  59  89 125 167 227 274 343 388
#     4  11  23  43  67  95 130 180 230 270 326 401
#     4  11  23  45  72 100 137 173 214 260 321 400
#     4  11  23  43  70 100 129 179 218 262 323 400
#
# _framework density 21.925056000000001
#
# number of rings (size 3 to 8) (size 9 to 14) (size 15 to 20)
#    0.000    1.000    1.250    6.000    5.250    2.000 
#    0.000    3.750    0.000    0.000    0.000    0.000 
#    0.000    0.000    0.000    0.000    0.000    0.000 
#
# Total GULP energy -198341.693200 kJ/mol
# GULP energy per Si atom -12396.355825 kJ/mol
# Density = 2.187515 g / cm^3
# Si number density = 21.925056 Si / 1000 Ang^3
#
#
#
# Elastic Constant Matrix: (Units=GPa)
#
#
# Indices 1 2 3 4 5 6 
#
# 1 103.1157 36.9848 23.0478 -4.0036 -15.0347 -2.9811
# 2 36.9848 102.0185 36.0348 -14.8267 -2.6418 4.4922
# 3 23.0478 36.0348 137.8789 -18.6428 -10.9087 3.5954
# 4 -4.0036 -14.8267 -18.6428 40.6420 10.6792 -6.7700
# 5 -15.0347 -2.6418 -10.9087 10.6792 42.6581 4.3887
# 6 -2.9811 4.4922 3.5954 -6.7700 4.3887 20.8884
#
#
#
# Elastic Compliance Matrix: (Units=1/GPa)
#
#
# Indices 1 2 3 4 5 6 
#
# 1 0.011961 -0.004230 -0.000826 -0.001555 0.003986 0.001417
# 2 -0.004230 0.012643 -0.002252 0.003458 -0.002006 -0.001393
# 3 -0.000826 -0.002252 0.008431 0.002588 0.001127 -0.000483
# 4 -0.001555 0.003458 0.002588 0.030851 -0.008462 0.010366
# 5 0.003986 -0.002006 0.001127 -0.008462 0.027932 -0.007805
# 6 0.001417 -0.001393 -0.000483 0.010366 -0.007805 0.053458
#
#
# Mechanical properties :
#
#
# Convention : Reuss Voigt Hill
#
# Bulk Modulus (GPa) = 54.28901 59.46086 56.87493
# Shear Modulus (GPa) = 30.11475 37.30075 33.70775
#
# Velocity S-wave (km/s) = 3.71014 4.12914 3.92523
# Velocity P-wave (km/s) = 6.57027 7.06484 6.82204
#
# Compressibility (1/GPa) = 0.01841993
#
# Stress axis : x y z
#
# Youngs Moduli (GPa) = 83.60275 79.09542 118.60919
#
# Poissons Ratio (x) = 0.33456 0.09795
# Poissons Ratio (y) = 0.35362 0.26712
# Poissons Ratio (z) = 0.06904 0.17813
#
# Static dielectric constant tensor:
#      x y z
#    x 2.799350 -2.165520 0.948810 
#    y -2.165520 0.565560 1.647480 
#    z 0.948810 1.647480 3.262660 
# 
# 
# High freq. dielectric constant tensor:
#      x y z
#    x 1.859160 0.005980 -0.012140 
#    y 0.005980 1.855310 -0.006750 
#    z -0.012140 -0.006750 1.878750 
# 
# From -- ./inp_files/226060.got.cif
#   From: 2010.06.25/outbox.cif.g09.slc.cpg/sg2_114_cif.got.tgz:226060.got - 2010.06.27 13:26:56.
