data_PCOD8026644
_publ_section_title
;
Structure prediction by ZEFSAII (Michael W. Deem and Ramdas Pophale) SiO2 
 PCOD8026644
Probable space group: P -1
;
_chemical_formula_sum "Si O2"
_cell_formula_units_Z 16
_cell_length_a 17.151348
_cell_length_b 9.089190
_cell_length_c 8.499606
_cell_angle_alpha 97.202819
_cell_angle_beta 135.019096
_cell_angle_gamma 57.610324
_cell_volume 716.018945
_symmetry_space_group_name_H-M "P -1"
_symmetry_group_IT_number 2
_symmetry_cell_setting 'triclinic'
loop_
_space_group_symop_operation_xyz
x,y,z
-x,-y,-z
loop_
_atom_site_type_symbol
_atom_site_label
_atom_site_fract_x
_atom_site_fract_y
_atom_site_fract_z
Si Si1 0.160726 0.524915 0.846552
Si Si2 0.928448 0.663416 0.787581
Si Si3 0.715719 0.791382 0.235676
Si Si4 0.094772 0.028229 0.031534
Si Si5 0.666017 0.398384 0.714881
Si Si6 0.079748 0.801733 0.496206
Si Si7 0.353449 0.586392 0.656420
Si Si8 0.532085 0.221706 0.054054
O O1 0.198316 0.325996 0.816121
O O2 0.087959 0.658456 0.607206
O O3 0.051489 0.616829 0.844182
O O4 0.298668 0.499815 0.099455
O O5 0.805948 0.688015 0.511967
O O6 0.855150 0.871646 0.785327
O O7 0.000000 0.500000 0.000000
O O8 0.668140 0.002345 0.174438
O O9 0.586524 0.785522 0.047260
O O10 0.234165 0.827779 0.132291
O O11 0.000000 0.000000 0.000000
O O12 0.006979 0.168099 0.778386
O O13 0.500000 0.500000 0.500000
O O14 0.710094 0.408867 0.601181
O O15 0.239663 0.703128 0.650953
O O16 0.000000 0.000000 0.500000
O O17 0.422878 0.690727 0.744127
O O18 0.473703 0.360968 0.838188
#
# Coordination Sequence:
#
# PCOD8026644 Si02
#       8
#     2   2   2   2   2   2   2   2
#     4  12  25  46  67 103 142 180 237 295 344 427
#     4  12  27  47  71  99 139 190 232 291 356 418
#     4  11  24  45  68  98 141 183 230 282 355 428
#     4  12  23  47  74 104 139 184 239 291 351 415
#     4  12  26  43  71 107 143 180 233 299 352 408
#     4  12  23  40  75 106 136 176 239 296 349 408
#     4  11  23  45  73 102 137 182 238 294 354 409
#     4  10  24  42  72  98 135 183 233 278 357 420
#
# _framework density 22.345776000000001
#
# number of rings (size 3 to 8) (size 9 to 14) (size 15 to 20)
#    0.000    0.500    5.000    2.625    5.250    1.000 
#    2.250    0.625    0.000    0.000    0.000    0.000 
#    0.000    0.000    0.000    0.000    0.000    0.000 
#
# Total GULP energy -198365.023873 kJ/mol
# GULP energy per Si atom -12397.813992 kJ/mol
# Density = 2.229492 g / cm^3
# Si number density = 22.345776 Si / 1000 Ang^3
#
#
#
# Elastic Constant Matrix: (Units=GPa)
#
#
# Indices 1 2 3 4 5 6 
#
# 1 88.9124 26.0572 37.9887 -7.3523 -10.1381 -1.7817
# 2 26.0572 143.6409 56.9836 -1.6976 -10.6648 -3.0345
# 3 37.9887 56.9836 123.7093 -9.4658 -16.3377 -7.2645
# 4 -7.3523 -1.6976 -9.4658 38.3424 -4.2220 -4.3379
# 5 -10.1381 -10.6648 -16.3377 -4.2220 37.5050 -2.1616
# 6 -1.7817 -3.0345 -7.2645 -4.3379 -2.1616 30.6791
#
#
#
# Elastic Compliance Matrix: (Units=1/GPa)
#
#
# Indices 1 2 3 4 5 6 
#
# 1 0.013310 -0.000958 -0.003182 0.002006 0.002186 0.000362
# 2 -0.000958 0.008617 -0.003666 -0.000666 0.000512 -0.000129
# 3 -0.003182 -0.003666 0.011613 0.002818 0.003638 0.002857
# 4 0.002006 -0.000666 0.002818 0.028262 0.005054 0.005070
# 5 0.002186 0.000512 0.003638 0.005054 0.029775 0.003852
# 6 0.000362 -0.000129 0.002857 0.005070 0.003852 0.034269
#
#
# Mechanical properties :
#
#
# Convention : Reuss Voigt Hill
#
# Bulk Modulus (GPa) = 55.78136 66.48020 61.13078
# Shear Modulus (GPa) = 33.91311 36.98751 35.45031
#
# Velocity S-wave (km/s) = 3.89993 4.07287 3.98734
# Velocity P-wave (km/s) = 6.73025 7.20645 6.97242
#
# Compressibility (1/GPa) = 0.01792714
#
# Stress axis : x y z
#
# Youngs Moduli (GPa) = 75.13188 116.04413 86.10838
#
# Poissons Ratio (x) = 0.11121 0.27403
# Poissons Ratio (y) = 0.07201 0.31567
# Poissons Ratio (z) = 0.23910 0.42542
#
# Static dielectric constant tensor:
#      x y z
#    x 3.983140 -0.396310 -0.072590 
#    y -0.396310 4.684820 -0.091850 
#    z -0.072590 -0.091850 4.359650 
# 
# 
# High freq. dielectric constant tensor:
#      x y z
#    x 1.860490 -0.010860 -0.003460 
#    y -0.010860 1.894290 -0.000150 
#    z -0.003460 -0.000150 1.895770 
# 
# From -- ./inp_files/329224.got.cif
#   From: 2010.06.25/outbox.cif.g09.slc.cpg/sg2_165_cif.got.tgz:329224.got - 2010.06.27 13:26:56.
