data_PCOD8026420
_publ_section_title
;
Structure prediction by ZEFSAII (Michael W. Deem and Ramdas Pophale) SiO2 
 PCOD8026420
Probable space group: P -1
;
_chemical_formula_sum "Si O2"
_cell_formula_units_Z 16
_cell_length_a 21.117823
_cell_length_b 18.028375
_cell_length_c 9.378180
_cell_angle_alpha 143.268384
_cell_angle_beta 39.729704
_cell_angle_gamma 160.356072
_cell_volume 716.047962
_symmetry_space_group_name_H-M "P -1"
_symmetry_group_IT_number 2
_symmetry_cell_setting 'triclinic'
loop_
_space_group_symop_operation_xyz
x,y,z
-x,-y,-z
loop_
_atom_site_type_symbol
_atom_site_label
_atom_site_fract_x
_atom_site_fract_y
_atom_site_fract_z
Si Si1 0.856095 0.616024 0.495684
Si Si2 0.782147 0.861938 0.335012
Si Si3 0.845580 0.944478 0.673467
Si Si4 0.062953 0.412814 0.984104
Si Si5 0.504985 0.351739 0.024751
Si Si6 0.228088 0.684587 0.611732
Si Si7 0.603588 0.217203 0.816547
Si Si8 0.516848 0.660612 0.261898
O O1 0.927320 0.601777 0.224559
O O2 0.822400 0.502192 0.521934
O O3 0.668257 0.483411 0.564171
O O4 0.998669 0.883085 0.690251
O O5 0.753381 0.860961 0.549115
O O6 0.701113 0.637188 0.103114
O O7 0.676684 0.848758 0.394621
O O8 0.665542 0.736515 0.769503
O O9 0.000000 0.000000 0.500000
O O10 0.952476 0.184045 0.901839
O O11 0.273424 0.643875 0.039519
O O12 0.952556 0.421649 0.216652
O O13 0.534252 0.277986 0.977781
O O14 0.447636 0.230537 0.783437
O O15 0.269109 0.712892 0.416733
O O16 0.416231 0.940083 0.753766
O O17 0.500000 0.500000 0.000000
#
# Coordination Sequence:
#
# PCOD8026420 Si02
#       8
#     2   2   2   2   2   2   2   2
#     4  11  25  44  66  99 133 174 221 269 325 395
#     4  10  25  41  68  95 137 170 215 268 328 389
#     4  11  24  42  68 103 135 169 217 273 331 398
#     4  11  25  41  69  96 131 173 222 268 331 392
#     4  11  22  44  67  98 134 171 219 271 330 393
#     4  11  24  47  64  95 135 169 228 271 323 393
#     4  11  24  44  70  96 130 173 219 277 330 380
#     4  10  24  42  63  95 134 175 215 266 320 395
#
# _framework density 22.344871999999999
#
# number of rings (size 3 to 8) (size 9 to 14) (size 15 to 20)
#    0.000    1.250    2.500    1.875    8.750    4.500 
#    0.000    0.000    0.000    0.000    0.000    0.000 
#    0.000    0.000    0.000    0.000    0.000    0.000 
#
# Total GULP energy -198352.777072 kJ/mol
# GULP energy per Si atom -12397.048567 kJ/mol
# Density = 2.229401 g / cm^3
# Si number density = 22.344872 Si / 1000 Ang^3
#
#
#
# Elastic Constant Matrix: (Units=GPa)
#
#
# Indices 1 2 3 4 5 6 
#
# 1 93.6945 41.7117 28.4969 -3.6204 8.4478 16.3115
# 2 41.7117 92.9836 23.4394 -1.8520 9.4402 -0.7130
# 3 28.4969 23.4394 66.3699 -13.0137 -7.8936 12.3420
# 4 -3.6204 -1.8520 -13.0137 40.6989 7.8148 -5.8864
# 5 8.4478 9.4402 -7.8936 7.8148 40.7473 4.0428
# 6 16.3115 -0.7130 12.3420 -5.8864 4.0428 40.9889
#
#
#
# Elastic Compliance Matrix: (Units=1/GPa)
#
#
# Indices 1 2 3 4 5 6 
#
# 1 0.015495 -0.005768 -0.004046 -0.000489 -0.002079 -0.004914
# 2 -0.005768 0.014687 -0.003836 0.000166 -0.003385 0.004064
# 3 -0.004046 -0.003836 0.020483 0.004341 0.005312 -0.004525
# 4 -0.000489 0.000166 0.004341 0.027289 -0.004654 0.003269
# 5 -0.002079 -0.003385 0.005312 -0.004654 0.028102 -0.004271
# 6 -0.004914 0.004064 -0.004525 0.003269 -0.004271 0.028676
#
#
# Mechanical properties :
#
#
# Convention : Reuss Voigt Hill
#
# Bulk Modulus (GPa) = 42.79577 48.92709 45.86143
# Shear Modulus (GPa) = 29.44292 35.11368 32.27830
#
# Velocity S-wave (km/s) = 3.63390 3.96844 3.80485
# Velocity P-wave (km/s) = 6.06637 6.55301 6.31438
#
# Compressibility (1/GPa) = 0.02336679
#
# Stress axis : x y z
#
# Youngs Moduli (GPa) = 64.53691 68.08735 48.82042
#
# Poissons Ratio (x) = 0.39270 0.19751
# Poissons Ratio (y) = 0.37222 0.18728
# Poissons Ratio (z) = 0.26109 0.26119
#
# Static dielectric constant tensor:
#      x y z
#    x 4.315690 0.075150 0.170800 
#    y 0.075150 4.159710 0.000980 
#    z 0.170800 0.000980 3.920120 
# 
# 
# High freq. dielectric constant tensor:
#      x y z
#    x 1.883630 0.004990 0.002800 
#    y 0.004990 1.882810 -0.008810 
#    z 0.002800 -0.008810 1.872460 
# 
# From -- ./inp_files/348926.got.cif
#   From: 2010.06.25/outbox.cif.g09.slc.cpg/sg2_175_cif.got.tgz:348926.got - 2010.06.27 13:26:56.
