data_PCOD8026823
_publ_section_title
;
Structure prediction by ZEFSAII (Michael W. Deem and Ramdas Pophale) SiO2 
 PCOD8026823
Probable space group: P -1
;
_chemical_formula_sum "Si O2"
_cell_formula_units_Z 16
_cell_length_a 9.212103
_cell_length_b 11.108985
_cell_length_c 11.558222
_cell_angle_alpha 50.717778
_cell_angle_beta 129.364302
_cell_angle_gamma 110.201677
_cell_volume 704.711000
_symmetry_space_group_name_H-M "P -1"
_symmetry_group_IT_number 2
_symmetry_cell_setting 'triclinic'
loop_
_space_group_symop_operation_xyz
x,y,z
-x,-y,-z
loop_
_atom_site_type_symbol
_atom_site_label
_atom_site_fract_x
_atom_site_fract_y
_atom_site_fract_z
Si Si1 0.786422 0.202740 0.487180
Si Si2 0.356686 0.717115 0.049507
Si Si3 0.299043 0.106043 0.314568
Si Si4 0.587239 0.419925 0.433983
Si Si5 0.495190 0.845860 0.818100
Si Si6 0.507162 0.823529 0.280289
Si Si7 0.869635 0.650019 0.516140
Si Si8 0.960354 0.659393 0.816853
O O1 0.625247 0.294671 0.427653
O O2 0.700486 0.179136 0.330320
O O3 0.962903 0.304046 0.509099
O O4 0.845805 0.029821 0.677860
O O5 0.413618 0.541530 0.230794
O O6 0.371998 0.837139 0.090895
O O7 0.502680 0.748340 0.999972
O O8 0.144830 0.750699 0.875573
O O9 0.323934 0.198162 0.149198
O O10 0.227774 0.234343 0.297948
O O11 0.500000 0.000000 0.500000
O O12 0.526697 0.334220 0.571001
O O13 0.777055 0.503004 0.504513
O O14 0.514724 0.026904 0.742416
O O15 0.719288 0.801441 0.352074
O O16 0.944070 0.612001 0.705151
O O17 0.000000 0.500000 0.000000
#
# Coordination Sequence:
#
# PCOD8026823 Si02
#       8
#     2   2   2   2   2   2   2   2
#     4  11  23  41  70 100 131 179 237 273 336 410
#     4  11  25  42  67 104 137 171 227 290 344 395
#     4  10  24  43  68  97 137 181 226 276 341 414
#     4  11  24  45  70  96 137 189 227 272 343 417
#     4  11  23  43  67  98 134 177 222 288 345 398
#     4  11  23  45  71  94 137 185 231 268 345 419
#     4  11  23  41  68  99 132 180 235 280 323 415
#     4  12  25  42  70 103 139 174 229 289 342 396
#
# _framework density 22.704343000000001
#
# number of rings (size 3 to 8) (size 9 to 14) (size 15 to 20)
#    0.000    1.000    2.500    5.250    7.000    2.500 
#    0.000    3.125    0.000    0.000    0.000    0.000 
#    0.000    0.000    0.000    0.000    0.000    0.000 
#
# Total GULP energy -198316.884048 kJ/mol
# GULP energy per Si atom -12394.805253 kJ/mol
# Density = 2.265267 g / cm^3
# Si number density = 22.704343 Si / 1000 Ang^3
#
#
#
# Elastic Constant Matrix: (Units=GPa)
#
#
# Indices 1 2 3 4 5 6 
#
# 1 102.4316 8.6357 27.3533 -6.6577 -13.7594 -2.5201
# 2 8.6357 83.2207 17.6058 6.2925 0.9406 -7.4253
# 3 27.3533 17.6058 71.0737 7.8310 -8.4498 2.6935
# 4 -6.6577 6.2925 7.8310 35.8794 -1.6944 -1.3223
# 5 -13.7594 0.9406 -8.4498 -1.6944 35.4044 -1.4953
# 6 -2.5201 -7.4253 2.6935 -1.3223 -1.4953 36.4897
#
#
#
# Elastic Compliance Matrix: (Units=1/GPa)
#
#
# Indices 1 2 3 4 5 6 
#
# 1 0.011732 -0.000476 -0.004381 0.003442 0.003747 0.001315
# 2 -0.000476 0.013114 -0.003135 -0.001661 -0.001245 0.002756
# 3 -0.004381 -0.003135 0.017327 -0.004023 0.002227 -0.002274
# 4 0.003442 -0.001661 -0.004023 0.029819 0.001906 0.001355
# 5 0.003747 -0.001245 0.002227 0.001906 0.030406 0.001156
# 6 0.001315 0.002756 -0.002274 0.001355 0.001156 0.028321
#
#
# Mechanical properties :
#
#
# Convention : Reuss Voigt Hill
#
# Bulk Modulus (GPa) = 38.18259 40.43506 39.30883
# Shear Modulus (GPa) = 32.16830 35.09677 33.63254
#
# Velocity S-wave (km/s) = 3.76817 3.93595 3.85298
# Velocity P-wave (km/s) = 5.98214 6.20514 6.09466
#
# Compressibility (1/GPa) = 0.02618994
#
# Stress axis : x y z
#
# Youngs Moduli (GPa) = 85.23715 76.25208 57.71426
#
# Poissons Ratio (x) = 0.03629 0.25284
# Poissons Ratio (y) = 0.04056 0.18092
# Poissons Ratio (z) = 0.37341 0.23904
#
# Static dielectric constant tensor:
#      x y z
#    x 4.389360 0.241240 -0.217050 
#    y 0.241240 4.310800 0.132780 
#    z -0.217050 0.132780 3.908140 
# 
# 
# High freq. dielectric constant tensor:
#      x y z
#    x 1.906250 0.005260 -0.021170 
#    y 0.005260 1.914150 0.005630 
#    z -0.021170 0.005630 1.865380 
# 
# From -- ./inp_files/392219.got.cif
#   From: 2010.06.25/outbox.cif.g09.slc.cpg/sg2_197_cif.got.tgz:392219.got - 2010.06.27 13:26:56.
