data_PCOD8026435
_publ_section_title
;
Structure prediction by ZEFSAII (Michael W. Deem and Ramdas Pophale) SiO2 
 PCOD8026435
Probable space group: P -1
;
_chemical_formula_sum "Si O2"
_cell_formula_units_Z 14
_cell_length_a 11.171430
_cell_length_b 8.137689
_cell_length_c 24.466974
_cell_angle_alpha 148.676058
_cell_angle_beta 33.007028
_cell_angle_gamma 139.750628
_cell_volume 621.226662
_symmetry_space_group_name_H-M "P -1"
_symmetry_group_IT_number 2
_symmetry_cell_setting 'triclinic'
loop_
_space_group_symop_operation_xyz
x,y,z
-x,-y,-z
loop_
_atom_site_type_symbol
_atom_site_label
_atom_site_fract_x
_atom_site_fract_y
_atom_site_fract_z
Si Si1 0.469741 0.969620 0.423198
Si Si2 0.581045 0.289680 0.202471
Si Si3 0.679947 0.977005 0.971611
Si Si4 0.015657 0.871209 0.726924
Si Si5 0.869347 0.681665 0.284160
Si Si6 0.291686 0.689634 0.191309
Si Si7 0.794826 0.171121 0.618560
O O1 0.451534 0.593201 0.337645
O O2 0.369908 0.019162 0.416193
O O3 0.723598 0.145835 0.372152
O O4 0.331354 0.135228 0.567930
O O5 0.764975 0.354562 0.199136
O O6 0.422816 0.952229 0.175651
O O7 0.691764 0.265380 0.093024
O O8 0.617882 0.647028 0.936914
O O9 0.919952 0.993664 0.855043
O O10 0.500000 0.000000 0.000000
O O11 0.877443 0.528991 0.667175
O O12 0.977050 0.100639 0.756913
O O13 0.029306 0.615186 0.253452
O O14 0.329697 0.837387 0.278832
O O15 0.000000 0.000000 0.500000
#
# Coordination Sequence:
#
# PCOD8026435 Si02
#       7
#     2   2   2   2   2   2   2
#     4  11  24  42  66  99 135 173 215 261 325 396
#     4  11  24  42  69  94 131 176 215 268 326 374
#     4  11  24  47  69  93 130 172 227 267 321 389
#     4  10  24  42  64  95 129 172 217 268 319 383
#     4  11  24  41  66 101 134 166 217 266 324 394
#     4  11  24  42  66 100 128 168 216 275 324 381
#     4  11  23  38  63  94 131 176 207 258 327 377
#
# _framework density 22.536058000000001
#
# number of rings (size 3 to 8) (size 9 to 14) (size 15 to 20)
#    0.000    1.143    1.429    5.571    4.000    6.857 
#    0.000    4.286    0.000    0.000    0.000    0.000 
#    0.000    0.000    0.000    0.000    0.000    0.000 
#
# Total GULP energy -173568.512998 kJ/mol
# GULP energy per Si atom -12397.750928 kJ/mol
# Density = 2.248476 g / cm^3
# Si number density = 22.536058 Si / 1000 Ang^3
#
#
#
# Elastic Constant Matrix: (Units=GPa)
#
#
# Indices 1 2 3 4 5 6 
#
# 1 116.9093 25.2275 32.4037 -1.0209 12.6412 7.8981
# 2 25.2275 59.5014 38.9912 -18.2116 4.9506 1.7279
# 3 32.4037 38.9912 113.8540 3.9359 20.9567 0.5761
# 4 -1.0209 -18.2116 3.9359 21.9580 -1.8700 -1.5966
# 5 12.6412 4.9506 20.9567 -1.8700 43.8382 5.0820
# 6 7.8981 1.7279 0.5761 -1.5966 5.0820 19.7684
#
#
#
# Elastic Compliance Matrix: (Units=1/GPa)
#
#
# Indices 1 2 3 4 5 6 
#
# 1 0.010179 -0.004613 -0.000851 -0.003603 -0.001758 -0.003478
# 2 -0.004613 0.037711 -0.013704 0.033976 0.005026 0.000398
# 3 -0.000851 -0.013704 0.015387 -0.014593 -0.006364 0.001547
# 4 -0.003603 0.033976 -0.014593 0.077011 0.007081 0.003294
# 5 -0.001758 0.005026 -0.006364 0.007081 0.026775 -0.005863
# 6 -0.003478 0.000398 0.001547 0.003294 -0.005863 0.053669
#
#
# Mechanical properties :
#
#
# Convention : Reuss Voigt Hill
#
# Bulk Modulus (GPa) = 40.09543 53.72327 46.90935
# Shear Modulus (GPa) = 18.69995 30.02241 24.36118
#
# Velocity S-wave (km/s) = 2.88371 3.65388 3.29140
# Velocity P-wave (km/s) = 5.37755 6.45691 5.94179
#
# Compressibility (1/GPa) = 0.02494050
#
# Stress axis : x y z
#
# Youngs Moduli (GPa) = 98.24528 26.51722 64.99162
#
# Poissons Ratio (x) = 0.12232 0.05534
# Poissons Ratio (y) = 0.45321 0.89062
# Poissons Ratio (z) = 0.08365 0.36338
#
# Static dielectric constant tensor:
#      x y z
#    x 4.271630 0.056530 0.189070 
#    y 0.056530 3.933010 0.125650 
#    z 0.189070 0.125650 4.251120 
# 
# 
# High freq. dielectric constant tensor:
#      x y z
#    x 1.906110 -0.006040 0.009840 
#    y -0.006040 1.871900 0.000330 
#    z 0.009840 0.000330 1.893130 
# 
# From -- ./inp_files/389643.got.cif
#   From: 2010.06.25/outbox.cif.g09.slc.cpg/sg2_195_cif.got.tgz:389643.got - 2010.06.27 13:26:56.
