data_PCOD8026263
_publ_section_title
;
Structure prediction by ZEFSAII (Michael W. Deem and Ramdas Pophale) SiO2 
 PCOD8026263
Probable space group: P -1
;
_chemical_formula_sum "Si O2"
_cell_formula_units_Z 14
_cell_length_a 8.790947
_cell_length_b 10.884387
_cell_length_c 9.025783
_cell_angle_alpha 67.013805
_cell_angle_beta 56.916142
_cell_angle_gamma 66.244903
_cell_volume 645.699853
_symmetry_space_group_name_H-M "P -1"
_symmetry_group_IT_number 2
_symmetry_cell_setting 'triclinic'
loop_
_space_group_symop_operation_xyz
x,y,z
-x,-y,-z
loop_
_atom_site_type_symbol
_atom_site_label
_atom_site_fract_x
_atom_site_fract_y
_atom_site_fract_z
Si Si1 0.707531 0.004143 0.724401
Si Si2 0.986099 0.847127 0.428878
Si Si3 0.343146 0.472056 0.702933
Si Si4 0.999911 0.449088 0.355546
Si Si5 0.327480 0.183952 0.908107
Si Si6 0.303292 0.571149 0.995571
Si Si7 0.989170 0.160927 0.909418
O O1 0.492158 0.082549 0.774310
O O2 0.823206 0.100634 0.699763
O O3 0.810618 0.960539 0.534596
O O4 0.701013 0.872383 0.888267
O O5 0.011418 0.708584 0.574561
O O6 0.935704 0.817740 0.302971
O O7 0.500000 0.500000 0.500000
O O8 0.396099 0.323169 0.822981
O O9 0.310726 0.577176 0.809137
O O10 0.172012 0.468923 0.688306
O O11 0.000000 0.500000 0.500000
O O12 0.179365 0.470857 0.165080
O O13 0.128599 0.208202 0.923732
O O14 0.500000 0.500000 0.000000
O O15 0.216254 0.732191 0.012465
O O16 0.000000 0.000000 0.000000
#
# Coordination Sequence:
#
# PCOD8026263 Si02
#       7
#     2   2   2   2   2   2   2
#     4  10  24  40  72  97 136 178 224 283 350 425
#     4  11  23  43  67 100 136 178 225 287 351 414
#     4  12  26  43  72 102 139 183 239 292 344 429
#     4  12  23  43  71  99 138 180 231 291 352 414
#     4  11  23  45  67 101 135 180 229 284 352 413
#     4  12  28  46  71 104 143 192 236 294 360 414
#     4  12  26  44  71  98 142 179 233 289 346 418
#
# _framework density 21.681899000000001
#
# number of rings (size 3 to 8) (size 9 to 14) (size 15 to 20)
#    0.000    0.571    4.286    3.000    4.000    2.857 
#    0.000    0.000    0.000    0.000    0.000    0.000 
#    0.000    0.000    0.000    0.000    0.000    0.000 
#
# Total GULP energy -173563.397364 kJ/mol
# GULP energy per Si atom -12397.385526 kJ/mol
# Density = 2.163255 g / cm^3
# Si number density = 21.681899 Si / 1000 Ang^3
#
#
#
# Elastic Constant Matrix: (Units=GPa)
#
#
# Indices 1 2 3 4 5 6 
#
# 1 97.7589 32.3434 36.7687 16.8373 -1.6676 -20.5535
# 2 32.3434 134.0886 51.3954 -10.4938 -4.3808 -6.6947
# 3 36.7687 51.3954 140.4070 4.6600 -9.6627 -0.0916
# 4 16.8373 -10.4938 4.6600 52.6751 13.5088 -6.0930
# 5 -1.6676 -4.3808 -9.6627 13.5088 43.3775 3.3192
# 6 -20.5535 -6.6947 -0.0916 -6.0930 3.3192 34.8701
#
#
#
# Elastic Compliance Matrix: (Units=1/GPa)
#
#
# Indices 1 2 3 4 5 6 
#
# 1 0.014237 -0.002343 -0.002702 -0.004056 0.000422 0.007186
# 2 -0.002343 0.009459 -0.003019 0.003258 -0.000905 0.001082
# 3 -0.002702 -0.003019 0.009137 -0.001431 0.002272 -0.002615
# 4 -0.004056 0.003258 -0.001431 0.023372 -0.007657 0.003044
# 5 0.000422 -0.000905 0.002272 -0.007657 0.026156 -0.003747
# 6 0.007186 0.001082 -0.002615 0.003044 -0.003747 0.034003
#
#
# Mechanical properties :
#
#
# Convention : Reuss Voigt Hill
#
# Bulk Modulus (GPa) = 59.86071 68.14106 64.00088
# Shear Modulus (GPa) = 36.21566 42.96768 39.59167
#
# Velocity S-wave (km/s) = 4.09139 4.45649 4.27784
# Velocity P-wave (km/s) = 7.07020 7.61422 7.34725
#
# Compressibility (1/GPa) = 0.01670545
#
# Stress axis : x y z
#
# Youngs Moduli (GPa) = 70.23708 105.71475 109.44574
#
# Poissons Ratio (x) = 0.24771 0.29576
# Poissons Ratio (y) = 0.16458 0.33037
# Poissons Ratio (z) = 0.18981 0.31911
#
# Static dielectric constant tensor:
#      x y z
#    x 3.665450 -0.044930 -0.044730 
#    y -0.044930 4.236530 -0.198060 
#    z -0.044730 -0.198060 4.120710 
# 
# 
# High freq. dielectric constant tensor:
#      x y z
#    x 1.844300 -0.001030 -0.002150 
#    y -0.001030 1.862840 -0.006090 
#    z -0.002150 -0.006090 1.867280 
# 
# From -- ./inp_files/184634.got.cif
#   From: 2010.06.25/outbox.cif.g09.slc.cpg/sg2_93_cif.got.tgz:184634.got - 2010.06.27 13:26:56.
