data_PCOD8026794
_publ_section_title
;
Structure prediction by ZEFSAII (Michael W. Deem and Ramdas Pophale) SiO2 
 PCOD8026794
Probable space group: P -1
;
_chemical_formula_sum "Si O2"
_cell_formula_units_Z 14
_cell_length_a 8.890666
_cell_length_b 4.922850
_cell_length_c 16.550663
_cell_angle_alpha 94.328697
_cell_angle_beta 58.977974
_cell_angle_gamma 119.155216
_cell_volume 526.987682
_symmetry_space_group_name_H-M "P -1"
_symmetry_group_IT_number 2
_symmetry_cell_setting 'triclinic'
loop_
_space_group_symop_operation_xyz
x,y,z
-x,-y,-z
loop_
_atom_site_type_symbol
_atom_site_label
_atom_site_fract_x
_atom_site_fract_y
_atom_site_fract_z
Si Si1 0.116060 0.166409 0.829350
Si Si2 0.860177 0.448754 0.888616
Si Si3 0.365253 0.723574 0.889911
Si Si4 0.441622 0.593897 0.632199
Si Si5 0.232556 0.800215 0.381378
Si Si6 0.624812 0.430840 0.797719
Si Si7 0.206113 0.478879 0.540594
O O1 0.176593 0.418559 0.891662
O O2 0.301037 0.270707 0.715454
O O3 0.936427 0.205730 0.840795
O O4 0.041675 0.810326 0.871716
O O5 0.773220 0.494535 0.831537
O O6 0.686615 0.297274 0.001622
O O7 0.568149 0.701865 0.821277
O O8 0.418804 0.072683 0.852242
O O9 0.293410 0.630392 0.608954
O O10 0.639467 0.626105 0.534974
O O11 0.544021 0.869968 0.678603
O O12 0.255240 0.538600 0.318472
O O13 0.205595 0.730667 0.483988
O O14 0.036183 0.810677 0.399380
#
# Coordination Sequence:
#
# PCOD8026794 Si02
#       7
#     2   2   2   2   2   2   2
#     4  12  25  44  71 101 142 182 230 291 347 415
#     4  12  26  45  69 106 138 184 235 287 347 420
#     4  12  24  46  71 102 139 186 231 287 350 416
#     4  11  23  44  69  98 140 177 236 282 356 411
#     4  11  23  44  67 101 137 179 235 283 355 412
#     4  12  25  44  73 100 143 183 231 290 349 417
#     4  10  24  43  68 101 131 184 227 295 343 421
#
# _framework density 26.566088000000001
#
# number of rings (size 3 to 8) (size 9 to 14) (size 15 to 20)
#    0.000    0.571    1.429    6.857    2.000    0.000 
#   10.286    0.000    0.000    0.000    0.000    0.000 
#    0.000    0.000    0.000    0.000    0.000    0.000 
#
# Total GULP energy -173522.193864 kJ/mol
# GULP energy per Si atom -12394.442419 kJ/mol
# Density = 2.650562 g / cm^3
# Si number density = 26.566088 Si / 1000 Ang^3
#
#
#
# Elastic Constant Matrix: (Units=GPa)
#
#
# Indices 1 2 3 4 5 6 
#
# 1 95.3307 -4.0016 13.2394 -5.1779 -4.8012 32.6254
# 2 -4.0016 60.5814 9.0488 -9.6805 -6.9198 13.6599
# 3 13.2394 9.0488 120.0394 -2.0358 -4.0815 8.2525
# 4 -5.1779 -9.6805 -2.0358 23.1996 -0.6100 1.8658
# 5 -4.8012 -6.9198 -4.0815 -0.6100 31.0068 3.6832
# 6 32.6254 13.6599 8.2525 1.8658 3.6832 45.6297
#
#
#
# Elastic Compliance Matrix: (Units=1/GPa)
#
#
# Indices 1 2 3 4 5 6 
#
# 1 0.016455 0.006289 -0.000991 0.007503 0.005659 -0.014233
# 2 0.006289 0.022594 -0.001102 0.011911 0.007550 -0.012158
# 3 -0.000991 -0.001102 0.008593 0.000141 0.000804 -0.000586
# 4 0.007503 0.011911 0.000141 0.050853 0.006209 -0.011537
# 5 0.005659 0.007550 0.000804 0.006209 0.036184 -0.009627
# 6 -0.014233 -0.012158 -0.000586 -0.011537 -0.009627 0.037086
#
#
# Mechanical properties :
#
#
# Convention : Reuss Voigt Hill
#
# Bulk Modulus (GPa) = 17.84620 34.72499 26.28559
# Shear Modulus (GPa) = 27.46504 37.14488 32.30496
#
# Velocity S-wave (km/s) = 3.21882 3.74332 3.49093
# Velocity P-wave (km/s) = 4.53284 5.63762 5.11515
#
# Compressibility (1/GPa) = 0.05603434
#
# Stress axis : x y z
#
# Youngs Moduli (GPa) = 60.77240 44.25995 116.37356
#
# Poissons Ratio (x) = -0.27837 0.11530
# Poissons Ratio (y) = -0.38223 0.12828
# Poissons Ratio (z) = 0.06021 0.04879
#
# Static dielectric constant tensor:
#      x y z
#    x 5.038030 0.351670 0.021080 
#    y 0.351670 4.758850 -0.009540 
#    z 0.021080 -0.009540 4.719370 
# 
# 
# High freq. dielectric constant tensor:
#      x y z
#    x 2.081060 0.016620 0.002050 
#    y 0.016620 2.051240 -0.000950 
#    z 0.002050 -0.000950 2.070320 
# 
# From -- ./inp_files/49199.got.cif
#   From: 2010.06.25/outbox.cif.g09.slc.cpg/sg2_25_cif.got.tgz:49199.got - 2010.06.27 13:26:56.
