data_PCOD8026917
_publ_section_title
;
Structure prediction by ZEFSAII (Michael W. Deem and Ramdas Pophale) SiO2 
 PCOD8026917
Probable space group: P -1
;
_chemical_formula_sum "Si O2"
_cell_formula_units_Z 16
_cell_length_a 8.896906
_cell_length_b 9.652795
_cell_length_c 11.255951
_cell_angle_alpha 69.636534
_cell_angle_beta 72.784807
_cell_angle_gamma 114.171956
_cell_volume 709.892851
_symmetry_space_group_name_H-M "P -1"
_symmetry_group_IT_number 2
_symmetry_cell_setting 'triclinic'
loop_
_space_group_symop_operation_xyz
x,y,z
-x,-y,-z
loop_
_atom_site_type_symbol
_atom_site_label
_atom_site_fract_x
_atom_site_fract_y
_atom_site_fract_z
Si Si1 0.190702 0.998956 0.297548
Si Si2 0.806932 0.890364 0.288612
Si Si3 0.617022 0.775482 0.593431
Si Si4 0.384424 0.321398 0.005508
Si Si5 0.996236 0.264708 0.053542
Si Si6 0.484873 0.603734 0.306270
Si Si7 0.812746 0.338015 0.531985
Si Si8 0.821126 0.399519 0.236719
O O1 0.228373 0.849519 0.361191
O O2 0.985093 0.911198 0.309615
O O3 0.220649 0.107062 0.380648
O O4 0.357682 0.148831 0.126792
O O5 0.674042 0.891715 0.423929
O O6 0.692047 0.705061 0.294191
O O7 0.857636 0.047578 0.134416
O O8 0.627110 0.610081 0.599400
O O9 0.403385 0.696893 0.712661
O O10 0.184566 0.296701 0.054097
O O11 0.500000 0.500000 0.000000
O O12 0.486665 0.337027 0.854296
O O13 0.898622 0.316402 0.157328
O O14 0.053090 0.383732 0.884380
O O15 0.368342 0.664267 0.385868
O O16 0.847235 0.364014 0.375661
O O17 0.000000 0.500000 0.500000
#
# Coordination Sequence:
#
# PCOD8026917 Si02
#       8
#     2   2   2   2   2   2   2   2
#     4  11  26  45  74 104 147 192 241 293 357 433
#     4  11  25  43  73 109 144 182 243 298 362 422
#     4  12  23  45  75 103 142 195 243 287 353 439
#     4  11  23  47  72 104 141 189 247 293 355 435
#     4  10  24  43  71 105 139 194 233 302 350 427
#     4  12  26  45  75 104 147 191 236 299 367 422
#     4  12  29  45  69 110 150 188 235 305 365 418
#     4  11  24  45  72 102 149 188 246 288 361 428
#
# _framework density 22.538612000000001
#
# number of rings (size 3 to 8) (size 9 to 14) (size 15 to 20)
#    0.000    0.750    3.750    2.250    5.250    5.500 
#    0.000    0.000    0.000    0.000    0.000    0.000 
#    0.000    0.000    0.000    0.000    0.000    0.000 
#
# Total GULP energy -198320.443125 kJ/mol
# GULP energy per Si atom -12395.027695 kJ/mol
# Density = 2.248731 g / cm^3
# Si number density = 22.538612 Si / 1000 Ang^3
#
#
#
# Elastic Constant Matrix: (Units=GPa)
#
#
# Indices 1 2 3 4 5 6 
#
# 1 69.7613 43.5595 33.9725 -12.3683 6.9093 -7.1126
# 2 43.5595 109.3964 24.9761 -20.2555 8.7495 12.1054
# 3 33.9725 24.9761 133.7484 -11.7082 9.6129 -5.9653
# 4 -12.3683 -20.2555 -11.7082 40.7997 -4.6234 5.3575
# 5 6.9093 8.7495 9.6129 -4.6234 37.1247 2.1949
# 6 -7.1126 12.1054 -5.9653 5.3575 2.1949 44.9478
#
#
#
# Elastic Compliance Matrix: (Units=1/GPa)
#
#
# Indices 1 2 3 4 5 6 
#
# 1 0.022100 -0.008302 -0.003668 0.000676 -0.001432 0.005236
# 2 -0.008302 0.014150 -0.000290 0.005094 -0.000741 -0.005734
# 3 -0.003668 -0.000290 0.008678 0.000996 -0.001407 0.000599
# 4 0.000676 0.005094 0.000996 0.028389 0.002225 -0.004625
# 5 -0.001432 -0.000741 -0.001407 0.002225 0.028128 -0.001853
# 6 0.005236 -0.005734 0.000599 -0.004625 -0.001853 0.025342
#
#
# Mechanical properties :
#
#
# Convention : Reuss Voigt Hill
#
# Bulk Modulus (GPa) = 49.00078 57.54694 53.27386
# Shear Modulus (GPa) = 31.62361 38.60099 35.11230
#
# Velocity S-wave (km/s) = 3.74984 4.14292 3.95127
# Velocity P-wave (km/s) = 6.36682 6.96226 6.67119
#
# Compressibility (1/GPa) = 0.02040784
#
# Stress axis : x y z
#
# Youngs Moduli (GPa) = 45.24880 70.67105 115.23971
#
# Poissons Ratio (x) = 0.58673 0.42265
# Poissons Ratio (y) = 0.37567 0.03344
# Poissons Ratio (z) = 0.16595 0.02050
#
# Static dielectric constant tensor:
#      x y z
#    x 3.991400 0.033850 0.077690 
#    y 0.033850 4.119420 -0.263380 
#    z 0.077690 -0.263380 4.493350 
# 
# 
# High freq. dielectric constant tensor:
#      x y z
#    x 1.877220 0.008520 -0.001520 
#    y 0.008520 1.892130 -0.011900 
#    z -0.001520 -0.011900 1.917090 
# 
# From -- ./inp_files/381666.got.cif
#   From: 2010.06.25/outbox.cif.g09.slc.cpg/sg2_191_cif.got.tgz:381666.got - 2010.06.27 13:26:56.
