data_PCOD8026467
_publ_section_title
;
Structure prediction by ZEFSAII (Michael W. Deem and Ramdas Pophale) SiO2 
 PCOD8026467
Probable space group: P -1
;
_chemical_formula_sum "Si O2"
_cell_formula_units_Z 12
_cell_length_a 12.326518
_cell_length_b 8.684025
_cell_length_c 6.690903
_cell_angle_alpha 129.663922
_cell_angle_beta 104.167058
_cell_angle_gamma 66.290884
_cell_volume 504.740631
_symmetry_space_group_name_H-M "P -1"
_symmetry_group_IT_number 2
_symmetry_cell_setting 'triclinic'
loop_
_space_group_symop_operation_xyz
x,y,z
-x,-y,-z
loop_
_atom_site_type_symbol
_atom_site_label
_atom_site_fract_x
_atom_site_fract_y
_atom_site_fract_z
Si Si1 0.080710 0.403426 0.656868
Si Si2 0.022330 0.769081 0.197794
Si Si3 0.173725 0.172362 0.132875
Si Si4 0.211791 0.959127 0.355642
Si Si5 0.419882 0.232312 0.223159
Si Si6 0.551647 0.402963 0.735225
O O1 0.076938 0.372408 0.381502
O O2 0.973478 0.362841 0.704955
O O3 0.200736 0.203178 0.601158
O O4 0.101194 0.611755 0.928439
O O5 0.090338 0.941170 0.388815
O O6 0.888870 0.869651 0.130426
O O7 0.286269 0.238483 0.185756
O O8 0.207999 0.958279 0.108232
O O9 0.325359 0.787336 0.350994
O O10 0.462317 0.297998 0.507689
O O11 0.427507 0.406695 0.215448
O O12 0.500000 0.000000 0.000000
O O13 0.500000 0.500000 0.000000
#
# Coordination Sequence:
#
# PCOD8026467 Si02
#       6
#     2   2   2   2   2   2
#     4   9  24  39  63 102 127 184 213 275 335 392
#     4  11  21  42  66  96 140 172 220 272 336 396
#     4  10  24  42  65  99 132 173 220 274 332 399
#     4  10  24  42  65  99 132 173 220 274 332 399
#     4  11  27  48  71 100 134 179 231 285 340 404
#     4  11  27  48  71 100 134 179 231 285 340 404
#
# _framework density 23.774585999999999
#
# number of rings (size 3 to 8) (size 9 to 14) (size 15 to 20)
#    1.000    0.667    0.000    2.500    9.333    2.667 
#    0.000    0.000    0.000    0.000    0.000    0.000 
#    0.000    0.000    0.000    0.000    0.000    0.000 
#
# Total GULP energy -148686.769829 kJ/mol
# GULP energy per Si atom -12390.564152 kJ/mol
# Density = 2.372047 g / cm^3
# Si number density = 23.774586 Si / 1000 Ang^3
#
#
#
# Elastic Constant Matrix: (Units=GPa)
#
#
# Indices 1 2 3 4 5 6 
#
# 1 147.3461 32.1241 48.6679 -9.5848 14.6847 -4.7573
# 2 32.1241 92.5931 38.8154 -6.2552 15.7401 -0.7818
# 3 48.6679 38.8154 128.1875 -15.0210 1.9204 1.4763
# 4 -9.5848 -6.2552 -15.0210 37.0590 -1.5864 -4.4763
# 5 14.6847 15.7401 1.9204 -1.5864 32.8103 1.2460
# 6 -4.7573 -0.7818 1.4763 -4.4763 1.2460 34.1990
#
#
#
# Elastic Compliance Matrix: (Units=1/GPa)
#
#
# Indices 1 2 3 4 5 6 
#
# 1 0.008335 -0.001185 -0.002669 0.000923 -0.003017 0.001478
# 2 -0.001185 0.013739 -0.003585 0.000377 -0.005854 0.000567
# 3 -0.002669 -0.003585 0.010207 0.002874 0.002479 -0.000608
# 4 0.000923 0.000377 0.002874 0.028929 0.000493 0.003782
# 5 -0.003017 -0.005854 0.002479 0.000493 0.034586 -0.001856
# 6 0.001478 0.000567 -0.000608 0.003782 -0.001856 0.030048
#
#
# Mechanical properties :
#
#
# Convention : Reuss Voigt Hill
#
# Bulk Modulus (GPa) = 57.46285 67.48239 62.47262
# Shear Modulus (GPa) = 34.12388 37.38161 35.75274
#
# Velocity S-wave (km/s) = 3.79266 3.96957 3.88212
# Velocity P-wave (km/s) = 6.58797 7.03249 6.81385
#
# Compressibility (1/GPa) = 0.01740255
#
# Stress axis : x y z
#
# Youngs Moduli (GPa) = 119.97176 72.78351 97.97443
#
# Poissons Ratio (x) = 0.08625 0.26153
# Poissons Ratio (y) = 0.14217 0.35124
# Poissons Ratio (z) = 0.32025 0.26093
#
# Static dielectric constant tensor:
#      x y z
#    x 3.735570 0.096200 0.080290 
#    y 0.096200 4.689540 -0.081730 
#    z 0.080290 -0.081730 4.303540 
# 
# 
# High freq. dielectric constant tensor:
#      x y z
#    x 1.923580 0.000040 -0.021710 
#    y 0.000040 1.971480 0.000070 
#    z -0.021710 0.000070 1.961090 
# 
# From -- ./inp_files/61297.got.cif
#   From: 2010.06.25/outbox.cif.g09.slc.cpg/sg2_31_cif.got.tgz:61297.got - 2010.06.27 13:26:56.
