data_PCOD8026621
_publ_section_title
;
Structure prediction by ZEFSAII (Michael W. Deem and Ramdas Pophale) SiO2 
 PCOD8026621
Probable space group: P -1
;
_chemical_formula_sum "Si O2"
_cell_formula_units_Z 14
_cell_length_a 21.230149
_cell_length_b 5.428720
_cell_length_c 11.257884
_cell_angle_alpha 78.326848
_cell_angle_beta 35.323315
_cell_angle_gamma 103.223904
_cell_volume 527.861083
_symmetry_space_group_name_H-M "P -1"
_symmetry_group_IT_number 2
_symmetry_cell_setting 'triclinic'
loop_
_space_group_symop_operation_xyz
x,y,z
-x,-y,-z
loop_
_atom_site_type_symbol
_atom_site_label
_atom_site_fract_x
_atom_site_fract_y
_atom_site_fract_z
Si Si1 0.822402 0.060517 0.403121
Si Si2 0.580498 0.746809 0.237489
Si Si3 0.531617 0.836096 0.873858
Si Si4 0.132833 0.533175 0.976564
Si Si5 0.269060 0.336808 0.174445
Si Si6 0.729474 0.715521 0.343954
Si Si7 0.878747 0.494794 0.739355
O O1 0.779569 0.909043 0.615935
O O2 0.786728 0.786420 0.386152
O O3 0.999989 0.413812 0.102457
O O4 0.712649 0.125143 0.531291
O O5 0.500000 0.500000 0.500000
O O6 0.451497 0.624979 0.352983
O O7 0.696565 0.751114 0.991186
O O8 0.696912 0.146829 0.061659
O O9 0.425044 0.728979 0.935693
O O10 0.500000 0.500000 0.000000
O O11 0.500000 0.000000 0.000000
O O12 0.196473 0.373334 0.845207
O O13 0.241821 0.951563 0.778071
O O14 0.068753 0.363481 0.221654
O O15 0.123760 0.274784 0.370142
O O16 0.000000 0.500000 0.500000
#
# Coordination Sequence:
#
# PCOD8026621 Si02
#       7
#     2   2   2   2   2   2   2
#     4  11  26  51  81 117 164 208 264 344 409 478
#     4  12  26  50  78 112 161 214 271 323 396 482
#     4  10  24  42  71 112 149 198 253 315 395 466
#     4  12  29  51  79 116 167 211 273 327 407 481
#     4  11  27  47  79 116 156 207 269 335 401 475
#     4  12  28  51  80 119 155 218 269 330 400 494
#     4  12  30  49  83 119 160 216 271 339 403 477
#
# _framework density 26.522131999999999
#
# number of rings (size 3 to 8) (size 9 to 14) (size 15 to 20)
#    0.000    0.571    2.857    2.571   10.000    5.714 
#    0.000    0.000    0.000    0.000    0.000    0.000 
#    0.000    0.000    0.000    0.000    0.000    0.000 
#
# Total GULP energy -173446.271746 kJ/mol
# GULP energy per Si atom -12389.019410 kJ/mol
# Density = 2.646177 g / cm^3
# Si number density = 26.522132 Si / 1000 Ang^3
#
#
#
# Elastic Constant Matrix: (Units=GPa)
#
#
# Indices 1 2 3 4 5 6 
#
# 1 130.1890 21.9809 21.8219 16.4144 -15.5835 25.2593
# 2 21.9809 133.9361 35.2985 36.1566 4.1805 8.4333
# 3 21.8219 35.2985 70.6230 23.5740 -23.9517 5.9627
# 4 16.4144 36.1566 23.5740 65.0603 6.6318 -7.2768
# 5 -15.5835 4.1805 -23.9517 6.6318 67.7667 -1.5192
# 6 25.2593 8.4333 5.9627 -7.2768 -1.5192 35.0596
#
#
#
# Elastic Compliance Matrix: (Units=1/GPa)
#
#
# Indices 1 2 3 4 5 6 
#
# 1 0.009970 -0.000213 -0.000434 -0.003330 0.002307 -0.007649
# 2 -0.000213 0.009833 -0.003819 -0.004137 -0.001657 -0.002493
# 3 -0.000434 -0.003819 0.021623 -0.006848 0.008370 -0.003504
# 4 -0.003330 -0.004137 -0.006848 0.022502 -0.004931 0.009016
# 5 0.002307 -0.001657 0.008370 -0.004931 0.018765 -0.002897
# 6 -0.007649 -0.002493 -0.003504 0.009016 -0.002897 0.036975
#
#
# Mechanical properties :
#
#
# Convention : Reuss Voigt Hill
#
# Bulk Modulus (GPa) = 30.77609 54.77229 42.77419
# Shear Modulus (GPa) = 35.85941 50.62044 43.23993
#
# Velocity S-wave (km/s) = 3.68102 4.37351 4.04212
# Velocity P-wave (km/s) = 5.44937 6.79704 6.16017
#
# Compressibility (1/GPa) = 0.03249276
#
# Stress axis : x y z
#
# Youngs Moduli (GPa) = 100.30076 101.69557 46.24642
#
# Poissons Ratio (x) = 0.02167 0.02009
# Poissons Ratio (y) = 0.02138 0.17664
# Poissons Ratio (z) = 0.04357 0.38842
#
# Static dielectric constant tensor:
#      x y z
#    x 6.838240 0.372250 -0.924240 
#    y 0.372250 4.874550 -0.353800 
#    z -0.924240 -0.353800 5.620680 
# 
# 
# High freq. dielectric constant tensor:
#      x y z
#    x 2.085990 0.019980 -0.007920 
#    y 0.019980 2.060320 -0.007360 
#    z -0.007920 -0.007360 2.083210 
# 
# From -- ./inp_files/473426.got.cif
#   From: 2010.06.25/outbox.cif.g09.slc.cpg/sg2_237_cif.got.tgz:473426.got - 2010.06.27 13:26:56.
