data_PCOD8026146
_publ_section_title
;
Structure prediction by ZEFSAII (Michael W. Deem and Ramdas Pophale) SiO2 
 PCOD8026146
Probable space group: P -1
;
_chemical_formula_sum "Si O2"
_cell_formula_units_Z 16
_cell_length_a 8.776191
_cell_length_b 9.483668
_cell_length_c 12.707647
_cell_angle_alpha 130.783773
_cell_angle_beta 73.822408
_cell_angle_gamma 99.911171
_cell_volume 769.059767
_symmetry_space_group_name_H-M "P -1"
_symmetry_group_IT_number 2
_symmetry_cell_setting 'triclinic'
loop_
_space_group_symop_operation_xyz
x,y,z
-x,-y,-z
loop_
_atom_site_type_symbol
_atom_site_label
_atom_site_fract_x
_atom_site_fract_y
_atom_site_fract_z
Si Si1 0.001687 0.494195 0.622339
Si Si2 0.306425 0.979952 0.608892
Si Si3 0.241232 0.995048 0.014994
Si Si4 0.481984 0.743713 0.928998
Si Si5 0.402754 0.876118 0.241481
Si Si6 0.846931 0.876602 0.493709
Si Si7 0.918209 0.099200 0.203502
Si Si8 0.338348 0.617089 0.298889
O O1 0.822169 0.487851 0.694201
O O2 0.000000 0.500000 0.500000
O O3 0.103794 0.327336 0.573833
O O4 0.078185 0.688769 0.736918
O O5 0.152543 0.922345 0.677474
O O6 0.375571 0.787480 0.453250
O O7 0.439392 0.069951 0.698726
O O8 0.252754 0.123370 0.596895
O O9 0.365082 0.154300 0.097651
O O10 0.095135 0.013491 0.132773
O O11 0.326291 0.793874 0.915589
O O12 0.184797 0.017043 0.916296
O O13 0.512152 0.524768 0.802190
O O14 0.452389 0.820053 0.088744
O O15 0.322062 0.697743 0.223791
O O16 0.268515 0.039465 0.351847
O O17 0.000000 0.000000 0.500000
#
# Coordination Sequence:
#
# PCOD8026146 Si02
#       8
#     2   2   2   2   2   2   2   2
#     4  12  23  38  66  98 126 163 210 274 316 370
#     4  11  23  43  68  95 132 169 211 265 324 373
#     4  10  24  39  64  90 130 172 214 258 322 389
#     4  11  23  41  64  92 128 174 215 256 322 383
#     4  11  24  42  67  93 131 172 210 263 322 383
#     4  11  22  40  66  98 124 166 216 259 318 384
#     4  11  22  43  64  94 132 167 212 272 319 370
#     4  11  22  40  64  94 130 161 215 268 311 377
#
# _framework density 20.804624
#
# number of rings (size 3 to 8) (size 9 to 14) (size 15 to 20)
#    0.000    1.000    6.250    1.875    3.500    2.000 
#    0.000    1.250    0.000    3.750    0.000    0.000 
#    0.000    0.000    0.000    0.000    0.000    0.000 
#
# Total GULP energy -198348.347791 kJ/mol
# GULP energy per Si atom -12396.771737 kJ/mol
# Density = 2.075727 g / cm^3
# Si number density = 20.804624 Si / 1000 Ang^3
#
#
#
# Elastic Constant Matrix: (Units=GPa)
#
#
# Indices 1 2 3 4 5 6 
#
# 1 106.9365 39.8070 40.0150 -4.4437 -23.2567 -10.0406
# 2 39.8070 101.6933 32.2998 1.5796 -21.3114 -8.2519
# 3 40.0150 32.2998 77.0333 -7.2779 -22.6797 -14.4737
# 4 -4.4437 1.5796 -7.2779 34.5219 -3.2522 -11.2402
# 5 -23.2567 -21.3114 -22.6797 -3.2522 37.6449 6.7478
# 6 -10.0406 -8.2519 -14.4737 -11.2402 6.7478 35.7937
#
#
#
# Elastic Compliance Matrix: (Units=1/GPa)
#
#
# Indices 1 2 3 4 5 6 
#
# 1 0.012954 -0.002924 -0.003980 0.001704 0.003890 0.001152
# 2 -0.002924 0.012644 -0.002892 -0.001279 0.003523 -0.000141
# 3 -0.003980 -0.002892 0.020527 0.007037 0.007570 0.007300
# 4 0.001704 -0.001279 0.007037 0.035520 0.005273 0.013189
# 5 0.003890 0.003523 0.007570 0.005273 0.036008 -0.000168
# 6 0.001152 -0.000141 0.007300 0.013189 -0.000168 0.035354
#
#
# Mechanical properties :
#
#
# Convention : Reuss Voigt Hill
#
# Bulk Modulus (GPa) = 37.69169 56.65630 47.17399
# Shear Modulus (GPa) = 27.55673 33.16150 30.35912
#
# Velocity S-wave (km/s) = 3.64338 3.99676 3.82416
# Velocity P-wave (km/s) = 5.98793 6.97069 6.49791
#
# Compressibility (1/GPa) = 0.02653105
#
# Stress axis : x y z
#
# Youngs Moduli (GPa) = 77.19424 79.09089 48.71683
#
# Poissons Ratio (x) = 0.23129 0.19390
# Poissons Ratio (y) = 0.22575 0.14090
# Poissons Ratio (z) = 0.30725 0.22875
#
# Static dielectric constant tensor:
#      x y z
#    x 3.908550 0.013970 -0.293230 
#    y 0.013970 4.016010 -0.048090 
#    z -0.293230 -0.048090 3.735720 
# 
# 
# High freq. dielectric constant tensor:
#      x y z
#    x 1.823740 0.004520 -0.018300 
#    y 0.004520 1.815330 -0.008040 
#    z -0.018300 -0.008040 1.809730 
# 
# From -- ./inp_files/182688.got.cif
#   From: 2010.06.25/outbox.cif.g09.slc.cpg/sg2_92_cif.got.tgz:182688.got - 2010.06.27 13:26:56.
