data_PCOD8026253
_publ_section_title
;
Structure prediction by ZEFSAII (Michael W. Deem and Ramdas Pophale) SiO2 
 PCOD8026253
Probable space group: P -1
;
_chemical_formula_sum "Si O2"
_cell_formula_units_Z 16
_cell_length_a 15.290657
_cell_length_b 12.494258
_cell_length_c 8.350602
_cell_angle_alpha 74.493883
_cell_angle_beta 95.086809
_cell_angle_gamma 150.789163
_cell_volume 713.841426
_symmetry_space_group_name_H-M "P -1"
_symmetry_group_IT_number 2
_symmetry_cell_setting 'triclinic'
loop_
_space_group_symop_operation_xyz
x,y,z
-x,-y,-z
loop_
_atom_site_type_symbol
_atom_site_label
_atom_site_fract_x
_atom_site_fract_y
_atom_site_fract_z
Si Si1 0.898707 0.641001 0.201748
Si Si2 0.488462 0.231746 0.033874
Si Si3 0.208052 0.054554 0.871456
Si Si4 0.561389 0.118383 0.292232
Si Si5 0.381814 0.724354 0.269864
Si Si6 0.983881 0.355631 0.496475
Si Si7 0.343038 0.115833 0.553966
Si Si8 0.622724 0.519041 0.207258
O O1 0.778182 0.398562 0.224197
O O2 0.044282 0.760095 0.311755
O O3 0.767506 0.590453 0.275386
O O4 0.994734 0.804569 0.996565
O O5 0.441354 0.094410 0.229480
O O6 0.585852 0.449061 0.041696
O O7 0.306822 0.061048 0.972250
O O8 0.632809 0.333705 0.892441
O O9 0.226369 0.061480 0.681452
O O10 0.294157 0.266174 0.856721
O O11 0.500000 0.000000 0.500000
O O12 0.527783 0.990925 0.198895
O O13 0.176794 0.534180 0.369799
O O14 0.473692 0.733859 0.395013
O O15 0.000000 0.500000 0.500000
O O16 0.802923 0.138641 0.438724
O O17 0.425090 0.290655 0.362841
#
# Coordination Sequence:
#
# PCOD8026253 Si02
#       8
#     2   2   2   2   2   2   2   2
#     4  11  24  41  67  99 136 175 233 281 334 410
#     4  10  24  40  70  96 136 177 230 279 337 407
#     4  11  25  44  67 103 132 176 237 288 336 398
#     4  11  21  41  67  93 132 186 212 265 348 402
#     4  11  23  45  64 105 140 179 219 286 337 403
#     4  12  26  41  72  99 139 182 228 270 348 415
#     4  11  25  45  70 102 138 178 230 283 335 413
#     4  11  22  46  72  91 138 187 221 287 352 390
#
# _framework density 22.41394
#
# number of rings (size 3 to 8) (size 9 to 14) (size 15 to 20)
#    0.000    1.000    2.500    3.750    8.750    0.000 
#    0.000    2.500    0.000    0.000    0.000    0.000 
#    0.000    0.000    0.000    0.000    0.000    0.000 
#
# Total GULP energy -198331.861094 kJ/mol
# GULP energy per Si atom -12395.741318 kJ/mol
# Density = 2.236293 g / cm^3
# Si number density = 22.413940 Si / 1000 Ang^3
#
#
#
# Elastic Constant Matrix: (Units=GPa)
#
#
# Indices 1 2 3 4 5 6 
#
# 1 63.1140 29.2371 51.2748 -0.4051 -14.3702 -10.9072
# 2 29.2371 119.4576 75.4994 -6.2720 -13.1791 -26.1892
# 3 51.2748 75.4994 139.0263 -9.4474 -22.5113 -16.5199
# 4 -0.4051 -6.2720 -9.4474 40.6183 0.4650 5.0806
# 5 -14.3702 -13.1791 -22.5113 0.4650 35.4617 9.7801
# 6 -10.9072 -26.1892 -16.5199 5.0806 9.7801 42.8024
#
#
#
# Elastic Compliance Matrix: (Units=1/GPa)
#
#
# Indices 1 2 3 4 5 6 
#
# 1 0.023545 0.000113 -0.007967 -0.001937 0.003908 0.002331
# 2 0.000113 0.014075 -0.007124 -0.000239 -0.000934 0.006133
# 3 -0.007967 -0.007124 0.014559 0.002405 0.003870 -0.001939
# 4 -0.001937 -0.000239 0.002405 0.025485 0.001146 -0.002998
# 5 0.003908 -0.000934 0.003870 0.001146 0.033497 -0.005872
# 6 0.002331 0.006133 -0.001939 -0.002998 -0.005872 0.028659
#
#
# Mechanical properties :
#
#
# Convention : Reuss Voigt Hill
#
# Bulk Modulus (GPa) = 44.99691 70.40230 57.69960
# Shear Modulus (GPa) = 28.21949 34.81559 31.51754
#
# Velocity S-wave (km/s) = 3.55211 3.94547 3.75395
# Velocity P-wave (km/s) = 6.07802 7.22730 6.67743
#
# Compressibility (1/GPa) = 0.02222375
#
# Stress axis : x y z
#
# Youngs Moduli (GPa) = 42.47263 71.04843 68.68370
#
# Poissons Ratio (x) = -0.00804 0.54719
# Poissons Ratio (y) = -0.00481 0.48930
# Poissons Ratio (z) = 0.33837 0.50615
#
# Static dielectric constant tensor:
#      x y z
#    x 4.050680 -0.019750 -0.101580 
#    y -0.019750 3.988250 0.152970 
#    z -0.101580 0.152970 4.202220 
# 
# 
# High freq. dielectric constant tensor:
#      x y z
#    x 1.880160 -0.001280 -0.003520 
#    y -0.001280 1.878420 0.004980 
#    z -0.003520 0.004980 1.887270 
# 
# From -- ./inp_files/307369.got.cif
#   From: 2010.06.25/outbox.cif.g09.slc.cpg/sg2_154_cif.got.tgz:307369.got - 2010.06.27 13:26:56.
