data_PCOD8026902
_publ_section_title
;
Structure prediction by ZEFSAII (Michael W. Deem and Ramdas Pophale) SiO2 
 PCOD8026902
Probable space group: P -1
;
_chemical_formula_sum "Si O2"
_cell_formula_units_Z 16
_cell_length_a 16.128611
_cell_length_b 15.666310
_cell_length_c 5.297137
_cell_angle_alpha 91.627104
_cell_angle_beta 79.393860
_cell_angle_gamma 147.565146
_cell_volume 684.840493
_symmetry_space_group_name_H-M "P -1"
_symmetry_group_IT_number 2
_symmetry_cell_setting 'triclinic'
loop_
_space_group_symop_operation_xyz
x,y,z
-x,-y,-z
loop_
_atom_site_type_symbol
_atom_site_label
_atom_site_fract_x
_atom_site_fract_y
_atom_site_fract_z
Si Si1 0.173850 0.706966 0.295997
Si Si2 0.652857 0.997999 0.531655
Si Si3 0.637180 0.285793 0.647077
Si Si4 0.545203 0.755300 0.875467
Si Si5 0.213059 0.180312 0.145507
Si Si6 0.783763 0.539821 0.225943
Si Si7 0.942435 0.323416 0.150273
Si Si8 0.865799 0.796909 0.309289
O O1 0.266525 0.697085 0.230735
O O2 0.050488 0.607223 0.601339
O O3 0.310106 0.899094 0.265807
O O4 0.080008 0.637930 0.081469
O O5 0.471311 0.857589 0.514196
O O6 0.791697 0.127178 0.249601
O O7 0.660690 0.908947 0.634640
O O8 0.508715 0.228680 0.871899
O O9 0.768000 0.460325 0.458236
O O10 0.636812 0.754160 0.939847
O O11 0.389189 0.584937 0.801825
O O12 0.226099 0.250478 0.392523
O O13 0.225183 0.247631 0.892840
O O14 0.050124 0.985282 0.224478
O O15 0.868484 0.697065 0.300685
O O16 0.894639 0.591695 0.952811
#
# Coordination Sequence:
#
# PCOD8026902 Si02
#       8
#     2   2   2   2   2   2   2   2
#     4  10  24  43  70  99 138 189 245 284 340 399
#     4   9  23  41  69 102 133 192 232 295 330 412
#     4  11  25  43  66 104 146 186 233 286 352 412
#     4  11  26  44  70 106 146 185 225 290 353 416
#     4  10  25  47  75 104 135 177 233 281 348 413
#     4  11  28  45  68 106 145 183 230 288 356 413
#     4  10  25  43  69 100 130 196 234 295 331 405
#     4  10  25  47  75 105 134 178 228 291 337 426
#
# _framework density 23.363104
#
# number of rings (size 3 to 8) (size 9 to 14) (size 15 to 20)
#    0.750    1.000    0.000    1.125   14.000    5.000 
#    0.000    0.000    0.000    0.000    0.000    0.000 
#    0.000    0.000    0.000    0.000    0.000    0.000 
#
# Total GULP energy -198450.760657 kJ/mol
# GULP energy per Si atom -12403.172541 kJ/mol
# Density = 2.330993 g / cm^3
# Si number density = 23.363104 Si / 1000 Ang^3
#
#
#
# Elastic Constant Matrix: (Units=GPa)
#
#
# Indices 1 2 3 4 5 6 
#
# 1 137.2228 47.7904 58.6123 1.3612 -13.8110 -0.0635
# 2 47.7904 53.5898 43.9391 3.7937 4.2667 -11.6834
# 3 58.6123 43.9391 150.9150 8.6572 0.1632 -4.1043
# 4 1.3612 3.7937 8.6572 37.9488 -3.0817 -5.1705
# 5 -13.8110 4.2667 0.1632 -3.0817 39.8724 2.2971
# 6 -0.0635 -11.6834 -4.1043 -5.1705 2.2971 23.6627
#
#
#
# Elastic Compliance Matrix: (Units=1/GPa)
#
#
# Indices 1 2 3 4 5 6 
#
# 1 0.012811 -0.012014 -0.001706 0.000728 0.006169 -0.006633
# 2 -0.012014 0.039498 -0.006287 -0.000231 -0.009489 0.019250
# 3 -0.001706 -0.006287 0.009163 -0.001655 0.000025 -0.001883
# 4 0.000728 -0.000231 -0.001655 0.027638 0.002107 0.005435
# 5 0.006169 -0.009489 0.000025 0.002107 0.028798 -0.007000
# 6 -0.006633 0.019250 -0.001883 0.005435 -0.007000 0.053288
#
#
# Mechanical properties :
#
#
# Convention : Reuss Voigt Hill
#
# Bulk Modulus (GPa) = 46.60499 71.37900 58.99200
# Shear Modulus (GPa) = 22.89777 33.05586 27.97682
#
# Velocity S-wave (km/s) = 3.13402 3.76556 3.46421
# Velocity P-wave (km/s) = 5.75218 7.03735 6.42697
#
# Compressibility (1/GPa) = 0.02145693
#
# Stress axis : x y z
#
# Youngs Moduli (GPa) = 78.05762 25.31805 109.13444
#
# Poissons Ratio (x) = 0.30418 0.18622
# Poissons Ratio (y) = 0.93782 0.68608
# Poissons Ratio (z) = 0.13320 0.15916
#
# Static dielectric constant tensor:
#      x y z
#    x 3.878000 -0.017500 0.121710 
#    y -0.017500 4.221090 -0.026930 
#    z 0.121710 -0.026930 4.212420 
# 
# 
# High freq. dielectric constant tensor:
#      x y z
#    x 1.913340 -0.000630 0.008620 
#    y -0.000630 1.939610 0.000510 
#    z 0.008620 0.000510 1.926170 
# 
# From -- ./inp_files/97078.got.cif
#   From: 2010.06.25/outbox.cif.g09.slc.cpg/sg2_49_cif.got.tgz:97078.got - 2010.06.27 13:26:56.
