data_PCOD8026913
_publ_section_title
;
Structure prediction by ZEFSAII (Michael W. Deem and Ramdas Pophale) SiO2 
 PCOD8026913
Probable space group: P -1
;
_chemical_formula_sum "Si O2"
_cell_formula_units_Z 16
_cell_length_a 9.001861
_cell_length_b 10.943602
_cell_length_c 15.612790
_cell_angle_alpha 72.501503
_cell_angle_beta 132.494736
_cell_angle_gamma 70.038220
_cell_volume 684.437895
_symmetry_space_group_name_H-M "P -1"
_symmetry_group_IT_number 2
_symmetry_cell_setting 'triclinic'
loop_
_space_group_symop_operation_xyz
x,y,z
-x,-y,-z
loop_
_atom_site_type_symbol
_atom_site_label
_atom_site_fract_x
_atom_site_fract_y
_atom_site_fract_z
Si Si1 0.835318 0.078893 0.652940
Si Si2 0.611919 0.567063 0.478998
Si Si3 0.452740 0.121545 0.378227
Si Si4 0.598826 0.348089 0.969574
Si Si5 0.756520 0.865280 0.203542
Si Si6 0.743223 0.551559 0.025452
Si Si7 0.367926 0.116888 0.157119
Si Si8 0.215912 0.772236 0.113708
O O1 0.533594 0.239957 0.567271
O O2 0.706668 0.109392 0.501139
O O3 0.047962 0.099712 0.727437
O O4 0.042214 0.857388 0.814205
O O5 0.500000 0.500000 0.500000
O O6 0.468096 0.626139 0.316490
O O7 0.998354 0.373972 0.665291
O O8 0.512779 0.029585 0.327582
O O9 0.113964 0.356752 0.195549
O O10 0.500000 0.000000 0.500000
O O11 0.338057 0.402866 0.914236
O O12 0.570883 0.309281 0.870599
O O13 0.549145 0.526085 0.916447
O O14 0.583571 0.930455 0.213694
O O15 0.500000 0.000000 0.000000
O O16 0.621261 0.739198 0.893022
O O17 0.007224 0.242255 0.984443
O O18 0.000000 0.000000 0.000000
#
# Coordination Sequence:
#
# PCOD8026913 Si02
#       8
#     2   2   2   2   2   2   2   2
#     4  11  22  45  70 102 148 189 237 304 369 427
#     4  10  24  43  71 104 137 193 242 294 367 431
#     4  12  26  44  70 104 151 191 243 305 363 435
#     4  11  23  46  71 106 149 195 236 300 381 424
#     4  11  26  46  71 107 146 189 249 307 360 438
#     4  11  25  44  72 104 143 192 245 296 363 439
#     4  12  26  46  74 108 146 195 249 296 370 437
#     4  12  25  46  75 105 151 192 242 306 372 441
#
# _framework density 23.376844999999999
#
# number of rings (size 3 to 8) (size 9 to 14) (size 15 to 20)
#    0.000    0.750    5.000    1.875    5.250    1.500 
#    0.000    0.625    0.000    0.000    0.000    0.000 
#    0.000    0.000    0.000    0.000    0.000    0.000 
#
# Total GULP energy -198392.798785 kJ/mol
# GULP energy per Si atom -12399.549924 kJ/mol
# Density = 2.332364 g / cm^3
# Si number density = 23.376845 Si / 1000 Ang^3
#
#
#
# Elastic Constant Matrix: (Units=GPa)
#
#
# Indices 1 2 3 4 5 6 
#
# 1 89.6603 33.8469 25.7047 9.7930 -14.4971 -25.1256
# 2 33.8469 93.3626 31.5109 9.7965 -3.0273 -28.9135
# 3 25.7047 31.5109 120.9965 22.7542 -4.1014 -21.0809
# 4 9.7930 9.7965 22.7542 49.1601 -5.4721 -5.2904
# 5 -14.4971 -3.0273 -4.1014 -5.4721 35.3345 3.2140
# 6 -25.1256 -28.9135 -21.0809 -5.2904 3.2140 59.6734
#
#
#
# Elastic Compliance Matrix: (Units=1/GPa)
#
#
# Indices 1 2 3 4 5 6 
#
# 1 0.014814 -0.003547 -0.001270 -0.000678 0.005182 0.003731
# 2 -0.003547 0.014164 -0.002010 -0.000799 -0.001021 0.004643
# 3 -0.001270 -0.002010 0.010074 -0.003855 -0.000278 0.001723
# 4 -0.000678 -0.000799 -0.003855 0.022707 0.002738 -0.000169
# 5 0.005182 -0.001021 -0.000278 0.002738 0.030715 0.000177
# 6 0.003731 0.004643 0.001723 -0.000169 0.000177 0.021163
#
#
# Mechanical properties :
#
#
# Convention : Reuss Voigt Hill
#
# Bulk Modulus (GPa) = 39.37609 54.01606 46.69607
# Shear Modulus (GPa) = 36.83031 43.03072 39.93052
#
# Velocity S-wave (km/s) = 3.97357 4.29504 4.13743
# Velocity P-wave (km/s) = 6.15897 6.91038 6.54547
#
# Compressibility (1/GPa) = 0.02539612
#
# Stress axis : x y z
#
# Youngs Moduli (GPa) = 67.50429 70.60033 99.26755
#
# Poissons Ratio (x) = 0.25044 0.12608
# Poissons Ratio (y) = 0.23946 0.19958
# Poissons Ratio (z) = 0.08574 0.14194
#
# Static dielectric constant tensor:
#      x y z
#    x 4.291870 -0.373980 0.146420 
#    y -0.373980 4.969080 -0.231250 
#    z 0.146420 -0.231250 4.402790 
# 
# 
# High freq. dielectric constant tensor:
#      x y z
#    x 1.921400 -0.008290 0.000040 
#    y -0.008290 1.941880 -0.000880 
#    z 0.000040 -0.000880 1.914080 
# 
# From -- ./inp_files/347685.got.cif
#   From: 2010.06.25/outbox.cif.g09.slc.cpg/sg2_174_cif.got.tgz:347685.got - 2010.06.27 13:26:56.
