data_PCOD8026585
_publ_section_title
;
Structure prediction by ZEFSAII (Michael W. Deem and Ramdas Pophale) SiO2 
 PCOD8026585
Probable space group: P -1
;
_chemical_formula_sum "Si O2"
_cell_formula_units_Z 16
_cell_length_a 11.799443
_cell_length_b 10.951825
_cell_length_c 5.773767
_cell_angle_alpha 89.023065
_cell_angle_beta 115.377391
_cell_angle_gamma 91.111955
_cell_volume 673.962108
_symmetry_space_group_name_H-M "P -1"
_symmetry_group_IT_number 2
_symmetry_cell_setting 'triclinic'
loop_
_space_group_symop_operation_xyz
x,y,z
-x,-y,-z
loop_
_atom_site_type_symbol
_atom_site_label
_atom_site_fract_x
_atom_site_fract_y
_atom_site_fract_z
Si Si1 0.057784 0.780722 0.931666
Si Si2 0.069337 0.523956 0.807722
Si Si3 0.549581 0.414446 0.343970
Si Si4 0.205200 0.183218 0.461383
Si Si5 0.308440 0.399570 0.861089
Si Si6 0.208953 0.962521 0.783662
Si Si7 0.257821 0.792120 0.445732
Si Si8 0.638346 0.974895 0.693919
O O1 0.102145 0.667927 0.814594
O O2 0.099992 0.912231 0.858794
O O3 0.906690 0.776388 0.808969
O O4 0.116624 0.752660 0.240222
O O5 0.198168 0.448405 0.928667
O O6 0.000000 0.500000 0.500000
O O7 0.000000 0.500000 0.000000
O O8 0.500000 0.500000 0.500000
O O9 0.640026 0.489200 0.250892
O O10 0.636401 0.306275 0.515501
O O11 0.426959 0.353714 0.116281
O O12 0.251791 0.292383 0.659160
O O13 0.320136 0.146415 0.399349
O O14 0.153624 0.065469 0.563347
O O15 0.261822 0.841092 0.708835
O O16 0.328699 0.034074 0.004799
O O17 0.280688 0.906323 0.297241
O O18 0.500000 0.000000 0.500000
#
# Coordination Sequence:
#
# PCOD8026585 Si02
#       8
#     2   2   2   2   2   2   2   2
#     4  11  24  44  71 103 144 185 246 299 375 449
#     4  12  28  49  77 114 156 202 254 318 386 455
#     4  11  26  45  73 102 145 194 252 311 378 457
#     4  11  25  43  69 105 141 187 244 305 371 444
#     4  11  27  46  70 110 144 195 252 312 378 455
#     4  10  24  43  68  98 141 191 238 298 382 440
#     4  10  24  42  69  99 134 190 231 302 365 447
#     4  10  25  42  65  98 137 182 240 297 363 440
#
# _framework density 23.740207999999999
#
# number of rings (size 3 to 8) (size 9 to 14) (size 15 to 20)
#    0.000    1.250    1.250    1.875   10.500    9.500 
#    0.000    0.000    0.000    0.000    0.000    0.000 
#    0.000    0.000    0.000    0.000    0.000    0.000 
#
# Total GULP energy -198227.579409 kJ/mol
# GULP energy per Si atom -12389.223713 kJ/mol
# Density = 2.368617 g / cm^3
# Si number density = 23.740208 Si / 1000 Ang^3
#
#
#
# Elastic Constant Matrix: (Units=GPa)
#
#
# Indices 1 2 3 4 5 6 
#
# 1 122.0042 44.3722 69.3145 7.7932 18.1999 -31.6089
# 2 44.3722 98.5850 38.2944 12.7355 18.5955 -28.9526
# 3 69.3145 38.2944 150.8954 11.7577 25.6107 -21.0654
# 4 7.7932 12.7355 11.7577 33.7569 -4.0172 2.4038
# 5 18.1999 18.5955 25.6107 -4.0172 46.1479 -7.1194
# 6 -31.6089 -28.9526 -21.0654 2.4038 -7.1194 44.4252
#
#
#
# Elastic Compliance Matrix: (Units=1/GPa)
#
#
# Indices 1 2 3 4 5 6 
#
# 1 0.013258 -0.002169 -0.004447 -0.001238 -0.001100 0.005802
# 2 -0.002169 0.015216 -0.000581 -0.006099 -0.004290 0.007740
# 3 -0.004447 -0.000581 0.009707 -0.002600 -0.003528 0.000636
# 4 -0.001238 -0.006099 -0.002600 0.034361 0.006310 -0.006936
# 5 -0.001100 -0.004290 -0.003528 0.006310 0.026122 -0.001406
# 6 0.005802 0.007740 0.000636 -0.006936 -0.001406 0.032134
#
#
# Mechanical properties :
#
#
# Convention : Reuss Voigt Hill
#
# Bulk Modulus (GPa) = 42.03905 75.04966 58.54435
# Shear Modulus (GPa) = 32.65429 39.49957 36.07693
#
# Velocity S-wave (km/s) = 3.71278 4.08343 3.90250
# Velocity P-wave (km/s) = 6.01049 7.34262 6.70970
#
# Compressibility (1/GPa) = 0.02378741
#
# Stress axis : x y z
#
# Youngs Moduli (GPa) = 75.42805 65.72160 103.01560
#
# Poissons Ratio (x) = 0.14253 0.45806
# Poissons Ratio (y) = 0.16358 0.05989
# Poissons Ratio (z) = 0.33539 0.03821
#
# Static dielectric constant tensor:
#      x y z
#    x 3.726150 -0.268420 -0.169910 
#    y -0.268420 4.262570 -0.018040 
#    z -0.169910 -0.018040 4.465010 
# 
# 
# High freq. dielectric constant tensor:
#      x y z
#    x 1.923970 -0.003170 0.012170 
#    y -0.003170 1.952990 0.006680 
#    z 0.012170 0.006680 1.959030 
# 
# From -- ./inp_files/71483.got.cif
#   From: 2010.06.25/outbox.cif.g09.slc.cpg/sg2_36_cif.got.tgz:71483.got - 2010.06.27 13:26:56.
