data_PCOD8026538
_publ_section_title
;
Structure prediction by ZEFSAII (Michael W. Deem and Ramdas Pophale) SiO2 
 PCOD8026538
Probable space group: P -1
;
_chemical_formula_sum "Si O2"
_cell_formula_units_Z 10
_cell_length_a 9.217860
_cell_length_b 13.059215
_cell_length_c 15.668883
_cell_angle_alpha 162.809238
_cell_angle_beta 130.292183
_cell_angle_gamma 50.305560
_cell_volume 423.383623
_symmetry_space_group_name_H-M "P -1"
_symmetry_group_IT_number 2
_symmetry_cell_setting 'triclinic'
loop_
_space_group_symop_operation_xyz
x,y,z
-x,-y,-z
loop_
_atom_site_type_symbol
_atom_site_label
_atom_site_fract_x
_atom_site_fract_y
_atom_site_fract_z
Si Si1 0.164718 0.585347 0.317629
Si Si2 0.818917 0.659534 0.132308
Si Si3 0.584731 0.098863 0.522832
Si Si4 0.831732 0.869224 0.888691
Si Si5 0.591928 0.507403 0.377057
O O1 0.091625 0.445088 0.268889
O O2 0.379483 0.409388 0.241673
O O3 0.022275 0.496549 0.116510
O O4 0.165726 0.003346 0.653098
O O5 0.680931 0.760733 0.241084
O O6 0.743591 0.365619 0.810331
O O7 0.413964 0.280476 0.545135
O O8 0.500000 0.000000 0.500000
O O9 0.664232 0.752193 0.672624
O O10 0.742094 0.174159 0.158922
O O11 0.000000 0.000000 0.000000
#
# Coordination Sequence:
#
# PCOD8026538 Si02
#       5
#     2   2   2   2   2
#     4  10  24  45  72  97 140 173 226 272 328 408
#     4  10  24  42  68 103 127 181 220 269 334 393
#     4  11  24  41  70  97 140 169 222 279 330 394
#     4  12  27  43  69  98 137 175 223 279 331 392
#     4  11  25  45  65 100 130 182 222 266 340 395
#
# _framework density 23.619242
#
# number of rings (size 3 to 8) (size 9 to 14) (size 15 to 20)
#    0.000    1.200    0.000    4.800    5.600   13.600 
#    0.000    0.000    0.000    0.000    0.000    0.000 
#    0.000    0.000    0.000    0.000    0.000    0.000 
#
# Total GULP energy -124015.055926 kJ/mol
# GULP energy per Si atom -12401.505593 kJ/mol
# Density = 2.356548 g / cm^3
# Si number density = 23.619242 Si / 1000 Ang^3
#
#
#
# Elastic Constant Matrix: (Units=GPa)
#
#
# Indices 1 2 3 4 5 6 
#
# 1 131.0060 42.0567 17.1540 33.6118 4.8483 12.9387
# 2 42.0567 122.8733 16.3222 14.9490 20.7212 7.6493
# 3 17.1540 16.3222 43.8263 -6.3458 -7.0409 -5.5666
# 4 33.6118 14.9490 -6.3458 24.8232 10.6898 16.0464
# 5 4.8483 20.7212 -7.0409 10.6898 36.1755 7.3242
# 6 12.9387 7.6493 -5.5666 16.0464 7.3242 48.3987
#
#
#
# Elastic Compliance Matrix: (Units=1/GPa)
#
#
# Indices 1 2 3 4 5 6 
#
# 1 0.015419 -0.002080 -0.007843 -0.025587 0.004531 0.003102
# 2 -0.002080 0.010738 -0.004480 -0.002156 -0.006103 -0.000018
# 3 -0.007843 -0.004480 0.030982 0.020151 0.003875 -0.000899
# 4 -0.025587 -0.002156 0.020151 0.103146 -0.017427 -0.022062
# 5 0.004531 -0.006103 0.003875 -0.017427 0.036339 0.000478
# 6 0.003102 -0.000018 -0.000899 -0.022062 0.000478 0.026974
#
#
# Mechanical properties :
#
#
# Convention : Reuss Voigt Hill
#
# Bulk Modulus (GPa) = 35.29552 49.86348 42.57950
# Shear Modulus (GPa) = 19.09504 36.69099 27.89301
#
# Velocity S-wave (km/s) = 2.84641 3.94564 3.44022
# Velocity P-wave (km/s) = 5.07728 6.47415 5.81779
#
# Compressibility (1/GPa) = 0.02833221
#
# Stress axis : x y z
#
# Youngs Moduli (GPa) = 64.85696 93.12605 32.27697
#
# Poissons Ratio (x) = 0.19369 0.25316
# Poissons Ratio (y) = 0.13490 0.14460
# Poissons Ratio (z) = 0.50869 0.41721
#
# Static dielectric constant tensor:
#      x y z
#    x 4.198850 0.029740 0.102680 
#    y 0.029740 4.500380 -0.026170 
#    z 0.102680 -0.026170 4.178030 
# 
# 
# High freq. dielectric constant tensor:
#      x y z
#    x 1.940170 0.007470 -0.003650 
#    y 0.007470 1.949350 -0.005070 
#    z -0.003650 -0.005070 1.929530 
# 
# From -- ./inp_files/839.got.cif
#   From: 2010.06.25/outbox.cif.g09.slc.cpg/sg2_1_cif.got.tgz:839.got - 2010.06.27 13:26:56.
