data_PCOD8026722
_publ_section_title
;
Structure prediction by ZEFSAII (Michael W. Deem and Ramdas Pophale) SiO2 
 PCOD8026722
Probable space group: P -1
;
_chemical_formula_sum "Si O2"
_cell_formula_units_Z 16
_cell_length_a 8.544272
_cell_length_b 21.413249
_cell_length_c 12.475181
_cell_angle_alpha 30.109276
_cell_angle_beta 139.337751
_cell_angle_gamma 128.383769
_cell_volume 741.721805
_symmetry_space_group_name_H-M "P -1"
_symmetry_group_IT_number 2
_symmetry_cell_setting 'triclinic'
loop_
_space_group_symop_operation_xyz
x,y,z
-x,-y,-z
loop_
_atom_site_type_symbol
_atom_site_label
_atom_site_fract_x
_atom_site_fract_y
_atom_site_fract_z
Si Si1 0.880397 0.482607 0.351739
Si Si2 0.240928 0.759819 0.892379
Si Si3 0.250046 0.009984 0.413522
Si Si4 0.781725 0.691789 0.341214
Si Si5 0.536111 0.267818 0.497532
Si Si6 0.022620 0.914857 0.033840
Si Si7 0.805414 0.748206 0.838606
Si Si8 0.926334 0.648164 0.726191
O O1 0.672894 0.390789 0.378168
O O2 0.000000 0.500000 0.500000
O O3 0.093958 0.439563 0.443537
O O4 0.755232 0.617576 0.056855
O O5 0.055410 0.735598 0.923983
O O6 0.155050 0.706205 0.813271
O O7 0.245134 0.908355 0.655993
O O8 0.494686 0.695694 0.166584
O O9 0.186048 0.147954 0.221474
O O10 0.500000 0.000000 0.500000
O O11 0.065671 0.994180 0.244793
O O12 0.875863 0.693692 0.510166
O O13 0.865984 0.802104 0.148026
O O14 0.721380 0.144142 0.794907
O O15 0.425784 0.221803 0.399299
O O16 0.324354 0.298314 0.427839
O O17 0.000000 0.000000 0.000000
O O18 0.000000 0.500000 0.000000
#
# Coordination Sequence:
#
# PCOD8026722 Si02
#       8
#     2   2   2   2   2   2   2   2
#     4  11  25  43  67 101 131 176 228 275 342 404
#     4  11  26  45  68 102 137 178 229 277 341 408
#     4  12  24  43  68  98 132 179 229 279 331 401
#     4  11  24  44  70 100 136 180 222 283 341 401
#     4  10  24  43  66 101 132 176 226 283 338 405
#     4  11  23  44  67  98 135 179 231 279 339 404
#     4  11  24  44  66  96 137 176 219 280 342 403
#     4  11  26  45  70 103 140 180 223 282 347 407
#
# _framework density 21.571431
#
# number of rings (size 3 to 8) (size 9 to 14) (size 15 to 20)
#    0.000    1.000    1.250    5.250    5.250    3.000 
#    0.000    1.875    0.000    0.000    0.000    0.000 
#    0.000    0.000    0.000    0.000    0.000    0.000 
#
# Total GULP energy -198259.103565 kJ/mol
# GULP energy per Si atom -12391.193973 kJ/mol
# Density = 2.152233 g / cm^3
# Si number density = 21.571431 Si / 1000 Ang^3
#
#
#
# Elastic Constant Matrix: (Units=GPa)
#
#
# Indices 1 2 3 4 5 6 
#
# 1 62.2576 28.0530 19.6904 17.0741 8.9272 -16.5135
# 2 28.0530 102.7673 18.3795 13.5523 13.9974 -15.9669
# 3 19.6904 18.3795 86.4271 13.4582 8.9722 -7.3073
# 4 17.0741 13.5523 13.4582 48.7490 -0.6291 1.5015
# 5 8.9272 13.9974 8.9722 -0.6291 34.1932 0.9331
# 6 -16.5135 -15.9669 -7.3073 1.5015 0.9331 41.1620
#
#
#
# Elastic Compliance Matrix: (Units=1/GPa)
#
#
# Indices 1 2 3 4 5 6 
#
# 1 0.022770 -0.003079 -0.002356 -0.006768 -0.004405 0.007869
# 2 -0.003079 0.012107 -0.000808 -0.002224 -0.004076 0.003491
# 3 -0.002356 -0.000808 0.013056 -0.002625 -0.002561 0.001213
# 4 -0.006768 -0.002224 -0.002625 0.024432 0.003953 -0.005025
# 5 -0.004405 -0.004076 -0.002561 0.003953 0.032937 -0.004694
# 6 0.007869 0.003491 0.001213 -0.005025 -0.004694 0.029310
#
#
# Mechanical properties :
#
#
# Convention : Reuss Voigt Hill
#
# Bulk Modulus (GPa) = 28.21245 42.63308 35.42276
# Shear Modulus (GPa) = 31.46320 37.17610 34.31965
#
# Velocity S-wave (km/s) = 3.82325 4.15588 3.99303
# Velocity P-wave (km/s) = 5.70935 6.54485 6.14132
#
# Compressibility (1/GPa) = 0.03544534
#
# Stress axis : x y z
#
# Youngs Moduli (GPa) = 43.91759 82.59859 76.59108
#
# Poissons Ratio (x) = 0.25433 0.18047
# Poissons Ratio (y) = 0.13523 0.06192
# Poissons Ratio (z) = 0.10348 0.06678
#
# Static dielectric constant tensor:
#      x y z
#    x 3.890870 -0.002630 0.107510 
#    y -0.002630 4.080720 0.167010 
#    z 0.107510 0.167010 4.005970 
# 
# 
# High freq. dielectric constant tensor:
#      x y z
#    x 1.849830 -0.007750 0.009330 
#    y -0.007750 1.859580 0.005560 
#    z 0.009330 0.005560 1.863340 
# 
# From -- ./inp_files/283297.got.cif
#   From: 2010.06.25/outbox.cif.g09.slc.cpg/sg2_142_cif.got.tgz:283297.got - 2010.06.27 13:26:56.
