data_PCOD8026546
_publ_section_title
;
Structure prediction by ZEFSAII (Michael W. Deem and Ramdas Pophale) SiO2 
 PCOD8026546
Probable space group: P -1
;
_chemical_formula_sum "Si O2"
_cell_formula_units_Z 12
_cell_length_a 6.280612
_cell_length_b 14.518309
_cell_length_c 9.320215
_cell_angle_alpha 141.004613
_cell_angle_beta 86.631566
_cell_angle_gamma 97.836369
_cell_volume 528.261344
_symmetry_space_group_name_H-M "P -1"
_symmetry_group_IT_number 2
_symmetry_cell_setting 'triclinic'
loop_
_space_group_symop_operation_xyz
x,y,z
-x,-y,-z
loop_
_atom_site_type_symbol
_atom_site_label
_atom_site_fract_x
_atom_site_fract_y
_atom_site_fract_z
Si Si1 0.420921 0.351019 0.703832
Si Si2 0.695305 0.839972 0.051955
Si Si3 0.062048 0.248802 0.800672
Si Si4 0.210139 0.829884 0.544023
Si Si5 0.148189 0.303876 0.402235
Si Si6 0.306850 0.606814 0.863570
O O1 0.257161 0.352884 0.843991
O O2 0.629016 0.279450 0.652867
O O3 0.314934 0.255584 0.455573
O O4 0.458132 0.525731 0.868596
O O5 0.831536 0.773412 0.843147
O O6 0.456940 0.745648 0.955398
O O7 0.834362 0.845282 0.197716
O O8 0.667018 0.008754 0.220965
O O9 0.942620 0.145301 0.554888
O O10 0.897962 0.346739 0.993897
O O11 0.090289 0.750833 0.592012
O O12 0.201932 0.483939 0.601251
#
# Coordination Sequence:
#
# PCOD8026546 Si02
#       6
#     2   2   2   2   2   2
#     4   9  23  43  67  91 128 165 215 254 316 377
#     4  12  25  41  67  97 129 164 212 265 314 371
#     4  11  24  41  67  95 131 163 214 258 320 370
#     4  11  24  44  66  93 129 171 209 257 318 379
#     4   9  24  44  65  94 126 170 211 256 319 376
#     4  10  24  42  68  95 124 167 215 262 312 370
#
# _framework density 22.716028000000001
#
# number of rings (size 3 to 8) (size 9 to 14) (size 15 to 20)
#    1.000    0.667    0.000    3.000    2.333    9.333 
#    0.000    0.000    0.000    0.000    0.000    0.000 
#    0.000    0.000    0.000    0.000    0.000    0.000 
#
# Total GULP energy -148688.314730 kJ/mol
# GULP energy per Si atom -12390.692894 kJ/mol
# Density = 2.266433 g / cm^3
# Si number density = 22.716028 Si / 1000 Ang^3
#
#
#
# Elastic Constant Matrix: (Units=GPa)
#
#
# Indices 1 2 3 4 5 6 
#
# 1 33.3361 16.2274 -11.0772 0.5902 1.9490 43.6603
# 2 16.2274 66.2191 18.6013 11.5190 9.1752 38.0972
# 3 -11.0772 18.6013 68.1706 10.2532 2.3428 45.8012
# 4 0.5902 11.5190 10.2532 46.9239 8.2478 4.3383
# 5 1.9490 9.1752 2.3428 8.2478 27.6639 -9.4855
# 6 43.6603 38.0972 45.8012 4.3383 -9.4855 23.3490
#
#
#
# Elastic Compliance Matrix: (Units=1/GPa)
#
#
# Indices 1 2 3 4 5 6 
#
# 1 0.010535 -0.011932 -0.007000 0.001105 0.009337 0.017087
# 2 -0.011932 0.021319 -0.006968 -0.002659 -0.004958 -0.000324
# 3 -0.007000 -0.006968 0.008865 -0.002129 0.006097 0.009940
# 4 0.001105 -0.002659 -0.002129 0.023543 -0.006185 -0.000438
# 5 0.009337 -0.004958 0.006097 -0.006185 0.036648 -0.005292
# 6 0.017087 -0.000324 0.009940 -0.000438 -0.005292 -0.010162
#
#
# Mechanical properties :
#
#
# Convention : Reuss Voigt Hill
#
# Bulk Modulus (GPa) = -90.24862 23.91429 -33.16716
# Shear Modulus (GPa) = 36.00909 29.18565 32.59737
#
# Velocity S-wave (km/s) = 3.98576 3.58831 3.79224
# Velocity P-wave (km/s) = 4.31667 5.26481 2.13127
#
# Compressibility (1/GPa) = -0.01108050
#
# Stress axis : x y z
#
# Youngs Moduli (GPa) = 94.91845 46.90751 112.79863
#
# Poissons Ratio (x) = 0.55971 0.78954
# Poissons Ratio (y) = 1.13258 0.78600
# Poissons Ratio (z) = 0.66439 0.32686
#
# Static dielectric constant tensor:
#      x y z
#    x 3.906280 0.118750 0.131950 
#    y 0.118750 3.935210 -0.074710 
#    z 0.131950 -0.074710 3.874760 
# 
# 
# High freq. dielectric constant tensor:
#      x y z
#    x 1.891630 0.012230 0.005620 
#    y 0.012230 1.884320 -0.005000 
#    z 0.005620 -0.005000 1.900350 
# 
# From -- ./inp_files/135936.got.cif
#   From: 2010.06.25/outbox.cif.g09.slc.cpg/sg2_68_cif.got.tgz:135936.got - 2010.06.27 13:26:56.
