data_PCOD8026021
_publ_section_title
;
Structure prediction by ZEFSAII (Michael W. Deem and Ramdas Pophale) SiO2 
 PCOD8026021
Probable space group: P -1
;
_chemical_formula_sum "Si O2"
_cell_formula_units_Z 16
_cell_length_a 5.892574
_cell_length_b 12.284260
_cell_length_c 25.358492
_cell_angle_alpha 29.044809
_cell_angle_beta 124.608556
_cell_angle_gamma 131.459497
_cell_volume 667.567077
_symmetry_space_group_name_H-M "P -1"
_symmetry_group_IT_number 2
_symmetry_cell_setting 'triclinic'
loop_
_space_group_symop_operation_xyz
x,y,z
-x,-y,-z
loop_
_atom_site_type_symbol
_atom_site_label
_atom_site_fract_x
_atom_site_fract_y
_atom_site_fract_z
Si Si1 0.778391 0.629696 0.292698
Si Si2 0.175354 0.020696 0.114169
Si Si3 0.661103 0.895505 0.723432
Si Si4 0.587547 0.192883 0.382701
Si Si5 0.239529 0.596528 0.441327
Si Si6 0.126163 0.702596 0.885603
Si Si7 0.911255 0.536649 0.127946
Si Si8 0.165489 0.540020 0.266936
O O1 0.597752 0.448302 0.297833
O O2 0.501056 0.593459 0.310743
O O3 0.022462 0.536750 0.387211
O O4 0.946299 0.920137 0.176497
O O5 0.513717 0.160469 0.121258
O O6 0.100437 0.767768 0.181102
O O7 0.078741 0.192938 0.992209
O O8 0.655484 0.919022 0.649024
O O9 0.417472 0.633343 0.820862
O O10 0.985810 0.906814 0.780562
O O11 0.591760 0.110438 0.650982
O O12 0.928390 0.272680 0.370047
O O13 0.500000 0.000000 0.500000
O O14 0.500000 0.500000 0.500000
O O15 0.000000 0.500000 0.500000
O O16 0.021740 0.557917 0.878329
O O17 0.000000 0.500000 0.000000
O O18 0.158632 0.545744 0.199740
#
# Coordination Sequence:
#
# PCOD8026021 Si02
#       8
#     2   2   2   2   2   2   2   2
#     4  11  25  46  70 104 144 194 246 309 375 450
#     4  11  24  41  68 103 148 190 243 300 368 451
#     4  11  25  47  73 105 146 189 250 313 374 455
#     4  10  23  47  72 105 139 189 253 314 378 434
#     4  12  30  50  76 106 147 200 255 319 387 448
#     4  12  25  41  71 106 145 193 243 299 377 447
#     4  11  24  43  69 106 145 191 243 298 372 447
#     4  10  24  44  71 102 146 192 245 305 370 452
#
# _framework density 23.967628999999999
#
# number of rings (size 3 to 8) (size 9 to 14) (size 15 to 20)
#    0.000    1.000    1.250    3.750   10.500    1.000 
#    4.500    0.000    0.000    0.000    0.000    0.000 
#    0.000    0.000    0.000    0.000    0.000    0.000 
#
# Total GULP energy -198220.983294 kJ/mol
# GULP energy per Si atom -12388.811456 kJ/mol
# Density = 2.391308 g / cm^3
# Si number density = 23.967629 Si / 1000 Ang^3
#
#
#
# Elastic Constant Matrix: (Units=GPa)
#
#
# Indices 1 2 3 4 5 6 
#
# 1 130.3555 36.9735 74.3887 13.1859 -5.5146 19.6534
# 2 36.9735 103.4797 47.1061 5.3006 0.3213 0.1139
# 3 74.3887 47.1061 151.1643 3.8884 -7.5435 11.9599
# 4 13.1859 5.3006 3.8884 36.9182 -0.0419 1.3167
# 5 -5.5146 0.3213 -7.5435 -0.0419 41.7495 -0.1668
# 6 19.6534 0.1139 11.9599 1.3167 -0.1668 46.7868
#
#
#
# Elastic Compliance Matrix: (Units=1/GPa)
#
#
# Indices 1 2 3 4 5 6 
#
# 1 0.011892 -0.001863 -0.004862 -0.003337 0.000689 -0.003651
# 2 -0.001863 0.011672 -0.002862 -0.000764 -0.000848 0.001504
# 3 -0.004862 -0.002862 0.009972 0.001117 0.001181 -0.000527
# 4 -0.003337 -0.000764 0.001117 0.028259 -0.000203 0.000322
# 5 0.000689 -0.000848 0.001181 -0.000203 0.024261 -0.000497
# 6 -0.003651 0.001504 -0.000527 0.000322 -0.000497 0.023028
#
#
# Mechanical properties :
#
#
# Convention : Reuss Voigt Hill
#
# Bulk Modulus (GPa) = 69.63285 77.99290 73.81288
# Shear Modulus (GPa) = 37.58120 40.19298 38.88709
#
# Velocity S-wave (km/s) = 3.96409 4.09952 4.03238
# Velocity P-wave (km/s) = 7.07587 7.41753 7.24871
#
# Compressibility (1/GPa) = 0.01436104
#
# Stress axis : x y z
#
# Youngs Moduli (GPa) = 84.09329 85.67226 100.28107
#
# Poissons Ratio (x) = 0.15957 0.48760
# Poissons Ratio (y) = 0.15663 0.28705
# Poissons Ratio (z) = 0.40889 0.24523
#
# Static dielectric constant tensor:
#      x y z
#    x 4.639010 0.040510 -0.137140 
#    y 0.040510 4.596230 0.120080 
#    z -0.137140 0.120080 4.642930 
# 
# 
# High freq. dielectric constant tensor:
#      x y z
#    x 1.956120 -0.001800 -0.012150 
#    y -0.001800 1.962740 -0.003280 
#    z -0.012150 -0.003280 1.949540 
# 
# From -- ./inp_files/615495.got.cif
#   From: 2010.06.25/outbox.cif.g09.slc.cpg/sg2_308_cif.got.tgz:615495.got - 2010.06.27 13:26:56.
