data_PCOD8026651
_publ_section_title
;
Structure prediction by ZEFSAII (Michael W. Deem and Ramdas Pophale) SiO2 
 PCOD8026651
Probable space group: P -1
;
_chemical_formula_sum "Si O2"
_cell_formula_units_Z 16
_cell_length_a 9.177524
_cell_length_b 18.205912
_cell_length_c 11.750580
_cell_angle_alpha 33.959884
_cell_angle_beta 61.107676
_cell_angle_gamma 44.838432
_cell_volume 745.355933
_symmetry_space_group_name_H-M "P -1"
_symmetry_group_IT_number 2
_symmetry_cell_setting 'triclinic'
loop_
_space_group_symop_operation_xyz
x,y,z
-x,-y,-z
loop_
_atom_site_type_symbol
_atom_site_label
_atom_site_fract_x
_atom_site_fract_y
_atom_site_fract_z
Si Si1 0.652705 0.082035 0.628777
Si Si2 0.756605 0.113140 0.989276
Si Si3 0.663461 0.432154 0.724972
Si Si4 0.059236 0.283811 0.927304
Si Si5 0.347507 0.623500 0.795182
Si Si6 0.492668 0.959328 0.684247
Si Si7 0.440733 0.246707 0.735343
Si Si8 0.036626 0.374479 0.050773
O O1 0.702663 0.196877 0.404056
O O2 0.537817 0.162850 0.686423
O O3 0.486302 0.091069 0.596638
O O4 0.867276 0.888056 0.815908
O O5 0.680096 0.294059 0.822273
O O6 0.615963 0.134421 0.909831
O O7 0.710380 0.033161 0.213785
O O8 0.000000 0.000000 0.000000
O O9 0.454068 0.531988 0.753398
O O10 0.647698 0.560565 0.477698
O O11 0.864641 0.347109 0.839728
O O12 0.248286 0.242359 0.831451
O O13 0.988319 0.428240 0.865010
O O14 0.114741 0.674075 0.806324
O O15 0.500000 0.500000 0.000000
O O16 0.711051 0.773009 0.859393
O O17 0.500000 0.000000 0.500000
O O18 0.000000 0.500000 0.000000
#
# Coordination Sequence:
#
# PCOD8026651 Si02
#       8
#     2   2   2   2   2   2   2   2
#     4  10  24  42  73  95 138 179 233 281 345 416
#     4  12  26  46  70 104 140 184 232 296 345 413
#     4  11  25  41  70  99 138 175 231 289 340 415
#     4  11  22  43  68  98 132 183 226 282 343 413
#     4  11  24  43  68 101 134 181 227 280 344 411
#     4  11  27  45  69 105 138 185 232 288 353 412
#     4  11  23  45  68  99 135 181 233 282 352 407
#     4  11  24  43  68  96 138 182 223 281 343 411
#
# _framework density 21.466253999999999
#
# number of rings (size 3 to 8) (size 9 to 14) (size 15 to 20)
#    0.000    1.000    3.750    2.625    5.250    5.000 
#    2.250    0.000    0.000    0.000    0.000    0.000 
#    0.000    0.000    0.000    0.000    0.000    0.000 
#
# Total GULP energy -198297.826838 kJ/mol
# GULP energy per Si atom -12393.614177 kJ/mol
# Density = 2.141740 g / cm^3
# Si number density = 21.466254 Si / 1000 Ang^3
#
#
#
# Elastic Constant Matrix: (Units=GPa)
#
#
# Indices 1 2 3 4 5 6 
#
# 1 80.6018 43.8022 20.7128 14.8397 -14.3458 0.5268
# 2 43.8022 99.4542 37.7789 4.2396 -17.5456 1.5909
# 3 20.7128 37.7789 109.7463 16.0126 -12.3279 1.7394
# 4 14.8397 4.2396 16.0126 31.8566 6.4646 -7.6980
# 5 -14.3458 -17.5456 -12.3279 6.4646 32.3687 2.0667
# 6 0.5268 1.5909 1.7394 -7.6980 2.0667 50.5053
#
#
#
# Elastic Compliance Matrix: (Units=1/GPa)
#
#
# Indices 1 2 3 4 5 6 
#
# 1 0.019260 -0.007172 0.001238 -0.010601 0.007361 -0.001935
# 2 -0.007172 0.015108 -0.003905 0.002693 0.002985 0.000022
# 3 0.001238 -0.003905 0.011816 -0.007292 0.004490 -0.001592
# 4 -0.010601 0.002693 -0.007292 0.044629 -0.015422 0.007710
# 5 0.007361 0.002985 0.004490 -0.015422 0.040842 -0.004347
# 6 -0.001935 0.000022 -0.001592 0.007710 -0.004347 0.021227
#
#
# Mechanical properties :
#
#
# Convention : Reuss Voigt Hill
#
# Bulk Modulus (GPa) = 37.72564 54.93222 46.32893
# Shear Modulus (GPa) = 27.56395 35.44669 31.50532
#
# Velocity S-wave (km/s) = 3.58727 4.06800 3.83517
# Velocity P-wave (km/s) = 5.89665 6.90727 6.42187
#
# Compressibility (1/GPa) = 0.02650717
#
# Stress axis : x y z
#
# Youngs Moduli (GPa) = 51.91986 66.18884 84.62942
#
# Poissons Ratio (x) = 0.47468 -0.10477
# Poissons Ratio (y) = 0.37235 0.33050
# Poissons Ratio (z) = -0.06427 0.25849
#
# Static dielectric constant tensor:
#      x y z
#    x 3.665150 -0.018030 -0.269250 
#    y -0.018030 4.119400 -0.041430 
#    z -0.269250 -0.041430 4.057820 
# 
# 
# High freq. dielectric constant tensor:
#      x y z
#    x 1.850300 0.006300 -0.006290 
#    y 0.006300 1.862780 0.010450 
#    z -0.006290 0.010450 1.836290 
# 
# From -- ./inp_files/402658.got.cif
#   From: 2010.06.25/outbox.cif.g09.slc.cpg/sg2_202_cif.got.tgz:402658.got - 2010.06.27 13:26:56.
