data_PCOD8026522
_publ_section_title
;
Structure prediction by ZEFSAII (Michael W. Deem and Ramdas Pophale) SiO2 
 PCOD8026522
Probable space group: P -1
;
_chemical_formula_sum "Si O2"
_cell_formula_units_Z 16
_cell_length_a 8.781774
_cell_length_b 15.080614
_cell_length_c 15.576567
_cell_angle_alpha 151.459760
_cell_angle_beta 108.589666
_cell_angle_gamma 89.659667
_cell_volume 743.595524
_symmetry_space_group_name_H-M "P -1"
_symmetry_group_IT_number 2
_symmetry_cell_setting 'triclinic'
loop_
_space_group_symop_operation_xyz
x,y,z
-x,-y,-z
loop_
_atom_site_type_symbol
_atom_site_label
_atom_site_fract_x
_atom_site_fract_y
_atom_site_fract_z
Si Si1 0.719377 0.072390 0.124262
Si Si2 0.125891 0.206632 0.629972
Si Si3 0.021889 0.313005 0.524174
Si Si4 0.394134 0.112850 0.501610
Si Si5 0.071634 0.742433 0.853172
Si Si6 0.644918 0.598998 0.689962
Si Si7 0.290011 0.202129 0.387161
Si Si8 0.775511 0.386022 0.891503
O O1 0.803989 0.193834 0.336696
O O2 0.875933 0.249949 0.230782
O O3 0.500000 0.000000 0.000000
O O4 0.717130 0.850930 0.943325
O O5 0.297727 0.188593 0.615283
O O6 0.002544 0.202084 0.520610
O O7 0.230063 0.448685 0.903252
O O8 0.000000 0.000000 0.500000
O O9 0.125532 0.590210 0.785706
O O10 0.153047 0.281682 0.455078
O O11 0.305864 0.075761 0.361150
O O12 0.635210 0.323695 0.729475
O O13 0.335005 0.861422 0.294366
O O14 0.834350 0.605364 0.706175
O O15 0.193325 0.011220 0.132063
O O16 0.500000 0.500000 0.500000
O O17 0.516746 0.424229 0.596107
O O18 0.000000 0.500000 0.000000
#
# Coordination Sequence:
#
# PCOD8026522 Si02
#       8
#     2   2   2   2   2   2   2   2
#     4  12  24  44  68 101 141 183 226 277 338 402
#     4  11  23  44  69  98 136 178 224 280 344 400
#     4  11  25  43  67 100 135 179 228 279 336 407
#     4  10  24  42  67  99 132 174 222 281 330 414
#     4  12  24  45  69  95 142 177 225 284 332 401
#     4  12  23  41  68  96 131 182 223 276 338 392
#     4  11  24  44  66  98 134 175 229 271 339 395
#     4  11  22  43  69  97 131 172 223 276 346 393
#
# _framework density 21.517074000000001
#
# number of rings (size 3 to 8) (size 9 to 14) (size 15 to 20)
#    0.000    0.750    3.750    4.125    0.000    3.000 
#    0.000    1.250    0.000    0.000    0.000    0.000 
#    0.000    0.000    0.000    0.000    0.000    0.000 
#
# Total GULP energy -198331.288285 kJ/mol
# GULP energy per Si atom -12395.705518 kJ/mol
# Density = 2.146810 g / cm^3
# Si number density = 21.517074 Si / 1000 Ang^3
#
#
#
# Elastic Constant Matrix: (Units=GPa)
#
#
# Indices 1 2 3 4 5 6 
#
# 1 91.3941 38.3827 44.3597 10.5565 10.4238 -5.2466
# 2 38.3827 104.2994 43.7427 12.4493 1.7978 -0.5274
# 3 44.3597 43.7427 114.8215 10.2326 -4.6048 -5.2144
# 4 10.5565 12.4493 10.2326 30.5457 -6.1810 0.5317
# 5 10.4238 1.7978 -4.6048 -6.1810 45.5903 5.2914
# 6 -5.2466 -0.5274 -5.2144 0.5317 5.2914 32.9115
#
#
#
# Elastic Compliance Matrix: (Units=1/GPa)
#
#
# Indices 1 2 3 4 5 6 
#
# 1 0.015622 -0.003340 -0.004522 -0.003511 -0.004666 0.002527
# 2 -0.003340 0.012542 -0.003276 -0.002922 -0.000372 -0.000744
# 3 -0.004522 -0.003276 0.011885 -0.000654 0.002186 0.000769
# 4 -0.003511 -0.002922 -0.000654 0.036632 0.006083 -0.002280
# 5 -0.004666 -0.000372 0.002186 0.006083 0.024578 -0.004453
# 6 0.002527 -0.000744 0.000769 -0.002280 -0.004453 0.031650
#
#
# Mechanical properties :
#
#
# Convention : Reuss Voigt Hill
#
# Bulk Modulus (GPa) = 56.26592 62.60948 59.43770
# Shear Modulus (GPa) = 31.03435 34.07817 32.55626
#
# Velocity S-wave (km/s) = 3.80190 3.98398 3.89401
# Velocity P-wave (km/s) = 6.74380 7.09391 6.92107
#
# Compressibility (1/GPa) = 0.01777275
#
# Stress axis : x y z
#
# Youngs Moduli (GPa) = 64.01137 79.72981 84.13764
#
# Poissons Ratio (x) = 0.26630 0.38051
# Poissons Ratio (y) = 0.21380 0.27564
# Poissons Ratio (z) = 0.28949 0.26120
#
# Static dielectric constant tensor:
#      x y z
#    x 4.403250 0.161610 0.243730 
#    y 0.161610 4.252880 0.205520 
#    z 0.243730 0.205520 4.230420 
# 
# 
# High freq. dielectric constant tensor:
#      x y z
#    x 1.850990 -0.011850 -0.009500 
#    y -0.011850 1.847220 0.006300 
#    z -0.009500 0.006300 1.857230 
# 
# From -- ./inp_files/48144.got.cif
#   From: 2010.06.25/outbox.cif.g09.slc.cpg/sg2_25_cif.got.tgz:48144.got - 2010.06.27 13:26:56.
