data_PCOD8026350
_publ_section_title
;
Structure prediction by ZEFSAII (Michael W. Deem and Ramdas Pophale) SiO2 
 PCOD8026350
Probable space group: P -1
;
_chemical_formula_sum "Si O2"
_cell_formula_units_Z 14
_cell_length_a 11.267749
_cell_length_b 8.400394
_cell_length_c 19.066758
_cell_angle_alpha 33.459676
_cell_angle_beta 134.620011
_cell_angle_gamma 113.646867
_cell_volume 624.716279
_symmetry_space_group_name_H-M "P -1"
_symmetry_group_IT_number 2
_symmetry_cell_setting 'triclinic'
loop_
_space_group_symop_operation_xyz
x,y,z
-x,-y,-z
loop_
_atom_site_type_symbol
_atom_site_label
_atom_site_fract_x
_atom_site_fract_y
_atom_site_fract_z
Si Si1 0.933823 0.564718 0.027849
Si Si2 0.651032 0.979997 0.279370
Si Si3 0.677971 0.772725 0.608747
Si Si4 0.364405 0.762613 0.291483
Si Si5 0.305760 0.796249 0.938301
Si Si6 0.320417 0.722278 0.682120
Si Si7 0.039092 0.479768 0.605423
O O1 0.831104 0.954293 0.860117
O O2 0.781158 0.443727 0.025167
O O3 0.000000 0.500000 0.000000
O O4 0.120718 0.338061 0.232016
O O5 0.465203 0.947251 0.227481
O O6 0.835043 0.631279 0.501684
O O7 0.649854 0.087952 0.159604
O O8 0.668906 0.238927 0.243673
O O9 0.677149 0.437614 0.711868
O O10 0.500000 0.000000 0.500000
O O11 0.667359 0.977416 0.459950
O O12 0.500000 0.500000 0.500000
O O13 0.165294 0.100779 0.816681
O O14 0.490966 0.617593 0.130062
O O15 0.138260 0.697444 0.589731
O O16 0.000000 0.500000 0.500000
#
# Coordination Sequence:
#
# PCOD8026350 Si02
#       7
#     2   2   2   2   2   2   2
#     4  12  27  49  73 102 143 185 240 289 353 422
#     4  11  24  45  70 102 143 178 233 287 352 417
#     4  12  27  45  73 103 141 186 238 289 353 424
#     4  12  25  48  72 104 143 187 235 291 352 418
#     4  11  24  45  71 104 138 183 231 289 349 415
#     4  12  23  46  69 103 137 183 234 288 350 415
#     4  10  24  41  67  99 138 180 225 285 346 413
#
# _framework density 22.410174000000001
#
# number of rings (size 3 to 8) (size 9 to 14) (size 15 to 20)
#    0.000    0.571    2.857    5.143    8.000    0.000 
#    2.571    0.000    0.000    0.000    0.000    0.000 
#    0.000    0.000    0.000    0.000    0.000    0.000 
#
# Total GULP energy -173583.432724 kJ/mol
# GULP energy per Si atom -12398.816623 kJ/mol
# Density = 2.235917 g / cm^3
# Si number density = 22.410174 Si / 1000 Ang^3
#
#
#
# Elastic Constant Matrix: (Units=GPa)
#
#
# Indices 1 2 3 4 5 6 
#
# 1 82.5052 26.5201 39.3049 -4.1952 8.0844 -1.7208
# 2 26.5201 103.8178 10.3191 -10.5646 2.1614 1.5864
# 3 39.3049 10.3191 138.9192 -10.0875 20.3768 -4.0805
# 4 -4.1952 -10.5646 -10.0875 45.8414 -6.3520 9.9779
# 5 8.0844 2.1614 20.3768 -6.3520 40.2054 -4.4377
# 6 -1.7208 1.5864 -4.0805 9.9779 -4.4377 24.1610
#
#
#
# Elastic Compliance Matrix: (Units=1/GPa)
#
#
# Indices 1 2 3 4 5 6 
#
# 1 0.015204 -0.003544 -0.003929 -0.000570 -0.000886 0.000725
# 2 -0.003544 0.010807 0.000311 0.002692 0.000180 -0.001988
# 3 -0.003929 0.000311 0.008893 0.001163 -0.003542 0.000071
# 4 -0.000570 0.002692 0.001163 0.025123 0.002248 -0.009983
# 5 -0.000886 0.000180 -0.003542 0.002248 0.027573 0.003463
# 6 0.000725 -0.001988 0.000071 -0.009983 0.003463 0.046342
#
#
# Mechanical properties :
#
#
# Convention : Reuss Voigt Hill
#
# Bulk Modulus (GPa) = 48.59038 53.05895 50.82466
# Shear Modulus (GPa) = 32.23157 38.64808 35.43982
#
# Velocity S-wave (km/s) = 3.79655 4.15731 3.98102
# Velocity P-wave (km/s) = 6.39904 6.83900 6.62268
#
# Compressibility (1/GPa) = 0.02058021
#
# Stress axis : x y z
#
# Youngs Moduli (GPa) = 65.77154 92.52983 112.44762
#
# Poissons Ratio (x) = 0.32793 0.44178
# Poissons Ratio (y) = 0.23310 -0.03493
# Poissons Ratio (z) = 0.25840 -0.02874
#
# Static dielectric constant tensor:
#      x y z
#    x 4.068270 -0.128260 0.463620 
#    y -0.128260 4.035980 -0.258860 
#    z 0.463620 -0.258860 4.758600 
# 
# 
# High freq. dielectric constant tensor:
#      x y z
#    x 1.875970 -0.002060 0.018660 
#    y -0.002060 1.888190 -0.005140 
#    z 0.018660 -0.005140 1.906670 
# 
# From -- ./inp_files/445662.got.cif
#   From: 2010.06.25/outbox.cif.g09.slc.cpg/sg2_223_cif.got.tgz:445662.got - 2010.06.27 13:26:56.
