data_PCOD8026424
_publ_section_title
;
Structure prediction by ZEFSAII (Michael W. Deem and Ramdas Pophale) SiO2 
 PCOD8026424
Probable space group: P -1
;
_chemical_formula_sum "Si O2"
_cell_formula_units_Z 16
_cell_length_a 8.926495
_cell_length_b 8.570334
_cell_length_c 12.044520
_cell_angle_alpha 73.064533
_cell_angle_beta 113.799836
_cell_angle_gamma 69.310596
_cell_volume 679.883170
_symmetry_space_group_name_H-M "P -1"
_symmetry_group_IT_number 2
_symmetry_cell_setting 'triclinic'
loop_
_space_group_symop_operation_xyz
x,y,z
-x,-y,-z
loop_
_atom_site_type_symbol
_atom_site_label
_atom_site_fract_x
_atom_site_fract_y
_atom_site_fract_z
Si Si1 0.472150 0.708566 0.437824
Si Si2 0.185049 0.518037 0.135230
Si Si3 0.873649 0.450572 0.136927
Si Si4 0.222420 0.842547 0.132757
Si Si5 0.415779 0.809992 0.645131
Si Si6 0.432786 0.203432 0.888305
Si Si7 0.768829 0.765735 0.402161
Si Si8 0.086748 0.775104 0.598509
O O1 0.500000 0.500000 0.500000
O O2 0.302993 0.863786 0.270578
O O3 0.409707 0.829665 0.507003
O O4 0.680739 0.670197 0.471616
O O5 0.247810 0.637001 0.201962
O O6 0.365418 0.299767 0.221552
O O7 0.014570 0.529775 0.153108
O O8 0.130774 0.614632 0.976598
O O9 0.667845 0.626858 0.085386
O O10 0.952601 0.264006 0.278810
O O11 0.367509 0.821510 0.084711
O O12 0.000000 0.000000 0.000000
O O13 0.316822 0.684948 0.670112
O O14 0.315143 0.014629 0.631614
O O15 0.274891 0.253387 0.734304
O O16 0.500000 0.000000 0.000000
O O17 0.001161 0.675167 0.512933
O O18 0.000000 0.000000 0.500000
#
# Coordination Sequence:
#
# PCOD8026424 Si02
#       8
#     2   2   2   2   2   2   2   2
#     4  11  23  42  68  99 135 178 228 276 340 412
#     4  11  24  44  69  99 134 179 236 283 356 412
#     4  11  25  42  69  97 135 181 228 291 344 421
#     4  11  25  42  67 102 139 179 230 287 343 416
#     4  11  22  42  70  97 137 179 229 279 346 411
#     4  11  24  44  67  98 136 177 227 278 356 411
#     4  10  24  43  67  97 136 179 224 282 337 415
#     4  10  24  42  64 101 133 177 231 281 346 411
#
# _framework density 23.533455
#
# number of rings (size 3 to 8) (size 9 to 14) (size 15 to 20)
#    0.000    1.250    1.250    3.375    1.750   12.500 
#    0.000    0.000    0.000    0.000    0.000    0.000 
#    0.000    0.000    0.000    0.000    0.000    0.000 
#
# Total GULP energy -198257.717506 kJ/mol
# GULP energy per Si atom -12391.107344 kJ/mol
# Density = 2.347989 g / cm^3
# Si number density = 23.533455 Si / 1000 Ang^3
#
#
#
# Elastic Constant Matrix: (Units=GPa)
#
#
# Indices 1 2 3 4 5 6 
#
# 1 155.0398 24.8643 56.4745 4.7112 -2.2125 5.5040
# 2 24.8643 38.5769 -1.4441 -6.3796 -4.0929 3.9247
# 3 56.4745 -1.4441 102.2303 -8.2972 -12.7225 -3.1312
# 4 4.7112 -6.3796 -8.2972 27.4328 -1.4722 1.3642
# 5 -2.2125 -4.0929 -12.7225 -1.4722 47.0914 1.7774
# 6 5.5040 3.9247 -3.1312 1.3642 1.7774 35.9412
#
#
#
# Elastic Compliance Matrix: (Units=1/GPa)
#
#
# Indices 1 2 3 4 5 6 
#
# 1 0.010282 -0.007934 -0.006543 -0.005656 -0.002115 -0.000959
# 2 -0.007934 0.033952 0.006310 0.011551 0.004743 -0.002616
# 3 -0.006543 0.006310 0.014649 0.007202 0.004382 0.001099
# 4 -0.005656 0.011551 0.007202 0.042586 0.004075 -0.001586
# 5 -0.002115 0.004743 0.004382 0.004075 0.022901 -0.001099
# 6 -0.000959 -0.002616 0.001099 -0.001586 -0.001099 0.028466
#
#
# Mechanical properties :
#
#
# Convention : Reuss Voigt Hill
#
# Bulk Modulus (GPa) = 23.50274 50.62625 37.06449
# Shear Modulus (GPa) = 27.26975 36.48992 31.87984
#
# Velocity S-wave (km/s) = 3.40776 3.94198 3.68456
# Velocity P-wave (km/s) = 5.04900 6.50216 5.82110
#
# Compressibility (1/GPa) = 0.04254824
#
# Stress axis : x y z
#
# Youngs Moduli (GPa) = 97.26120 29.45350 68.26226
#
# Poissons Ratio (x) = 0.23368 0.44667
# Poissons Ratio (y) = 0.77167 -0.43075
# Poissons Ratio (z) = 0.63643 -0.18586
#
# Static dielectric constant tensor:
#      x y z
#    x 5.222030 0.273910 0.571210 
#    y 0.273910 4.244750 0.493510 
#    z 0.571210 0.493510 5.089930 
# 
# 
# High freq. dielectric constant tensor:
#      x y z
#    x 1.953430 0.012210 0.001880 
#    y 0.012210 1.920300 0.001500 
#    z 0.001880 0.001500 1.939330 
# 
# From -- ./inp_files/381756.got.cif
#   From: 2010.06.25/outbox.cif.g09.slc.cpg/sg2_191_cif.got.tgz:381756.got - 2010.06.27 13:26:56.
