data_PCOD8026426
_publ_section_title
;
Structure prediction by ZEFSAII (Michael W. Deem and Ramdas Pophale) SiO2 
 PCOD8026426
Probable space group: P -1
;
_chemical_formula_sum "Si O2"
_cell_formula_units_Z 16
_cell_length_a 14.286363
_cell_length_b 9.206662
_cell_length_c 15.464115
_cell_angle_alpha 132.934706
_cell_angle_beta 140.508088
_cell_angle_gamma 77.773416
_cell_volume 699.499011
_symmetry_space_group_name_H-M "P -1"
_symmetry_group_IT_number 2
_symmetry_cell_setting 'triclinic'
loop_
_space_group_symop_operation_xyz
x,y,z
-x,-y,-z
loop_
_atom_site_type_symbol
_atom_site_label
_atom_site_fract_x
_atom_site_fract_y
_atom_site_fract_z
Si Si1 0.188463 0.563541 0.551267
Si Si2 0.309158 0.223690 0.706880
Si Si3 0.447361 0.225562 0.335561
Si Si4 0.815280 0.323649 0.592484
Si Si5 0.233985 0.790141 0.146174
Si Si6 0.573498 0.723920 0.850812
Si Si7 0.971292 0.170352 0.384514
Si Si8 0.578897 0.803166 0.412493
O O1 0.142194 0.504416 0.392156
O O2 0.427279 0.745955 0.805486
O O3 0.109372 0.698773 0.583107
O O4 0.078230 0.293810 0.418037
O O5 0.335805 0.213279 0.620103
O O6 0.120420 0.201493 0.571801
O O7 0.253295 0.960243 0.602046
O O8 0.500000 0.500000 0.000000
O O9 0.500000 0.500000 0.500000
O O10 0.643396 0.266902 0.505176
O O11 0.370938 0.133723 0.145175
O O12 0.277969 0.992429 0.184762
O O13 0.012371 0.501881 0.863647
O O14 0.380807 0.739660 0.219903
O O15 0.260510 0.910785 0.309132
O O16 0.467554 0.414475 0.640683
O O17 0.772781 0.861337 0.103361
#
# Coordination Sequence:
#
# PCOD8026426 Si02
#       8
#     2   2   2   2   2   2   2   2
#     4  10  24  42  64 102 133 176 229 282 335 409
#     4  12  28  46  71 102 141 182 237 286 340 413
#     4  11  23  43  69 106 137 178 221 289 348 402
#     4  11  26  45  71 101 137 183 226 286 345 411
#     4  11  24  46  72  98 140 179 234 279 346 410
#     4  11  22  42  68  98 139 172 226 280 343 410
#     4  11  24  42  70  96 131 188 226 276 347 407
#     4  11  24  45  69  99 137 182 227 291 333 401
#
# _framework density 22.873515000000001
#
# number of rings (size 3 to 8) (size 9 to 14) (size 15 to 20)
#    0.000    1.000    3.750    1.875    3.500    6.500 
#    0.000    0.000    0.000    0.000    0.000    0.000 
#    0.000    0.000    0.000    0.000    0.000    0.000 
#
# Total GULP energy -198370.630381 kJ/mol
# GULP energy per Si atom -12398.164399 kJ/mol
# Density = 2.282145 g / cm^3
# Si number density = 22.873515 Si / 1000 Ang^3
#
#
#
# Elastic Constant Matrix: (Units=GPa)
#
#
# Indices 1 2 3 4 5 6 
#
# 1 79.5316 24.6179 36.9379 -1.2711 3.5747 -3.4400
# 2 24.6179 98.7070 27.7966 -4.2933 9.7658 -19.4486
# 3 36.9379 27.7966 152.8741 -15.7044 15.0795 -21.5035
# 4 -1.2711 -4.2933 -15.7044 29.9819 -7.3312 -1.7740
# 5 3.5747 9.7658 15.0795 -7.3312 22.1409 -2.8912
# 6 -3.4400 -19.4486 -21.5035 -1.7740 -2.8912 38.1780
#
#
#
# Elastic Compliance Matrix: (Units=1/GPa)
#
#
# Indices 1 2 3 4 5 6 
#
# 1 0.015140 -0.003370 -0.003626 -0.001732 0.000621 -0.002429
# 2 -0.003370 0.012577 -0.000188 0.000970 -0.003802 0.005754
# 3 -0.003626 -0.000188 0.008818 0.003851 -0.003480 0.004459
# 4 -0.001732 0.000970 0.003851 0.038325 0.010584 0.005090
# 5 0.000621 -0.003802 -0.003480 0.010584 0.052700 0.000642
# 6 -0.002429 0.005754 0.004459 0.005090 0.000642 0.031702
#
#
# Mechanical properties :
#
#
# Convention : Reuss Voigt Hill
#
# Bulk Modulus (GPa) = 45.11546 56.64640 50.88093
# Shear Modulus (GPa) = 27.62115 34.17750 30.89932
#
# Velocity S-wave (km/s) = 3.47877 3.86968 3.67942
# Velocity P-wave (km/s) = 5.99187 6.69214 6.35166
#
# Compressibility (1/GPa) = 0.02216535
#
# Stress axis : x y z
#
# Youngs Moduli (GPa) = 66.04862 79.51182 113.40612
#
# Poissons Ratio (x) = 0.26797 0.41124
# Poissons Ratio (y) = 0.22260 0.02136
# Poissons Ratio (z) = 0.23951 0.01498
#
# Static dielectric constant tensor:
#      x y z
#    x 4.180810 0.037450 0.166800 
#    y 0.037450 4.317050 -0.044200 
#    z 0.166800 -0.044200 3.941700 
# 
# 
# High freq. dielectric constant tensor:
#      x y z
#    x 1.906350 -0.003540 0.007860 
#    y -0.003540 1.916380 -0.005490 
#    z 0.007860 -0.005490 1.888640 
# 
# From -- ./inp_files/530162.got.cif
#   From: 2010.06.25/outbox.cif.g09.slc.cpg/sg2_266_cif.got.tgz:530162.got - 2010.06.27 13:26:56.
