data_PCOD8026241
_publ_section_title
;
Structure prediction by ZEFSAII (Michael W. Deem and Ramdas Pophale) SiO2 
 PCOD8026241
Probable space group: P -1
;
_chemical_formula_sum "Si O2"
_cell_formula_units_Z 14
_cell_length_a 27.501333
_cell_length_b 5.156322
_cell_length_c 5.149962
_cell_angle_alpha 118.499662
_cell_angle_beta 95.166253
_cell_angle_gamma 95.433747
_cell_volume 631.234329
_symmetry_space_group_name_H-M "P -1"
_symmetry_group_IT_number 2
_symmetry_cell_setting 'triclinic'
loop_
_space_group_symop_operation_xyz
x,y,z
-x,-y,-z
loop_
_atom_site_type_symbol
_atom_site_label
_atom_site_fract_x
_atom_site_fract_y
_atom_site_fract_z
Si Si1 0.370897 0.182713 0.861881
Si Si2 0.481132 0.150490 0.813569
Si Si3 0.281770 0.784619 0.464981
Si Si4 0.673287 0.302477 0.050880
Si Si5 0.828554 0.209870 0.479337
Si Si6 0.135222 0.422160 0.822870
Si Si7 0.980778 0.650366 0.313645
O O1 0.325672 0.067008 0.587590
O O2 0.354596 0.038455 0.068585
O O3 0.421897 0.089441 0.750464
O O4 0.371550 0.537600 0.007111
O O5 0.500000 0.000000 0.500000
O O6 0.500000 0.500000 0.000000
O O7 0.500000 0.000000 0.000000
O O8 0.298947 0.579798 0.608858
O O9 0.229619 0.884902 0.545903
O O10 0.282097 0.638655 0.110569
O O11 0.835171 0.373906 0.285058
O O12 0.852953 0.912632 0.343584
O O13 0.852010 0.436726 0.821358
O O14 0.077858 0.410301 0.737836
O O15 0.000000 0.500000 0.500000
O O16 0.000000 0.000000 0.500000
O O17 0.000000 0.500000 0.000000
#
# Coordination Sequence:
#
# PCOD8026241 Si02
#       7
#     2   2   2   2   2   2   2
#     4  10  26  42  71  94 136 169 232 271 335 406
#     4  12  28  47  72 103 138 179 225 286 353 404
#     4  10  26  41  69  95 132 180 224 271 335 406
#     4  10  24  40  68  94 131 166 232 268 334 384
#     4  12  27  44  71  98 148 178 229 278 353 404
#     4  12  26  47  68 107 140 183 225 290 340 404
#     4  12  25  45  75 101 138 182 237 282 340 404
#
# _framework density 22.178767000000001
#
# number of rings (size 3 to 8) (size 9 to 14) (size 15 to 20)
#    0.857    0.000    0.000    6.000   10.000    0.000 
#    0.000    0.000    0.000    0.000    0.000    0.000 
#    0.000    0.000    0.000    0.000    0.000    0.000 
#
# Total GULP energy -173465.089667 kJ/mol
# GULP energy per Si atom -12390.363548 kJ/mol
# Density = 2.212829 g / cm^3
# Si number density = 22.178767 Si / 1000 Ang^3
#
#
#
# Elastic Constant Matrix: (Units=GPa)
#
#
# Indices 1 2 3 4 5 6 
#
# 1 118.8374 29.3559 43.4774 9.1877 -1.0507 -7.4431
# 2 29.3559 160.6994 59.4307 -10.6293 -14.2309 -15.5015
# 3 43.4774 59.4307 127.3285 -9.9939 -23.4013 -1.7460
# 4 9.1877 -10.6293 -9.9939 39.3235 4.8224 -1.7243
# 5 -1.0507 -14.2309 -23.4013 4.8224 43.5067 3.0424
# 6 -7.4431 -15.5015 -1.7460 -1.7243 3.0424 33.8644
#
#
#
# Elastic Compliance Matrix: (Units=1/GPa)
#
#
# Indices 1 2 3 4 5 6 
#
# 1 0.010304 -0.000700 -0.003746 -0.003257 -0.001756 0.001743
# 2 -0.000700 0.008027 -0.003254 0.001601 0.000444 0.003394
# 3 -0.003746 -0.003254 0.011729 0.002268 0.005046 -0.002046
# 4 -0.003257 0.001601 0.002268 0.027456 -0.001495 0.001666
# 5 -0.001756 0.000444 0.005046 -0.001495 0.026131 -0.002347
# 6 0.001743 0.003394 -0.002046 0.001666 -0.002347 0.031657
#
#
# Mechanical properties :
#
#
# Convention : Reuss Voigt Hill
#
# Bulk Modulus (GPa) = 68.21306 74.59926 71.40616
# Shear Modulus (GPa) = 36.87609 41.64569 39.26089
#
# Velocity S-wave (km/s) = 4.08202 4.33798 4.21194
# Velocity P-wave (km/s) = 7.28285 7.66806 7.47794
#
# Compressibility (1/GPa) = 0.01465995
#
# Stress axis : x y z
#
# Youngs Moduli (GPa) = 97.05261 124.58725 85.25967
#
# Poissons Ratio (x) = 0.08716 0.31940
# Poissons Ratio (y) = 0.06789 0.27742
# Poissons Ratio (z) = 0.36358 0.40538
#
# Static dielectric constant tensor:
#      x y z
#    x 4.123550 -0.013620 0.002690 
#    y -0.013620 4.142050 -0.059620 
#    z 0.002690 -0.059620 4.065360 
# 
# 
# High freq. dielectric constant tensor:
#      x y z
#    x 1.888490 -0.003640 -0.005330 
#    y -0.003640 1.888530 -0.016390 
#    z -0.005330 -0.016390 1.870020 
# 
# From -- ./inp_files/125669.got.cif
#   From: 2010.06.25/outbox.cif.g09.slc.cpg/sg2_63_cif.got.tgz:125669.got - 2010.06.27 13:26:56.
