data_PCOD8026563
_publ_section_title
;
Structure prediction by ZEFSAII (Michael W. Deem and Ramdas Pophale) SiO2 
 PCOD8026563
Probable space group: P -1
;
_chemical_formula_sum "Si O2"
_cell_formula_units_Z 12
_cell_length_a 14.545247
_cell_length_b 6.646526
_cell_length_c 8.926797
_cell_angle_alpha 104.747926
_cell_angle_beta 60.924880
_cell_angle_gamma 61.380413
_cell_volume 511.359160
_symmetry_space_group_name_H-M "P -1"
_symmetry_group_IT_number 2
_symmetry_cell_setting 'triclinic'
loop_
_space_group_symop_operation_xyz
x,y,z
-x,-y,-z
loop_
_atom_site_type_symbol
_atom_site_label
_atom_site_fract_x
_atom_site_fract_y
_atom_site_fract_z
Si Si1 0.901539 0.788497 0.233434
Si Si2 0.744036 0.775253 0.604826
Si Si3 0.289425 0.854877 0.045521
Si Si4 0.023492 0.892209 0.630242
Si Si5 0.553712 0.758124 0.247920
Si Si6 0.632359 0.076613 0.308197
O O1 0.870443 0.726154 0.406418
O O2 0.748589 0.033884 0.311953
O O3 0.974424 0.911069 0.225064
O O4 0.000000 0.500000 0.000000
O O5 0.819970 0.455421 0.543713
O O6 0.685117 0.997611 0.830081
O O7 0.598894 0.934909 0.647390
O O8 0.369038 0.526639 0.971529
O O9 0.112422 0.064308 0.200643
O O10 0.378471 0.787015 0.812113
O O11 0.000000 0.000000 0.500000
O O12 0.672631 0.779154 0.177557
O O13 0.521060 0.715165 0.433773
#
# Coordination Sequence:
#
# PCOD8026563 Si02
#       6
#     2   2   2   2   2   2
#     4  11  24  44  71 101 138 180 230 280 341 407
#     4  11  26  44  69 102 138 179 231 280 340 408
#     4  12  24  42  73  99 139 183 227 280 340 403
#     4  12  27  45  71 100 140 180 229 283 342 400
#     4  10  24  46  68 101 139 179 228 279 343 407
#     4  10  24  42  69 101 140 173 232 280 340 403
#
# _framework density 23.466871999999999
#
# number of rings (size 3 to 8) (size 9 to 14) (size 15 to 20)
#    0.000    1.000    1.667    3.500    4.667   10.000 
#    0.000    0.000    0.000    0.000    0.000    0.000 
#    0.000    0.000    0.000    0.000    0.000    0.000 
#
# Total GULP energy -148758.875056 kJ/mol
# GULP energy per Si atom -12396.572921 kJ/mol
# Density = 2.341346 g / cm^3
# Si number density = 23.466872 Si / 1000 Ang^3
#
#
#
# Elastic Constant Matrix: (Units=GPa)
#
#
# Indices 1 2 3 4 5 6 
#
# 1 115.6784 19.8629 34.2094 1.9657 23.0424 10.8717
# 2 19.8629 84.6912 73.0629 8.3665 20.6380 -8.9862
# 3 34.2094 73.0629 59.1732 16.6881 20.6834 0.6319
# 4 1.9657 8.3665 16.6881 47.6609 9.8686 5.0551
# 5 23.0424 20.6380 20.6834 9.8686 41.1555 6.9214
# 6 10.8717 -8.9862 0.6319 5.0551 6.9214 30.4247
#
#
#
# Elastic Compliance Matrix: (Units=1/GPa)
#
#
# Indices 1 2 3 4 5 6 
#
# 1 0.007995 -0.014475 0.014919 -0.001660 -0.003236 -0.006430
# 2 -0.014475 -0.060881 0.088765 -0.018655 0.000457 -0.011657
# 3 0.014919 0.088765 -0.103982 0.019764 -0.009015 0.021814
# 4 -0.001660 -0.018655 0.019764 0.018822 -0.002849 -0.007806
# 5 -0.003236 0.000457 -0.009015 -0.002849 0.031990 -0.005326
# 6 -0.006430 -0.011657 0.021814 -0.007806 -0.005326 0.033778
#
#
# Mechanical properties :
#
#
# Convention : Reuss Voigt Hill
#
# Bulk Modulus (GPa) = 46.40376 57.09036 51.74706
# Shear Modulus (GPa) = -20.53296 32.67540 6.07122
#
# Velocity S-wave (km/s) = -2.96121 3.73554 1.61020
# Velocity P-wave (km/s) = 2.85051 6.55642 5.05529
#
# Compressibility (1/GPa) = 0.02154998
#
# Stress axis : x y z
#
# Youngs Moduli (GPa) = 125.07212 -16.42560 -9.61703
#
# Poissons Ratio (x) = -0.23776 0.14347
# Poissons Ratio (y) = 1.81044 0.85366
# Poissons Ratio (z) = -1.86590 1.45802
#
# Static dielectric constant tensor:
#      x y z
#    x 5.756480 0.363710 -0.221690 
#    y 0.363710 4.138910 -0.142210 
#    z -0.221690 -0.142210 4.317970 
# 
# 
# High freq. dielectric constant tensor:
#      x y z
#    x 1.935130 0.011560 0.012390 
#    y 0.011560 1.921920 0.000860 
#    z 0.012390 0.000860 1.932950 
# 
# From -- ./inp_files/21908.got.cif
#   From: 2010.06.25/outbox.cif.g09.slc.cpg/sg2_11_cif.got.tgz:21908.got - 2010.06.27 13:26:56.
