data_PCOD8026094
_publ_section_title
;
Structure prediction by ZEFSAII (Michael W. Deem and Ramdas Pophale) SiO2 
 PCOD8026094
Probable space group: P -1
;
_chemical_formula_sum "Si O2"
_cell_formula_units_Z 16
_cell_length_a 7.671974
_cell_length_b 7.718274
_cell_length_c 21.863569
_cell_angle_alpha 39.220041
_cell_angle_beta 125.516198
_cell_angle_gamma 123.444283
_cell_volume 653.327835
_symmetry_space_group_name_H-M "P -1"
_symmetry_group_IT_number 2
_symmetry_cell_setting 'triclinic'
loop_
_space_group_symop_operation_xyz
x,y,z
-x,-y,-z
loop_
_atom_site_type_symbol
_atom_site_label
_atom_site_fract_x
_atom_site_fract_y
_atom_site_fract_z
Si Si1 0.560973 0.390587 0.106723
Si Si2 0.726533 0.873983 0.706735
Si Si3 0.601199 0.781252 0.301637
Si Si4 0.144963 0.699999 0.278211
Si Si5 0.203464 0.552072 0.071964
Si Si6 0.760177 0.351079 0.362281
Si Si7 0.976506 0.181193 0.563621
Si Si8 0.104146 0.103082 0.929789
O O1 0.390931 0.422626 0.115312
O O2 0.782241 0.577305 0.125850
O O3 0.573590 0.071143 0.186629
O O4 0.500000 0.500000 0.000000
O O5 0.830438 0.613766 0.824479
O O6 0.463242 0.807916 0.669896
O O7 0.798281 0.141583 0.690383
O O8 0.824411 0.956769 0.637346
O O9 0.366413 0.605207 0.325093
O O10 0.703617 0.614443 0.316028
O O11 0.772420 0.862117 0.370927
O O12 0.940598 0.447396 0.319338
O O13 0.077116 0.908223 0.156843
O O14 0.000000 0.500000 0.000000
O O15 0.263377 0.886780 0.004311
O O16 0.864229 0.143764 0.484236
O O17 0.000000 0.500000 0.500000
O O18 0.000000 0.000000 0.000000
#
# Coordination Sequence:
#
# PCOD8026094 Si02
#       8
#     2   2   2   2   2   2   2   2
#     4  12  27  43  71 106 148 196 247 297 373 442
#     4  12  24  47  78 104 152 189 249 305 372 442
#     4  11  25  46  73 108 151 193 244 309 366 445
#     4  12  25  48  72 110 149 190 250 306 368 444
#     4  12  25  45  69 104 144 197 243 301 370 441
#     4  11  27  49  79 108 146 200 248 309 380 433
#     4  10  23  48  77 108 145 197 243 309 378 436
#     4  12  28  46  68 106 150 196 252 299 368 443
#
# _framework density 24.490003999999999
#
# number of rings (size 3 to 8) (size 9 to 14) (size 15 to 20)
#    0.000    0.500    5.000    3.000    8.750    0.500 
#    0.000    0.625    0.000    0.000    0.000    0.000 
#    0.000    0.000    0.000    0.000    0.000    0.000 
#
# Total GULP energy -198350.329308 kJ/mol
# GULP energy per Si atom -12396.895582 kJ/mol
# Density = 2.443426 g / cm^3
# Si number density = 24.490004 Si / 1000 Ang^3
#
#
#
# Elastic Constant Matrix: (Units=GPa)
#
#
# Indices 1 2 3 4 5 6 
#
# 1 125.9881 20.8885 56.3807 -3.6545 -13.4170 33.6885
# 2 20.8885 82.3929 26.3139 11.0376 -8.3469 28.0608
# 3 56.3807 26.3139 151.8641 30.4115 -19.5670 16.2547
# 4 -3.6545 11.0376 30.4115 38.7982 2.3612 4.0135
# 5 -13.4170 -8.3469 -19.5670 2.3612 36.0125 -1.6337
# 6 33.6885 28.0608 16.2547 4.0135 -1.6337 48.1190
#
#
#
# Elastic Compliance Matrix: (Units=1/GPa)
#
#
# Indices 1 2 3 4 5 6 
#
# 1 0.012365 0.000415 -0.004755 0.005484 0.001411 -0.007702
# 2 0.000415 0.016140 -0.000967 -0.003055 0.003162 -0.009014
# 3 -0.004755 -0.000967 0.010780 -0.009016 0.004505 0.001156
# 4 0.005484 -0.003055 -0.009016 0.034808 -0.005942 -0.002118
# 5 0.001411 0.003162 0.004505 -0.005942 0.031738 -0.002780
# 6 -0.007702 -0.009014 0.001156 -0.002118 -0.002780 0.031122
#
#
# Mechanical properties :
#
#
# Convention : Reuss Voigt Hill
#
# Bulk Modulus (GPa) = 34.87733 63.04571 48.96152
# Shear Modulus (GPa) = 31.82218 41.69673 36.75945
#
# Velocity S-wave (km/s) = 3.60862 4.13074 3.87848
# Velocity P-wave (km/s) = 5.62452 6.96778 6.33187
#
# Compressibility (1/GPa) = 0.02867192
#
# Stress axis : x y z
#
# Youngs Moduli (GPa) = 80.87314 61.95824 92.76584
#
# Poissons Ratio (x) = -0.02572 0.44107
# Poissons Ratio (y) = -0.03357 0.08969
# Poissons Ratio (z) = 0.38452 0.05990
#
# Static dielectric constant tensor:
#      x y z
#    x 4.954570 0.394480 -0.096140 
#    y 0.394480 4.814130 0.047530 
#    z -0.096140 0.047530 5.164350 
# 
# 
# High freq. dielectric constant tensor:
#      x y z
#    x 1.968300 0.010140 -0.001560 
#    y 0.010140 1.980160 0.010690 
#    z -0.001560 0.010690 1.986000 
# 
# From -- ./inp_files/606577.got.cif
#   From: 2010.06.25/outbox.cif.g09.slc.cpg/sg2_304_cif.got.tgz:606577.got - 2010.06.27 13:26:56.
