data_PCOD8026361
_publ_section_title
;
Structure prediction by ZEFSAII (Michael W. Deem and Ramdas Pophale) SiO2 
 PCOD8026361
Probable space group: P -1
;
_chemical_formula_sum "Si O2"
_cell_formula_units_Z 14
_cell_length_a 12.092792
_cell_length_b 20.444838
_cell_length_c 19.751173
_cell_angle_alpha 21.611369
_cell_angle_beta 33.794402
_cell_angle_gamma 21.100513
_cell_volume 622.700845
_symmetry_space_group_name_H-M "P -1"
_symmetry_group_IT_number 2
_symmetry_cell_setting 'triclinic'
loop_
_space_group_symop_operation_xyz
x,y,z
-x,-y,-z
loop_
_atom_site_type_symbol
_atom_site_label
_atom_site_fract_x
_atom_site_fract_y
_atom_site_fract_z
Si Si1 0.307557 0.313922 0.478487
Si Si2 0.649373 0.318873 0.861550
Si Si3 0.840574 0.511941 0.267259
Si Si4 0.206610 0.338752 0.116915
Si Si5 0.881974 0.452407 0.790438
Si Si6 0.270085 0.987744 0.628800
Si Si7 0.217789 0.857689 0.182294
O O1 0.427479 0.430071 0.316884
O O2 0.195627 0.362307 0.411465
O O3 0.000000 0.500000 0.500000
O O4 0.589108 0.984770 0.673824
O O5 0.585732 0.349944 0.782923
O O6 0.434565 0.348736 0.990602
O O7 0.000000 0.000000 0.000000
O O8 0.469299 0.722582 0.244242
O O9 0.977533 0.514497 0.129124
O O10 0.883342 0.610344 0.216134
O O11 0.028200 0.194730 0.490321
O O12 0.000000 0.500000 0.000000
O O13 0.529711 0.649457 0.811298
O O14 0.043737 0.162915 0.958294
O O15 0.500000 0.000000 0.500000
O O16 0.051540 0.095491 0.701718
#
# Coordination Sequence:
#
# PCOD8026361 Si02
#       7
#     2   2   2   2   2   2   2
#     4  12  26  45  76 106 142 190 244 292 353 427
#     4  12  26  43  76 105 139 193 242 291 348 428
#     4  11  25  45  71 102 144 185 226 297 361 417
#     4  12  26  51  71 108 149 185 238 299 362 420
#     4  11  24  43  71 106 135 185 238 290 352 419
#     4  10  24  41  68  97 138 182 230 290 341 415
#     4  12  24  46  67 106 143 183 237 287 358 423
#
# _framework density 22.482704999999999
#
# number of rings (size 3 to 8) (size 9 to 14) (size 15 to 20)
#    0.000    0.571    5.714    1.286    8.000    1.714 
#    0.000    0.000    0.000    0.000    0.000    0.000 
#    0.000    0.000    0.000    0.000    0.000    0.000 
#
# Total GULP energy -173500.180839 kJ/mol
# GULP energy per Si atom -12392.870060 kJ/mol
# Density = 2.243153 g / cm^3
# Si number density = 22.482705 Si / 1000 Ang^3
#
#
#
# Elastic Constant Matrix: (Units=GPa)
#
#
# Indices 1 2 3 4 5 6 
#
# 1 117.4775 29.1144 53.6859 6.5337 12.0063 10.2530
# 2 29.1144 102.7828 33.2918 14.6332 -1.9043 -4.0282
# 3 53.6859 33.2918 120.8610 -4.2690 -2.8205 -18.6765
# 4 6.5337 14.6332 -4.2690 38.8259 -3.3878 4.9555
# 5 12.0063 -1.9043 -2.8205 -3.3878 42.0242 -2.1569
# 6 10.2530 -4.0282 -18.6765 4.9555 -2.1569 32.6821
#
#
#
# Elastic Compliance Matrix: (Units=1/GPa)
#
#
# Indices 1 2 3 4 5 6 
#
# 1 0.013495 -0.001730 -0.007012 -0.001737 -0.004982 -0.008519
# 2 -0.001730 0.011698 -0.002393 -0.004502 0.000570 0.001337
# 3 -0.007012 -0.002393 0.013702 0.002675 0.003521 0.009562
# 4 -0.001737 -0.004502 0.002675 0.028607 0.002642 -0.002644
# 5 -0.004982 0.000570 0.003521 0.002642 0.025949 0.004957
# 6 -0.008519 0.001337 0.009562 -0.002644 0.004957 0.039627
#
#
# Mechanical properties :
#
#
# Convention : Reuss Voigt Hill
#
# Bulk Modulus (GPa) = 60.14957 63.70060 61.92508
# Shear Modulus (GPa) = 31.07730 37.70840 34.39285
#
# Velocity S-wave (km/s) = 3.72193 4.09983 3.91544
# Velocity P-wave (km/s) = 6.72920 7.12784 6.93139
#
# Compressibility (1/GPa) = 0.01662522
#
# Stress axis : x y z
#
# Youngs Moduli (GPa) = 74.10389 85.48222 72.98306
#
# Poissons Ratio (x) = 0.14791 0.51173
# Poissons Ratio (y) = 0.12822 0.17464
# Poissons Ratio (z) = 0.51959 0.20455
#
# Static dielectric constant tensor:
#      x y z
#    x 4.273920 0.032480 -0.018280 
#    y 0.032480 4.347340 -0.222610 
#    z -0.018280 -0.222610 4.714310 
# 
# 
# High freq. dielectric constant tensor:
#      x y z
#    x 1.885520 0.002040 0.016060 
#    y 0.002040 1.895500 0.000150 
#    z 0.016060 0.000150 1.890900 
# 
# From -- ./inp_files/596207.got.cif
#   From: 2010.06.25/outbox.cif.g09.slc.cpg/sg2_299_cif.got.tgz:596207.got - 2010.06.27 13:26:56.
