data_PCOD8026157
_publ_section_title
;
Structure prediction by ZEFSAII (Michael W. Deem and Ramdas Pophale) SiO2 
 PCOD8026157
Probable space group: P -1
;
_chemical_formula_sum "Si O2"
_cell_formula_units_Z 14
_cell_length_a 14.595775
_cell_length_b 9.008352
_cell_length_c 9.135256
_cell_angle_alpha 117.432623
_cell_angle_beta 97.534379
_cell_angle_gamma 39.600384
_cell_volume 624.088413
_symmetry_space_group_name_H-M "P -1"
_symmetry_group_IT_number 2
_symmetry_cell_setting 'triclinic'
loop_
_space_group_symop_operation_xyz
x,y,z
-x,-y,-z
loop_
_atom_site_type_symbol
_atom_site_label
_atom_site_fract_x
_atom_site_fract_y
_atom_site_fract_z
Si Si1 0.454530 0.892490 0.870696
Si Si2 0.038654 0.692472 0.973940
Si Si3 0.129341 0.399428 0.141810
Si Si4 0.137573 0.730018 0.745108
Si Si5 0.606794 0.342492 0.599267
Si Si6 0.522056 0.803636 0.509367
Si Si7 0.036050 0.119726 0.486277
O O1 0.567992 0.569212 0.783465
O O2 0.442299 0.937291 0.713218
O O3 0.500000 0.000000 0.000000
O O4 0.296200 0.070761 0.001050
O O5 0.160592 0.582416 0.827727
O O6 0.994073 0.569046 0.869385
O O7 0.115125 0.566247 0.091758
O O8 0.893263 0.033575 0.105936
O O9 0.097283 0.547381 0.351208
O O10 0.292120 0.501687 0.573157
O O11 0.986881 0.876037 0.690714
O O12 0.500000 0.500000 0.500000
O O13 0.556291 0.239177 0.614349
O O14 0.795460 0.061982 0.502461
O O15 0.500000 0.000000 0.500000
O O16 0.000000 0.000000 0.500000
#
# Coordination Sequence:
#
# PCOD8026157 Si02
#       7
#     2   2   2   2   2   2   2
#     4  11  23  41  65  96 129 165 216 272 322 382
#     4  10  24  39  67  92 129 166 218 267 319 381
#     4  11  23  39  68  95 124 168 223 261 319 387
#     4  11  23  44  65  95 132 172 217 268 327 382
#     4  10  24  42  66  94 131 176 215 263 330 394
#     4  11  24  43  68  91 134 177 216 261 336 396
#     4  12  23  41  69  98 129 171 223 269 321 387
#
# _framework density 22.432718999999999
#
# number of rings (size 3 to 8) (size 9 to 14) (size 15 to 20)
#    0.000    1.143    1.429    5.143   10.000    0.571 
#    2.571    0.714    0.000    0.000    0.000    0.000 
#    0.000    0.000    0.000    0.000    0.000    0.000 
#
# Total GULP energy -173446.975945 kJ/mol
# GULP energy per Si atom -12389.069710 kJ/mol
# Density = 2.238166 g / cm^3
# Si number density = 22.432719 Si / 1000 Ang^3
#
#
#
# Elastic Constant Matrix: (Units=GPa)
#
#
# Indices 1 2 3 4 5 6 
#
# 1 127.1960 40.4983 41.7920 7.8101 16.0696 6.0019
# 2 40.4983 59.5182 23.6971 6.5045 1.8212 8.1115
# 3 41.7920 23.6971 117.1446 24.2691 14.8259 5.8025
# 4 7.8101 6.5045 24.2691 30.5999 -5.0489 -1.3583
# 5 16.0696 1.8212 14.8259 -5.0489 36.2406 10.6318
# 6 6.0019 8.1115 5.8025 -1.3583 10.6318 44.1724
#
#
#
# Elastic Compliance Matrix: (Units=1/GPa)
#
#
# Indices 1 2 3 4 5 6 
#
# 1 0.011191 -0.006753 -0.002066 -0.000419 -0.004121 0.000970
# 2 -0.006753 0.022830 -0.002330 -0.000823 0.003835 -0.003917
# 3 -0.002066 -0.002330 0.012448 -0.009744 -0.005441 0.000083
# 4 -0.000419 -0.000823 -0.009744 0.042357 0.010002 0.000383
# 5 -0.004121 0.003835 -0.005441 0.010002 0.035066 -0.007562
# 6 0.000970 -0.003917 0.000083 0.000383 -0.007562 0.025047
#
#
# Mechanical properties :
#
#
# Convention : Reuss Voigt Hill
#
# Bulk Modulus (GPa) = 41.37049 57.31484 49.34267
# Shear Modulus (GPa) = 27.88696 35.39402 31.64049
#
# Velocity S-wave (km/s) = 3.52964 3.97644 3.75969
# Velocity P-wave (km/s) = 5.92395 6.83286 6.39457
#
# Compressibility (1/GPa) = 0.02417182
#
# Stress axis : x y z
#
# Youngs Moduli (GPa) = 89.35495 43.80119 80.33265
#
# Poissons Ratio (x) = 0.29577 0.16599
# Poissons Ratio (y) = 0.60337 0.18719
# Poissons Ratio (z) = 0.18463 0.10207
#
# Static dielectric constant tensor:
#      x y z
#    x 4.446750 -0.187250 -0.126240 
#    y -0.187250 4.638090 1.024440 
#    z -0.126240 1.024440 6.294720 
# 
# 
# High freq. dielectric constant tensor:
#      x y z
#    x 1.894000 0.011080 0.012410 
#    y 0.011080 1.863500 0.025450 
#    z 0.012410 0.025450 1.887040 
# 
# From -- ./inp_files/299532.got.cif
#   From: 2010.06.25/outbox.cif.g09.slc.cpg/sg2_150_cif.got.tgz:299532.got - 2010.06.27 13:26:56.
