data_PCOD8026951
_publ_section_title
;
Structure prediction by ZEFSAII (Michael W. Deem and Ramdas Pophale) SiO2 
 PCOD8026951
Probable space group: P -1
;
_chemical_formula_sum "Si O2"
_cell_formula_units_Z 14
_cell_length_a 9.653725
_cell_length_b 12.310533
_cell_length_c 9.754020
_cell_angle_alpha 144.906325
_cell_angle_beta 82.858391
_cell_angle_gamma 83.578283
_cell_volume 613.175873
_symmetry_space_group_name_H-M "P -1"
_symmetry_group_IT_number 2
_symmetry_cell_setting 'triclinic'
loop_
_space_group_symop_operation_xyz
x,y,z
-x,-y,-z
loop_
_atom_site_type_symbol
_atom_site_label
_atom_site_fract_x
_atom_site_fract_y
_atom_site_fract_z
Si Si1 0.339816 0.984795 0.496805
Si Si2 0.898538 0.575386 0.960105
Si Si3 0.900228 0.454823 0.351986
Si Si4 0.656396 0.844528 0.878752
Si Si5 0.457020 0.746733 0.989707
Si Si6 0.324218 0.630211 0.321511
Si Si7 0.264188 0.796026 0.800237
O O1 0.329293 0.821619 0.437971
O O2 0.500000 0.000000 0.500000
O O3 0.209559 0.195083 0.762766
O O4 0.328684 0.921666 0.273265
O O5 0.809618 0.429271 0.784626
O O6 0.000000 0.500000 0.000000
O O7 0.018803 0.566587 0.822256
O O8 0.735222 0.640883 0.567871
O O9 0.881611 0.239566 0.160062
O O10 0.000000 0.500000 0.500000
O O11 0.610864 0.791980 0.982383
O O12 0.500000 0.000000 0.000000
O O13 0.769420 0.967911 0.991279
O O14 0.513204 0.557393 0.894973
O O15 0.391780 0.711382 0.815796
O O16 0.309224 0.665277 0.522455
#
# Coordination Sequence:
#
# PCOD8026951 Si02
#       7
#     2   2   2   2   2   2   2
#     4  12  28  49  77 105 151 193 247 299 363 441
#     4  12  31  51  72 106 153 200 240 297 367 442
#     4  12  26  49  70 105 149 187 244 296 362 432
#     4  10  24  43  72 110 140 181 243 297 356 424
#     4  11  23  47  76 116 141 187 248 307 365 426
#     4  12  25  48  74 110 146 191 245 305 366 425
#     4  11  25  42  78 107 147 185 240 307 364 422
#
# _framework density 22.831948000000001
#
# number of rings (size 3 to 8) (size 9 to 14) (size 15 to 20)
#    0.000    0.571    4.286    1.714   10.000    2.286 
#    0.000    0.000    0.000    0.000    0.000    0.000 
#    0.000    0.000    0.000    0.000    0.000    0.000 
#
# Total GULP energy -173500.863010 kJ/mol
# GULP energy per Si atom -12392.918786 kJ/mol
# Density = 2.277998 g / cm^3
# Si number density = 22.831948 Si / 1000 Ang^3
#
#
#
# Elastic Constant Matrix: (Units=GPa)
#
#
# Indices 1 2 3 4 5 6 
#
# 1 120.1963 83.6832 58.3287 -5.1705 12.8657 17.6163
# 2 83.6832 161.3887 80.2903 -3.2353 5.6975 16.9090
# 3 58.3287 80.2903 143.9752 -10.8017 -13.7624 4.0091
# 4 -5.1705 -3.2353 -10.8017 44.1517 2.3016 9.0017
# 5 12.8657 5.6975 -13.7624 2.3016 50.6964 -0.7446
# 6 17.6163 16.9090 4.0091 9.0017 -0.7446 47.6550
#
#
#
# Elastic Compliance Matrix: (Units=1/GPa)
#
#
# Indices 1 2 3 4 5 6 
#
# 1 0.014674 -0.005564 -0.003016 0.001506 -0.004038 -0.003544
# 2 -0.005564 0.011335 -0.004154 -0.000471 -0.000991 -0.001542
# 3 -0.003016 -0.004154 0.010955 0.001511 0.004159 0.001447
# 4 0.001506 -0.000471 0.001511 0.024261 -0.001096 -0.005116
# 5 -0.004038 -0.000991 0.004159 -0.001096 0.022070 0.002046
# 6 -0.003544 -0.001542 0.001447 -0.005116 0.002046 0.023718
#
#
# Mechanical properties :
#
#
# Convention : Reuss Voigt Hill
#
# Bulk Modulus (GPa) = 86.99604 96.68494 91.84049
# Shear Modulus (GPa) = 36.68043 42.05115 39.36579
#
# Velocity S-wave (km/s) = 4.01251 4.29624 4.15680
# Velocity P-wave (km/s) = 7.72350 8.18831 7.95930
#
# Compressibility (1/GPa) = 0.01149478
#
# Stress axis : x y z
#
# Youngs Moduli (GPa) = 68.15005 88.22210 91.28407
#
# Poissons Ratio (x) = 0.49086 0.27533
# Poissons Ratio (y) = 0.37918 0.37921
# Poissons Ratio (z) = 0.20555 0.36649
#
# Static dielectric constant tensor:
#      x y z
#    x 4.117970 0.677390 0.806580 
#    y 0.677390 4.421970 -0.457750 
#    z 0.806580 -0.457750 3.032140 
# 
# 
# High freq. dielectric constant tensor:
#      x y z
#    x 1.896720 0.015930 0.006910 
#    y 0.015930 1.918080 -0.001500 
#    z 0.006910 -0.001500 1.910290 
# 
# From -- ./inp_files/260931.got.cif
#   From: 2010.06.25/outbox.cif.g09.slc.cpg/sg2_131_cif.got.tgz:260931.got - 2010.06.27 13:26:56.
