data_PCOD8026897
_publ_section_title
;
Structure prediction by ZEFSAII (Michael W. Deem and Ramdas Pophale) SiO2 
 PCOD8026897
Probable space group: P -1
;
_chemical_formula_sum "Si O2"
_cell_formula_units_Z 10
_cell_length_a 5.090287
_cell_length_b 13.348870
_cell_length_c 10.278480
_cell_angle_alpha 145.266079
_cell_angle_beta 109.528904
_cell_angle_gamma 64.871098
_cell_volume 360.126098
_symmetry_space_group_name_H-M "P -1"
_symmetry_group_IT_number 2
_symmetry_cell_setting 'triclinic'
loop_
_space_group_symop_operation_xyz
x,y,z
-x,-y,-z
loop_
_atom_site_type_symbol
_atom_site_label
_atom_site_fract_x
_atom_site_fract_y
_atom_site_fract_z
Si Si1 0.754855 0.167842 0.231603
Si Si2 0.895793 0.411193 0.014429
Si Si3 0.332661 0.889943 0.438129
Si Si4 0.203494 0.372714 0.505242
Si Si5 0.629934 0.903625 0.107462
O O1 0.067702 0.202336 0.320313
O O2 0.523890 0.320178 0.440277
O O3 0.795612 0.960248 0.071330
O O4 0.637670 0.166962 0.062802
O O5 0.638102 0.317729 0.828485
O O6 0.173013 0.252987 0.938569
O O7 0.000000 0.500000 0.000000
O O8 0.784448 0.543909 0.259518
O O9 0.500000 0.000000 0.500000
O O10 0.460984 0.902796 0.618028
O O11 0.000000 0.000000 0.500000
O O12 0.000000 0.500000 0.500000
#
# Coordination Sequence:
#
# PCOD8026897 Si02
#       5
#     2   2   2   2   2
#     4  11  26  45  75 106 142 193 235 299 356 433
#     4  11  25  47  76 109 148 191 242 304 362 426
#     4  10  24  43  70  97 141 188 234 288 351 428
#     4  12  26  47  74 108 148 183 241 298 366 421
#     4  10  24  46  72 104 145 187 246 288 359 430
#
# _framework density 27.768052999999998
#
# number of rings (size 3 to 8) (size 9 to 14) (size 15 to 20)
#    0.000    1.200    2.000    1.800    2.800   11.200 
#    0.000    6.000    0.000    0.000    0.000    0.000 
#    0.000    0.000    0.000    0.000    0.000    0.000 
#
# Total GULP energy -123921.678061 kJ/mol
# GULP energy per Si atom -12392.167806 kJ/mol
# Density = 2.770485 g / cm^3
# Si number density = 27.768053 Si / 1000 Ang^3
#
#
#
# Elastic Constant Matrix: (Units=GPa)
#
#
# Indices 1 2 3 4 5 6 
#
# 1 108.3189 20.5152 64.3193 -7.8989 5.8940 26.9337
# 2 20.5152 144.7188 49.9222 -17.8016 16.6094 3.8260
# 3 64.3193 49.9222 269.6440 -37.9804 8.7039 12.6071
# 4 -7.8989 -17.8016 -37.9804 60.3651 4.4843 5.8006
# 5 5.8940 16.6094 8.7039 4.4843 62.3452 3.4411
# 6 26.9337 3.8260 12.6071 5.8006 3.4411 33.1657
#
#
#
# Elastic Compliance Matrix: (Units=1/GPa)
#
#
# Indices 1 2 3 4 5 6 
#
# 1 0.013389 -0.000630 -0.002459 0.001001 -0.000274 -0.010013
# 2 -0.000630 0.007784 -0.000973 0.001761 -0.001998 -0.000117
# 3 -0.002459 -0.000973 0.004841 0.002476 -0.000355 -0.000127
# 4 0.001001 0.001761 0.002476 0.019419 -0.002022 -0.005144
# 5 -0.000274 -0.001998 -0.000355 -0.002022 0.016838 -0.000805
# 6 -0.010013 -0.000117 -0.000127 -0.005144 -0.000805 0.039328
#
#
# Mechanical properties :
#
#
# Convention : Reuss Voigt Hill
#
# Bulk Modulus (GPa) = 55.89712 88.02167 71.95939
# Shear Modulus (GPa) = 43.22032 57.03687 50.12859
#
# Velocity S-wave (km/s) = 3.94950 4.53708 4.25345
# Velocity P-wave (km/s) = 6.40092 7.69509 7.07765
#
# Compressibility (1/GPa) = 0.01789001
#
# Stress axis : x y z
#
# Youngs Moduli (GPa) = 74.68749 128.47004 206.54952
#
# Poissons Ratio (x) = 0.08099 0.50791
# Poissons Ratio (y) = 0.04709 0.20093
# Poissons Ratio (z) = 0.18366 0.12497
#
# Static dielectric constant tensor:
#      x y z
#    x 5.488400 1.433830 -0.469150 
#    y 1.433830 9.124750 -1.527560 
#    z -0.469150 -1.527560 6.948270 
# 
# 
# High freq. dielectric constant tensor:
#      x y z
#    x 2.120690 -0.015160 0.000760 
#    y -0.015160 2.145180 -0.014070 
#    z 0.000760 -0.014070 2.151230 
# 
# From -- ./inp_files/60186.got.cif
#   From: 2010.06.25/outbox.cif.g09.slc.cpg/sg2_31_cif.got.tgz:60186.got - 2010.06.27 13:26:56.
