data_PCOD8026305
_publ_section_title
;
Structure prediction by ZEFSAII (Michael W. Deem and Ramdas Pophale) SiO2 
 PCOD8026305
Probable space group: P -1
;
_chemical_formula_sum "Si O2"
_cell_formula_units_Z 14
_cell_length_a 9.392013
_cell_length_b 17.680663
_cell_length_c 18.858244
_cell_angle_alpha 20.663723
_cell_angle_beta 41.780789
_cell_angle_gamma 52.710131
_cell_volume 677.741401
_symmetry_space_group_name_H-M "P -1"
_symmetry_group_IT_number 2
_symmetry_cell_setting 'triclinic'
loop_
_space_group_symop_operation_xyz
x,y,z
-x,-y,-z
loop_
_atom_site_type_symbol
_atom_site_label
_atom_site_fract_x
_atom_site_fract_y
_atom_site_fract_z
Si Si1 0.015305 0.777205 0.392406
Si Si2 0.831639 0.059119 0.958577
Si Si3 0.352608 0.708169 0.429840
Si Si4 0.658610 0.261152 0.190930
Si Si5 0.861680 0.733008 0.014328
Si Si6 0.565982 0.853915 0.909526
Si Si7 0.448316 0.587999 0.050978
O O1 0.775783 0.578021 0.678311
O O2 0.023294 0.791965 0.291613
O O3 0.228478 0.716304 0.394695
O O4 0.025849 0.015965 0.212266
O O5 0.705605 0.208250 0.915076
O O6 0.630617 0.816432 0.217867
O O7 0.000000 0.000000 0.000000
O O8 0.291676 0.869622 0.369847
O O9 0.267303 0.448032 0.717441
O O10 0.602730 0.446315 0.096167
O O11 0.928231 0.316350 0.055844
O O12 0.500000 0.000000 0.500000
O O13 0.620795 0.295494 0.092176
O O14 0.671100 0.707497 0.047690
O O15 0.592782 0.796113 0.868488
#
# Coordination Sequence:
#
# PCOD8026305 Si02
#       7
#     2   2   2   2   2   2   2
#     4  11  22  41  66  95 132 169 216 260 314 388
#     4  10  24  41  64  98 133 171 214 261 319 381
#     4   9  22  43  61  92 135 167 213 258 320 379
#     4  11  24  42  69  96 123 169 223 261 326 383
#     4  11  22  42  68  93 129 173 211 267 321 380
#     4   9  25  42  61  97 135 164 212 264 319 387
#     4  11  24  42  67  97 129 167 213 277 315 375
#
# _framework density 20.656845000000001
#
# number of rings (size 3 to 8) (size 9 to 14) (size 15 to 20)
#    0.857    0.857    2.857    0.429    4.000    2.857 
#    0.000    1.429    0.000    0.000    0.000    0.000 
#    0.000    0.000    0.000    0.000    0.000    0.000 
#
# Total GULP energy -173579.312832 kJ/mol
# GULP energy per Si atom -12398.522345 kJ/mol
# Density = 2.060983 g / cm^3
# Si number density = 20.656845 Si / 1000 Ang^3
#
#
#
# Elastic Constant Matrix: (Units=GPa)
#
#
# Indices 1 2 3 4 5 6 
#
# 1 148.7917 57.5999 23.8739 5.6426 27.3347 -16.1457
# 2 57.5999 96.7673 11.5071 7.3446 16.0175 -1.5030
# 3 23.8739 11.5071 92.6539 13.3725 18.9493 -4.9608
# 4 5.6426 7.3446 13.3725 29.3532 2.0938 -2.8335
# 5 27.3347 16.0175 18.9493 2.0938 22.1766 1.3160
# 6 -16.1457 -1.5030 -4.9608 -2.8335 1.3160 44.7300
#
#
#
# Elastic Compliance Matrix: (Units=1/GPa)
#
#
# Indices 1 2 3 4 5 6 
#
# 1 0.010867 -0.004721 0.000090 0.000182 -0.010321 0.004089
# 2 -0.004721 0.014007 0.000749 -0.002724 -0.004610 -0.001187
# 3 0.000090 0.000749 0.014075 -0.005586 -0.012247 0.001625
# 4 0.000182 -0.002724 -0.005586 0.037209 0.002907 0.001626
# 5 -0.010321 -0.004610 -0.012247 0.002907 0.071760 -0.007166
# 6 0.004089 -0.001187 0.001625 0.001626 -0.007166 0.024286
#
#
# Mechanical properties :
#
#
# Convention : Reuss Voigt Hill
#
# Bulk Modulus (GPa) = 32.06745 58.24163 45.15454
# Shear Modulus (GPa) = 26.26576 35.60077 30.93326
#
# Velocity S-wave (km/s) = 3.56972 4.15593 3.87393
# Velocity P-wave (km/s) = 5.70509 7.16136 6.47430
#
# Compressibility (1/GPa) = 0.03118427
#
# Stress axis : x y z
#
# Youngs Moduli (GPa) = 92.02255 71.39540 71.04956
#
# Poissons Ratio (x) = 0.33706 -0.00638
# Poissons Ratio (y) = 0.43444 -0.05324
# Poissons Ratio (z) = -0.00826 -0.05350
#
# Static dielectric constant tensor:
#      x y z
#    x 3.740990 -0.116290 0.072880 
#    y -0.116290 3.718800 -0.062080 
#    z 0.072880 -0.062080 3.631810 
# 
# 
# High freq. dielectric constant tensor:
#      x y z
#    x 1.812290 -0.009180 0.008030 
#    y -0.009180 1.804030 -0.003790 
#    z 0.008030 -0.003790 1.804150 
# 
# From -- ./inp_files/43025.got.cif
#   From: 2010.06.25/outbox.cif.g09.slc.cpg/sg2_22_cif.got.tgz:43025.got - 2010.06.27 13:26:56.
