data_PCOD8026713
_publ_section_title
;
Structure prediction by ZEFSAII (Michael W. Deem and Ramdas Pophale) SiO2 
 PCOD8026713
Probable space group: P -1
;
_chemical_formula_sum "Si O2"
_cell_formula_units_Z 16
_cell_length_a 8.930232
_cell_length_b 16.852120
_cell_length_c 6.740759
_cell_angle_alpha 76.214790
_cell_angle_beta 92.034909
_cell_angle_gamma 49.091443
_cell_volume 718.782810
_symmetry_space_group_name_H-M "P -1"
_symmetry_group_IT_number 2
_symmetry_cell_setting 'triclinic'
loop_
_space_group_symop_operation_xyz
x,y,z
-x,-y,-z
loop_
_atom_site_type_symbol
_atom_site_label
_atom_site_fract_x
_atom_site_fract_y
_atom_site_fract_z
Si Si1 0.809304 0.008501 0.288630
Si Si2 0.240413 0.401719 0.533150
Si Si3 0.106730 0.840241 0.732379
Si Si4 0.116425 0.279504 0.527317
Si Si5 0.334861 0.503978 0.739385
Si Si6 0.478652 0.402517 0.228881
Si Si7 0.394378 0.109439 0.309982
Si Si8 0.865120 0.859953 0.055438
O O1 0.816762 0.962997 0.101181
O O2 0.937481 0.903249 0.511106
O O3 0.894740 0.067366 0.239643
O O4 0.573380 0.109015 0.284951
O O5 0.273891 0.291132 0.609387
O O6 0.389008 0.398355 0.691511
O O7 0.305527 0.411445 0.316146
O O8 0.000000 0.500000 0.500000
O O9 0.319945 0.726942 0.725636
O O10 0.045955 0.805056 0.935123
O O11 0.205064 0.212720 0.365688
O O12 0.074802 0.229699 0.726199
O O13 0.900910 0.396038 0.384015
O O14 0.462415 0.539118 0.669408
O O15 0.365009 0.477463 0.986468
O O16 0.500000 0.000000 0.500000
O O17 0.331615 0.098184 0.099073
#
# Coordination Sequence:
#
# PCOD8026713 Si02
#       8
#     2   2   2   2   2   2   2   2
#     4  11  24  43  65  98 137 172 225 274 323 392
#     4  10  24  43  65  97 128 170 218 272 321 385
#     4  11  25  43  66  97 134 176 220 275 327 389
#     4  11  25  42  67  98 136 172 218 274 325 392
#     4  10  24  44  68  98 130 173 222 270 323 391
#     4  11  23  44  70  94 133 174 217 269 334 386
#     4  12  23  42  66  96 131 175 217 267 329 391
#     4  12  23  42  67  95 134 177 221 265 335 390
#
# _framework density 22.259851999999999
#
# number of rings (size 3 to 8) (size 9 to 14) (size 15 to 20)
#    0.000    1.000    2.500    3.375    0.000   12.000 
#    0.000    0.000    0.000    0.000    0.000    0.000 
#    0.000    0.000    0.000    0.000    0.000    0.000 
#
# Total GULP energy -198285.404399 kJ/mol
# GULP energy per Si atom -12392.837775 kJ/mol
# Density = 2.220919 g / cm^3
# Si number density = 22.259852 Si / 1000 Ang^3
#
#
#
# Elastic Constant Matrix: (Units=GPa)
#
#
# Indices 1 2 3 4 5 6 
#
# 1 131.6683 39.7670 51.8829 6.1123 -7.6399 10.1441
# 2 39.7670 65.3904 43.8519 6.6364 3.2287 11.9426
# 3 51.8829 43.8519 106.7943 5.3442 6.0398 2.8431
# 4 6.1123 6.6364 5.3442 28.5149 -2.1057 4.0249
# 5 -7.6399 3.2287 6.0398 -2.1057 45.2856 9.8024
# 6 10.1441 11.9426 2.8431 4.0249 9.8024 46.1440
#
#
#
# Elastic Compliance Matrix: (Units=1/GPa)
#
#
# Indices 1 2 3 4 5 6 
#
# 1 0.010471 -0.003715 -0.003667 -0.000239 0.002879 -0.001705
# 2 -0.003715 0.023847 -0.007706 -0.002699 -0.000440 -0.004551
# 3 -0.003667 -0.007706 0.014421 -0.000668 -0.002568 0.002516
# 4 -0.000239 -0.002699 -0.000668 0.036479 0.002573 -0.002936
# 5 0.002879 -0.000440 -0.002568 0.002573 0.024306 -0.005748
# 6 -0.001705 -0.004551 0.002516 -0.002936 -0.005748 0.024546
#
#
# Mechanical properties :
#
#
# Convention : Reuss Voigt Hill
#
# Bulk Modulus (GPa) = 53.87098 63.87297 58.87198
# Shear Modulus (GPa) = 29.33681 35.21230 32.27456
#
# Velocity S-wave (km/s) = 3.63426 3.98159 3.81189
# Velocity P-wave (km/s) = 6.47024 7.06357 6.77340
#
# Compressibility (1/GPa) = 0.01856287
#
# Stress axis : x y z
#
# Youngs Moduli (GPa) = 95.49763 41.93417 69.34225
#
# Poissons Ratio (x) = 0.15580 0.25428
# Poissons Ratio (y) = 0.35482 0.53434
# Poissons Ratio (z) = 0.35019 0.32314
#
# Static dielectric constant tensor:
#      x y z
#    x 4.484290 0.690900 0.060850 
#    y 0.690900 3.076510 0.236720 
#    z 0.060850 0.236720 3.864560 
# 
# 
# High freq. dielectric constant tensor:
#      x y z
#    x 1.901230 0.013050 0.003590 
#    y 0.013050 1.868720 0.013390 
#    z 0.003590 0.013390 1.873640 
# 
# From -- ./inp_files/47467.got.cif
#   From: 2010.06.25/outbox.cif.g09.slc.cpg/sg2_24_cif.got.tgz:47467.got - 2010.06.27 13:26:56.
