data_PCOD8026562
_publ_section_title
;
Structure prediction by ZEFSAII (Michael W. Deem and Ramdas Pophale) SiO2 
 PCOD8026562
Probable space group: P -1
;
_chemical_formula_sum "Si O2"
_cell_formula_units_Z 16
_cell_length_a 19.146058
_cell_length_b 12.745258
_cell_length_c 8.578526
_cell_angle_alpha 130.884678
_cell_angle_beta 130.551972
_cell_angle_gamma 27.660168
_cell_volume 719.764763
_symmetry_space_group_name_H-M "P -1"
_symmetry_group_IT_number 2
_symmetry_cell_setting 'triclinic'
loop_
_space_group_symop_operation_xyz
x,y,z
-x,-y,-z
loop_
_atom_site_type_symbol
_atom_site_label
_atom_site_fract_x
_atom_site_fract_y
_atom_site_fract_z
Si Si1 0.158145 0.651820 0.243429
Si Si2 0.384204 0.903088 0.027950
Si Si3 0.380997 0.219650 0.927280
Si Si4 0.390890 0.604017 0.588777
Si Si5 0.882711 0.531221 0.417620
Si Si6 0.135872 0.423523 0.196721
Si Si7 0.600033 0.272108 0.824761
Si Si8 0.947735 0.924951 0.931725
O O1 0.231834 0.714303 0.438530
O O2 0.133748 0.586904 0.298183
O O3 0.266242 0.435790 0.080274
O O4 0.996461 0.864970 0.126495
O O5 0.336885 0.814791 0.792444
O O6 0.549078 0.746175 0.049293
O O7 0.381814 0.886917 0.197018
O O8 0.280676 0.161281 0.088328
O O9 0.280822 0.243240 0.688609
O O10 0.500000 0.000000 0.000000
O O11 0.500000 0.500000 0.500000
O O12 0.494934 0.374254 0.620928
O O13 0.863442 0.571502 0.612414
O O14 0.000000 0.500000 0.500000
O O15 0.961156 0.292873 0.254730
O O16 0.000000 0.500000 0.000000
O O17 0.764193 0.129222 0.864351
O O18 0.500000 0.500000 0.000000
O O19 0.000000 0.000000 0.000000
#
# Coordination Sequence:
#
# PCOD8026562 Si02
#       8
#     2   2   2   2   2   2   2   2
#     4  11  24  43  69 106 141 178 239 294 354 419
#     4  11  24  43  70  97 145 185 230 290 360 413
#     4  11  23  44  71 102 140 189 235 294 354 425
#     4  11  23  42  69 104 138 180 234 289 353 419
#     4  11  27  46  71 102 140 185 244 286 357 423
#     4  12  26  46  70 101 145 185 235 298 353 423
#     4  10  24  42  69 100 140 179 230 284 349 416
#     4  11  25  48  73  99 142 189 232 288 354 426
#
# _framework density 22.229485
#
# number of rings (size 3 to 8) (size 9 to 14) (size 15 to 20)
#    0.000    1.000    2.500    3.750    7.000    5.500 
#    0.000    3.750    0.000    0.000    0.000    0.000 
#    0.000    0.000    0.000    0.000    0.000    0.000 
#
# Total GULP energy -198270.136576 kJ/mol
# GULP energy per Si atom -12391.883536 kJ/mol
# Density = 2.217889 g / cm^3
# Si number density = 22.229485 Si / 1000 Ang^3
#
#
#
# Elastic Constant Matrix: (Units=GPa)
#
#
# Indices 1 2 3 4 5 6 
#
# 1 117.9530 3.2440 35.5824 -10.7017 -4.3255 17.9666
# 2 3.2440 82.3731 33.6473 -14.6488 -6.9221 8.9761
# 3 35.5824 33.6473 124.4902 -22.2486 -1.1435 9.3171
# 4 -10.7017 -14.6488 -22.2486 31.8736 0.9533 7.5570
# 5 -4.3255 -6.9221 -1.1435 0.9533 42.0847 1.8306
# 6 17.9666 8.9761 9.3171 7.5570 1.8306 33.6553
#
#
#
# Elastic Compliance Matrix: (Units=1/GPa)
#
#
# Indices 1 2 3 4 5 6 
#
# 1 0.010598 0.002184 -0.002300 0.004498 0.001576 -0.006699
# 2 0.002184 0.015472 -0.003047 0.007102 0.002795 -0.006196
# 3 -0.002300 -0.003047 0.010721 0.005850 -0.000483 -0.002215
# 4 0.004498 0.007102 0.005850 0.043949 0.001484 -0.015864
# 5 0.001576 0.002795 -0.000483 0.001484 0.024472 -0.003117
# 6 -0.006699 -0.006196 -0.002215 -0.015864 -0.003117 0.039287
#
#
# Mechanical properties :
#
#
# Convention : Reuss Voigt Hill
#
# Bulk Modulus (GPa) = 32.82495 52.19596 42.51046
# Shear Modulus (GPa) = 31.06011 38.34556 34.70284
#
# Velocity S-wave (km/s) = 3.74203 4.15780 3.95538
# Velocity P-wave (km/s) = 5.78523 6.82504 6.32654
#
# Compressibility (1/GPa) = 0.03046463
#
# Stress axis : x y z
#
# Youngs Moduli (GPa) = 94.35769 64.63421 93.27849
#
# Poissons Ratio (x) = -0.14119 0.21452
# Poissons Ratio (y) = -0.20611 0.28426
# Poissons Ratio (z) = 0.21700 0.19697
#
# Static dielectric constant tensor:
#      x y z
#    x 4.427650 0.699460 -0.383690 
#    y 0.699460 5.618020 -0.630960 
#    z -0.383690 -0.630960 4.076850 
# 
# 
# High freq. dielectric constant tensor:
#      x y z
#    x 1.896020 0.000880 -0.005560 
#    y 0.000880 1.883520 -0.006340 
#    z -0.005560 -0.006340 1.872220 
# 
# From -- ./inp_files/333823.got.cif
#   From: 2010.06.25/outbox.cif.g09.slc.cpg/sg2_167_cif.got.tgz:333823.got - 2010.06.27 13:26:56.
