data_PCOD8026579
_publ_section_title
;
Structure prediction by ZEFSAII (Michael W. Deem and Ramdas Pophale) SiO2 
 PCOD8026579
Probable space group: P -1
;
_chemical_formula_sum "Si O2"
_cell_formula_units_Z 16
_cell_length_a 21.598885
_cell_length_b 9.173408
_cell_length_c 25.098802
_cell_angle_alpha 151.534873
_cell_angle_beta 160.751940
_cell_angle_gamma 29.747075
_cell_volume 757.849855
_symmetry_space_group_name_H-M "P -1"
_symmetry_group_IT_number 2
_symmetry_cell_setting 'triclinic'
loop_
_space_group_symop_operation_xyz
x,y,z
-x,-y,-z
loop_
_atom_site_type_symbol
_atom_site_label
_atom_site_fract_x
_atom_site_fract_y
_atom_site_fract_z
Si Si1 0.028336 0.435442 0.641854
Si Si2 0.250687 0.283685 0.983287
Si Si3 0.685164 0.197442 0.332429
Si Si4 0.018412 0.189350 0.379411
Si Si5 0.660093 0.711691 0.557390
Si Si6 0.989674 0.589509 0.958806
Si Si7 0.312176 0.605623 0.415582
Si Si8 0.914014 0.294526 0.115859
O O1 0.005538 0.716443 0.671816
O O2 0.134504 0.513894 0.806992
O O3 0.815856 0.365385 0.454599
O O4 0.180889 0.132870 0.645450
O O5 0.188186 0.511129 0.954899
O O6 0.190944 0.484998 0.054649
O O7 0.150220 0.990254 0.800415
O O8 0.484449 0.164153 0.131602
O O9 0.629822 0.395861 0.404647
O O10 0.000000 0.500000 0.500000
O O11 0.237034 0.961313 0.493054
O O12 0.656436 0.667085 0.602961
O O13 0.856609 0.794831 0.728843
O O14 0.500000 0.000000 0.500000
O O15 0.865549 0.379933 0.763017
O O16 0.000000 0.500000 0.000000
O O17 0.869124 0.952127 0.971452
O O18 0.500000 0.500000 0.500000
#
# Coordination Sequence:
#
# PCOD8026579 Si02
#       8
#     2   2   2   2   2   2   2   2
#     4  10  24  44  68  93 137 175 222 278 343 403
#     4  11  24  42  69  99 132 175 231 279 336 406
#     4  10  24  42  69  97 130 173 233 275 337 405
#     4  11  24  47  70  94 141 181 222 282 346 404
#     4  11  23  39  67  93 131 175 218 272 339 403
#     4  11  24  42  66  95 139 174 217 284 338 398
#     4  11  26  42  63 103 133 171 229 274 340 408
#     4  11  22  42  66  94 130 175 220 275 336 400
#
# _framework density 21.112361
#
# number of rings (size 3 to 8) (size 9 to 14) (size 15 to 20)
#    0.000    1.250    2.500    3.375   12.250    1.000 
#    2.250    0.000    0.000    0.000    0.000    0.000 
#    0.000    0.000    0.000    0.000    0.000    0.000 
#
# Total GULP energy -198272.117231 kJ/mol
# GULP energy per Si atom -12392.007327 kJ/mol
# Density = 2.106431 g / cm^3
# Si number density = 21.112361 Si / 1000 Ang^3
#
#
#
# Elastic Constant Matrix: (Units=GPa)
#
#
# Indices 1 2 3 4 5 6 
#
# 1 112.6870 55.5977 27.5996 -3.5520 -19.4356 13.7779
# 2 55.5977 135.4705 44.7734 -2.1136 1.0243 3.3735
# 3 27.5996 44.7734 81.2254 -8.5435 2.8945 -6.8852
# 4 -3.5520 -2.1136 -8.5435 41.8014 -1.8848 -1.1751
# 5 -19.4356 1.0243 2.8945 -1.8848 29.1039 -4.3073
# 6 13.7779 3.3735 -6.8852 -1.1751 -4.3073 49.4719
#
#
#
# Elastic Compliance Matrix: (Units=1/GPa)
#
#
# Indices 1 2 3 4 5 6 
#
# 1 0.013890 -0.004834 -0.002568 0.000744 0.009295 -0.003069
# 2 -0.004834 0.010812 -0.004321 -0.000904 -0.003282 -0.000299
# 3 -0.002568 -0.004321 0.016220 0.002852 -0.002531 0.003115
# 4 0.000744 -0.000904 0.002852 0.024641 0.001990 0.001010
# 5 0.009295 -0.003282 -0.002531 0.001990 0.041199 0.000917
# 6 -0.003069 -0.000299 0.003115 0.001010 0.000917 0.021626
#
#
# Mechanical properties :
#
#
# Convention : Reuss Voigt Hill
#
# Bulk Modulus (GPa) = 57.22157 65.03603 61.12880
# Shear Modulus (GPa) = 31.71409 37.50293 34.60851
#
# Velocity S-wave (km/s) = 3.87997 4.21925 4.05316
# Velocity P-wave (km/s) = 6.87273 7.38970 7.13590
#
# Compressibility (1/GPa) = 0.01747593
#
# Stress axis : x y z
#
# Youngs Moduli (GPa) = 71.99386 92.49234 61.65275
#
# Poissons Ratio (x) = 0.44710 0.15834
# Poissons Ratio (y) = 0.34802 0.26638
# Poissons Ratio (z) = 0.18490 0.39962
#
# Static dielectric constant tensor:
#      x y z
#    x 0.354940 2.267620 0.618710 
#    y 2.267620 2.346850 -0.283280 
#    z 0.618710 -0.283280 3.709700 
# 
# 
# High freq. dielectric constant tensor:
#      x y z
#    x 1.832060 -0.000680 -0.008110 
#    y -0.000680 1.842860 0.005270 
#    z -0.008110 0.005270 1.816300 
# 
# From -- ./inp_files/207531.got.cif
#   From: 2010.06.25/outbox.cif.g09.slc.cpg/sg2_104_cif.got.tgz:207531.got - 2010.06.27 13:26:56.
