data_PCOD8026676
_publ_section_title
;
Structure prediction by ZEFSAII (Michael W. Deem and Ramdas Pophale) SiO2 
 PCOD8026676
Probable space group: P -1
;
_chemical_formula_sum "Si O2"
_cell_formula_units_Z 10
_cell_length_a 8.104639
_cell_length_b 10.353047
_cell_length_c 9.621981
_cell_angle_alpha 45.000726
_cell_angle_beta 87.218992
_cell_angle_gamma 112.095615
_cell_volume 464.043252
_symmetry_space_group_name_H-M "P -1"
_symmetry_group_IT_number 2
_symmetry_cell_setting 'triclinic'
loop_
_space_group_symop_operation_xyz
x,y,z
-x,-y,-z
loop_
_atom_site_type_symbol
_atom_site_label
_atom_site_fract_x
_atom_site_fract_y
_atom_site_fract_z
Si Si1 0.216981 0.155646 0.802754
Si Si2 0.911593 0.594646 0.530284
Si Si3 0.529577 0.365906 0.865955
Si Si4 0.695982 0.031753 0.620487
Si Si5 0.603393 0.838397 0.482094
O O1 0.234069 0.375174 0.583761
O O2 0.386564 0.211831 0.862936
O O3 0.250610 0.053575 0.741232
O O4 0.000000 0.000000 0.000000
O O5 0.754929 0.424547 0.784309
O O6 0.000000 0.500000 0.500000
O O7 0.088770 0.826272 0.418353
O O8 0.532698 0.587056 0.711888
O O9 0.447330 0.218545 0.120430
O O10 0.596282 0.167917 0.532292
O O11 0.731233 0.002436 0.480580
#
# Coordination Sequence:
#
# PCOD8026676 Si02
#       5
#     2   2   2   2   2
#     4  11  22  40  63  92 125 165 204 259 309 362
#     4  11  23  39  66  96 124 162 217 255 305 381
#     4  11  23  42  65  93 124 168 210 253 315 370
#     4  11  23  44  65  92 129 166 203 264 313 362
#     4  10  24  43  62  94 132 159 211 260 307 376
#
# _framework density 21.549717000000001
#
# number of rings (size 3 to 8) (size 9 to 14) (size 15 to 20)
#    0.000    1.200    2.000    5.400    2.800    4.800 
#    3.600    2.000    0.000    0.000    0.000    0.000 
#    0.000    0.000    0.000    0.000    0.000    0.000 
#
# Total GULP energy -123978.012899 kJ/mol
# GULP energy per Si atom -12397.801290 kJ/mol
# Density = 2.150067 g / cm^3
# Si number density = 21.549717 Si / 1000 Ang^3
#
#
#
# Elastic Constant Matrix: (Units=GPa)
#
#
# Indices 1 2 3 4 5 6 
#
# 1 91.5101 44.6297 32.5005 3.5131 -10.5132 -15.8551
# 2 44.6297 117.4694 41.6682 17.6815 -13.3939 -19.2946
# 3 32.5005 41.6682 89.7586 5.4587 -22.5344 -6.6119
# 4 3.5131 17.6815 5.4587 32.5129 -1.2752 -5.0585
# 5 -10.5132 -13.3939 -22.5344 -1.2752 42.9002 0.7197
# 6 -15.8551 -19.2946 -6.6119 -5.0585 0.7197 36.5257
#
#
#
# Elastic Compliance Matrix: (Units=1/GPa)
#
#
# Indices 1 2 3 4 5 6 
#
# 1 0.014679 -0.004022 -0.003089 0.001757 0.000705 0.003918
# 2 -0.004022 0.012849 -0.003701 -0.005335 0.000863 0.003616
# 3 -0.003089 -0.003701 0.015504 -0.000109 0.006239 -0.000628
# 4 0.001757 -0.005335 -0.000109 0.033882 -0.000330 0.002623
# 5 0.000705 0.000863 0.006239 -0.000330 0.026997 0.001314
# 6 0.003918 0.003616 -0.000628 0.002623 0.001314 0.031212
#
#
# Mechanical properties :
#
#
# Convention : Reuss Voigt Hill
#
# Bulk Modulus (GPa) = 46.71151 59.59278 53.15214
# Shear Modulus (GPa) = 30.50936 34.38373 32.44654
#
# Velocity S-wave (km/s) = 3.76675 3.99877 3.88449
# Velocity P-wave (km/s) = 6.37504 7.00242 6.69608
#
# Compressibility (1/GPa) = 0.02140800
#
# Stress axis : x y z
#
# Youngs Moduli (GPa) = 68.12652 77.82714 64.49743
#
# Poissons Ratio (x) = 0.31298 0.19925
# Poissons Ratio (y) = 0.27397 0.23872
# Poissons Ratio (z) = 0.21046 0.28806
#
# Static dielectric constant tensor:
#      x y z
#    x 4.108920 -0.114630 -0.120300 
#    y -0.114630 3.940720 0.282910 
#    z -0.120300 0.282910 4.218950 
# 
# 
# High freq. dielectric constant tensor:
#      x y z
#    x 1.854710 -0.005880 -0.002990 
#    y -0.005880 1.845550 0.014840 
#    z -0.002990 0.014840 1.844880 
# 
# From -- ./inp_files/143965.got.cif
#   From: 2010.06.25/outbox.cif.g09.slc.cpg/sg2_72_cif.got.tgz:143965.got - 2010.06.27 13:26:56.
