data_PCOD8026587
_publ_section_title
;
Structure prediction by ZEFSAII (Michael W. Deem and Ramdas Pophale) SiO2 
 PCOD8026587
Probable space group: P -1
;
_chemical_formula_sum "Si O2"
_cell_formula_units_Z 16
_cell_length_a 17.707964
_cell_length_b 8.985437
_cell_length_c 10.918677
_cell_angle_alpha 131.431514
_cell_angle_beta 36.010444
_cell_angle_gamma 133.266286
_cell_volume 720.033692
_symmetry_space_group_name_H-M "P -1"
_symmetry_group_IT_number 2
_symmetry_cell_setting 'triclinic'
loop_
_space_group_symop_operation_xyz
x,y,z
-x,-y,-z
loop_
_atom_site_type_symbol
_atom_site_label
_atom_site_fract_x
_atom_site_fract_y
_atom_site_fract_z
Si Si1 0.431789 0.120550 0.882466
Si Si2 0.941764 0.365191 0.384671
Si Si3 0.542134 0.191495 0.148393
Si Si4 0.819829 0.154968 0.063381
Si Si5 0.709703 0.346603 0.520796
Si Si6 0.325403 0.272816 0.344929
Si Si7 0.101986 0.090245 0.709494
Si Si8 0.821618 0.483607 0.031966
O O1 0.551535 0.269677 0.723666
O O2 0.476772 0.920723 0.754594
O O3 0.293855 0.055748 0.950805
O O4 0.397126 0.228932 0.106099
O O5 0.798680 0.398224 0.556725
O O6 0.000000 0.500000 0.500000
O O7 0.922107 0.119986 0.295309
O O8 0.039791 0.458090 0.193360
O O9 0.440037 0.322011 0.329856
O O10 0.697467 0.356471 0.034296
O O11 0.500000 0.000000 0.000000
O O12 0.763514 0.186452 0.287595
O O13 0.838642 0.347333 0.050729
O O14 0.959091 0.108343 0.866943
O O15 0.729515 0.537582 0.505352
O O16 0.191981 0.082152 0.465565
O O17 0.191673 0.297405 0.782003
#
# Coordination Sequence:
#
# PCOD8026587 Si02
#       8
#     2   2   2   2   2   2   2   2
#     4  10  24  42  70 100 141 181 227 290 345 409
#     4  12  30  43  72 105 137 187 234 295 349 410
#     4   9  22  43  70  99 138 181 230 280 343 417
#     4  11  24  45  72 102 139 186 230 283 348 419
#     4  12  24  47  67 102 143 176 237 287 343 416
#     4  11  24  42  71 100 137 187 227 290 347 411
#     4  12  25  46  69 102 142 184 237 282 351 418
#     4  11  23  47  71 102 142 185 229 287 348 414
#
# _framework density 22.221184000000001
#
# number of rings (size 3 to 8) (size 9 to 14) (size 15 to 20)
#    0.000    1.000    2.500    3.000   10.500    2.000 
#    2.250    0.000    0.000    0.000    0.000    0.000 
#    0.000    0.000    0.000    0.000    0.000    0.000 
#
# Total GULP energy -198314.053530 kJ/mol
# GULP energy per Si atom -12394.628346 kJ/mol
# Density = 2.217061 g / cm^3
# Si number density = 22.221184 Si / 1000 Ang^3
#
#
#
# Elastic Constant Matrix: (Units=GPa)
#
#
# Indices 1 2 3 4 5 6 
#
# 1 113.7203 51.8972 38.0478 -1.0687 -30.8864 5.4490
# 2 51.8972 100.8986 42.2339 -11.7049 -10.1541 19.4322
# 3 38.0478 42.2339 111.2793 -27.3307 -13.0936 -10.2014
# 4 -1.0687 -11.7049 -27.3307 40.4442 -9.7816 -4.4844
# 5 -30.8864 -10.1541 -13.0936 -9.7816 39.9872 -8.9829
# 6 5.4490 19.4322 -10.2014 -4.4844 -8.9829 20.9268
#
#
#
# Elastic Compliance Matrix: (Units=1/GPa)
#
#
# Indices 1 2 3 4 5 6 
#
# 1 0.015729 -0.009458 0.001958 0.003809 0.014134 0.012525
# 2 -0.009458 0.024957 -0.014236 -0.010773 -0.016595 -0.037084
# 3 0.001958 -0.014236 0.024920 0.021822 0.019955 0.038100
# 4 0.003809 -0.010773 0.021822 0.048051 0.028590 0.042219
# 5 0.014134 -0.016595 0.019955 0.028590 0.056925 0.052019
# 6 0.012525 -0.037084 0.038100 0.042219 0.052019 0.128909
#
#
# Mechanical properties :
#
#
# Convention : Reuss Voigt Hill
#
# Bulk Modulus (GPa) = 45.17852 65.58400 55.38126
# Shear Modulus (GPa) = 14.27186 33.18626 23.72906
#
# Velocity S-wave (km/s) = 2.53704 3.86871 3.27135
# Velocity P-wave (km/s) = 5.38122 7.03805 6.26465
#
# Compressibility (1/GPa) = 0.02213441
#
# Stress axis : x y z
#
# Youngs Moduli (GPa) = 63.57733 40.06942 40.12800
#
# Poissons Ratio (x) = 0.37897 -0.07858
# Poissons Ratio (y) = 0.60130 0.57127
# Poissons Ratio (z) = -0.12451 0.57044
#
# Static dielectric constant tensor:
#      x y z
#    x 4.516360 -0.111810 -0.181150 
#    y -0.111810 4.150000 -0.015840 
#    z -0.181150 -0.015840 4.078690 
# 
# 
# High freq. dielectric constant tensor:
#      x y z
#    x 1.887060 -0.006320 -0.009410 
#    y -0.006320 1.872380 -0.013370 
#    z -0.009410 -0.013370 1.876640 
# 
# From -- ./inp_files/462413.got.cif
#   From: 2010.06.25/outbox.cif.g09.slc.cpg/sg2_232_cif.got.tgz:462413.got - 2010.06.27 13:26:56.
