data_PCOD8026634
_publ_section_title
;
Structure prediction by ZEFSAII (Michael W. Deem and Ramdas Pophale) SiO2 
 PCOD8026634
Probable space group: P -1
;
_chemical_formula_sum "Si O2"
_cell_formula_units_Z 12
_cell_length_a 12.667819
_cell_length_b 5.201480
_cell_length_c 12.422337
_cell_angle_alpha 138.602696
_cell_angle_beta 67.181037
_cell_angle_gamma 100.363054
_cell_volume 490.560777
_symmetry_space_group_name_H-M "P -1"
_symmetry_group_IT_number 2
_symmetry_cell_setting 'triclinic'
loop_
_space_group_symop_operation_xyz
x,y,z
-x,-y,-z
loop_
_atom_site_type_symbol
_atom_site_label
_atom_site_fract_x
_atom_site_fract_y
_atom_site_fract_z
Si Si1 0.676326 0.425193 0.187854
Si Si2 0.547916 0.817088 0.152234
Si Si3 0.325106 0.219063 0.473403
Si Si4 0.078091 0.024594 0.078819
Si Si5 0.865847 0.234545 0.618038
Si Si6 0.103913 0.613935 0.588876
O O1 0.609512 0.610109 0.167977
O O2 0.654764 0.727737 0.391172
O O3 0.634488 0.020766 0.110487
O O4 0.813819 0.337783 0.076595
O O5 0.444384 0.164752 0.342784
O O6 0.500000 0.500000 0.000000
O O7 0.234009 0.602358 0.583122
O O8 0.268560 0.827608 0.354383
O O9 0.127998 0.435150 0.190238
O O10 0.989449 0.015906 0.212628
O O11 0.000000 0.000000 0.000000
O O12 0.896231 0.401903 0.543186
O O13 0.940287 0.791441 0.477960
#
# Coordination Sequence:
#
# PCOD8026634 Si02
#       6
#     2   2   2   2   2   2
#     4  12  28  44  73 105 137 188 227 286 347 408
#     4  12  28  48  73 102 141 180 234 288 344 411
#     4  10  25  46  74  99 141 178 238 277 352 402
#     4  12  24  47  69 107 145 179 234 284 344 416
#     4  10  24  42  72 101 137 183 232 273 355 396
#     4  10  24  43  71  99 137 185 224 281 344 404
#
# _framework density 24.461801000000001
#
# number of rings (size 3 to 8) (size 9 to 14) (size 15 to 20)
#    1.000    0.000    1.667    3.500    7.000    1.333 
#    0.000    6.667    0.000    0.000    0.000    0.000 
#    0.000    0.000    0.000    0.000    0.000    0.000 
#
# Total GULP energy -148777.886923 kJ/mol
# GULP energy per Si atom -12398.157244 kJ/mol
# Density = 2.440612 g / cm^3
# Si number density = 24.461801 Si / 1000 Ang^3
#
#
#
# Elastic Constant Matrix: (Units=GPa)
#
#
# Indices 1 2 3 4 5 6 
#
# 1 161.4719 38.1491 60.4637 -11.7236 4.1585 -21.3230
# 2 38.1491 96.4950 -7.7211 -16.7073 -1.4358 -8.4447
# 3 60.4637 -7.7211 98.4472 -7.2804 -14.1096 -1.0562
# 4 -11.7236 -16.7073 -7.2804 21.5301 9.0964 5.1555
# 5 4.1585 -1.4358 -14.1096 9.0964 66.1966 1.0273
# 6 -21.3230 -8.4447 -1.0562 5.1555 1.0273 33.9786
#
#
#
# Elastic Compliance Matrix: (Units=1/GPa)
#
#
# Indices 1 2 3 4 5 6 
#
# 1 0.010708 -0.004430 -0.007229 -0.000384 -0.002343 0.005523
# 2 -0.004430 0.014203 0.004610 0.010257 0.000170 -0.000668
# 3 -0.007229 0.004610 0.015728 0.004422 0.003356 -0.003674
# 4 -0.000384 0.010257 0.004422 0.060192 -0.006982 -0.006476
# 5 -0.002343 0.000170 0.003356 -0.006982 0.016944 -0.000776
# 6 0.005523 -0.000668 -0.003674 -0.006476 -0.000776 0.033622
#
#
# Mechanical properties :
#
#
# Convention : Reuss Voigt Hill
#
# Bulk Modulus (GPa) = 37.67566 59.79972 48.73769
# Shear Modulus (GPa) = 28.67900 42.04257 35.36078
#
# Velocity S-wave (km/s) = 3.42775 4.15022 3.80617
# Velocity P-wave (km/s) = 5.57684 6.88949 6.26762
#
# Compressibility (1/GPa) = 0.02654234
#
# Stress axis : x y z
#
# Youngs Moduli (GPa) = 93.38395 70.40530 63.58144
#
# Poissons Ratio (x) = 0.31190 0.45964
# Poissons Ratio (y) = 0.41369 -0.29314
# Poissons Ratio (z) = 0.67509 -0.32460
#
# Static dielectric constant tensor:
#      x y z
#    x 4.938250 0.211370 -0.070540 
#    y 0.211370 4.084590 -0.047700 
#    z -0.070540 -0.047700 4.526700 
# 
# 
# High freq. dielectric constant tensor:
#      x y z
#    x 2.013510 0.010020 0.005050 
#    y 0.010020 1.953260 -0.009920 
#    z 0.005050 -0.009920 1.972540 
# 
# From -- ./inp_files/117080.got.cif
#   From: 2010.06.25/outbox.cif.g09.slc.cpg/sg2_59_cif.got.tgz:117080.got - 2010.06.27 13:26:56.
