data_PCOD8026821
_publ_section_title
;
Structure prediction by ZEFSAII (Michael W. Deem and Ramdas Pophale) SiO2 
 PCOD8026821
Probable space group: P -1
;
_chemical_formula_sum "Si O2"
_cell_formula_units_Z 16
_cell_length_a 5.065354
_cell_length_b 30.425078
_cell_length_c 18.781678
_cell_angle_alpha 18.753795
_cell_angle_beta 96.829944
_cell_angle_gamma 105.532810
_cell_volume 807.464404
_symmetry_space_group_name_H-M "P -1"
_symmetry_group_IT_number 2
_symmetry_cell_setting 'triclinic'
loop_
_space_group_symop_operation_xyz
x,y,z
-x,-y,-z
loop_
_atom_site_type_symbol
_atom_site_label
_atom_site_fract_x
_atom_site_fract_y
_atom_site_fract_z
Si Si1 0.768633 0.256153 0.556700
Si Si2 0.150394 0.012004 0.063490
Si Si3 0.403558 0.806217 0.591664
Si Si4 0.404305 0.839252 0.704961
Si Si5 0.113594 0.172387 0.527434
Si Si6 0.762782 0.522826 0.871323
Si Si7 0.296835 0.358670 0.980717
Si Si8 0.373133 0.321529 0.546307
O O1 0.650130 0.077303 0.800468
O O2 0.488067 0.270616 0.556685
O O3 0.908360 0.373256 0.314816
O O4 0.040643 0.302715 0.551184
O O5 0.912700 0.929846 0.246396
O O6 0.355496 0.201259 0.792856
O O7 0.000000 0.000000 0.000000
O O8 0.462771 0.870068 0.575841
O O9 0.723154 0.871158 0.462445
O O10 0.219808 0.877098 0.436517
O O11 0.220500 0.616175 0.872535
O O12 0.617730 0.770478 0.847066
O O13 0.055955 0.714940 0.900018
O O14 0.500000 0.000000 0.500000
O O15 0.298920 0.359291 0.262729
O O16 0.488917 0.439527 0.933699
O O17 0.388520 0.494936 0.714064
#
# Coordination Sequence:
#
# PCOD8026821 Si02
#       8
#     2   2   2   2   2   2   2   2
#     4   9  18  28  46  71 102 146 186 212 246 292
#     4   9  20  34  50  73 108 154 193 220 252 299
#     4  11  22  36  52  78 109 144 184 223 268 325
#     4  11  23  41  61  82 107 137 177 232 285 333
#     4  11  23  34  51  80 115 153 183 211 259 317
#     4   9  19  33  51  76 116 152 175 208 254 324
#     4  10  20  34  57  87 108 138 183 221 270 328
#     4  10  17  30  48  73 105 134 175 229 254 292
#
# _framework density 19.815116
#
# number of rings (size 3 to 8) (size 9 to 14) (size 15 to 20)
#    0.000    2.000    0.000    6.000    0.000   13.000 
#    0.000    0.000    0.000    0.000    0.000    5.250 
#    0.000    0.000    0.000    0.000    0.000    0.000 
#
# Total GULP energy -198254.225153 kJ/mol
# GULP energy per Si atom -12390.889072 kJ/mol
# Density = 1.977002 g / cm^3
# Si number density = 19.815116 Si / 1000 Ang^3
#
#
#
# Elastic Constant Matrix: (Units=GPa)
#
#
# Indices 1 2 3 4 5 6 
#
# 1 76.8371 22.4351 25.7022 8.6624 3.0078 -14.2216
# 2 22.4351 73.1167 46.6883 -2.7928 0.7348 -19.1027
# 3 25.7022 46.6883 126.8650 16.6879 7.0548 -13.6644
# 4 8.6624 -2.7928 16.6879 27.9965 -2.7866 3.1196
# 5 3.0078 0.7348 7.0548 -2.7866 22.2916 -1.1768
# 6 -14.2216 -19.1027 -13.6644 3.1196 -1.1768 22.6383
#
#
#
# Elastic Compliance Matrix: (Units=1/GPa)
#
#
# Indices 1 2 3 4 5 6 
#
# 1 0.016310 -0.002740 -0.000445 -0.006220 -0.002304 0.008403
# 2 -0.002740 0.022751 -0.007571 0.006620 0.003486 0.012176
# 3 -0.000445 -0.007571 0.012333 -0.008617 -0.004580 0.001725
# 4 -0.006220 0.006620 -0.008617 0.045327 0.008522 -0.009326
# 5 -0.002304 0.003486 -0.004580 0.008522 0.047572 0.000029
# 6 0.008403 0.012176 0.001725 -0.009326 0.000029 0.062054
#
#
# Mechanical properties :
#
#
# Convention : Reuss Voigt Hill
#
# Bulk Modulus (GPa) = 33.46369 51.82998 42.64684
# Shear Modulus (GPa) = 21.02450 26.71817 23.87133
#
# Velocity S-wave (km/s) = 3.26088 3.67600 3.47465
# Velocity P-wave (km/s) = 5.57696 6.65063 6.13732
#
# Compressibility (1/GPa) = 0.02988314
#
# Stress axis : x y z
#
# Youngs Moduli (GPa) = 61.31209 43.95496 81.08562
#
# Poissons Ratio (x) = 0.12042 0.03606
# Poissons Ratio (y) = 0.16797 0.61388
# Poissons Ratio (z) = 0.02726 0.33277
#
# Static dielectric constant tensor:
#      x y z
#    x 3.599160 -0.138560 0.181060 
#    y -0.138560 3.099720 0.163190 
#    z 0.181060 0.163190 4.471790 
# 
# 
# High freq. dielectric constant tensor:
#      x y z
#    x 1.786660 -0.015200 0.007500 
#    y -0.015200 1.698780 0.016840 
#    z 0.007500 0.016840 1.783300 
# 
# From -- ./inp_files/84698.got.cif
#   From: 2010.06.25/outbox.cif.g09.slc.cpg/sg2_43_cif.got.tgz:84698.got - 2010.06.27 13:26:56.
