data_PCOD8026732
_publ_section_title
;
Structure prediction by ZEFSAII (Michael W. Deem and Ramdas Pophale) SiO2 
 PCOD8026732
Probable space group: P -1
;
_chemical_formula_sum "Si O2"
_cell_formula_units_Z 14
_cell_length_a 13.801108
_cell_length_b 8.849453
_cell_length_c 10.398414
_cell_angle_alpha 100.428363
_cell_angle_beta 124.777895
_cell_angle_gamma 38.259370
_cell_volume 549.860023
_symmetry_space_group_name_H-M "P -1"
_symmetry_group_IT_number 2
_symmetry_cell_setting 'triclinic'
loop_
_space_group_symop_operation_xyz
x,y,z
-x,-y,-z
loop_
_atom_site_type_symbol
_atom_site_label
_atom_site_fract_x
_atom_site_fract_y
_atom_site_fract_z
Si Si1 0.335656 0.632055 0.509718
Si Si2 0.156186 0.829519 0.730697
Si Si3 0.700062 0.292779 0.911218
Si Si4 0.946554 0.327757 0.521669
Si Si5 0.051705 0.687001 0.992428
Si Si6 0.397218 0.254737 0.387613
Si Si7 0.132777 0.258127 0.394055
O O1 0.500000 0.500000 0.500000
O O2 0.085002 0.970717 0.365373
O O3 0.298500 0.487940 0.448135
O O4 0.448463 0.554428 0.717500
O O5 0.141819 0.018877 0.693344
O O6 0.220540 0.630659 0.639521
O O7 0.323442 0.643930 0.946255
O O8 0.810335 0.310143 0.922105
O O9 0.826256 0.992210 0.935632
O O10 0.010107 0.342987 0.441290
O O11 0.854282 0.567465 0.578651
O O12 0.000492 0.649203 0.819296
O O13 0.208072 0.414645 0.165230
O O14 0.500000 0.000000 0.500000
O O15 0.618894 0.084091 0.462487
#
# Coordination Sequence:
#
# PCOD8026732 Si02
#       7
#     2   2   2   2   2   2   2
#     4  12  21  38  67  98 128 162 210 268 328 373
#     4  11  22  43  65  95 129 165 223 263 301 379
#     4  11  21  37  68 101 125 162 213 270 321 376
#     4  10  24  43  66  86 130 186 210 250 308 381
#     4  11  22  39  66  99 130 162 211 266 328 379
#     4  12  25  39  64 102 133 159 205 272 331 380
#     4  11  23  45  64  91 133 175 209 251 326 387
#
# _framework density 25.461029
#
# number of rings (size 3 to 8) (size 9 to 14) (size 15 to 20)
#    0.000    0.857    5.714    2.571    0.000    1.714 
#    0.000    8.571    0.000    0.000    0.000    0.000 
#    0.000    0.000    0.000    0.000    0.000    0.000 
#
# Total GULP energy -173509.896892 kJ/mol
# GULP energy per Si atom -12393.564064 kJ/mol
# Density = 2.540308 g / cm^3
# Si number density = 25.461029 Si / 1000 Ang^3
#
#
#
# Elastic Constant Matrix: (Units=GPa)
#
#
# Indices 1 2 3 4 5 6 
#
# 1 41.9116 15.1841 26.5870 -7.4292 9.7114 7.0749
# 2 15.1841 140.4115 46.9100 12.7325 4.7737 5.5000
# 3 26.5870 46.9100 179.5901 10.9968 -13.9173 -4.9265
# 4 -7.4292 12.7325 10.9968 40.2748 3.0475 -2.1534
# 5 9.7114 4.7737 -13.9173 3.0475 34.2623 -7.4629
# 6 7.0749 5.5000 -4.9265 -2.1534 -7.4629 32.3238
#
#
#
# Elastic Compliance Matrix: (Units=1/GPa)
#
#
# Indices 1 2 3 4 5 6 
#
# 1 0.036607 -0.001375 -0.007281 0.009789 -0.016644 -0.012079
# 2 -0.001375 0.008292 -0.002017 -0.002293 -0.001814 -0.001989
# 3 -0.007281 -0.002017 0.008025 -0.003174 0.006875 0.004536
# 4 0.009789 -0.002293 -0.003174 0.028633 -0.006700 -0.001875
# 5 -0.016644 -0.001814 0.006875 -0.006700 0.040578 0.013922
# 6 -0.012079 -0.001989 0.004536 -0.001875 0.013922 0.037700
#
#
# Mechanical properties :
#
#
# Convention : Reuss Voigt Hill
#
# Bulk Modulus (GPa) = 31.66757 59.91948 45.79353
# Shear Modulus (GPa) = 26.08157 39.58765 32.83461
#
# Velocity S-wave (km/s) = 3.20405 3.94741 3.59500
# Velocity P-wave (km/s) = 5.11396 6.66041 5.93774
#
# Compressibility (1/GPa) = 0.03157805
#
# Stress axis : x y z
#
# Youngs Moduli (GPa) = 27.31703 120.59730 124.61824
#
# Poissons Ratio (x) = 0.16581 0.90732
# Poissons Ratio (y) = 0.03756 0.25137
# Poissons Ratio (z) = 0.19889 0.24326
#
# Static dielectric constant tensor:
#      x y z
#    x 5.100420 -0.086950 0.127500 
#    y -0.086950 5.114330 0.136940 
#    z 0.127500 0.136940 4.711790 
# 
# 
# High freq. dielectric constant tensor:
#      x y z
#    x 2.051470 -0.003720 -0.008000 
#    y -0.003720 2.023620 0.014710 
#    z -0.008000 0.014710 2.009980 
# 
# From -- ./inp_files/257257.got.cif
#   From: 2010.06.25/outbox.cif.g09.slc.cpg/sg2_129_cif.got.tgz:257257.got - 2010.06.27 13:26:56.
