data_PCOD8026453
_publ_section_title
;
Structure prediction by ZEFSAII (Michael W. Deem and Ramdas Pophale) SiO2 
 PCOD8026453
Probable space group: P -1
;
_chemical_formula_sum "Si O2"
_cell_formula_units_Z 16
_cell_length_a 21.714224
_cell_length_b 8.920665
_cell_length_c 6.789621
_cell_angle_alpha 50.935843
_cell_angle_beta 98.849908
_cell_angle_gamma 126.462315
_cell_volume 768.278918
_symmetry_space_group_name_H-M "P -1"
_symmetry_group_IT_number 2
_symmetry_cell_setting 'triclinic'
loop_
_space_group_symop_operation_xyz
x,y,z
-x,-y,-z
loop_
_atom_site_type_symbol
_atom_site_label
_atom_site_fract_x
_atom_site_fract_y
_atom_site_fract_z
Si Si1 0.911544 0.387850 0.617436
Si Si2 0.510437 0.818806 0.254801
Si Si3 0.434169 0.263266 0.029423
Si Si4 0.639026 0.155890 0.364916
Si Si5 0.826376 0.482557 0.195565
Si Si6 0.828439 0.835896 0.191586
Si Si7 0.912032 0.743749 0.616246
Si Si8 0.351925 0.451998 0.741582
O O1 0.861384 0.365422 0.422839
O O2 0.920882 0.577805 0.619246
O O3 0.000000 0.500000 0.500000
O O4 0.867247 0.118230 0.920800
O O5 0.525880 0.688386 0.204702
O O6 0.428687 0.609162 0.504447
O O7 0.590019 0.985232 0.294144
O O8 0.500000 0.000000 0.000000
O O9 0.353002 0.235848 0.002806
O O10 0.500000 0.500000 0.000000
O O11 0.404319 0.003807 0.323560
O O12 0.730078 0.256748 0.307601
O O13 0.637534 0.384285 0.201173
O O14 0.847174 0.721481 0.122775
O O15 0.865999 0.578847 0.922559
O O16 0.863075 0.821131 0.424929
O O17 0.731311 0.667333 0.315562
O O18 0.000000 0.000000 0.500000
#
# Coordination Sequence:
#
# PCOD8026453 Si02
#       8
#     2   2   2   2   2   2   2   2
#     4  11  23  43  69  95 131 168 208 261 318 383
#     4  12  24  40  66  90 125 173 214 262 318 371
#     4  12  24  42  62  89 125 167 219 264 314 371
#     4  11  24  43  63  91 129 166 212 264 318 373
#     4  10  24  42  65  95 130 168 208 264 318 378
#     4  10  24  43  64  95 131 166 209 265 320 376
#     4  11  24  43  67  98 128 166 214 257 318 387
#     4  11  23  43  63  92 128 166 213 265 315 377
#
# _framework density 20.825769999999999
#
# number of rings (size 3 to 8) (size 9 to 14) (size 15 to 20)
#    0.000    1.000    2.500    3.750    1.750    7.000 
#    0.000    0.000    0.000    0.000    0.000    0.000 
#    0.000    0.000    0.000    0.000    0.000    0.000 
#
# Total GULP energy -198432.346624 kJ/mol
# GULP energy per Si atom -12402.021664 kJ/mol
# Density = 2.077837 g / cm^3
# Si number density = 20.825770 Si / 1000 Ang^3
#
#
#
# Elastic Constant Matrix: (Units=GPa)
#
#
# Indices 1 2 3 4 5 6 
#
# 1 145.7689 67.3520 47.9321 12.8318 5.5569 13.2119
# 2 67.3520 130.0465 55.3835 8.7183 -3.3491 15.5762
# 3 47.9321 55.3835 108.1310 12.4785 3.5198 7.4149
# 4 12.8318 8.7183 12.4785 36.5963 -1.3078 0.7057
# 5 5.5569 -3.3491 3.5198 -1.3078 44.3975 -3.8337
# 6 13.2119 15.5762 7.4149 0.7057 -3.8337 35.7223
#
#
#
# Elastic Compliance Matrix: (Units=1/GPa)
#
#
# Indices 1 2 3 4 5 6 
#
# 1 0.009662 -0.003918 -0.001905 -0.001829 -0.001546 -0.001599
# 2 -0.003918 0.011870 -0.004217 0.000089 0.001490 -0.002693
# 3 -0.001905 -0.004217 0.012608 -0.002666 -0.001170 -0.000147
# 4 -0.001829 0.000089 -0.002666 0.028888 0.001364 0.000767
# 5 -0.001546 0.001490 -0.001170 0.001364 0.023189 0.002627
# 6 -0.001599 -0.002693 -0.000147 0.000767 0.002627 0.030057
#
#
# Mechanical properties :
#
#
# Convention : Reuss Voigt Hill
#
# Bulk Modulus (GPa) = 71.12584 80.58685 75.85635
# Shear Modulus (GPa) = 35.45087 37.56179 36.50633
#
# Velocity S-wave (km/s) = 4.13032 4.25151 4.19136
# Velocity P-wave (km/s) = 7.54805 7.92971 7.74123
#
# Compressibility (1/GPa) = 0.01405959
#
# Stress axis : x y z
#
# Youngs Moduli (GPa) = 103.49914 84.24858 79.31488
#
# Poissons Ratio (x) = 0.33012 0.15109
# Poissons Ratio (y) = 0.40555 0.33445
# Poissons Ratio (z) = 0.19716 0.35525
#
# Static dielectric constant tensor:
#      x y z
#    x 3.868860 -0.012830 0.223550 
#    y -0.012830 3.849750 0.087270 
#    z 0.223550 0.087270 4.152950 
# 
# 
# High freq. dielectric constant tensor:
#      x y z
#    x 1.834930 0.001470 0.010080 
#    y 0.001470 1.819340 -0.002900 
#    z 0.010080 -0.002900 1.822820 
# 
# From -- ./inp_files/104554.got.cif
#   From: 2010.06.25/outbox.cif.g09.slc.cpg/sg2_53_cif.got.tgz:104554.got - 2010.06.27 13:26:56.
