data_PCOD8026195
_publ_section_title
;
Structure prediction by ZEFSAII (Michael W. Deem and Ramdas Pophale) SiO2 
 PCOD8026195
Probable space group: P -1
;
_chemical_formula_sum "Si O2"
_cell_formula_units_Z 14
_cell_length_a 13.051496
_cell_length_b 8.837392
_cell_length_c 13.805005
_cell_angle_alpha 98.326726
_cell_angle_beta 148.623707
_cell_angle_gamma 101.231584
_cell_volume 644.845051
_symmetry_space_group_name_H-M "P -1"
_symmetry_group_IT_number 2
_symmetry_cell_setting 'triclinic'
loop_
_space_group_symop_operation_xyz
x,y,z
-x,-y,-z
loop_
_atom_site_type_symbol
_atom_site_label
_atom_site_fract_x
_atom_site_fract_y
_atom_site_fract_z
Si Si1 0.100227 0.127075 0.190099
Si Si2 0.472105 0.188069 0.949042
Si Si3 0.034846 0.589180 0.896206
Si Si4 0.803789 0.547762 0.142754
Si Si5 0.710087 0.189984 0.318018
Si Si6 0.738948 0.832508 0.032663
Si Si7 0.390855 0.780333 0.371427
O O1 0.393196 0.239476 0.444484
O O2 0.080270 0.298516 0.187967
O O3 0.966744 0.994959 0.165248
O O4 0.000000 0.000000 0.000000
O O5 0.550864 0.386667 0.982724
O O6 0.713926 0.242980 0.212251
O O7 0.242933 0.105335 0.833243
O O8 0.402052 0.035814 0.793885
O O9 0.112058 0.569053 0.851115
O O10 0.835936 0.368931 0.753628
O O11 0.288063 0.718777 0.174515
O O12 0.742049 0.648930 0.022874
O O13 0.021721 0.696387 0.406994
O O14 0.520178 0.217138 0.223947
O O15 0.500000 0.000000 0.500000
#
# Coordination Sequence:
#
# PCOD8026195 Si02
#       7
#     2   2   2   2   2   2   2
#     4  12  25  44  72  93 134 180 219 271 335 388
#     4   9  21  45  63  96 133 166 220 265 325 393
#     4  11  27  42  69 101 129 175 224 268 340 387
#     4  12  23  40  70  96 129 173 214 270 333 386
#     4   9  22  42  66  90 137 165 215 267 325 388
#     4  10  24  40  64 100 128 170 222 264 322 394
#     4  11  24  47  68  94 134 170 223 279 321 394
#
# _framework density 21.710642
#
# number of rings (size 3 to 8) (size 9 to 14) (size 15 to 20)
#    0.857    0.571    1.429    3.000    4.000    5.143 
#    0.000    0.000    0.000    0.000    0.000    0.000 
#    0.000    0.000    0.000    0.000    0.000    0.000 
#
# Total GULP energy -173484.322611 kJ/mol
# GULP energy per Si atom -12391.737329 kJ/mol
# Density = 2.166123 g / cm^3
# Si number density = 21.710642 Si / 1000 Ang^3
#
#
#
# Elastic Constant Matrix: (Units=GPa)
#
#
# Indices 1 2 3 4 5 6 
#
# 1 89.7448 31.5637 40.9306 7.6110 -7.3259 -4.2035
# 2 31.5637 119.2642 48.9007 13.8821 -8.6796 -13.6129
# 3 40.9306 48.9007 115.6527 5.2217 -3.1157 -2.0723
# 4 7.6110 13.8821 5.2217 31.0860 -4.5509 8.2954
# 5 -7.3259 -8.6796 -3.1157 -4.5509 21.1482 -0.0702
# 6 -4.2035 -13.6129 -2.0723 8.2954 -0.0702 42.4969
#
#
#
# Elastic Compliance Matrix: (Units=1/GPa)
#
#
# Indices 1 2 3 4 5 6 
#
# 1 0.014023 -0.001414 -0.004171 -0.001922 0.003253 0.001111
# 2 -0.001414 0.011702 -0.004073 -0.004977 0.002656 0.004386
# 3 -0.004171 -0.004073 0.011741 0.001058 -0.001163 -0.001353
# 4 -0.001922 -0.004977 0.001058 0.037937 0.005581 -0.009129
# 5 0.003253 0.002656 -0.001163 0.005581 0.050532 0.000110
# 6 0.001111 0.004386 -0.001353 -0.009129 0.000110 0.026762
#
#
# Mechanical properties :
#
#
# Convention : Reuss Voigt Hill
#
# Bulk Modulus (GPa) = 55.09136 63.05018 59.07077
# Shear Modulus (GPa) = 28.07999 32.49734 30.28867
#
# Velocity S-wave (km/s) = 3.60025 3.87310 3.73917
# Velocity P-wave (km/s) = 6.53550 7.00752 6.77562
#
# Compressibility (1/GPa) = 0.01815167
#
# Stress axis : x y z
#
# Youngs Moduli (GPa) = 71.31316 85.45501 85.16980
#
# Poissons Ratio (x) = 0.12082 0.35521
# Poissons Ratio (y) = 0.10083 0.34687
# Poissons Ratio (z) = 0.29742 0.34803
#
# Static dielectric constant tensor:
#      x y z
#    x 3.481790 -0.431730 0.061510 
#    y -0.431730 3.645440 -0.020980 
#    z 0.061510 -0.020980 3.702050 
# 
# 
# High freq. dielectric constant tensor:
#      x y z
#    x 1.851170 -0.006320 0.002580 
#    y -0.006320 1.868750 -0.000500 
#    z 0.002580 -0.000500 1.833050 
# 
# From -- ./inp_files/529930.got.cif
#   From: 2010.06.25/outbox.cif.g09.slc.cpg/sg2_265_cif.got.tgz:529930.got - 2010.06.27 13:26:56.
