data_PCOD8026493
_publ_section_title
;
Structure prediction by ZEFSAII (Michael W. Deem and Ramdas Pophale) SiO2 
 PCOD8026493
Probable space group: P -1
;
_chemical_formula_sum "Si O2"
_cell_formula_units_Z 16
_cell_length_a 15.239004
_cell_length_b 12.824297
_cell_length_c 9.173433
_cell_angle_alpha 47.088878
_cell_angle_beta 134.796961
_cell_angle_gamma 141.282323
_cell_volume 760.204450
_symmetry_space_group_name_H-M "P -1"
_symmetry_group_IT_number 2
_symmetry_cell_setting 'triclinic'
loop_
_space_group_symop_operation_xyz
x,y,z
-x,-y,-z
loop_
_atom_site_type_symbol
_atom_site_label
_atom_site_fract_x
_atom_site_fract_y
_atom_site_fract_z
Si Si1 0.043271 0.686514 0.417340
Si Si2 0.625591 0.605619 0.348416
Si Si3 0.681593 0.080463 0.290929
Si Si4 0.341503 0.238504 0.352166
Si Si5 0.855756 0.088974 0.956016
Si Si6 0.897497 0.826113 0.640810
Si Si7 0.399778 0.081329 0.960560
Si Si8 0.780065 0.732199 0.117923
O O1 0.151151 0.758488 0.617124
O O2 0.137630 0.814852 0.272471
O O3 0.000000 0.500000 0.500000
O O4 0.893274 0.676621 0.282285
O O5 0.488878 0.414650 0.423621
O O6 0.781397 0.662443 0.557436
O O7 0.652487 0.605108 0.207522
O O8 0.587710 0.742083 0.218626
O O9 0.566928 0.133334 0.135383
O O10 0.624995 0.907246 0.485655
O O11 0.681939 0.043987 0.154688
O O12 0.198676 0.149805 0.376787
O O13 0.305720 0.290770 0.109316
O O14 0.697881 0.019194 0.915106
O O15 0.995351 0.214670 0.109814
O O16 0.872326 0.931984 0.088770
O O17 0.000000 0.000000 0.500000
#
# Coordination Sequence:
#
# PCOD8026493 Si02
#       8
#     2   2   2   2   2   2   2   2
#     4  12  27  44  65  96 132 177 220 274 331 393
#     4  11  25  40  70 102 130 171 223 275 322 387
#     4  11  24  43  66  91 135 174 214 266 340 389
#     4  12  23  42  68  98 132 173 222 274 325 387
#     4  11  22  43  69  97 126 175 222 274 324 395
#     4  12  21  38  69  99 130 168 221 274 324 384
#     4  10  24  42  66  95 132 173 218 263 336 397
#     4  11  23  43  69  96 129 169 229 270 330 389
#
# _framework density 21.046970000000002
#
# number of rings (size 3 to 8) (size 9 to 14) (size 15 to 20)
#    0.000    0.750    6.250    1.875    3.500    1.500 
#    2.250    0.625    0.000    0.000    0.000    0.000 
#    0.000    0.000    0.000    0.000    0.000    0.000 
#
# Total GULP energy -198445.236954 kJ/mol
# GULP energy per Si atom -12402.827310 kJ/mol
# Density = 2.099907 g / cm^3
# Si number density = 21.046970 Si / 1000 Ang^3
#
#
#
# Elastic Constant Matrix: (Units=GPa)
#
#
# Indices 1 2 3 4 5 6 
#
# 1 97.9154 30.4701 23.1079 -10.0446 -0.3165 -5.5965
# 2 30.4701 107.6491 17.7691 5.6019 9.7632 -1.6484
# 3 23.1079 17.7691 65.1620 13.7875 4.9094 -6.6364
# 4 -10.0446 5.6019 13.7875 38.3321 -2.3361 0.1382
# 5 -0.3165 9.7632 4.9094 -2.3361 30.9949 -3.5287
# 6 -5.5965 -1.6484 -6.6364 0.1382 -3.5287 27.6252
#
#
#
# Elastic Compliance Matrix: (Units=1/GPa)
#
#
# Indices 1 2 3 4 5 6 
#
# 1 0.013168 -0.003420 -0.005027 0.005913 0.002632 0.001562
# 2 -0.003420 0.010865 -0.001069 -0.002313 -0.003547 -0.000743
# 3 -0.005027 -0.001069 0.019787 -0.008480 -0.003110 0.003316
# 4 0.005913 -0.002313 -0.008480 0.031297 0.004426 -0.000568
# 5 0.002632 -0.003547 -0.003110 0.004426 0.034687 0.003983
# 6 0.001562 -0.000743 0.003316 -0.000568 0.003983 0.037779
#
#
# Mechanical properties :
#
#
# Convention : Reuss Voigt Hill
#
# Bulk Modulus (GPa) = 40.34364 45.93564 43.13964
# Shear Modulus (GPa) = 28.59137 32.68242 30.63689
#
# Velocity S-wave (km/s) = 3.68972 3.94487 3.81943
# Velocity P-wave (km/s) = 6.11245 6.52856 6.32393
#
# Compressibility (1/GPa) = 0.02478705
#
# Stress axis : x y z
#
# Youngs Moduli (GPa) = 75.94165 92.04271 50.53818
#
# Poissons Ratio (x) = 0.31477 0.25408
# Poissons Ratio (y) = 0.25971 0.05402
# Poissons Ratio (z) = 0.38179 0.09839
#
# Static dielectric constant tensor:
#      x y z
#    x 3.858120 -0.018130 -0.148250 
#    y -0.018130 3.739660 0.221530 
#    z -0.148250 0.221530 4.019420 
# 
# 
# High freq. dielectric constant tensor:
#      x y z
#    x 1.828580 0.004970 -0.011750 
#    y 0.004970 1.814320 0.021790 
#    z -0.011750 0.021790 1.829670 
# 
# From -- ./inp_files/306605.got.cif
#   From: 2010.06.25/outbox.cif.g09.slc.cpg/sg2_154_cif.got.tgz:306605.got - 2010.06.27 13:26:56.
