data_PCOD8026675
_publ_section_title
;
Structure prediction by ZEFSAII (Michael W. Deem and Ramdas Pophale) SiO2 
 PCOD8026675
Probable space group: P -1
;
_chemical_formula_sum "Si O2"
_cell_formula_units_Z 16
_cell_length_a 13.277165
_cell_length_b 9.811877
_cell_length_c 9.133919
_cell_angle_alpha 137.294821
_cell_angle_beta 110.751811
_cell_angle_gamma 64.193819
_cell_volume 725.390189
_symmetry_space_group_name_H-M "P -1"
_symmetry_group_IT_number 2
_symmetry_cell_setting 'triclinic'
loop_
_space_group_symop_operation_xyz
x,y,z
-x,-y,-z
loop_
_atom_site_type_symbol
_atom_site_label
_atom_site_fract_x
_atom_site_fract_y
_atom_site_fract_z
Si Si1 0.162908 0.737031 0.535162
Si Si2 0.316934 0.833867 0.916189
Si Si3 0.306964 0.853015 0.465706
Si Si4 0.749083 0.340963 0.971885
Si Si5 0.047631 0.047778 0.218554
Si Si6 0.225072 0.259303 0.552453
Si Si7 0.508576 0.262590 0.298206
Si Si8 0.732698 0.711692 0.718781
O O1 0.260754 0.701014 0.677092
O O2 0.196906 0.854623 0.506882
O O3 0.172315 0.487643 0.320631
O O4 0.047431 0.881331 0.651029
O O5 0.439035 0.822332 0.901101
O O6 0.324486 0.729473 0.996421
O O7 0.233898 0.071265 0.067850
O O8 0.325273 0.648673 0.206478
O O9 0.412967 0.854270 0.620461
O O10 0.287164 0.054925 0.512508
O O11 0.864678 0.165978 0.857319
O O12 0.785779 0.548561 0.190206
O O13 0.107687 0.236975 0.404354
O O14 0.000000 0.000000 0.000000
O O15 0.292384 0.303110 0.479703
O O16 0.500000 0.500000 0.500000
O O17 0.384652 0.240429 0.219106
#
# Coordination Sequence:
#
# PCOD8026675 Si02
#       8
#     2   2   2   2   2   2   2   2
#     4  11  23  41  67  94 130 168 217 267 313 380
#     4  11  21  41  63  94 128 166 213 265 312 385
#     4  10  24  43  62  93 134 165 212 265 325 379
#     4  11  22  43  62  93 139 168 208 269 321 378
#     4  11  21  40  68  99 127 171 218 262 316 380
#     4  11  23  41  65  94 136 169 210 265 324 379
#     4  11  22  43  68  92 129 169 212 268 321 379
#     4  12  21  41  67  93 126 170 216 265 318 376
#
# _framework density 22.057093999999999
#
# number of rings (size 3 to 8) (size 9 to 14) (size 15 to 20)
#    0.000    1.000    7.500    0.375    0.000    7.500 
#    2.250    2.500    0.000    0.000    0.000    0.000 
#    0.000    0.000    0.000    0.000    0.000    0.000 
#
# Total GULP energy -198211.285394 kJ/mol
# GULP energy per Si atom -12388.205337 kJ/mol
# Density = 2.200689 g / cm^3
# Si number density = 22.057094 Si / 1000 Ang^3
#
#
#
# Elastic Constant Matrix: (Units=GPa)
#
#
# Indices 1 2 3 4 5 6 
#
# 1 78.6489 15.9951 23.8986 -10.6768 -19.0886 4.8605
# 2 15.9951 73.4272 9.3535 3.9983 -7.9264 7.3176
# 3 23.8986 9.3535 114.0956 9.7930 -1.8627 1.0012
# 4 -10.6768 3.9983 9.7930 40.8105 4.7745 -1.7599
# 5 -19.0886 -7.9264 -1.8627 4.7745 39.1881 -1.1545
# 6 4.8605 7.3176 1.0012 -1.7599 -1.1545 23.5138
#
#
#
# Elastic Compliance Matrix: (Units=1/GPa)
#
#
# Indices 1 2 3 4 5 6 
#
# 1 0.016706 -0.002513 -0.003559 0.004591 0.006847 -0.001840
# 2 -0.002513 0.014984 -0.000424 -0.002435 0.001959 -0.004212
# 3 -0.003559 -0.000424 0.009795 -0.003120 -0.000969 0.000170
# 4 0.004591 -0.002435 -0.003120 0.026964 -0.001634 0.001879
# 5 0.006847 0.001959 -0.000969 -0.001634 0.029383 -0.000663
# 6 -0.001840 -0.004212 0.000170 0.001879 -0.000663 0.044320
#
#
# Mechanical properties :
#
#
# Convention : Reuss Voigt Hill
#
# Bulk Modulus (GPa) = 35.09736 40.51844 37.80790
# Shear Modulus (GPa) = 30.36878 35.16414 32.76646
#
# Velocity S-wave (km/s) = 3.71459 3.99712 3.85844
# Velocity P-wave (km/s) = 5.86039 6.30177 6.08508
#
# Compressibility (1/GPa) = 0.02849217
#
# Stress axis : x y z
#
# Youngs Moduli (GPa) = 59.85864 66.73701 102.08944
#
# Poissons Ratio (x) = 0.16773 0.36337
# Poissons Ratio (y) = 0.15044 0.04329
# Poissons Ratio (z) = 0.21306 0.02830
#
# Static dielectric constant tensor:
#      x y z
#    x 3.280340 0.145370 -0.523060 
#    y 0.145370 3.850280 -0.098520 
#    z -0.523060 -0.098520 4.294260 
# 
# 
# High freq. dielectric constant tensor:
#      x y z
#    x 1.855160 0.022810 -0.010950 
#    y 0.022810 1.852090 0.009510 
#    z -0.010950 0.009510 1.888290 
# 
# From -- ./inp_files/299710.got.cif
#   From: 2010.06.25/outbox.cif.g09.slc.cpg/sg2_150_cif.got.tgz:299710.got - 2010.06.27 13:26:56.
