data_PCOD8026524
_publ_section_title
;
Structure prediction by ZEFSAII (Michael W. Deem and Ramdas Pophale) SiO2 
 PCOD8026524
Probable space group: P -1
;
_chemical_formula_sum "Si O2"
_cell_formula_units_Z 14
_cell_length_a 8.454106
_cell_length_b 12.253879
_cell_length_c 15.119448
_cell_angle_alpha 149.111520
_cell_angle_beta 48.033588
_cell_angle_gamma 126.293354
_cell_volume 597.203226
_symmetry_space_group_name_H-M "P -1"
_symmetry_group_IT_number 2
_symmetry_cell_setting 'triclinic'
loop_
_space_group_symop_operation_xyz
x,y,z
-x,-y,-z
loop_
_atom_site_type_symbol
_atom_site_label
_atom_site_fract_x
_atom_site_fract_y
_atom_site_fract_z
Si Si1 0.316185 0.316804 0.867853
Si Si2 0.850809 0.135858 0.921482
Si Si3 0.513460 0.357283 0.481858
Si Si4 0.267333 0.766744 0.267694
Si Si5 0.762017 0.994135 0.050960
Si Si6 0.135920 0.090457 0.405285
Si Si7 0.510954 0.424818 0.181617
O O1 0.487923 0.173607 0.754488
O O2 0.426678 0.397293 0.791121
O O3 0.103124 0.170983 0.835960
O O4 0.249618 0.511835 0.089931
O O5 0.789958 0.931520 0.739669
O O6 0.731108 0.338658 0.074115
O O7 0.765234 0.083495 0.013302
O O8 0.500000 0.500000 0.500000
O O9 0.269462 0.276712 0.535814
O O10 0.601907 0.471821 0.618086
O O11 0.643379 0.149397 0.268527
O O12 0.110974 0.854009 0.461539
O O13 0.190035 0.865258 0.273018
O O14 0.648145 0.757562 0.929069
O O15 0.000000 0.000000 0.000000
#
# Coordination Sequence:
#
# PCOD8026524 Si02
#       7
#     2   2   2   2   2   2   2
#     4  11  25  42  71 106 140 181 236 296 351 413
#     4  12  24  43  73 102 143 186 233 287 355 417
#     4  12  25  44  76 100 137 189 240 285 344 426
#     4  10  24  42  67  99 147 178 229 290 358 410
#     4  12  29  48  72 104 146 186 234 297 354 416
#     4  11  24  43  70 101 141 186 234 283 355 422
#     4  12  25  48  74 104 143 186 242 289 352 424
#
# _framework density 23.442603999999999
#
# number of rings (size 3 to 8) (size 9 to 14) (size 15 to 20)
#    0.000    0.571    4.286    2.571   10.000    2.286 
#    0.000    0.000    0.000    0.000    0.000    0.000 
#    0.000    0.000    0.000    0.000    0.000    0.000 
#
# Total GULP energy -173552.070194 kJ/mol
# GULP energy per Si atom -12396.576442 kJ/mol
# Density = 2.338925 g / cm^3
# Si number density = 23.442604 Si / 1000 Ang^3
#
#
#
# Elastic Constant Matrix: (Units=GPa)
#
#
# Indices 1 2 3 4 5 6 
#
# 1 100.8045 5.7823 55.9548 -9.6509 -16.3254 12.4845
# 2 5.7823 72.0839 25.0089 -13.6229 -0.5040 4.6540
# 3 55.9548 25.0089 136.0800 -18.1805 6.1002 -5.1063
# 4 -9.6509 -13.6229 -18.1805 30.5839 -4.0609 8.6074
# 5 -16.3254 -0.5040 6.1002 -4.0609 44.1777 -6.0599
# 6 12.4845 4.6540 -5.1063 8.6074 -6.0599 40.3966
#
#
#
# Elastic Compliance Matrix: (Units=1/GPa)
#
#
# Indices 1 2 3 4 5 6 
#
# 1 0.015799 0.002398 -0.006845 0.004531 0.006400 -0.006030
# 2 0.002398 0.016553 -0.003243 0.007669 0.001617 -0.004450
# 3 -0.006845 -0.003243 0.011268 0.001778 -0.003547 0.003002
# 4 0.004531 0.007669 0.001778 0.042059 0.003952 -0.010428
# 5 0.006400 0.001617 -0.003547 0.003952 0.025932 0.000435
# 6 -0.006030 -0.004450 0.003002 -0.010428 0.000435 0.029797
#
#
# Mechanical properties :
#
#
# Convention : Reuss Voigt Hill
#
# Bulk Modulus (GPa) = 35.40957 53.60672 44.50814
# Shear Modulus (GPa) = 30.08341 37.84645 33.96493
#
# Velocity S-wave (km/s) = 3.58618 4.02236 3.81051
# Velocity P-wave (km/s) = 5.68200 6.67003 6.19574
#
# Compressibility (1/GPa) = 0.02824095
#
# Stress axis : x y z
#
# Youngs Moduli (GPa) = 63.29370 60.41021 88.74325
#
# Poissons Ratio (x) = -0.14486 0.60745
# Poissons Ratio (y) = -0.15177 0.28780
# Poissons Ratio (z) = 0.43325 0.19591
#
# Static dielectric constant tensor:
#      x y z
#    x 4.409560 -0.014300 0.177930 
#    y -0.014300 4.267700 -0.426410 
#    z 0.177930 -0.426410 4.209410 
# 
# 
# High freq. dielectric constant tensor:
#      x y z
#    x 1.932680 -0.000980 0.002390 
#    y -0.000980 1.922010 -0.012770 
#    z 0.002390 -0.012770 1.936360 
# 
# From -- ./inp_files/296856.got.cif
#   From: 2010.06.25/outbox.cif.g09.slc.cpg/sg2_149_cif.got.tgz:296856.got - 2010.06.27 13:26:56.
