data_PCOD8026826
_publ_section_title
;
Structure prediction by ZEFSAII (Michael W. Deem and Ramdas Pophale) SiO2 
 PCOD8026826
Probable space group: P -1
;
_chemical_formula_sum "Si O2"
_cell_formula_units_Z 14
_cell_length_a 15.564949
_cell_length_b 12.990500
_cell_length_c 9.563896
_cell_angle_alpha 45.314673
_cell_angle_beta 57.257449
_cell_angle_gamma 27.964332
_cell_volume 625.761209
_symmetry_space_group_name_H-M "P -1"
_symmetry_group_IT_number 2
_symmetry_cell_setting 'triclinic'
loop_
_space_group_symop_operation_xyz
x,y,z
-x,-y,-z
loop_
_atom_site_type_symbol
_atom_site_label
_atom_site_fract_x
_atom_site_fract_y
_atom_site_fract_z
Si Si1 0.618666 0.271987 0.226171
Si Si2 0.019132 0.835619 0.768633
Si Si3 0.745667 0.680654 0.431313
Si Si4 0.344017 0.084418 0.435033
Si Si5 0.990397 0.477170 0.867750
Si Si6 0.975222 0.124754 0.766772
Si Si7 0.682716 0.312426 0.427572
O O1 0.594136 0.374270 0.299288
O O2 0.549023 0.190958 0.354579
O O3 0.500000 0.500000 0.000000
O O4 0.841456 0.994374 0.272424
O O5 0.227621 0.630349 0.717974
O O6 0.958902 0.037465 0.732241
O O7 0.861715 0.006636 0.620924
O O8 0.024241 0.678217 0.996162
O O9 0.788077 0.694666 0.534941
O O10 0.838437 0.659026 0.242516
O O11 0.801828 0.443603 0.607068
O O12 0.518752 0.976192 0.335513
O O13 0.205833 0.219503 0.298572
O O14 0.000000 0.500000 0.000000
O O15 0.000000 0.000000 0.000000
O O16 0.500000 0.500000 0.500000
#
# Coordination Sequence:
#
# PCOD8026826 Si02
#       7
#     2   2   2   2   2   2   2
#     4  11  24  41  68 105 133 170 232 285 338 411
#     4  10  25  43  67 101 137 175 232 279 335 416
#     4  11  26  45  71  98 138 186 228 288 350 405
#     4  11  25  46  69  98 140 177 238 285 343 416
#     4  12  26  44  71 101 143 185 226 281 355 414
#     4  11  23  42  71 101 134 180 230 286 347 397
#     4  10  24  43  68  98 136 178 225 280 344 398
#
# _framework density 22.372751000000001
#
# number of rings (size 3 to 8) (size 9 to 14) (size 15 to 20)
#    0.000    1.143    1.429    3.000   10.000    5.143 
#    0.000    0.000    0.000    0.000    0.000    0.000 
#    0.000    0.000    0.000    0.000    0.000    0.000 
#
# Total GULP energy -173437.739417 kJ/mol
# GULP energy per Si atom -12388.409958 kJ/mol
# Density = 2.232183 g / cm^3
# Si number density = 22.372751 Si / 1000 Ang^3
#
#
#
# Elastic Constant Matrix: (Units=GPa)
#
#
# Indices 1 2 3 4 5 6 
#
# 1 113.1992 59.2774 58.6458 5.9698 7.5184 5.6049
# 2 59.2774 133.2102 66.0482 25.9217 0.1889 -16.3447
# 3 58.6458 66.0482 148.9541 15.5226 -5.6675 8.6552
# 4 5.9698 25.9217 15.5226 40.6563 0.7711 -9.6530
# 5 7.5184 0.1889 -5.6675 0.7711 52.2205 2.9370
# 6 5.6049 -16.3447 8.6552 -9.6530 2.9370 25.0832
#
#
#
# Elastic Compliance Matrix: (Units=1/GPa)
#
#
# Indices 1 2 3 4 5 6 
#
# 1 0.013444 -0.005453 -0.002827 0.001485 -0.001976 -0.004779
# 2 -0.005453 0.014141 -0.004308 -0.004103 -0.000256 0.010370
# 3 -0.002827 -0.004308 0.010485 -0.002542 0.001992 -0.007005
# 4 0.001485 -0.004103 -0.002542 0.030297 -0.001468 0.009703
# 5 -0.001976 -0.000256 0.001992 -0.001468 0.019859 -0.003303
# 6 -0.004779 0.010370 -0.007005 0.009703 -0.003303 0.054230
#
#
# Mechanical properties :
#
#
# Convention : Reuss Voigt Hill
#
# Bulk Modulus (GPa) = 77.56500 84.81180 81.18840
# Shear Modulus (GPa) = 29.08180 37.68481 33.38331
#
# Velocity S-wave (km/s) = 3.60929 4.10861 3.86702
# Velocity P-wave (km/s) = 7.21900 7.77807 7.50374
#
# Compressibility (1/GPa) = 0.01289241
#
# Stress axis : x y z
#
# Youngs Moduli (GPa) = 74.38352 70.71787 95.37836
#
# Poissons Ratio (x) = 0.38563 0.26967
# Poissons Ratio (y) = 0.40562 0.41088
# Poissons Ratio (z) = 0.21031 0.30465
#
# Static dielectric constant tensor:
#      x y z
#    x 4.203260 -0.209800 -0.052590 
#    y -0.209800 4.039540 0.219170 
#    z -0.052590 0.219170 4.154210 
# 
# 
# High freq. dielectric constant tensor:
#      x y z
#    x 1.894530 -0.012930 0.000520 
#    y -0.012930 1.876520 0.013380 
#    z 0.000520 0.013380 1.888960 
# 
# From -- ./inp_files/306461.got.cif
#   From: 2010.06.25/outbox.cif.g09.slc.cpg/sg2_154_cif.got.tgz:306461.got - 2010.06.27 13:26:56.
