data_PCOD8026067
_publ_section_title
;
Structure prediction by ZEFSAII (Michael W. Deem and Ramdas Pophale) SiO2 
 PCOD8026067
Probable space group: P -1
;
_chemical_formula_sum "Si O2"
_cell_formula_units_Z 16
_cell_length_a 14.378034
_cell_length_b 11.335796
_cell_length_c 11.606143
_cell_angle_alpha 97.029001
_cell_angle_beta 30.739080
_cell_angle_gamma 117.164617
_cell_volume 692.146140
_symmetry_space_group_name_H-M "P -1"
_symmetry_group_IT_number 2
_symmetry_cell_setting 'triclinic'
loop_
_space_group_symop_operation_xyz
x,y,z
-x,-y,-z
loop_
_atom_site_type_symbol
_atom_site_label
_atom_site_fract_x
_atom_site_fract_y
_atom_site_fract_z
Si Si1 0.525003 0.642427 0.809343
Si Si2 0.194808 0.629089 0.972500
Si Si3 0.237312 0.817362 0.522847
Si Si4 0.736778 0.321647 0.738422
Si Si5 0.645239 0.301148 0.440784
Si Si6 0.278453 0.299664 0.963401
Si Si7 0.949744 0.013239 0.682889
Si Si8 0.335296 0.884901 0.008412
O O1 0.339584 0.612155 0.907337
O O2 0.811994 0.808995 0.493226
O O3 0.468265 0.673075 0.000601
O O4 0.472025 0.476142 0.846200
O O5 0.366078 0.716948 0.686324
O O6 0.156935 0.738254 0.088580
O O7 0.920939 0.460360 0.211912
O O8 0.256401 0.709701 0.406246
O O9 0.390875 0.844379 0.477311
O O10 0.951155 0.725797 0.847987
O O11 0.376909 0.992523 0.333124
O O12 0.693427 0.181333 0.841529
O O13 0.000000 0.500000 0.500000
O O14 0.432607 0.301934 0.699688
O O15 0.146419 0.145335 0.167647
O O16 0.718600 0.999890 0.920017
O O17 0.000000 0.000000 0.500000
#
# Coordination Sequence:
#
# PCOD8026067 Si02
#       8
#     2   2   2   2   2   2   2   2
#     4  11  24  43  70 100 140 185 228 287 346 413
#     4  10  23  48  69  98 135 180 235 287 352 402
#     4  12  22  44  67 100 141 177 229 286 345 411
#     4  11  21  40  67  96 133 182 224 274 349 411
#     4  11  24  45  72  99 135 179 234 291 340 418
#     4  12  24  44  70 107 137 182 237 280 349 413
#     4  12  26  44  65 108 147 180 232 284 342 421
#     4  11  23  43  66  95 142 182 225 289 347 405
#
# _framework density 23.116506000000001
#
# number of rings (size 3 to 8) (size 9 to 14) (size 15 to 20)
#    0.000    0.750    3.750    4.875    0.000    1.500 
#    2.250    1.250    0.000    0.000    0.000    0.000 
#    0.000    0.000    0.000    0.000    0.000    0.000 
#
# Total GULP energy -198290.878801 kJ/mol
# GULP energy per Si atom -12393.179925 kJ/mol
# Density = 2.306389 g / cm^3
# Si number density = 23.116506 Si / 1000 Ang^3
#
#
#
# Elastic Constant Matrix: (Units=GPa)
#
#
# Indices 1 2 3 4 5 6 
#
# 1 57.3280 15.8459 35.1377 14.8868 8.4314 -2.8907
# 2 15.8459 77.3230 17.4738 -3.9168 4.1951 -24.5579
# 3 35.1377 17.4738 107.7789 3.2729 3.9886 -12.4347
# 4 14.8868 -3.9168 3.2729 55.2391 1.8390 5.1073
# 5 8.4314 4.1951 3.9886 1.8390 36.3541 -1.1846
# 6 -2.8907 -24.5579 -12.4347 5.1073 -1.1846 27.1906
#
#
#
# Elastic Compliance Matrix: (Units=1/GPa)
#
#
# Indices 1 2 3 4 5 6 
#
# 1 0.025556 -0.004940 -0.007673 -0.006244 -0.004338 -0.004271
# 2 -0.004940 0.019295 0.000415 0.001138 -0.000635 0.016850
# 3 -0.007673 0.000415 0.012245 0.000891 0.000507 0.005014
# 4 -0.006244 0.001138 0.000891 0.020087 0.000105 -0.002997
# 5 -0.004338 -0.000635 0.000507 0.000105 0.028539 0.000421
# 6 -0.004271 0.016850 0.005014 -0.002997 0.000421 0.054416
#
#
# Mechanical properties :
#
#
# Convention : Reuss Voigt Hill
#
# Bulk Modulus (GPa) = 30.58127 42.14942 36.36535
# Shear Modulus (GPa) = 25.58378 35.35493 30.46935
#
# Velocity S-wave (km/s) = 3.33037 3.91503 3.63447
# Velocity P-wave (km/s) = 5.29588 6.22171 5.77737
#
# Compressibility (1/GPa) = 0.03269976
#
# Stress axis : x y z
#
# Youngs Moduli (GPa) = 39.12920 51.82667 81.66456
#
# Poissons Ratio (x) = 0.25605 0.62664
# Poissons Ratio (y) = 0.19332 -0.03392
# Poissons Ratio (z) = 0.30025 -0.02153
#
# Static dielectric constant tensor:
#      x y z
#    x 4.093870 0.027900 0.036130 
#    y 0.027900 4.392740 -0.088780 
#    z 0.036130 -0.088780 4.862910 
# 
# 
# High freq. dielectric constant tensor:
#      x y z
#    x 1.892980 -0.008200 0.004080 
#    y -0.008200 1.921350 -0.014910 
#    z 0.004080 -0.014910 1.931890 
# 
# From -- ./inp_files/433667.got.cif
#   From: 2010.06.25/outbox.cif.g09.slc.cpg/sg2_217_cif.got.tgz:433667.got - 2010.06.27 13:26:56.
