data_PCOD8026218
_publ_section_title
;
Structure prediction by ZEFSAII (Michael W. Deem and Ramdas Pophale) SiO2 
 PCOD8026218
Probable space group: P -1
;
_chemical_formula_sum "Si O2"
_cell_formula_units_Z 14
_cell_length_a 13.885118
_cell_length_b 11.818532
_cell_length_c 11.017210
_cell_angle_alpha 105.796733
_cell_angle_beta 71.647281
_cell_angle_gamma 159.452361
_cell_volume 600.897834
_symmetry_space_group_name_H-M "P -1"
_symmetry_group_IT_number 2
_symmetry_cell_setting 'triclinic'
loop_
_space_group_symop_operation_xyz
x,y,z
-x,-y,-z
loop_
_atom_site_type_symbol
_atom_site_label
_atom_site_fract_x
_atom_site_fract_y
_atom_site_fract_z
Si Si1 0.924273 0.824336 0.307442
Si Si2 0.475495 0.356181 0.157074
Si Si3 0.384495 0.671030 0.102642
Si Si4 0.687731 0.569038 0.730454
Si Si5 0.554340 0.294934 0.479634
Si Si6 0.958804 0.399052 0.119900
Si Si7 0.010465 0.594374 0.404641
O O1 0.751092 0.616203 0.193466
O O2 0.732292 0.587385 0.427089
O O3 0.193823 0.028916 0.252686
O O4 0.030439 0.075383 0.342464
O O5 0.482308 0.503808 0.165820
O O6 0.459385 0.258188 0.017873
O O7 0.223814 0.429219 0.202563
O O8 0.155588 0.497091 0.069299
O O9 0.632418 0.020117 0.157792
O O10 0.492340 0.287503 0.631521
O O11 0.724723 0.358368 0.445266
O O12 0.269560 0.962161 0.425389
O O13 0.050389 0.573652 0.252582
O O14 0.000000 0.500000 0.000000
O O15 0.000000 0.500000 0.500000
#
# Coordination Sequence:
#
# PCOD8026218 Si02
#       7
#     2   2   2   2   2   2   2
#     4  10  24  40  66 103 144 174 226 271 346 419
#     4  10  24  40  69 100 145 172 230 267 351 414
#     4  12  25  46  73  98 141 185 226 291 352 404
#     4  10  26  42  71 106 143 179 228 274 350 433
#     4  12  25  43  75  97 145 180 228 285 356 400
#     4  12  29  47  72 101 138 180 248 293 347 402
#     4  12  27  48  72 102 136 185 243 294 342 405
#
# _framework density 23.298469000000001
#
# number of rings (size 3 to 8) (size 9 to 14) (size 15 to 20)
#    0.857    0.000    0.000    6.000   10.000    1.143 
#    0.000    0.000    0.000    0.000    0.000    0.000 
#    0.000    0.000    0.000    0.000    0.000    0.000 
#
# Total GULP energy -173512.640614 kJ/mol
# GULP energy per Si atom -12393.760044 kJ/mol
# Density = 2.324544 g / cm^3
# Si number density = 23.298469 Si / 1000 Ang^3
#
#
#
# Elastic Constant Matrix: (Units=GPa)
#
#
# Indices 1 2 3 4 5 6 
#
# 1 118.7815 29.7952 34.2950 -2.5058 12.0293 -8.4370
# 2 29.7952 97.7876 20.3100 6.5622 8.2582 0.7385
# 3 34.2950 20.3100 118.0736 18.1688 7.1644 -14.1902
# 4 -2.5058 6.5622 18.1688 34.3382 -0.7341 9.3203
# 5 12.0293 8.2582 7.1644 -0.7341 37.3079 -4.9564
# 6 -8.4370 0.7385 -14.1902 9.3203 -4.9564 34.6065
#
#
#
# Elastic Compliance Matrix: (Units=1/GPa)
#
#
# Indices 1 2 3 4 5 6 
#
# 1 0.010128 -0.002517 -0.002713 0.002491 -0.002080 0.000442
# 2 -0.002517 0.011464 -0.001029 -0.001568 -0.001706 -0.001102
# 3 -0.002713 -0.001029 0.011362 -0.007656 -0.000430 0.006020
# 4 0.002491 -0.001568 -0.007656 0.037039 0.000087 -0.012461
# 5 -0.002080 -0.001706 -0.000430 0.000087 0.028388 0.003395
# 6 0.000442 -0.001102 0.006020 -0.012461 0.003395 0.035338
#
#
# Mechanical properties :
#
#
# Convention : Reuss Voigt Hill
#
# Bulk Modulus (GPa) = 48.93100 55.93813 52.43456
# Shear Modulus (GPa) = 32.66933 37.93336 35.30134
#
# Velocity S-wave (km/s) = 3.74867 4.03941 3.89675
# Velocity P-wave (km/s) = 6.30746 6.76884 6.54222
#
# Compressibility (1/GPa) = 0.02043694
#
# Stress axis : x y z
#
# Youngs Moduli (GPa) = 98.73540 87.22586 88.01382
#
# Poissons Ratio (x) = 0.21958 0.23876
# Poissons Ratio (y) = 0.24856 0.09053
# Poissons Ratio (z) = 0.26785 0.08972
#
# Static dielectric constant tensor:
#      x y z
#    x 4.185780 -0.084070 0.091920 
#    y -0.084070 4.225330 0.122510 
#    z 0.091920 0.122510 4.024980 
# 
# 
# High freq. dielectric constant tensor:
#      x y z
#    x 1.924600 0.000880 0.005590 
#    y 0.000880 1.925030 0.011570 
#    z 0.005590 0.011570 1.920750 
# 
# From -- ./inp_files/452551.got.cif
#   From: 2010.06.25/outbox.cif.g09.slc.cpg/sg2_227_cif.got.tgz:452551.got - 2010.06.27 13:26:56.
