data_PCOD8026775
_publ_section_title
;
Structure prediction by ZEFSAII (Michael W. Deem and Ramdas Pophale) SiO2 
 PCOD8026775
Probable space group: P -1
;
_chemical_formula_sum "Si O2"
_cell_formula_units_Z 12
_cell_length_a 5.143119
_cell_length_b 20.580115
_cell_length_c 5.169869
_cell_angle_alpha 87.904802
_cell_angle_beta 90.273237
_cell_angle_gamma 76.938881
_cell_volume 532.649192
_symmetry_space_group_name_H-M "P -1"
_symmetry_group_IT_number 2
_symmetry_cell_setting 'triclinic'
loop_
_space_group_symop_operation_xyz
x,y,z
-x,-y,-z
loop_
_atom_site_type_symbol
_atom_site_label
_atom_site_fract_x
_atom_site_fract_y
_atom_site_fract_z
Si Si1 0.981773 0.383377 0.561650
Si Si2 0.351152 0.122725 0.831617
Si Si3 0.114148 0.930365 0.377000
Si Si4 0.711761 0.432779 0.063611
Si Si5 0.550917 0.324689 0.366114
Si Si6 0.509577 0.178765 0.338795
O O1 0.877826 0.438699 0.327081
O O2 0.814061 0.325199 0.540089
O O3 0.293563 0.352015 0.539086
O O4 0.924551 0.417571 0.834787
O O5 0.627020 0.066333 0.797733
O O6 0.333489 0.179104 0.598743
O O7 0.103395 0.088241 0.812978
O O8 0.347007 0.157140 0.103791
O O9 0.206042 0.873958 0.608793
O O10 0.000000 0.000000 0.500000
O O11 0.554927 0.372904 0.110552
O O12 0.500000 0.500000 0.000000
O O13 0.560409 0.251218 0.270362
#
# Coordination Sequence:
#
# PCOD8026775 Si02
#       6
#     2   2   2   2   2   2
#     4  10  25  40  66  94 131 169 218 265 329 387
#     4  10  25  39  67  93 130 169 218 267 329 387
#     4  10  24  44  66  97 130 171 217 270 325 388
#     4  10  24  43  67  97 130 171 218 269 325 389
#     4  10  26  42  66  95 133 173 218 270 329 388
#     4  10  26  42  66  96 132 171 221 269 329 389
#
# _framework density 22.528897000000001
#
# number of rings (size 3 to 8) (size 9 to 14) (size 15 to 20)
#    2.000    0.000    0.000    1.000    9.333    2.667 
#    0.000    0.000    0.000    0.000    0.000    0.000 
#    0.000    0.000    0.000    0.000    0.000    0.000 
#
# Total GULP energy -148691.085029 kJ/mol
# GULP energy per Si atom -12390.923752 kJ/mol
# Density = 2.247762 g / cm^3
# Si number density = 22.528897 Si / 1000 Ang^3
#
#
#
# Elastic Constant Matrix: (Units=GPa)
#
#
# Indices 1 2 3 4 5 6 
#
# 1 111.6614 9.9042 31.2182 -6.4045 0.3660 -5.4646
# 2 9.9042 97.4748 30.6313 -18.8161 -9.4612 -14.9933
# 3 31.2182 30.6313 125.8668 17.8895 -7.9254 -9.1653
# 4 -6.4045 -18.8161 17.8895 22.7047 -2.3678 1.8496
# 5 0.3660 -9.4612 -7.9254 -2.3678 23.8833 9.8376
# 6 -5.4646 -14.9933 -9.1653 1.8496 9.8376 18.9407
#
#
#
# Elastic Compliance Matrix: (Units=1/GPa)
#
#
# Indices 1 2 3 4 5 6 
#
# 1 0.010442 0.001874 -0.003979 0.007338 -0.000985 0.002366
# 2 0.001874 0.017644 -0.006893 0.020378 0.003704 0.007259
# 3 -0.003979 -0.006893 0.013178 -0.017457 -0.000809 0.001897
# 4 0.007338 0.020378 -0.017457 0.078265 0.011497 -0.003813
# 5 -0.000985 0.003704 -0.000809 0.011497 0.055666 -0.027779
# 6 0.002366 0.007259 0.001897 -0.003813 -0.027779 0.074943
#
#
# Mechanical properties :
#
#
# Convention : Reuss Voigt Hill
#
# Bulk Modulus (GPa) = 42.97727 53.16781 48.07254
# Shear Modulus (GPa) = 18.12317 30.65567 24.38942
#
# Velocity S-wave (km/s) = 2.83934 3.69280 3.29383
# Velocity P-wave (km/s) = 5.46508 6.46788 5.98751
#
# Compressibility (1/GPa) = 0.02326811
#
# Stress axis : x y z
#
# Youngs Moduli (GPa) = 95.77052 56.67503 75.88638
#
# Poissons Ratio (x) = -0.10621 0.30192
# Poissons Ratio (y) = -0.17948 0.52311
# Poissons Ratio (z) = 0.38103 0.39068
#
# Static dielectric constant tensor:
#      x y z
#    x 3.997350 0.056350 0.015300 
#    y 0.056350 3.804070 -0.036400 
#    z 0.015300 -0.036400 3.918590 
# 
# 
# High freq. dielectric constant tensor:
#      x y z
#    x 1.890630 -0.000610 0.001450 
#    y -0.000610 1.868390 0.004030 
#    z 0.001450 0.004030 1.883330 
# 
# From -- ./inp_files/6556.got.cif
#   From: 2010.06.25/outbox.cif.g09.slc.cpg/sg2_4_cif.got.tgz:6556.got - 2010.06.27 13:26:56.
