data_PCOD8026090
_publ_section_title
;
Structure prediction by ZEFSAII (Michael W. Deem and Ramdas Pophale) SiO2 
 PCOD8026090
Probable space group: P -1
;
_chemical_formula_sum "Si O2"
_cell_formula_units_Z 10
_cell_length_a 7.267236
_cell_length_b 4.967625
_cell_length_c 14.262555
_cell_angle_alpha 84.712921
_cell_angle_beta 49.885535
_cell_angle_gamma 82.392898
_cell_volume 390.286055
_symmetry_space_group_name_H-M "P -1"
_symmetry_group_IT_number 2
_symmetry_cell_setting 'triclinic'
loop_
_space_group_symop_operation_xyz
x,y,z
-x,-y,-z
loop_
_atom_site_type_symbol
_atom_site_label
_atom_site_fract_x
_atom_site_fract_y
_atom_site_fract_z
Si Si1 0.960612 0.737057 0.578509
Si Si2 0.296097 0.849097 0.621830
Si Si3 0.298784 0.403366 0.000166
Si Si4 0.572389 0.308827 0.221793
Si Si5 0.002203 0.076841 0.867529
O O1 0.694220 0.773310 0.710365
O O2 0.000000 0.500000 0.500000
O O3 0.156637 0.680546 0.598248
O O4 0.000000 0.000000 0.500000
O O5 0.407301 0.639685 0.673635
O O6 0.105806 0.074906 0.727030
O O7 0.500000 0.000000 0.500000
O O8 0.231900 0.099009 0.050137
O O9 0.059808 0.613984 0.089431
O O10 0.500000 0.500000 0.000000
O O11 0.388244 0.428083 0.862353
O O12 0.784019 0.068784 0.130516
#
# Coordination Sequence:
#
# PCOD8026090 Si02
#       5
#     2   2   2   2   2
#     4  12  26  46  70 107 146 190 242 297 359 430
#     4  10  23  48  73 108 146 191 242 297 364 429
#     4  12  24  46  71 109 140 190 241 301 358 435
#     4  10  25  46  75 105 147 193 241 298 365 432
#     4  10  25  44  73  98 150 183 242 293 365 421
#
# _framework density 25.622232
#
# number of rings (size 3 to 8) (size 9 to 14) (size 15 to 20)
#    1.200    0.000    2.000    3.000    0.000    8.800 
#    0.000    0.000    0.000    0.000    0.000    0.000 
#    0.000    0.000    0.000    0.000    0.000    0.000 
#
# Total GULP energy -123947.690243 kJ/mol
# GULP energy per Si atom -12394.769024 kJ/mol
# Density = 2.556391 g / cm^3
# Si number density = 25.622232 Si / 1000 Ang^3
#
#
#
# Elastic Constant Matrix: (Units=GPa)
#
#
# Indices 1 2 3 4 5 6 
#
# 1 165.6490 4.0921 47.8533 -9.4135 2.2068 -7.3638
# 2 4.0921 61.9177 13.4138 -2.6765 2.8355 15.9875
# 3 47.8533 13.4138 160.3637 -29.7243 -1.0821 0.8053
# 4 -9.4135 -2.6765 -29.7243 25.9400 -9.9838 0.9895
# 5 2.2068 2.8355 -1.0821 -9.9838 57.8055 1.2135
# 6 -7.3638 15.9875 0.8053 0.9895 1.2135 33.0622
#
#
#
# Elastic Compliance Matrix: (Units=1/GPa)
#
#
# Indices 1 2 3 4 5 6 
#
# 1 0.006701 -0.000460 -0.001988 -0.000086 -0.000323 0.001778
# 2 -0.000460 0.018889 -0.001339 0.000335 -0.000683 -0.009189
# 3 -0.001988 -0.001339 0.008820 0.010051 0.002051 -0.000386
# 4 -0.000086 0.000335 0.010051 0.053827 0.009522 -0.002386
# 5 -0.000323 -0.000683 0.002051 0.009522 0.019044 -0.000775
# 6 0.001778 -0.009189 -0.000386 -0.002386 -0.000775 0.035195
#
#
# Mechanical properties :
#
#
# Convention : Reuss Voigt Hill
#
# Bulk Modulus (GPa) = 37.26390 57.62762 47.44576
# Shear Modulus (GPa) = 31.44730 44.86630 38.15680
#
# Velocity S-wave (km/s) = 3.50715 4.18912 3.86321
# Velocity P-wave (km/s) = 5.56554 6.77778 6.20136
#
# Compressibility (1/GPa) = 0.02683563
#
# Stress axis : x y z
#
# Youngs Moduli (GPa) = 149.23102 52.93974 113.38027
#
# Poissons Ratio (x) = 0.02436 0.22542
# Poissons Ratio (y) = 0.06867 0.15182
# Poissons Ratio (z) = 0.29669 0.07089
#
# Static dielectric constant tensor:
#      x y z
#    x 4.682470 -0.405810 -0.088080 
#    y -0.405810 4.111830 -0.021890 
#    z -0.088080 -0.021890 4.931820 
# 
# 
# High freq. dielectric constant tensor:
#      x y z
#    x 2.034350 -0.005150 -0.005640 
#    y -0.005150 1.987320 -0.006270 
#    z -0.005640 -0.006270 2.048860 
# 
# From -- ./inp_files/63623.got.cif
#   From: 2010.06.25/outbox.cif.g09.slc.cpg/sg2_32_cif.got.tgz:63623.got - 2010.06.27 13:26:56.
