data_PCOD8026193
_publ_section_title
;
Structure prediction by ZEFSAII (Michael W. Deem and Ramdas Pophale) SiO2 
 PCOD8026193
Probable space group: P -1
;
_chemical_formula_sum "Si O2"
_cell_formula_units_Z 14
_cell_length_a 20.978972
_cell_length_b 17.116470
_cell_length_c 4.834094
_cell_angle_alpha 104.356838
_cell_angle_beta 68.244341
_cell_angle_gamma 158.618166
_cell_volume 563.058516
_symmetry_space_group_name_H-M "P -1"
_symmetry_group_IT_number 2
_symmetry_cell_setting 'triclinic'
loop_
_space_group_symop_operation_xyz
x,y,z
-x,-y,-z
loop_
_atom_site_type_symbol
_atom_site_label
_atom_site_fract_x
_atom_site_fract_y
_atom_site_fract_z
Si Si1 0.200502 0.759206 0.831886
Si Si2 0.154206 0.999759 0.655347
Si Si3 0.537485 0.353770 0.470989
Si Si4 0.487172 0.192334 0.902560
Si Si5 0.966995 0.874644 0.338304
Si Si6 0.014013 0.669016 0.673102
Si Si7 0.236221 0.628477 0.674731
O O1 0.332385 0.823203 0.652702
O O2 0.173456 0.778425 0.605273
O O3 0.298860 0.931801 0.034926
O O4 0.000000 0.500000 0.000000
O O5 0.059537 0.911816 0.432872
O O6 0.095139 0.847221 0.721956
O O7 0.386523 0.253695 0.500347
O O8 0.075707 0.982836 0.969056
O O9 0.448565 0.225463 0.790839
O O10 0.741759 0.616708 0.431784
O O11 0.565596 0.311022 0.170679
O O12 0.634010 0.298872 0.590181
O O13 0.000000 0.000000 0.500000
O O14 0.960919 0.589174 0.374511
O O15 0.823982 0.454675 0.984195
#
# Coordination Sequence:
#
# PCOD8026193 Si02
#       7
#     2   2   2   2   2   2   2
#     4  10  24  40  63  96 138 184 237 296 349 401
#     4  12  25  46  78 104 148 191 229 289 362 417
#     4  12  27  46  75 109 140 191 242 286 351 434
#     4  12  24  44  65 100 142 182 247 289 338 423
#     4  12  28  50  77 114 146 178 230 292 361 439
#     4  11  22  41  65  96 133 182 241 283 349 423
#     4  11  23  39  64  93 138 188 234 302 352 386
#
# _framework density 24.8642
#
# number of rings (size 3 to 8) (size 9 to 14) (size 15 to 20)
#    0.000    0.571    1.429    7.286    4.000    3.429 
#    0.000    5.000    0.000    0.000    0.000    0.000 
#    0.000    0.000    0.000    0.000    0.000    0.000 
#
# Total GULP energy -173521.284475 kJ/mol
# GULP energy per Si atom -12394.377463 kJ/mol
# Density = 2.480761 g / cm^3
# Si number density = 24.864200 Si / 1000 Ang^3
#
#
#
# Elastic Constant Matrix: (Units=GPa)
#
#
# Indices 1 2 3 4 5 6 
#
# 1 84.6888 46.1367 10.8946 -13.3247 -2.9538 9.3550
# 2 46.1367 188.7235 37.5646 -2.2610 -11.6915 5.1013
# 3 10.8946 37.5646 74.1187 1.1748 -3.0515 2.5489
# 4 -13.3247 -2.2610 1.1748 36.7571 7.5040 -9.6872
# 5 -2.9538 -11.6915 -3.0515 7.5040 33.9391 4.7996
# 6 9.3550 5.1013 2.5489 -9.6872 4.7996 42.7006
#
#
#
# Elastic Compliance Matrix: (Units=1/GPa)
#
#
# Indices 1 2 3 4 5 6 
#
# 1 0.014652 -0.003438 -0.000467 0.004863 -0.000803 -0.001578
# 2 -0.003438 0.006832 -0.002834 -0.001286 0.002144 -0.000427
# 3 -0.000467 -0.002834 0.015073 -0.001184 0.000714 -0.000808
# 4 0.004863 -0.001286 -0.001184 0.032619 -0.008399 0.007503
# 5 -0.000803 0.002144 0.000714 -0.008399 0.032864 -0.005722
# 6 -0.001578 -0.000427 -0.000808 0.007503 -0.005722 0.026209
#
#
# Mechanical properties :
#
#
# Convention : Reuss Voigt Hill
#
# Bulk Modulus (GPa) = 43.32916 59.63587 51.48252
# Shear Modulus (GPa) = 33.46244 39.54169 36.50207
#
# Velocity S-wave (km/s) = 3.67251 3.99219 3.83568
# Velocity P-wave (km/s) = 5.95376 6.72955 6.35350
#
# Compressibility (1/GPa) = 0.02307914
#
# Stress axis : x y z
#
# Youngs Moduli (GPa) = 68.24837 146.36433 66.34437
#
# Poissons Ratio (x) = 0.50318 0.03100
# Poissons Ratio (y) = 0.23463 0.18802
# Poissons Ratio (z) = 0.03189 0.41481
#
# Static dielectric constant tensor:
#      x y z
#    x 5.139350 0.157480 -0.181130 
#    y 0.157480 4.618040 0.093990 
#    z -0.181130 0.093990 4.388300 
# 
# 
# High freq. dielectric constant tensor:
#      x y z
#    x 1.999880 0.012430 -0.008910 
#    y 0.012430 1.990550 0.008470 
#    z -0.008910 0.008470 1.992900 
# 
# From -- ./inp_files/124784.got.cif
#   From: 2010.06.25/outbox.cif.g09.slc.cpg/sg2_63_cif.got.tgz:124784.got - 2010.06.27 13:26:56.
