data_PCOD8026086
_publ_section_title
;
Structure prediction by ZEFSAII (Michael W. Deem and Ramdas Pophale) SiO2 
 PCOD8026086
Probable space group: P -1
;
_chemical_formula_sum "Si O2"
_cell_formula_units_Z 14
_cell_length_a 12.107330
_cell_length_b 8.412407
_cell_length_c 19.954378
_cell_angle_alpha 137.096195
_cell_angle_beta 148.274965
_cell_angle_gamma 64.628155
_cell_volume 610.717269
_symmetry_space_group_name_H-M "P -1"
_symmetry_group_IT_number 2
_symmetry_cell_setting 'triclinic'
loop_
_space_group_symop_operation_xyz
x,y,z
-x,-y,-z
loop_
_atom_site_type_symbol
_atom_site_label
_atom_site_fract_x
_atom_site_fract_y
_atom_site_fract_z
Si Si1 0.890157 0.181367 0.330516
Si Si2 0.157961 0.328346 0.083987
Si Si3 0.208876 0.165148 0.600051
Si Si4 0.050759 0.801140 0.785831
Si Si5 0.515705 0.599548 0.465084
Si Si6 0.383819 0.837812 0.265863
Si Si7 0.411957 0.641613 0.945635
O O1 0.845462 0.102188 0.205328
O O2 0.000000 0.500000 0.500000
O O3 0.073442 0.113690 0.442701
O O4 0.613482 0.971920 0.152205
O O5 0.273265 0.364926 0.228202
O O6 0.357296 0.601327 0.228746
O O7 0.891121 0.289360 0.946560
O O8 0.127660 0.062197 0.951933
O O9 0.412743 0.084132 0.664780
O O10 0.373072 0.488528 0.806929
O O11 0.000000 0.000000 0.500000
O O12 0.150210 0.622032 0.817722
O O13 0.755465 0.614063 0.562853
O O14 0.500000 0.500000 0.500000
O O15 0.534616 0.891710 0.563955
O O16 0.500000 0.500000 0.000000
#
# Coordination Sequence:
#
# PCOD8026086 Si02
#       7
#     2   2   2   2   2   2   2
#     4  12  26  44  73 104 143 194 245 296 356 435
#     4  10  23  48  73 101 139 186 239 307 352 423
#     4  12  26  45  70 107 152 195 233 301 370 436
#     4  11  26  44  73 104 137 188 246 295 361 436
#     4  11  26  43  72 104 139 186 233 299 361 425
#     4  10  24  43  72 103 138 184 245 287 363 426
#     4  12  27  45  68 107 146 191 237 297 370 431
#
# _framework density 22.923863999999998
#
# number of rings (size 3 to 8) (size 9 to 14) (size 15 to 20)
#    0.000    0.857    2.857    2.571    6.000    8.000 
#    0.000    0.000    0.000    0.000    0.000    0.000 
#    0.000    0.000    0.000    0.000    0.000    0.000 
#
# Total GULP energy -173509.705445 kJ/mol
# GULP energy per Si atom -12393.550389 kJ/mol
# Density = 2.287169 g / cm^3
# Si number density = 22.923864 Si / 1000 Ang^3
#
#
#
# Elastic Constant Matrix: (Units=GPa)
#
#
# Indices 1 2 3 4 5 6 
#
# 1 109.4630 50.0634 47.5651 -20.8024 9.1502 -10.1503
# 2 50.0634 115.0353 37.5938 -23.4460 -1.2277 -10.5507
# 3 47.5651 37.5938 135.9619 -12.0825 -12.3291 -6.8983
# 4 -20.8024 -23.4460 -12.0825 39.2919 5.0735 1.2339
# 5 9.1502 -1.2277 -12.3291 5.0735 45.9157 -9.6048
# 6 -10.1503 -10.5507 -6.8983 1.2339 -9.6048 41.2115
#
#
#
# Elastic Compliance Matrix: (Units=1/GPa)
#
#
# Indices 1 2 3 4 5 6 
#
# 1 0.013752 -0.003872 -0.003698 0.004351 -0.004177 0.000673
# 2 -0.003872 0.011930 -0.001393 0.004502 0.000611 0.001875
# 3 -0.003698 -0.001393 0.009373 -0.000394 0.003496 0.001128
# 4 0.004351 0.004502 -0.000394 0.030855 -0.004209 0.000254
# 5 -0.004177 0.000611 0.003496 -0.004209 0.025228 0.005719
# 6 0.000673 0.001875 0.001128 0.000254 0.005719 0.026425
#
#
# Mechanical properties :
#
#
# Convention : Reuss Voigt Hill
#
# Bulk Modulus (GPa) = 58.38639 70.10054 64.24346
# Shear Modulus (GPa) = 35.41090 40.29966 37.85528
#
# Velocity S-wave (km/s) = 3.93455 4.19737 4.06809
# Velocity P-wave (km/s) = 6.79455 7.35777 7.08176
#
# Compressibility (1/GPa) = 0.01712728
#
# Stress axis : x y z
#
# Youngs Moduli (GPa) = 72.71667 83.82491 106.68589
#
# Poissons Ratio (x) = 0.32460 0.39456
# Poissons Ratio (y) = 0.28158 0.14864
# Poissons Ratio (z) = 0.26893 0.11679
#
# Static dielectric constant tensor:
#      x y z
#    x 4.012440 -0.054280 0.038450 
#    y -0.054280 4.262610 -0.008380 
#    z 0.038450 -0.008380 4.759190 
# 
# 
# High freq. dielectric constant tensor:
#      x y z
#    x 1.891980 -0.006360 -0.001480 
#    y -0.006360 1.906850 -0.008040 
#    z -0.001480 -0.008040 1.928110 
# 
# From -- ./inp_files/283335.got.cif
#   From: 2010.06.25/outbox.cif.g09.slc.cpg/sg2_142_cif.got.tgz:283335.got - 2010.06.27 13:26:56.
