data_PCOD8026287
_publ_section_title
;
Structure prediction by ZEFSAII (Michael W. Deem and Ramdas Pophale) SiO2 
 PCOD8026287
Probable space group: P -1
;
_chemical_formula_sum "Si O2"
_cell_formula_units_Z 12
_cell_length_a 7.248376
_cell_length_b 7.438777
_cell_length_c 17.672432
_cell_angle_alpha 54.745255
_cell_angle_beta 131.999732
_cell_angle_gamma 120.076878
_cell_volume 567.790113
_symmetry_space_group_name_H-M "P -1"
_symmetry_group_IT_number 2
_symmetry_cell_setting 'triclinic'
loop_
_space_group_symop_operation_xyz
x,y,z
-x,-y,-z
loop_
_atom_site_type_symbol
_atom_site_label
_atom_site_fract_x
_atom_site_fract_y
_atom_site_fract_z
Si Si1 0.176909 0.837941 0.008420
Si Si2 0.343713 0.544601 0.374182
Si Si3 0.878838 0.742015 0.205188
Si Si4 0.731835 0.466046 0.019735
Si Si5 0.129115 0.703155 0.755866
Si Si6 0.421530 0.161891 0.759265
O O1 0.157846 0.077440 0.911680
O O2 0.324240 0.874681 0.119437
O O3 0.894335 0.699351 0.977665
O O4 0.660393 0.294773 0.970861
O O5 0.500000 0.500000 0.500000
O O6 0.529704 0.629066 0.335136
O O7 0.178198 0.737489 0.297352
O O8 0.151054 0.314333 0.353195
O O9 0.738595 0.494784 0.196539
O O10 0.786291 0.794084 0.249234
O O11 0.906303 0.343569 0.152214
O O12 0.500000 0.500000 0.000000
O O13 0.306884 0.941776 0.732015
#
# Coordination Sequence:
#
# PCOD8026287 Si02
#       6
#     2   2   2   2   2   2
#     4  11  23  39  66 103 137 177 209 262 339 399
#     4  10  26  49  67  95 131 174 231 278 322 383
#     4  10  24  42  65 101 133 172 222 266 329 396
#     4  11  23  38  65 100 141 176 213 261 327 408
#     4  10  24  41  64 100 126 173 223 262 328 388
#     4  12  23  44  70  94 141 171 212 279 330 393
#
# _framework density 21.13457
#
# number of rings (size 3 to 8) (size 9 to 14) (size 15 to 20)
#    1.000    0.333    3.333    1.500    4.667    2.667 
#    3.000    0.833    0.000    0.000    0.000    0.000 
#    0.000    0.000    0.000    0.000    0.000    0.000 
#
# Total GULP energy -148749.282898 kJ/mol
# GULP energy per Si atom -12395.773575 kJ/mol
# Density = 2.108647 g / cm^3
# Si number density = 21.134570 Si / 1000 Ang^3
#
#
#
# Elastic Constant Matrix: (Units=GPa)
#
#
# Indices 1 2 3 4 5 6 
#
# 1 88.9458 33.0285 26.9605 -4.6373 -5.3364 2.8646
# 2 33.0285 135.7661 47.2872 21.8131 -0.1678 -3.3267
# 3 26.9605 47.2872 140.4931 10.0181 -23.7205 5.8594
# 4 -4.6373 21.8131 10.0181 25.9296 -0.1370 -5.3461
# 5 -5.3364 -0.1678 -23.7205 -0.1370 19.5538 -1.7310
# 6 2.8646 -3.3267 5.8594 -5.3461 -1.7310 25.2600
#
#
#
# Elastic Compliance Matrix: (Units=1/GPa)
#
#
# Indices 1 2 3 4 5 6 
#
# 1 0.013520 -0.003780 -0.001414 0.006098 0.001960 -0.000278
# 2 -0.003780 0.010724 -0.003098 -0.008433 -0.004717 0.000452
# 3 -0.001414 -0.003098 0.010794 -0.002240 0.012455 -0.002372
# 4 0.006098 -0.008433 -0.002240 0.049513 0.000036 0.009199
# 5 0.001960 -0.004717 0.012455 0.000036 0.066820 0.000854
# 6 -0.000278 0.000452 -0.002372 0.009199 0.000854 0.042235
#
#
# Mechanical properties :
#
#
# Convention : Reuss Voigt Hill
#
# Bulk Modulus (GPa) = 54.19507 64.41750 59.30629
# Shear Modulus (GPa) = 23.11153 31.34394 27.22773
#
# Velocity S-wave (km/s) = 3.31046 3.85524 3.59319
# Velocity P-wave (km/s) = 6.34907 7.09669 6.73326
#
# Compressibility (1/GPa) = 0.01845186
#
# Stress axis : x y z
#
# Youngs Moduli (GPa) = 73.96584 93.24448 92.64806
#
# Poissons Ratio (x) = 0.35251 0.13104
# Poissons Ratio (y) = 0.27963 0.28704
# Poissons Ratio (z) = 0.10461 0.28888
#
# Static dielectric constant tensor:
#      x y z
#    x 3.798150 0.000820 -0.085260 
#    y 0.000820 3.889150 0.201040 
#    z -0.085260 0.201040 3.596270 
# 
# 
# High freq. dielectric constant tensor:
#      x y z
#    x 1.828370 0.004720 -0.006850 
#    y 0.004720 1.833070 0.016570 
#    z -0.006850 0.016570 1.800110 
# 
# From -- ./inp_files/587260.got.cif
#   From: 2010.06.25/outbox.cif.g09.slc.cpg/sg2_294_cif.got.tgz:587260.got - 2010.06.27 13:26:56.
