data_PCOD8026246
_publ_section_title
;
Structure prediction by ZEFSAII (Michael W. Deem and Ramdas Pophale) SiO2 
 PCOD8026246
Probable space group: P -1
;
_chemical_formula_sum "Si O2"
_cell_formula_units_Z 14
_cell_length_a 8.681057
_cell_length_b 9.456761
_cell_length_c 18.160223
_cell_angle_alpha 48.539604
_cell_angle_beta 110.666307
_cell_angle_gamma 72.473941
_cell_volume 676.073882
_symmetry_space_group_name_H-M "P -1"
_symmetry_group_IT_number 2
_symmetry_cell_setting 'triclinic'
loop_
_space_group_symop_operation_xyz
x,y,z
-x,-y,-z
loop_
_atom_site_type_symbol
_atom_site_label
_atom_site_fract_x
_atom_site_fract_y
_atom_site_fract_z
Si Si1 0.769054 0.930251 0.807383
Si Si2 0.181209 0.676103 0.613622
Si Si3 0.273048 0.653868 0.177218
Si Si4 0.792957 0.722321 0.159876
Si Si5 0.805186 0.497959 0.474538
Si Si6 0.891527 0.241515 0.732732
Si Si7 0.923732 0.525341 0.859058
O O1 0.778105 0.836621 0.758321
O O2 0.481289 0.190752 0.696566
O O3 0.930026 0.984304 0.815682
O O4 0.877689 0.697881 0.967284
O O5 0.477272 0.445811 0.766269
O O6 0.115685 0.529254 0.686690
O O7 0.128194 0.713066 0.504418
O O8 0.000000 0.000000 0.500000
O O9 0.307037 0.564213 0.299756
O O10 0.278775 0.465404 0.191240
O O11 0.000000 0.000000 0.000000
O O12 0.934020 0.560179 0.163208
O O13 0.859493 0.862996 0.162340
O O14 0.500000 0.000000 0.000000
O O15 0.793205 0.414049 0.581227
O O16 0.000000 0.500000 0.500000
#
# Coordination Sequence:
#
# PCOD8026246 Si02
#       7
#     2   2   2   2   2   2   2
#     4  11  23  44  65  98 126 172 222 276 323 392
#     4  12  27  43  66 102 140 171 221 285 337 395
#     4  11  21  44  70  94 127 180 223 269 333 408
#     4  11  24  44  68  99 133 180 220 272 339 402
#     4  12  25  44  63  91 135 174 213 267 341 401
#     4  11  23  40  72  88 122 180 219 260 332 398
#     4  10  24  40  69  96 129 163 229 278 317 390
#
# _framework density 20.707795000000001
#
# number of rings (size 3 to 8) (size 9 to 14) (size 15 to 20)
#    0.000    0.857    4.286    3.000    4.000    0.000 
#    0.000    3.571    0.000    0.000    0.000    0.000 
#    0.000    0.000    0.000    0.000    0.000    0.000 
#
# Total GULP energy -173492.105037 kJ/mol
# GULP energy per Si atom -12392.293217 kJ/mol
# Density = 2.066066 g / cm^3
# Si number density = 20.707795 Si / 1000 Ang^3
#
#
#
# Elastic Constant Matrix: (Units=GPa)
#
#
# Indices 1 2 3 4 5 6 
#
# 1 115.8732 50.8557 37.1014 0.3161 7.8401 13.3632
# 2 50.8557 184.6355 39.4644 8.9273 8.3992 14.6289
# 3 37.1014 39.4644 70.3023 3.9642 -0.2195 -5.0275
# 4 0.3161 8.9273 3.9642 32.2785 -4.1537 -6.4616
# 5 7.8401 8.3992 -0.2195 -4.1537 36.3199 8.8247
# 6 13.3632 14.6289 -5.0275 -6.4616 8.8247 38.4653
#
#
#
# Elastic Compliance Matrix: (Units=1/GPa)
#
#
# Indices 1 2 3 4 5 6 
#
# 1 0.011649 -0.001682 -0.005487 0.000102 -0.001217 -0.003828
# 2 -0.001682 0.006877 -0.003040 -0.002142 -0.000861 -0.002591
# 3 -0.005487 -0.003040 0.019230 -0.000306 0.000663 0.005372
# 4 0.000102 -0.002142 -0.000306 0.033110 0.002888 0.005638
# 5 -0.001217 -0.000861 0.000663 0.002888 0.029661 -0.005483
# 6 -0.003828 -0.002591 0.005372 0.005638 -0.005483 0.031220
#
#
# Mechanical properties :
#
#
# Convention : Reuss Voigt Hill
#
# Bulk Modulus (GPa) = 57.67557 69.51713 63.59635
# Shear Modulus (GPa) = 31.65702 37.63870 34.64786
#
# Velocity S-wave (km/s) = 3.91416 4.26797 4.09489
# Velocity P-wave (km/s) = 6.95271 7.61123 7.28941
#
# Compressibility (1/GPa) = 0.01733836
#
# Stress axis : x y z
#
# Youngs Moduli (GPa) = 85.84718 145.40935 52.00276
#
# Poissons Ratio (x) = 0.24459 0.28531
# Poissons Ratio (y) = 0.14440 0.15809
# Poissons Ratio (z) = 0.47100 0.44204
#
# Static dielectric constant tensor:
#      x y z
#    x 4.034930 0.088260 -0.031640 
#    y 0.088260 4.226230 0.253060 
#    z -0.031640 0.253060 3.620900 
# 
# 
# High freq. dielectric constant tensor:
#      x y z
#    x 1.819460 0.007920 -0.003420 
#    y 0.007920 1.826220 0.025300 
#    z -0.003420 0.025300 1.797150 
# 
# From -- ./inp_files/159920.got.cif
#   From: 2010.06.25/outbox.cif.g09.slc.cpg/sg2_80_cif.got.tgz:159920.got - 2010.06.27 13:26:56.
