data_PCOD8026181
_publ_section_title
;
Structure prediction by ZEFSAII (Michael W. Deem and Ramdas Pophale) SiO2 
 PCOD8026181
Probable space group: P -1
;
_chemical_formula_sum "Si O2"
_cell_formula_units_Z 16
_cell_length_a 14.825605
_cell_length_b 9.354026
_cell_length_c 12.641245
_cell_angle_alpha 131.575627
_cell_angle_beta 37.159029
_cell_angle_gamma 135.613308
_cell_volume 722.112673
_symmetry_space_group_name_H-M "P -1"
_symmetry_group_IT_number 2
_symmetry_cell_setting 'triclinic'
loop_
_space_group_symop_operation_xyz
x,y,z
-x,-y,-z
loop_
_atom_site_type_symbol
_atom_site_label
_atom_site_fract_x
_atom_site_fract_y
_atom_site_fract_z
Si Si1 0.419311 0.730917 0.515292
Si Si2 0.541033 0.310057 0.906201
Si Si3 0.727932 0.452879 0.224104
Si Si4 0.110490 0.059931 0.670992
Si Si5 0.699688 0.154077 0.512202
Si Si6 0.217255 0.922731 0.062767
Si Si7 0.187422 0.049475 0.365864
Si Si8 0.482149 0.592879 0.798169
O O1 0.344951 0.569161 0.601438
O O2 0.278463 0.730274 0.565232
O O3 0.541625 0.649595 0.299120
O O4 0.523589 0.958188 0.576490
O O5 0.686449 0.299116 0.692368
O O6 0.500000 0.500000 0.000000
O O7 0.600599 0.357385 0.996040
O O8 0.385069 0.086866 0.936288
O O9 0.824319 0.698876 0.234007
O O10 0.591201 0.350240 0.210927
O O11 0.833276 0.311254 0.052060
O O12 0.205854 0.022463 0.460660
O O13 0.917900 0.987006 0.796715
O O14 0.150192 0.917105 0.650300
O O15 0.225779 0.900106 0.172409
O O16 0.319565 0.279676 0.322125
O O17 0.000000 0.000000 0.500000
#
# Coordination Sequence:
#
# PCOD8026181 Si02
#       8
#     2   2   2   2   2   2   2   2
#     4  11  21  38  62  93 123 158 208 258 305 364
#     4  11  23  41  64  90 128 164 204 260 305 368
#     4  12  22  38  66  96 121 162 211 261 305 367
#     4  11  22  41  65  91 127 164 206 256 314 374
#     4  11  23  39  65  91 124 165 207 251 312 370
#     4  10  24  40  61  92 130 162 206 259 313 358
#     4   9  20  36  58  86 125 160 197 251 313 357
#     4  11  21  36  65  93 123 156 213 254 305 366
#
# _framework density 22.157207
#
# number of rings (size 3 to 8) (size 9 to 14) (size 15 to 20)
#    0.000    1.250    5.000    1.500    1.750    1.000 
#    0.000    1.250    2.750    0.000    0.000    0.000 
#    0.000    0.000    0.000    0.000    0.000    0.000 
#
# Total GULP energy -198214.863917 kJ/mol
# GULP energy per Si atom -12388.428995 kJ/mol
# Density = 2.210678 g / cm^3
# Si number density = 22.157207 Si / 1000 Ang^3
#
#
#
# Elastic Constant Matrix: (Units=GPa)
#
#
# Indices 1 2 3 4 5 6 
#
# 1 123.1531 21.0916 44.0159 7.9431 9.9700 -22.8912
# 2 21.0916 47.9967 16.3388 12.6099 4.7673 -9.1466
# 3 44.0159 16.3388 87.2822 23.5800 11.5822 -1.2334
# 4 7.9431 12.6099 23.5800 29.3784 -2.2051 -3.8627
# 5 9.9700 4.7673 11.5822 -2.2051 33.4371 7.0597
# 6 -22.8912 -9.1466 -1.2334 -3.8627 7.0597 30.8828
#
#
#
# Elastic Compliance Matrix: (Units=1/GPa)
#
#
# Indices 1 2 3 4 5 6 
#
# 1 0.012559 -0.002201 -0.006393 0.003711 -0.002988 0.009549
# 2 -0.002201 0.026154 -0.000382 -0.009904 -0.004854 0.005970
# 3 -0.006393 -0.000382 0.019221 -0.014520 -0.004633 -0.004841
# 4 0.003711 -0.009904 -0.014520 0.050016 0.007852 0.003699
# 5 -0.002988 -0.004854 -0.004633 0.007852 0.035951 -0.011073
# 6 0.009549 0.005970 -0.004841 0.003699 -0.011073 0.044028
#
#
# Mechanical properties :
#
#
# Convention : Reuss Voigt Hill
#
# Bulk Modulus (GPa) = 25.01077 46.81386 35.91231
# Shear Modulus (GPa) = 22.80946 30.53870 26.67408
#
# Velocity S-wave (km/s) = 3.21197 3.71654 3.47343
# Velocity P-wave (km/s) = 5.00680 6.29212 5.68590
#
# Compressibility (1/GPa) = 0.03998278
#
# Stress axis : x y z
#
# Youngs Moduli (GPa) = 79.62219 38.23533 52.02558
#
# Poissons Ratio (x) = 0.08417 0.33259
# Poissons Ratio (y) = 0.17528 0.01986
# Poissons Ratio (z) = 0.50900 0.01460
#
# Static dielectric constant tensor:
#      x y z
#    x 4.152810 -0.063440 0.409800 
#    y -0.063440 3.669720 0.197650 
#    z 0.409800 0.197650 4.136380 
# 
# 
# High freq. dielectric constant tensor:
#      x y z
#    x 1.871490 -0.003810 0.022710 
#    y -0.003810 1.842950 0.029590 
#    z 0.022710 0.029590 1.874790 
# 
# From -- ./inp_files/205595.got.cif
#   From: 2010.06.25/outbox.cif.g09.slc.cpg/sg2_103_cif.got.tgz:205595.got - 2010.06.27 13:26:56.
