data_PCOD8026843
_publ_section_title
;
Structure prediction by ZEFSAII (Michael W. Deem and Ramdas Pophale) SiO2 
 PCOD8026843
Probable space group: P -1
;
_chemical_formula_sum "Si O2"
_cell_formula_units_Z 14
_cell_length_a 7.303065
_cell_length_b 15.470131
_cell_length_c 11.759930
_cell_angle_alpha 133.416942
_cell_angle_beta 93.690379
_cell_angle_gamma 54.814569
_cell_volume 654.166336
_symmetry_space_group_name_H-M "P -1"
_symmetry_group_IT_number 2
_symmetry_cell_setting 'triclinic'
loop_
_space_group_symop_operation_xyz
x,y,z
-x,-y,-z
loop_
_atom_site_type_symbol
_atom_site_label
_atom_site_fract_x
_atom_site_fract_y
_atom_site_fract_z
Si Si1 0.437314 0.021940 0.700910
Si Si2 0.063860 0.763611 0.530545
Si Si3 0.304689 0.325271 0.882743
Si Si4 0.763976 0.308663 0.291678
Si Si5 0.733725 0.827349 0.926147
Si Si6 0.618434 0.630331 0.820872
Si Si7 0.275083 0.847893 0.438722
O O1 0.326836 0.170670 0.739323
O O2 0.377489 0.917358 0.567082
O O3 0.280781 0.112301 0.894144
O O4 0.752529 0.901735 0.612851
O O5 0.092822 0.814282 0.701070
O O6 0.177338 0.576157 0.370709
O O7 0.235394 0.758890 0.443851
O O8 0.492842 0.299859 0.774354
O O9 0.408918 0.322619 0.005870
O O10 0.000000 0.500000 0.000000
O O11 0.500000 0.500000 0.500000
O O12 0.674903 0.257482 0.144882
O O13 0.974034 0.294946 0.227087
O O14 0.720127 0.691819 0.806138
O O15 0.500000 0.000000 0.000000
O O16 0.000000 0.000000 0.500000
#
# Coordination Sequence:
#
# PCOD8026843 Si02
#       7
#     2   2   2   2   2   2   2
#     4  11  25  45  69 101 140 174 233 280 340 408
#     4  11  24  45  69 104 137 182 223 285 341 405
#     4  11  25  47  71  99 139 181 228 287 338 398
#     4  10  24  43  69 104 137 171 228 277 338 406
#     4  11  24  44  72 102 135 186 217 277 352 398
#     4  10  26  44  71 101 141 173 235 282 335 402
#     4  12  27  43  72  99 134 187 231 274 347 400
#
# _framework density 21.401284
#
# number of rings (size 3 to 8) (size 9 to 14) (size 15 to 20)
#    0.000    1.143    2.857    1.286    6.000   10.286 
#    0.000    0.000    0.000    0.000    0.000    0.000 
#    0.000    0.000    0.000    0.000    0.000    0.000 
#
# Total GULP energy -173570.397420 kJ/mol
# GULP energy per Si atom -12397.885530 kJ/mol
# Density = 2.135257 g / cm^3
# Si number density = 21.401284 Si / 1000 Ang^3
#
#
#
# Elastic Constant Matrix: (Units=GPa)
#
#
# Indices 1 2 3 4 5 6 
#
# 1 172.1381 93.5869 80.2375 -8.1464 -22.6466 0.2806
# 2 93.5869 138.6023 54.1987 -1.1560 -5.9078 7.8837
# 3 80.2375 54.1987 98.9631 1.7830 -19.9707 7.0629
# 4 -8.1464 -1.1560 1.7830 36.0396 -0.0057 -3.1830
# 5 -22.6466 -5.9078 -19.9707 -0.0057 45.9301 -5.8279
# 6 0.2806 7.8837 7.0629 -3.1830 -5.8279 43.4506
#
#
#
# Elastic Compliance Matrix: (Units=1/GPa)
#
#
# Indices 1 2 3 4 5 6 
#
# 1 0.012711 -0.005965 -0.006700 0.003254 0.002933 0.002721
# 2 -0.005965 0.012082 -0.002125 -0.001053 -0.002595 -0.002233
# 3 -0.006700 -0.002125 0.017674 -0.002644 0.003839 -0.002123
# 4 0.003254 -0.001053 -0.002644 0.028827 0.000679 0.002803
# 5 0.002933 -0.002595 0.003839 0.000679 0.024963 0.003226
# 6 0.002721 -0.002233 -0.002123 0.002803 0.003226 0.024385
#
#
# Mechanical properties :
#
#
# Convention : Reuss Voigt Hill
#
# Bulk Modulus (GPa) = 77.60326 96.19442 86.89884
# Shear Modulus (GPa) = 32.35865 37.19609 34.77737
#
# Velocity S-wave (km/s) = 3.89266 4.17349 4.03552
# Velocity P-wave (km/s) = 7.51954 8.26254 7.89978
#
# Compressibility (1/GPa) = 0.01288606
#
# Stress axis : x y z
#
# Youngs Moduli (GPa) = 78.67384 82.77109 56.57883
#
# Poissons Ratio (x) = 0.49376 0.37906
# Poissons Ratio (y) = 0.46932 0.12025
# Poissons Ratio (z) = 0.52709 0.17592
#
# Static dielectric constant tensor:
#      x y z
#    x 4.177870 -0.120770 0.032940 
#    y -0.120770 4.286160 -0.224900 
#    z 0.032940 -0.224900 4.049720 
# 
# 
# High freq. dielectric constant tensor:
#      x y z
#    x 1.847840 -0.004840 -0.006480 
#    y -0.004840 1.857360 -0.011290 
#    z -0.006480 -0.011290 1.844660 
# 
# From -- ./inp_files/40261.got.cif
#   From: 2010.06.25/outbox.cif.g09.slc.cpg/sg2_21_cif.got.tgz:40261.got - 2010.06.27 13:26:56.
