data_PCOD8026244
_publ_section_title
;
Structure prediction by ZEFSAII (Michael W. Deem and Ramdas Pophale) SiO2 
 PCOD8026244
Probable space group: P -1
;
_chemical_formula_sum "Si O2"
_cell_formula_units_Z 16
_cell_length_a 18.844463
_cell_length_b 7.946871
_cell_length_c 11.827177
_cell_angle_alpha 126.654352
_cell_angle_beta 139.884800
_cell_angle_gamma 34.099427
_cell_volume 636.564906
_symmetry_space_group_name_H-M "P -1"
_symmetry_group_IT_number 2
_symmetry_cell_setting 'triclinic'
loop_
_space_group_symop_operation_xyz
x,y,z
-x,-y,-z
loop_
_atom_site_type_symbol
_atom_site_label
_atom_site_fract_x
_atom_site_fract_y
_atom_site_fract_z
Si Si1 0.579105 0.145256 0.775149
Si Si2 0.946216 0.147111 0.372570
Si Si3 0.734971 0.072378 0.574445
Si Si4 0.450025 0.292174 0.440653
Si Si5 0.420632 0.330255 0.889309
Si Si6 0.082204 0.214348 0.909031
Si Si7 0.637471 0.016265 0.216227
Si Si8 0.945306 0.583790 0.295472
O O1 0.468387 0.347556 0.614402
O O2 0.494797 0.311165 0.856657
O O3 0.622428 0.838796 0.703128
O O4 0.741906 0.053385 0.932785
O O5 0.760941 0.369353 0.220334
O O6 0.993604 0.327807 0.499230
O O7 0.008525 0.892587 0.250252
O O8 0.000000 0.000000 0.500000
O O9 0.627264 0.054094 0.505858
O O10 0.671831 0.393565 0.653116
O O11 0.709632 0.088338 0.415946
O O12 0.921023 0.778397 0.706505
O O13 0.448859 0.044442 0.837994
O O14 0.512591 0.311945 0.100882
O O15 0.093097 0.269080 0.814041
O O16 0.000000 0.500000 0.000000
O O17 0.781275 0.714934 0.196636
#
# Coordination Sequence:
#
# PCOD8026244 Si02
#       8
#     2   2   2   2   2   2   2   2
#     4  11  22  46  68  97 138 184 227 280 343 410
#     4  10  24  43  69 100 137 177 230 285 344 404
#     4  11  22  42  66 102 140 177 231 278 344 415
#     4  10  24  40  69 101 138 185 223 279 349 421
#     4  11  23  43  67 100 132 173 235 288 330 404
#     4  11  25  43  67  98 140 178 229 284 348 408
#     4  11  23  40  70  95 136 176 227 288 339 399
#     4  11  22  45  68 100 137 185 227 286 346 413
#
# _framework density 25.134905
#
# number of rings (size 3 to 8) (size 9 to 14) (size 15 to 20)
#    0.000    1.250    3.750    1.125    1.750    6.500 
#    0.000    0.625    0.000    0.000    0.000    0.000 
#    0.000    0.000    0.000    0.000    0.000    0.000 
#
# Total GULP energy -198246.428535 kJ/mol
# GULP energy per Si atom -12390.401783 kJ/mol
# Density = 2.507770 g / cm^3
# Si number density = 25.134905 Si / 1000 Ang^3
#
#
#
# Elastic Constant Matrix: (Units=GPa)
#
#
# Indices 1 2 3 4 5 6 
#
# 1 65.6973 10.3278 1.5721 -2.5836 -5.0551 -9.4795
# 2 10.3278 80.8752 19.3597 -14.2778 -1.1632 1.5563
# 3 1.5721 19.3597 100.7954 3.4037 -6.7421 0.2857
# 4 -2.5836 -14.2778 3.4037 50.9073 -1.1452 -2.2605
# 5 -5.0551 -1.1632 -6.7421 -1.1452 32.7675 0.7891
# 6 -9.4795 1.5563 0.2857 -2.2605 0.7891 35.6168
#
#
#
# Elastic Compliance Matrix: (Units=1/GPa)
#
#
# Indices 1 2 3 4 5 6 
#
# 1 0.016393 -0.002130 0.000287 0.000467 0.002422 0.004430
# 2 -0.002130 0.014023 -0.002808 0.003967 -0.000248 -0.000900
# 3 0.000287 -0.002808 0.010644 -0.001439 0.002085 -0.000024
# 4 0.000467 0.003967 -0.001439 0.020947 0.000618 0.001278
# 5 0.002422 -0.000248 0.002085 0.000618 0.031334 -0.000016
# 6 0.004430 -0.000900 -0.000024 0.001278 -0.000016 0.029377
#
#
# Mechanical properties :
#
#
# Convention : Reuss Voigt Hill
#
# Bulk Modulus (GPa) = 31.48820 34.43189 32.96004
# Shear Modulus (GPa) = 35.06161 38.26553 36.66357
#
# Velocity S-wave (km/s) = 3.73894 3.90604 3.82340
# Velocity P-wave (km/s) = 5.58520 5.83707 5.71252
#
# Compressibility (1/GPa) = 0.03175793
#
# Stress axis : x y z
#
# Youngs Moduli (GPa) = 61.00078 71.31100 93.94884
#
# Poissons Ratio (x) = 0.15191 -0.02698
# Poissons Ratio (y) = 0.12994 0.26383
# Poissons Ratio (z) = -0.01752 0.20026
#
# Static dielectric constant tensor:
#      x y z
#    x 4.336350 0.160560 -0.024420 
#    y 0.160560 4.617180 0.116860 
#    z -0.024420 0.116860 4.905810 
# 
# 
# High freq. dielectric constant tensor:
#      x y z
#    x 1.989150 0.011910 -0.008310 
#    y 0.011910 2.007440 -0.003030 
#    z -0.008310 -0.003030 2.006700 
# 
# From -- ./inp_files/470148.got.cif
#   From: 2010.06.25/outbox.cif.g09.slc.cpg/sg2_236_cif.got.tgz:470148.got - 2010.06.27 13:26:56.
