data_PCOD8026337
_publ_section_title
;
Structure prediction by ZEFSAII (Michael W. Deem and Ramdas Pophale) SiO2 
 PCOD8026337
Probable space group: P -1
;
_chemical_formula_sum "Si O2"
_cell_formula_units_Z 16
_cell_length_a 13.559024
_cell_length_b 11.025449
_cell_length_c 8.746968
_cell_angle_alpha 115.086734
_cell_angle_beta 68.258774
_cell_angle_gamma 146.202276
_cell_volume 658.340990
_symmetry_space_group_name_H-M "P -1"
_symmetry_group_IT_number 2
_symmetry_cell_setting 'triclinic'
loop_
_space_group_symop_operation_xyz
x,y,z
-x,-y,-z
loop_
_atom_site_type_symbol
_atom_site_label
_atom_site_fract_x
_atom_site_fract_y
_atom_site_fract_z
Si Si1 0.193128 0.871788 0.102257
Si Si2 0.418740 0.757559 0.844677
Si Si3 0.410027 0.450352 0.682076
Si Si4 0.260039 0.207466 0.123440
Si Si5 0.241342 0.062141 0.724318
Si Si6 0.876604 0.444311 0.878907
Si Si7 0.457856 0.821987 0.512592
Si Si8 0.857482 0.609554 0.700449
O O1 0.126692 0.724221 0.217282
O O2 0.404769 0.060008 0.052846
O O3 0.169741 0.011546 0.194712
O O4 0.074714 0.695502 0.935604
O O5 0.342568 0.531961 0.750252
O O6 0.479537 0.872597 0.706056
O O7 0.258597 0.678547 0.965700
O O8 0.500000 0.500000 0.500000
O O9 0.542528 0.562036 0.809331
O O10 0.237265 0.188313 0.683303
O O11 0.161690 0.250421 0.180027
O O12 0.259680 0.123864 0.922421
O O13 0.411081 0.153515 0.619667
O O14 0.065683 0.797078 0.651551
O O15 0.798902 0.451378 0.787973
O O16 0.259240 0.561490 0.464045
O O17 0.500000 0.000000 0.500000
#
# Coordination Sequence:
#
# PCOD8026337 Si02
#       8
#     2   2   2   2   2   2   2   2
#     4  10  24  41  67 103 133 177 226 287 346 407
#     4  11  24  43  67  95 133 183 228 280 345 408
#     4  11  22  44  67 100 138 180 226 279 352 408
#     4  11  23  43  71 105 139 175 234 286 344 413
#     4  12  25  44  71 102 144 180 227 296 343 418
#     4  11  24  42  69  98 138 175 231 285 344 413
#     4  12  29  47  69 101 143 191 236 285 349 421
#     4  12  26  45  73 108 135 183 239 287 358 411
#
# _framework density 24.303515000000001
#
# number of rings (size 3 to 8) (size 9 to 14) (size 15 to 20)
#    0.000    0.750    3.750    2.625    7.000    1.500 
#    0.000    1.250    0.000    0.000    0.000    0.000 
#    0.000    0.000    0.000    0.000    0.000    0.000 
#
# Total GULP energy -198249.756642 kJ/mol
# GULP energy per Si atom -12390.609790 kJ/mol
# Density = 2.424820 g / cm^3
# Si number density = 24.303515 Si / 1000 Ang^3
#
#
#
# Elastic Constant Matrix: (Units=GPa)
#
#
# Indices 1 2 3 4 5 6 
#
# 1 108.6601 42.6981 22.7003 -7.3452 18.9585 -34.9643
# 2 42.6981 129.8525 24.5431 7.1118 2.6843 -22.9760
# 3 22.7003 24.5431 74.6614 0.2637 3.1462 1.0440
# 4 -7.3452 7.1118 0.2637 23.8597 -5.3117 10.9150
# 5 18.9585 2.6843 3.1462 -5.3117 18.9733 3.9421
# 6 -34.9643 -22.9760 1.0440 10.9150 3.9421 64.5582
#
#
#
# Elastic Compliance Matrix: (Units=1/GPa)
#
#
# Indices 1 2 3 4 5 6 
#
# 1 0.017558 -0.002689 -0.003768 -0.002780 -0.019451 0.010271
# 2 -0.002689 0.009868 -0.002434 -0.005199 -0.000384 0.002997
# 3 -0.003768 -0.002434 0.015266 0.001669 0.002795 -0.003607
# 4 -0.002780 -0.005199 0.001669 0.053560 0.021083 -0.013726
# 5 -0.019451 -0.000384 0.002795 0.021083 0.081638 -0.019266
# 6 0.010271 0.002997 -0.003607 -0.013726 -0.019266 0.025675
#
#
# Mechanical properties :
#
#
# Convention : Reuss Voigt Hill
#
# Bulk Modulus (GPa) = 40.14526 54.78411 47.46468
# Shear Modulus (GPa) = 21.77219 36.36040 29.06630
#
# Velocity S-wave (km/s) = 2.99631 3.87214 3.46203
# Velocity P-wave (km/s) = 5.34085 6.52548 5.96266
#
# Compressibility (1/GPa) = 0.02490954
#
# Stress axis : x y z
#
# Youngs Moduli (GPa) = 56.95491 101.33372 65.50363
#
# Poissons Ratio (x) = 0.27253 0.24684
# Poissons Ratio (y) = 0.15318 0.15942
# Poissons Ratio (z) = 0.21463 0.24661
#
# Static dielectric constant tensor:
#      x y z
#    x 4.146600 -0.016980 0.469800 
#    y -0.016980 4.473580 -0.010180 
#    z 0.469800 -0.010180 3.807040 
# 
# 
# High freq. dielectric constant tensor:
#      x y z
#    x 1.981950 -0.025220 0.014570 
#    y -0.025220 1.991480 0.015270 
#    z 0.014570 0.015270 1.924020 
# 
# From -- ./inp_files/307992.got.cif
#   From: 2010.06.25/outbox.cif.g09.slc.cpg/sg2_154_cif.got.tgz:307992.got - 2010.06.27 13:26:56.
