data_PCOD8026046
_publ_section_title
;
Structure prediction by ZEFSAII (Michael W. Deem and Ramdas Pophale) SiO2 
 PCOD8026046
Probable space group: P -1
;
_chemical_formula_sum "Si O2"
_cell_formula_units_Z 12
_cell_length_a 5.441540
_cell_length_b 15.854960
_cell_length_c 8.944891
_cell_angle_alpha 54.650106
_cell_angle_beta 121.869260
_cell_angle_gamma 118.028911
_cell_volume 519.276806
_symmetry_space_group_name_H-M "P -1"
_symmetry_group_IT_number 2
_symmetry_cell_setting 'triclinic'
loop_
_space_group_symop_operation_xyz
x,y,z
-x,-y,-z
loop_
_atom_site_type_symbol
_atom_site_label
_atom_site_fract_x
_atom_site_fract_y
_atom_site_fract_z
Si Si1 0.084832 0.367938 0.311346
Si Si2 0.565939 0.433005 0.950274
Si Si3 0.035742 0.380828 0.627227
Si Si4 0.557019 0.788631 0.386245
Si Si5 0.325275 0.062725 0.985506
Si Si6 0.353565 0.009254 0.601801
O O1 0.257177 0.485992 0.198802
O O2 0.117663 0.358966 0.508075
O O3 0.225604 0.273098 0.392737
O O4 0.750437 0.350441 0.157575
O O5 0.276482 0.364412 0.844335
O O6 0.500000 0.500000 0.000000
O O7 0.000000 0.500000 0.500000
O O8 0.741078 0.296098 0.667398
O O9 0.492668 0.877544 0.387809
O O10 0.703014 0.835201 0.225694
O O11 0.547652 0.085151 0.177041
O O12 0.500000 0.000000 0.000000
O O13 0.000000 0.000000 0.000000
O O14 0.500000 0.000000 0.500000
O O15 0.000000 0.000000 0.500000
#
# Coordination Sequence:
#
# PCOD8026046 Si02
#       6
#     2   2   2   2   2   2
#     4  11  24  43  71 104 150 198 255 301 367 447
#     4  11  23  45  70 102 154 199 249 306 363 439
#     4  12  24  45  70 107 152 199 243 307 372 453
#     4  11  26  45  74 106 143 202 251 300 388 460
#     4  10  23  47  75 102 143 192 246 314 382 448
#     4  11  25  50  76 106 148 189 249 331 382 441
#
# _framework density 23.109058999999998
#
# number of rings (size 3 to 8) (size 9 to 14) (size 15 to 20)
#    0.000    1.000    3.333    2.500    7.000    0.000 
#    9.000    0.000    0.000    0.000    0.000    0.000 
#    0.000    0.000    0.000    0.000    0.000    0.000 
#
# Total GULP energy -148709.850926 kJ/mol
# GULP energy per Si atom -12392.487577 kJ/mol
# Density = 2.305646 g / cm^3
# Si number density = 23.109059 Si / 1000 Ang^3
#
#
#
# Elastic Constant Matrix: (Units=GPa)
#
#
# Indices 1 2 3 4 5 6 
#
# 1 155.5079 50.8835 73.0762 14.0714 2.0101 18.9425
# 2 50.8835 107.0092 66.3663 6.2806 4.8265 17.6489
# 3 73.0762 66.3663 170.4294 28.5943 20.1746 5.9531
# 4 14.0714 6.2806 28.5943 39.6003 3.9052 2.8111
# 5 2.0101 4.8265 20.1746 3.9052 56.0990 4.6227
# 6 18.9425 17.6489 5.9531 2.8111 4.6227 39.3487
#
#
#
# Elastic Compliance Matrix: (Units=1/GPa)
#
#
# Indices 1 2 3 4 5 6 
#
# 1 0.008869 -0.001858 -0.003020 -0.000578 0.001222 -0.003082
# 2 -0.001858 0.013923 -0.004943 0.002279 0.000889 -0.004870
# 3 -0.003020 -0.004943 0.010259 -0.005457 -0.003012 0.002862
# 4 -0.000578 0.002279 -0.005457 0.029186 -0.000080 -0.001994
# 5 0.001222 0.000889 -0.003012 -0.000080 0.019022 -0.002760
# 6 -0.003082 -0.004870 0.002862 -0.001994 -0.002760 0.029115
#
#
# Mechanical properties :
#
#
# Convention : Reuss Voigt Hill
#
# Bulk Modulus (GPa) = 74.56136 90.39986 82.48061
# Shear Modulus (GPa) = 37.17884 43.18430 40.18157
#
# Velocity S-wave (km/s) = 4.01539 4.32756 4.17439
# Velocity P-wave (km/s) = 7.33709 8.01087 7.68137
#
# Compressibility (1/GPa) = 0.01341177
#
# Stress axis : x y z
#
# Youngs Moduli (GPa) = 112.74910 71.82326 97.47405
#
# Poissons Ratio (x) = 0.13341 0.29433
# Poissons Ratio (y) = 0.20944 0.48179
# Poissons Ratio (z) = 0.34045 0.35500
#
# Static dielectric constant tensor:
#      x y z
#    x 4.166310 0.188190 -0.147910 
#    y 0.188190 4.080300 0.047850 
#    z -0.147910 0.047850 5.009300 
# 
# 
# High freq. dielectric constant tensor:
#      x y z
#    x 1.926470 -0.001850 0.006890 
#    y -0.001850 1.886760 0.006860 
#    z 0.006890 0.006860 1.939770 
# 
# From -- ./inp_files/134782.got.cif
#   From: 2010.06.25/outbox.cif.g09.slc.cpg/sg2_68_cif.got.tgz:134782.got - 2010.06.27 13:26:56.
