data_PCOD8026668
_publ_section_title
;
Structure prediction by ZEFSAII (Michael W. Deem and Ramdas Pophale) SiO2 
 PCOD8026668
Probable space group: P -1
;
_chemical_formula_sum "Si O2"
_cell_formula_units_Z 16
_cell_length_a 15.064824
_cell_length_b 15.529055
_cell_length_c 8.802019
_cell_angle_alpha 123.263685
_cell_angle_beta 94.388516
_cell_angle_gamma 37.880279
_cell_volume 760.963663
_symmetry_space_group_name_H-M "P -1"
_symmetry_group_IT_number 2
_symmetry_cell_setting 'triclinic'
loop_
_space_group_symop_operation_xyz
x,y,z
-x,-y,-z
loop_
_atom_site_type_symbol
_atom_site_label
_atom_site_fract_x
_atom_site_fract_y
_atom_site_fract_z
Si Si1 0.417138 0.274324 0.058055
Si Si2 0.228481 0.147119 0.106300
Si Si3 0.577709 0.507236 0.810558
Si Si4 0.664870 0.430771 0.101353
Si Si5 0.362792 0.044576 0.492644
Si Si6 0.322651 0.924339 0.621910
Si Si7 0.035296 0.551043 0.355138
Si Si8 0.921956 0.013139 0.364853
O O1 0.550431 0.072564 0.001603
O O2 0.503030 0.167268 0.798595
O O3 0.446329 0.366679 0.174423
O O4 0.183232 0.483745 0.238517
O O5 0.174509 0.308090 0.168939
O O6 0.058637 0.303139 0.362638
O O7 0.240780 0.037972 0.887936
O O8 0.383028 0.635921 0.915247
O O9 0.747518 0.263223 0.510314
O O10 0.629396 0.483890 0.968081
O O11 0.545550 0.642584 0.383787
O O12 0.903088 0.195475 0.934072
O O13 0.145478 0.295379 0.632392
O O14 0.500000 0.000000 0.500000
O O15 0.321041 0.030934 0.631074
O O16 0.174306 0.994140 0.594445
O O17 0.000000 0.000000 0.500000
#
# Coordination Sequence:
#
# PCOD8026668 Si02
#       8
#     2   2   2   2   2   2   2   2
#     4  11  22  40  66  90 122 170 213 255 313 376
#     4  10  24  43  61  88 127 172 215 255 313 379
#     4   9  18  34  58  91 119 158 202 251 311 370
#     4   9  18  35  57  89 128 154 193 259 315 364
#     4  11  25  39  62  99 127 156 207 272 317 373
#     4  11  22  38  62  94 125 163 208 258 321 368
#     4  10  24  44  64  87 127 171 215 257 313 376
#     4   9  20  33  58  91 127 160 200 252 316 374
#
# _framework density 21.025971999999999
#
# number of rings (size 3 to 8) (size 9 to 14) (size 15 to 20)
#    0.000    2.000    1.250    1.875    3.500    7.000 
#    0.000    2.500    0.000    4.500    0.000    0.000 
#    0.000    0.000    0.000    0.000    0.000    0.000 
#
# Total GULP energy -198285.563622 kJ/mol
# GULP energy per Si atom -12392.847726 kJ/mol
# Density = 2.097812 g / cm^3
# Si number density = 21.025972 Si / 1000 Ang^3
#
#
#
# Elastic Constant Matrix: (Units=GPa)
#
#
# Indices 1 2 3 4 5 6 
#
# 1 132.8247 54.5153 46.9597 23.0619 -9.6569 7.0990
# 2 54.5153 67.9834 38.2042 14.3771 -4.3861 2.8677
# 3 46.9597 38.2042 135.2022 19.3299 -2.3525 -3.7916
# 4 23.0619 14.3771 19.3299 28.6798 -7.6353 4.6967
# 5 -9.6569 -4.3861 -2.3525 -7.6353 34.7710 4.3348
# 6 7.0990 2.8677 -3.7916 4.6967 4.3348 24.8076
#
#
#
# Elastic Compliance Matrix: (Units=1/GPa)
#
#
# Indices 1 2 3 4 5 6 
#
# 1 0.012260 -0.007938 -0.001473 -0.004047 0.001708 -0.002348
# 2 -0.007938 0.023716 -0.003515 -0.003090 -0.000079 -0.000408
# 3 -0.001473 -0.003515 0.009617 -0.004532 -0.001626 0.003440
# 4 -0.004047 -0.003090 -0.004532 0.046903 0.009695 -0.009751
# 5 0.001708 -0.000079 -0.001626 0.009695 0.032265 -0.008202
# 6 -0.002348 -0.000408 0.003440 -0.009751 -0.008202 0.044834
#
#
# Mechanical properties :
#
#
# Convention : Reuss Voigt Hill
#
# Bulk Modulus (GPa) = 50.65633 68.37428 59.51530
# Shear Modulus (GPa) = 24.74888 30.74043 27.74465
#
# Velocity S-wave (km/s) = 3.43456 3.82779 3.63649
# Velocity P-wave (km/s) = 6.31449 7.21980 6.78227
#
# Compressibility (1/GPa) = 0.01974087
#
# Stress axis : x y z
#
# Youngs Moduli (GPa) = 81.56704 42.16492 103.98060
#
# Poissons Ratio (x) = 0.33472 0.15312
# Poissons Ratio (y) = 0.64751 0.36552
# Poissons Ratio (z) = 0.12011 0.14822
#
# Static dielectric constant tensor:
#      x y z
#    x 3.717090 -0.036770 -0.096470 
#    y -0.036770 3.535700 0.304010 
#    z -0.096470 0.304010 4.330350 
# 
# 
# High freq. dielectric constant tensor:
#      x y z
#    x 1.822590 0.005550 -0.004160 
#    y 0.005550 1.787080 0.019500 
#    z -0.004160 0.019500 1.840860 
# 
# From -- ./inp_files/313907.got.cif
#   From: 2010.06.25/outbox.cif.g09.slc.cpg/sg2_157_cif.got.tgz:313907.got - 2010.06.27 13:26:56.
