data_PCOD8026443
_publ_section_title
;
Structure prediction by ZEFSAII (Michael W. Deem and Ramdas Pophale) SiO2 
 PCOD8026443
Probable space group: P -1
;
_chemical_formula_sum "Si O2"
_cell_formula_units_Z 12
_cell_length_a 15.943016
_cell_length_b 10.282639
_cell_length_c 9.909805
_cell_angle_alpha 30.093004
_cell_angle_beta 40.808302
_cell_angle_gamma 53.193611
_cell_volume 524.580960
_symmetry_space_group_name_H-M "P -1"
_symmetry_group_IT_number 2
_symmetry_cell_setting 'triclinic'
loop_
_space_group_symop_operation_xyz
x,y,z
-x,-y,-z
loop_
_atom_site_type_symbol
_atom_site_label
_atom_site_fract_x
_atom_site_fract_y
_atom_site_fract_z
Si Si1 0.793932 0.846909 0.335832
Si Si2 0.010826 0.264222 0.599566
Si Si3 0.963223 0.268040 0.358898
Si Si4 0.493199 0.510995 0.657012
Si Si5 0.292407 0.628299 0.313232
Si Si6 0.556343 0.946292 0.686470
O O1 0.783366 0.556973 0.544101
O O2 0.650401 0.911333 0.478794
O O3 0.872229 0.869953 0.362080
O O4 0.873586 0.059663 0.946125
O O5 0.041172 0.349447 0.331236
O O6 0.000000 0.500000 0.500000
O O7 0.808441 0.229750 0.608455
O O8 0.000000 0.000000 0.500000
O O9 0.000000 0.500000 0.000000
O O10 0.500000 0.500000 0.500000
O O11 0.639489 0.551826 0.504131
O O12 0.420460 0.749642 0.573174
O O13 0.412540 0.236944 0.060665
O O14 0.405843 0.847507 0.912277
#
# Coordination Sequence:
#
# PCOD8026443 Si02
#       6
#     2   2   2   2   2   2
#     4  11  24  46  73 108 145 186 248 297 373 425
#     4  11  26  46  75 103 149 192 247 305 351 435
#     4  12  28  47  73 105 142 194 244 294 364 430
#     4  10  24  42  65 100 147 188 231 289 363 433
#     4  10  25  44  73 101 147 182 238 306 355 433
#     4  10  25  42  73 104 137 188 233 298 364 427
#
# _framework density 22.875402999999999
#
# number of rings (size 3 to 8) (size 9 to 14) (size 15 to 20)
#    1.000    0.333    1.667    2.000    9.333    3.333 
#    0.000    0.000    0.000    0.000    0.000    0.000 
#    0.000    0.000    0.000    0.000    0.000    0.000 
#
# Total GULP energy -148777.001922 kJ/mol
# GULP energy per Si atom -12398.083494 kJ/mol
# Density = 2.282334 g / cm^3
# Si number density = 22.875403 Si / 1000 Ang^3
#
#
#
# Elastic Constant Matrix: (Units=GPa)
#
#
# Indices 1 2 3 4 5 6 
#
# 1 85.8110 41.8763 49.7358 13.9103 11.3671 13.1966
# 2 41.8763 183.0892 52.0322 -2.3079 1.4539 -10.6495
# 3 49.7358 52.0322 98.3602 1.9055 10.2817 -12.8463
# 4 13.9103 -2.3079 1.9055 43.0655 -9.9053 -0.4215
# 5 11.3671 1.4539 10.2817 -9.9053 46.4607 11.0830
# 6 13.1966 -10.6495 -12.8463 -0.4215 11.0830 40.1088
#
#
#
# Elastic Compliance Matrix: (Units=1/GPa)
#
#
# Indices 1 2 3 4 5 6 
#
# 1 0.022662 -0.002757 -0.011133 -0.007523 -0.001901 -0.011308
# 2 -0.002757 0.006804 -0.002080 0.001552 0.000814 0.001839
# 3 -0.011133 -0.002080 0.018497 0.002016 -0.003249 0.009954
# 4 -0.007523 0.001552 0.002016 0.027199 0.006673 0.001975
# 5 -0.001901 0.000814 -0.003249 0.006673 0.025839 -0.007269
# 6 -0.011308 0.001839 0.009954 0.001975 -0.007269 0.034358
#
#
# Mechanical properties :
#
#
# Convention : Reuss Voigt Hill
#
# Bulk Modulus (GPa) = 62.41187 72.72766 67.56977
# Shear Modulus (GPa) = 28.96225 40.83473 34.89849
#
# Velocity S-wave (km/s) = 3.56207 4.22962 3.91012
# Velocity P-wave (km/s) = 6.65285 7.46424 7.07020
#
# Compressibility (1/GPa) = 0.01602259
#
# Stress axis : x y z
#
# Youngs Moduli (GPa) = 44.12737 146.98189 54.06261
#
# Poissons Ratio (x) = 0.40520 0.60187
# Poissons Ratio (y) = 0.12165 0.11246
# Poissons Ratio (z) = 0.49127 0.30575
#
# Static dielectric constant tensor:
#      x y z
#    x 4.291070 -0.271450 0.163220 
#    y -0.271450 4.089550 0.011460 
#    z 0.163220 0.011460 4.010650 
# 
# 
# High freq. dielectric constant tensor:
#      x y z
#    x 1.906350 -0.013270 0.013790 
#    y -0.013270 1.903380 -0.003480 
#    z 0.013790 -0.003480 1.898090 
# 
# From -- ./inp_files/289358.got.cif
#   From: 2010.06.25/outbox.cif.g09.slc.cpg/sg2_145_cif.got.tgz:289358.got - 2010.06.27 13:26:56.
