data_PCOD8026869
_publ_section_title
;
Structure prediction by ZEFSAII (Michael W. Deem and Ramdas Pophale) SiO2 
 PCOD8026869
Probable space group: P -1
;
_chemical_formula_sum "Si O2"
_cell_formula_units_Z 16
_cell_length_a 9.482536
_cell_length_b 5.327140
_cell_length_c 15.579427
_cell_angle_alpha 107.746147
_cell_angle_beta 87.119046
_cell_angle_gamma 102.719713
_cell_volume 731.028679
_symmetry_space_group_name_H-M "P -1"
_symmetry_group_IT_number 2
_symmetry_cell_setting 'triclinic'
loop_
_space_group_symop_operation_xyz
x,y,z
-x,-y,-z
loop_
_atom_site_type_symbol
_atom_site_label
_atom_site_fract_x
_atom_site_fract_y
_atom_site_fract_z
Si Si1 0.926015 0.766362 0.889418
Si Si2 0.627644 0.870040 0.879369
Si Si3 0.623382 0.171246 0.570536
Si Si4 0.993764 0.916941 0.720851
Si Si5 0.069669 0.324114 0.898402
Si Si6 0.377023 0.621271 0.973141
Si Si7 0.329304 0.209508 0.325523
Si Si8 0.918951 0.193412 0.469365
O O1 0.750419 0.717229 0.897420
O O2 0.972123 0.712183 0.782966
O O3 0.981734 0.565694 0.933275
O O4 0.996646 0.920409 0.059555
O O5 0.462410 0.772742 0.904634
O O6 0.620871 0.846701 0.776240
O O7 0.680861 0.180164 0.939284
O O8 0.606243 0.478712 0.618256
O O9 0.767391 0.170379 0.515310
O O10 0.500000 0.000000 0.500000
O O11 0.612502 0.006413 0.641977
O O12 0.843160 0.866659 0.669277
O O13 0.106505 0.882823 0.639440
O O14 0.044141 0.218015 0.789799
O O15 0.239858 0.406259 0.920457
O O16 0.500000 0.500000 0.000000
O O17 0.000000 0.500000 0.500000
O O18 0.000000 0.000000 0.500000
#
# Coordination Sequence:
#
# PCOD8026869 Si02
#       8
#     2   2   2   2   2   2   2   2
#     4   9  23  42  68 101 130 175 233 275 331 399
#     4  10  26  43  73  98 137 187 223 283 353 415
#     4  12  26  45  68 103 139 180 231 280 334 409
#     4   9  22  38  70  95 135 170 232 269 341 381
#     4  10  24  43  70 101 135 170 236 280 327 409
#     4  11  27  47  68 102 143 179 226 282 358 411
#     4  11  24  45  71  98 138 181 229 277 346 401
#     4  12  23  39  66  98 134 178 221 279 332 394
#
# _framework density 21.886968
#
# number of rings (size 3 to 8) (size 9 to 14) (size 15 to 20)
#    0.750    0.750    2.500    0.375   12.250    2.000 
#    2.250    0.000    0.000    0.000    0.000    0.000 
#    0.000    0.000    0.000    0.000    0.000    0.000 
#
# Total GULP energy -198290.677984 kJ/mol
# GULP energy per Si atom -12393.167374 kJ/mol
# Density = 2.183715 g / cm^3
# Si number density = 21.886968 Si / 1000 Ang^3
#
#
#
# Elastic Constant Matrix: (Units=GPa)
#
#
# Indices 1 2 3 4 5 6 
#
# 1 100.4300 39.5814 44.6672 3.4699 13.0296 6.1300
# 2 39.5814 118.2916 64.2884 4.7560 13.6688 -11.3365
# 3 44.6672 64.2884 124.2163 13.1982 -9.7103 4.7142
# 4 3.4699 4.7560 13.1982 29.8164 0.4213 13.8361
# 5 13.0296 13.6688 -9.7103 0.4213 42.8715 6.5129
# 6 6.1300 -11.3365 4.7142 13.8361 6.5129 35.9458
#
#
#
# Elastic Compliance Matrix: (Units=1/GPa)
#
#
# Indices 1 2 3 4 5 6 
#
# 1 0.013166 -0.002007 -0.004101 0.001720 -0.003960 -0.002285
# 2 -0.002007 0.015017 -0.007656 -0.002552 -0.007157 0.008361
# 3 -0.004101 -0.007656 0.014553 -0.003081 0.007593 -0.003814
# 4 0.001720 -0.002552 -0.003081 0.043294 0.001856 -0.017695
# 5 -0.003960 -0.007157 0.007593 0.001856 0.029834 -0.008697
# 6 -0.002285 0.008361 -0.003814 -0.017695 -0.008697 0.039733
#
#
# Mechanical properties :
#
#
# Convention : Reuss Voigt Hill
#
# Bulk Modulus (GPa) = 65.75579 71.11244 68.43412
# Shear Modulus (GPa) = 26.56802 34.68681 30.62742
#
# Velocity S-wave (km/s) = 3.48785 3.98529 3.74484
# Velocity P-wave (km/s) = 6.80652 7.33062 7.07343
#
# Compressibility (1/GPa) = 0.01520779
#
# Stress axis : x y z
#
# Youngs Moduli (GPa) = 75.95257 66.59084 68.71243
#
# Poissons Ratio (x) = 0.13365 0.28181
# Poissons Ratio (y) = 0.15244 0.52607
# Poissons Ratio (z) = 0.31150 0.50983
#
# Static dielectric constant tensor:
#      x y z
#    x 3.942970 0.193690 -0.164930 
#    y 0.193690 4.212550 -0.099800 
#    z -0.164930 -0.099800 4.212370 
# 
# 
# High freq. dielectric constant tensor:
#      x y z
#    x 1.846440 0.006050 -0.003930 
#    y 0.006050 1.869770 -0.002740 
#    z -0.003930 -0.002740 1.883910 
# 
# From -- ./inp_files/488676.got.cif
#   From: 2010.06.25/outbox.cif.g09.slc.cpg/sg2_245_cif.got.tgz:488676.got - 2010.06.27 13:26:56.
