data_PCOD8026568
_publ_section_title
;
Structure prediction by ZEFSAII (Michael W. Deem and Ramdas Pophale) SiO2 
 PCOD8026568
Probable space group: P -1
;
_chemical_formula_sum "Si O2"
_cell_formula_units_Z 14
_cell_length_a 9.455965
_cell_length_b 9.601131
_cell_length_c 8.847319
_cell_angle_alpha 50.088464
_cell_angle_beta 59.670549
_cell_angle_gamma 69.173771
_cell_volume 531.179713
_symmetry_space_group_name_H-M "P -1"
_symmetry_group_IT_number 2
_symmetry_cell_setting 'triclinic'
loop_
_space_group_symop_operation_xyz
x,y,z
-x,-y,-z
loop_
_atom_site_type_symbol
_atom_site_label
_atom_site_fract_x
_atom_site_fract_y
_atom_site_fract_z
Si Si1 0.732195 0.939166 0.400154
Si Si2 0.380628 0.990978 0.272811
Si Si3 0.382302 0.341432 0.559229
Si Si4 0.918852 0.519660 0.870922
Si Si5 0.073963 0.844899 0.393070
Si Si6 0.614763 0.639734 0.131387
Si Si7 0.130456 0.829537 0.047631
O O1 0.727846 0.746104 0.449117
O O2 0.912608 0.967735 0.351439
O O3 0.602872 0.956452 0.593947
O O4 0.706982 0.100438 0.175606
O O5 0.479632 0.799015 0.344183
O O6 0.190449 0.963190 0.351216
O O7 0.446188 0.150449 0.019054
O O8 0.458889 0.513974 0.317998
O O9 0.288072 0.386454 0.738776
O O10 0.935935 0.341231 0.884504
O O11 0.013307 0.669375 0.628473
O O12 0.728494 0.578263 0.970227
O O13 0.000000 0.500000 0.000000
O O14 0.173002 0.779778 0.232888
O O15 0.000000 0.000000 0.000000
#
# Coordination Sequence:
#
# PCOD8026568 Si02
#       7
#     2   2   2   2   2   2   2
#     4  11  23  44  72 103 147 183 243 299 361 426
#     4  12  24  47  74 107 145 196 241 299 366 435
#     4  11  26  48  69 104 144 200 243 298 358 438
#     4  12  25  43  72 107 147 189 239 302 365 427
#     4  11  24  44  72 107 145 183 244 298 370 424
#     4  11  26  46  72 100 148 194 248 294 362 436
#     4  10  24  42  69 106 146 187 231 299 367 433
#
# _framework density 26.356425000000002
#
# number of rings (size 3 to 8) (size 9 to 14) (size 15 to 20)
#    0.000    0.857    1.429    5.143    8.000    0.571 
#    7.714    0.000    0.000    0.000    0.000    0.000 
#    0.000    0.000    0.000    0.000    0.000    0.000 
#
# Total GULP energy -173511.901071 kJ/mol
# GULP energy per Si atom -12393.707219 kJ/mol
# Density = 2.629644 g / cm^3
# Si number density = 26.356425 Si / 1000 Ang^3
#
#
#
# Elastic Constant Matrix: (Units=GPa)
#
#
# Indices 1 2 3 4 5 6 
#
# 1 39.6389 9.4753 24.3550 5.7417 -3.2804 12.3312
# 2 9.4753 121.8046 59.5914 1.1669 4.2728 31.3593
# 3 24.3550 59.5914 252.8639 -3.4092 4.1102 18.8711
# 4 5.7417 1.1669 -3.4092 45.9033 10.4408 12.5485
# 5 -3.2804 4.2728 4.1102 10.4408 22.2193 -1.0526
# 6 12.3312 31.3593 18.8711 12.5485 -1.0526 44.6636
#
#
#
# Elastic Compliance Matrix: (Units=1/GPa)
#
#
# Indices 1 2 3 4 5 6 
#
# 1 0.029729 0.000392 -0.002644 -0.003647 0.006223 -0.006195
# 2 0.000392 0.011308 -0.002023 0.002428 -0.003260 -0.007952
# 3 -0.002644 -0.002023 0.004739 0.001108 -0.001408 -0.000196
# 4 -0.003647 0.002428 0.001108 0.028241 -0.014929 -0.009453
# 5 0.006223 -0.003260 -0.001408 -0.014929 0.054141 0.006636
# 6 -0.006195 -0.007952 -0.000196 -0.009453 0.006636 0.032578
#
#
# Mechanical properties :
#
#
# Convention : Reuss Voigt Hill
#
# Bulk Modulus (GPa) = 26.86341 66.79453 46.82897
# Shear Modulus (GPa) = 27.51881 43.94960 35.73421
#
# Velocity S-wave (km/s) = 3.23476 4.08795 3.68612
# Velocity P-wave (km/s) = 4.91590 6.90504 5.99356
#
# Compressibility (1/GPa) = 0.03722536
#
# Stress axis : x y z
#
# Youngs Moduli (GPa) = 33.63743 88.43571 211.03111
#
# Poissons Ratio (x) = -0.03471 0.55793
# Poissons Ratio (y) = -0.01320 0.42701
# Poissons Ratio (z) = 0.08893 0.17894
#
# Static dielectric constant tensor:
#      x y z
#    x 4.473300 0.088960 0.139000 
#    y 0.088960 5.122540 0.692840 
#    z 0.139000 0.692840 5.813080 
# 
# 
# High freq. dielectric constant tensor:
#      x y z
#    x 2.036100 0.013460 0.003080 
#    y 0.013460 2.063390 0.018560 
#    z 0.003080 0.018560 2.089750 
# 
# From -- ./inp_files/241897.got.cif
#   From: 2010.06.25/outbox.cif.g09.slc.cpg/sg2_121_cif.got.tgz:241897.got - 2010.06.27 13:26:56.
