data_PCOD8026647
_publ_section_title
;
Structure prediction by ZEFSAII (Michael W. Deem and Ramdas Pophale) SiO2 
 PCOD8026647
Probable space group: P -1
;
_chemical_formula_sum "Si O2"
_cell_formula_units_Z 16
_cell_length_a 11.264060
_cell_length_b 9.459684
_cell_length_c 13.089095
_cell_angle_alpha 135.012538
_cell_angle_beta 126.432034
_cell_angle_gamma 84.244937
_cell_volume 656.075674
_symmetry_space_group_name_H-M "P -1"
_symmetry_group_IT_number 2
_symmetry_cell_setting 'triclinic'
loop_
_space_group_symop_operation_xyz
x,y,z
-x,-y,-z
loop_
_atom_site_type_symbol
_atom_site_label
_atom_site_fract_x
_atom_site_fract_y
_atom_site_fract_z
Si Si1 0.015449 0.180720 0.183459
Si Si2 0.245326 0.344327 0.734632
Si Si3 0.250065 0.306033 0.944544
Si Si4 0.123445 0.695569 0.498403
Si Si5 0.858624 0.978767 0.663728
Si Si6 0.646210 0.161695 0.737801
Si Si7 0.502106 0.900511 0.153980
Si Si8 0.304013 0.974610 0.924701
O O1 0.095969 0.448898 0.318011
O O2 0.147190 0.205838 0.352718
O O3 0.814882 0.060970 0.057086
O O4 0.000000 0.000000 0.000000
O O5 0.239532 0.230775 0.782806
O O6 0.268077 0.187531 0.580472
O O7 0.063680 0.331700 0.622894
O O8 0.423780 0.616348 0.958560
O O9 0.364694 0.221298 0.018938
O O10 0.323442 0.582301 0.133265
O O11 0.055234 0.155972 0.814030
O O12 0.283599 0.919391 0.628792
O O13 0.179194 0.740477 0.669331
O O14 0.811753 0.149779 0.784042
O O15 0.592082 0.071115 0.780797
O O16 0.500000 0.000000 0.500000
O O17 0.470299 0.987707 0.071475
#
# Coordination Sequence:
#
# PCOD8026647 Si02
#       8
#     2   2   2   2   2   2   2   2
#     4  11  23  40  68 104 136 180 227 284 339 413
#     4  11  23  46  73 103 139 177 238 287 340 413
#     4  10  24  42  73 100 131 185 231 283 346 410
#     4  12  24  43  75 102 140 184 228 286 352 402
#     4  11  23  43  71  96 135 185 229 280 349 405
#     4  11  27  46  64 100 146 181 228 288 345 414
#     4  11  26  44  72 104 141 181 226 289 344 415
#     4  11  22  45  69 104 137 174 238 283 343 411
#
# _framework density 24.387429000000001
#
# number of rings (size 3 to 8) (size 9 to 14) (size 15 to 20)
#    0.000    1.000    3.750    3.000    3.500    4.000 
#    0.000    4.375    0.000    0.000    0.000    0.000 
#    0.000    0.000    0.000    0.000    0.000    0.000 
#
# Total GULP energy -198339.298432 kJ/mol
# GULP energy per Si atom -12396.206152 kJ/mol
# Density = 2.433192 g / cm^3
# Si number density = 24.387429 Si / 1000 Ang^3
#
#
#
# Elastic Constant Matrix: (Units=GPa)
#
#
# Indices 1 2 3 4 5 6 
#
# 1 87.9204 50.8636 49.7544 15.8331 -15.8444 3.3820
# 2 50.8636 150.9243 47.7216 7.7691 -4.9775 -1.1674
# 3 49.7544 47.7216 114.4156 15.8598 -22.3872 3.7362
# 4 15.8331 7.7691 15.8598 35.5628 0.6863 -11.1713
# 5 -15.8444 -4.9775 -22.3872 0.6863 48.1206 -1.1857
# 6 3.3820 -1.1674 3.7362 -11.1713 -1.1857 39.8281
#
#
#
# Elastic Compliance Matrix: (Units=1/GPa)
#
#
# Indices 1 2 3 4 5 6 
#
# 1 0.018277 -0.004322 -0.004517 -0.006149 0.003486 -0.002876
# 2 -0.004322 0.008691 -0.002296 0.001457 -0.001584 0.001199
# 3 -0.004517 -0.002296 0.013145 -0.004037 0.004401 -0.001918
# 4 -0.006149 0.001457 -0.004037 0.035833 -0.003995 0.010875
# 5 0.003486 -0.001584 0.004401 -0.003995 0.023841 -0.001166
# 6 -0.002876 0.001199 -0.001918 0.010875 -0.001166 0.028583
#
#
# Mechanical properties :
#
#
# Convention : Reuss Voigt Hill
#
# Bulk Modulus (GPa) = 56.04503 72.21549 64.13026
# Shear Modulus (GPa) = 31.93127 38.36367 35.14747
#
# Velocity S-wave (km/s) = 3.62240 3.97053 3.80045
# Velocity P-wave (km/s) = 6.36606 7.12012 6.75362
#
# Compressibility (1/GPa) = 0.01784280
#
# Stress axis : x y z
#
# Youngs Moduli (GPa) = 54.71495 115.06775 76.07273
#
# Poissons Ratio (x) = 0.49733 0.34359
# Poissons Ratio (y) = 0.23648 0.17468
# Poissons Ratio (z) = 0.24712 0.26422
#
# Static dielectric constant tensor:
#      x y z
#    x 4.561310 1.030640 0.509020 
#    y 1.030640 2.934040 -1.333820 
#    z 0.509020 -1.333820 3.598720 
# 
# 
# High freq. dielectric constant tensor:
#      x y z
#    x 1.992410 -0.001860 -0.002110 
#    y -0.001860 1.982400 -0.004410 
#    z -0.002110 -0.004410 1.962570 
# 
# From -- ./inp_files/420112.got.cif
#   From: 2010.06.25/outbox.cif.g09.slc.cpg/sg2_211_cif.got.tgz:420112.got - 2010.06.27 13:26:56.
