data_PCOD8026810
_publ_section_title
;
Structure prediction by ZEFSAII (Michael W. Deem and Ramdas Pophale) SiO2 
 PCOD8026810
Probable space group: P -1
;
_chemical_formula_sum "Si O2"
_cell_formula_units_Z 16
_cell_length_a 11.905362
_cell_length_b 15.247861
_cell_length_c 7.531563
_cell_angle_alpha 89.661991
_cell_angle_beta 72.057165
_cell_angle_gamma 36.416417
_cell_volume 697.686809
_symmetry_space_group_name_H-M "P -1"
_symmetry_group_IT_number 2
_symmetry_cell_setting 'triclinic'
loop_
_space_group_symop_operation_xyz
x,y,z
-x,-y,-z
loop_
_atom_site_type_symbol
_atom_site_label
_atom_site_fract_x
_atom_site_fract_y
_atom_site_fract_z
Si Si1 0.005157 0.880008 0.179552
Si Si2 0.657039 0.418804 0.759144
Si Si3 0.274064 0.209148 0.277538
Si Si4 0.970177 0.959497 0.685521
Si Si5 0.573416 0.080606 0.827896
Si Si6 0.746497 0.352908 0.273736
Si Si7 0.502526 0.832210 0.527700
Si Si8 0.786821 0.490634 0.482492
O O1 0.122692 0.776036 0.310085
O O2 0.755477 0.006064 0.310191
O O3 0.031888 0.968893 0.150652
O O4 0.112653 0.760680 0.966448
O O5 0.516187 0.486566 0.645942
O O6 0.727569 0.475766 0.694486
O O7 0.500000 0.500000 0.000000
O O8 0.382799 0.163917 0.413510
O O9 0.017444 0.395677 0.399720
O O10 0.292863 0.093749 0.238620
O O11 0.387804 0.194226 0.067610
O O12 0.176006 0.764036 0.609393
O O13 0.738891 0.054710 0.797211
O O14 0.000000 0.000000 0.500000
O O15 0.452446 0.175505 0.700059
O O16 0.807549 0.412319 0.304777
O O17 0.596882 0.678732 0.534670
#
# Coordination Sequence:
#
# PCOD8026810 Si02
#       8
#     2   2   2   2   2   2   2   2
#     4  11  24  43  73 110 142 191 242 301 366 441
#     4  10  24  43  68 106 146 188 235 295 368 441
#     4  11  26  50  73 105 148 195 252 302 362 442
#     4  12  22  41  72 106 147 182 246 302 363 438
#     4  11  25  46  76 108 143 197 250 303 363 438
#     4  11  24  44  69 105 150 191 231 298 376 437
#     4  12  26  47  77 107 145 195 250 308 364 437
#     4  12  25  47  71 104 149 192 241 302 376 433
#
# _framework density 22.932925999999998
#
# number of rings (size 3 to 8) (size 9 to 14) (size 15 to 20)
#    0.000    0.750    2.500    4.500    3.500    3.500 
#    4.500    0.000    0.000    0.000    0.000    0.000 
#    0.000    0.000    0.000    0.000    0.000    0.000 
#
# Total GULP energy -198440.014573 kJ/mol
# GULP energy per Si atom -12402.500911 kJ/mol
# Density = 2.288073 g / cm^3
# Si number density = 22.932926 Si / 1000 Ang^3
#
#
#
# Elastic Constant Matrix: (Units=GPa)
#
#
# Indices 1 2 3 4 5 6 
#
# 1 118.0994 33.8190 49.8285 -1.6657 -11.1372 -25.1671
# 2 33.8190 145.1121 51.3933 7.4816 -12.6222 -27.5522
# 3 49.8285 51.3933 115.8311 -8.0559 -16.6713 -16.3176
# 4 -1.6657 7.4816 -8.0559 32.5909 -2.8625 -2.7138
# 5 -11.1372 -12.6222 -16.6713 -2.8625 40.8941 0.2302
# 6 -25.1671 -27.5522 -16.3176 -2.7138 0.2302 46.1893
#
#
#
# Elastic Compliance Matrix: (Units=1/GPa)
#
#
# Indices 1 2 3 4 5 6 
#
# 1 0.011301 -0.000270 -0.003874 0.000191 0.001402 0.004632
# 2 -0.000270 0.009135 -0.003388 -0.002517 0.001167 0.003952
# 3 -0.003874 -0.003388 0.012642 0.004044 0.003333 0.000556
# 4 0.000191 -0.002517 0.004044 0.032713 0.003203 0.001937
# 5 0.001402 0.001167 0.003333 0.003203 0.026763 0.002692
# 6 0.004632 0.003952 0.000556 0.001937 0.002692 0.026828
#
#
# Mechanical properties :
#
#
# Convention : Reuss Voigt Hill
#
# Bulk Modulus (GPa) = 55.50809 72.12488 63.81649
# Shear Modulus (GPa) = 35.59937 40.20165 37.90051
#
# Velocity S-wave (km/s) = 3.94423 4.19144 4.06971
# Velocity P-wave (km/s) = 6.70818 7.41234 7.06904
#
# Compressibility (1/GPa) = 0.01801539
#
# Stress axis : x y z
#
# Youngs Moduli (GPa) = 88.48416 109.46347 79.10096
#
# Poissons Ratio (x) = 0.02957 0.30645
# Poissons Ratio (y) = 0.02390 0.26796
# Poissons Ratio (z) = 0.34280 0.37081
#
# Static dielectric constant tensor:
#      x y z
#    x 5.312630 0.485840 0.352100 
#    y 0.485840 5.067080 -0.063740 
#    z 0.352100 -0.063740 4.227070 
# 
# 
# High freq. dielectric constant tensor:
#      x y z
#    x 1.910750 -0.010980 0.009180 
#    y -0.010980 1.923800 -0.000440 
#    z 0.009180 -0.000440 1.919540 
# 
# From -- ./inp_files/272809.got.cif
#   From: 2010.06.25/outbox.cif.g09.slc.cpg/sg2_137_cif.got.tgz:272809.got - 2010.06.27 13:26:56.
