data_PCOD8026908
_publ_section_title
;
Structure prediction by ZEFSAII (Michael W. Deem and Ramdas Pophale) SiO2 
 PCOD8026908
Probable space group: P -1
;
_chemical_formula_sum "Si O2"
_cell_formula_units_Z 16
_cell_length_a 14.530737
_cell_length_b 9.859027
_cell_length_c 8.607695
_cell_angle_alpha 73.587863
_cell_angle_beta 40.206237
_cell_angle_gamma 81.455827
_cell_volume 759.088432
_symmetry_space_group_name_H-M "P -1"
_symmetry_group_IT_number 2
_symmetry_cell_setting 'triclinic'
loop_
_space_group_symop_operation_xyz
x,y,z
-x,-y,-z
loop_
_atom_site_type_symbol
_atom_site_label
_atom_site_fract_x
_atom_site_fract_y
_atom_site_fract_z
Si Si1 0.520467 0.908315 0.352415
Si Si2 0.327220 0.085054 0.387941
Si Si3 0.418507 0.613303 0.483100
Si Si4 0.189775 0.119862 0.882683
Si Si5 0.414906 0.381815 0.045061
Si Si6 0.950790 0.934644 0.421506
Si Si7 0.101463 0.389647 0.341019
Si Si8 0.872358 0.571981 0.068391
O O1 0.428245 0.754240 0.531720
O O2 0.689673 0.886391 0.133634
O O3 0.500000 0.000000 0.500000
O O4 0.459755 0.987606 0.255159
O O5 0.246526 0.073295 0.660145
O O6 0.394647 0.244455 0.223210
O O7 0.212327 0.034065 0.417945
O O8 0.500000 0.500000 0.500000
O O9 0.256873 0.548175 0.692170
O O10 0.493116 0.654765 0.209994
O O11 0.148456 0.280086 0.868008
O O12 0.054762 0.007059 0.132213
O O13 0.263450 0.433662 0.174505
O O14 0.500000 0.500000 0.000000
O O15 0.958368 0.765652 0.468084
O O16 0.000000 0.000000 0.500000
O O17 0.000000 0.500000 0.500000
O O18 0.098843 0.391346 0.159110
O O19 0.000000 0.500000 0.000000
#
# Coordination Sequence:
#
# PCOD8026908 Si02
#       8
#     2   2   2   2   2   2   2   2
#     4  10  24  43  71 102 133 173 229 283 339 409
#     4  10  25  43  68 104 136 175 231 276 344 411
#     4  12  24  46  73  96 139 185 227 285 345 405
#     4  11  22  46  70  95 141 183 223 283 341 406
#     4  11  25  45  72 101 140 181 227 287 345 406
#     4  11  24  44  68  94 138 179 221 279 338 397
#     4  11  26  45  66 103 142 175 229 286 339 405
#     4  12  27  43  72 101 137 182 235 277 345 415
#
# _framework density 21.077912999999999
#
# number of rings (size 3 to 8) (size 9 to 14) (size 15 to 20)
#    0.000    1.000    3.750    1.125   10.500    3.500 
#    0.000    0.000    0.000    0.000    0.000    0.000 
#    0.000    0.000    0.000    0.000    0.000    0.000 
#
# Total GULP energy -198415.344618 kJ/mol
# GULP energy per Si atom -12400.959039 kJ/mol
# Density = 2.102994 g / cm^3
# Si number density = 21.077913 Si / 1000 Ang^3
#
#
#
# Elastic Constant Matrix: (Units=GPa)
#
#
# Indices 1 2 3 4 5 6 
#
# 1 149.9635 65.9592 30.8492 -13.8177 -23.9401 -17.3363
# 2 65.9592 128.8222 32.4695 -14.2388 -20.8505 -6.2584
# 3 30.8492 32.4695 100.0699 -23.6328 -12.8150 3.3416
# 4 -13.8177 -14.2388 -23.6328 36.9528 4.3071 -3.9445
# 5 -23.9401 -20.8505 -12.8150 4.3071 42.9061 3.8998
# 6 -17.3363 -6.2584 3.3416 -3.9445 3.8998 47.3384
#
#
#
# Elastic Compliance Matrix: (Units=1/GPa)
#
#
# Indices 1 2 3 4 5 6 
#
# 1 0.009482 -0.003848 -0.001109 0.001354 0.002687 0.002933
# 2 -0.003848 0.010692 -0.001657 0.001343 0.002416 0.000034
# 3 -0.001109 -0.001657 0.012738 0.006765 0.001802 -0.001109
# 4 0.001354 0.001343 0.006765 0.032739 -0.000125 0.002934
# 5 0.002687 0.002416 0.001802 -0.000125 0.026624 -0.001028
# 6 0.002933 0.000034 -0.001109 0.002934 -0.001028 0.022611
#
#
# Mechanical properties :
#
#
# Convention : Reuss Voigt Hill
#
# Bulk Modulus (GPa) = 50.80578 70.82350 60.81464
# Shear Modulus (GPa) = 37.12634 42.07797 39.60216
#
# Velocity S-wave (km/s) = 4.20144 4.47285 4.33927
# Velocity P-wave (km/s) = 6.90596 7.76846 7.34987
#
# Compressibility (1/GPa) = 0.01968280
#
# Stress axis : x y z
#
# Youngs Moduli (GPa) = 105.46597 93.52858 78.50545
#
# Poissons Ratio (x) = 0.35994 0.08702
# Poissons Ratio (y) = 0.40588 0.13012
# Poissons Ratio (z) = 0.11691 0.15502
#
# Static dielectric constant tensor:
#      x y z
#    x 4.211360 -0.254830 -0.091730 
#    y -0.254830 3.889080 -0.098170 
#    z -0.091730 -0.098170 3.762560 
# 
# 
# High freq. dielectric constant tensor:
#      x y z
#    x 1.845230 -0.004690 -0.005770 
#    y -0.004690 1.832080 -0.010840 
#    z -0.005770 -0.010840 1.826740 
# 
# From -- ./inp_files/226493.got.cif
#   From: 2010.06.25/outbox.cif.g09.slc.cpg/sg2_114_cif.got.tgz:226493.got - 2010.06.27 13:26:56.
