data_PCOD8026751
_publ_section_title
;
Structure prediction by ZEFSAII (Michael W. Deem and Ramdas Pophale) SiO2 
 PCOD8026751
Probable space group: P -1
;
_chemical_formula_sum "Si O2"
_cell_formula_units_Z 16
_cell_length_a 9.525602
_cell_length_b 8.564369
_cell_length_c 13.255553
_cell_angle_alpha 76.291050
_cell_angle_beta 43.928090
_cell_angle_gamma 78.247635
_cell_volume 727.978968
_symmetry_space_group_name_H-M "P -1"
_symmetry_group_IT_number 2
_symmetry_cell_setting 'triclinic'
loop_
_space_group_symop_operation_xyz
x,y,z
-x,-y,-z
loop_
_atom_site_type_symbol
_atom_site_label
_atom_site_fract_x
_atom_site_fract_y
_atom_site_fract_z
Si Si1 0.554070 0.150461 0.807412
Si Si2 0.658186 0.087007 0.549268
Si Si3 0.619106 0.469402 0.842326
Si Si4 0.533051 0.651686 0.527819
Si Si5 0.033266 0.383383 0.594315
Si Si6 0.167733 0.952678 0.001890
Si Si7 0.938194 0.044120 0.718379
Si Si8 0.538206 0.246754 0.246142
O O1 0.655284 0.182568 0.641522
O O2 0.529219 0.317061 0.854839
O O3 0.704955 0.016075 0.808257
O O4 0.330895 0.086648 0.916661
O O5 0.500300 0.182729 0.542399
O O6 0.582516 0.908494 0.634216
O O7 0.887633 0.089443 0.384118
O O8 0.613748 0.625219 0.749222
O O9 0.852148 0.432987 0.758548
O O10 0.500000 0.500000 0.000000
O O11 0.500000 0.500000 0.500000
O O12 0.759552 0.618507 0.453667
O O13 0.389217 0.670309 0.699412
O O14 0.000000 0.500000 0.500000
O O15 0.996150 0.203385 0.603697
O O16 0.280697 0.793868 0.919681
O O17 0.055459 0.923241 0.169713
O O18 0.000000 0.000000 0.000000
#
# Coordination Sequence:
#
# PCOD8026751 Si02
#       8
#     2   2   2   2   2   2   2   2
#     4  10  24  43  67 100 139 173 230 277 330 404
#     4  11  23  41  72 102 134 172 226 283 341 398
#     4  11  23  46  70  97 136 179 229 278 334 399
#     4  12  25  42  67 100 140 174 225 283 340 403
#     4  11  23  43  69  96 133 178 224 275 338 400
#     4  11  25  44  67  99 141 175 223 279 340 401
#     4  11  22  42  72  99 132 178 227 274 337 398
#     4  11  22  44  68  97 134 180 220 277 336 403
#
# _framework density 21.978659
#
# number of rings (size 3 to 8) (size 9 to 14) (size 15 to 20)
#    0.000    1.000    2.500    4.125    5.250    1.000 
#    9.000    0.625    0.000    0.000    0.000    0.000 
#    0.000    0.000    0.000    0.000    0.000    0.000 
#
# Total GULP energy -198242.882286 kJ/mol
# GULP energy per Si atom -12390.180143 kJ/mol
# Density = 2.192863 g / cm^3
# Si number density = 21.978659 Si / 1000 Ang^3
#
#
#
# Elastic Constant Matrix: (Units=GPa)
#
#
# Indices 1 2 3 4 5 6 
#
# 1 165.7908 58.5034 51.8885 3.5103 0.9336 -17.1089
# 2 58.5034 116.2068 50.5677 12.2511 3.8570 -5.5393
# 3 51.8885 50.5677 125.4858 30.6266 18.2344 5.2178
# 4 3.5103 12.2511 30.6266 44.3398 2.0808 9.1119
# 5 0.9336 3.8570 18.2344 2.0808 44.5555 4.3215
# 6 -17.1089 -5.5393 5.2178 9.1119 4.3215 40.8050
#
#
#
# Elastic Compliance Matrix: (Units=1/GPa)
#
#
# Indices 1 2 3 4 5 6 
#
# 1 0.008230 -0.002957 -0.002819 0.001457 0.000879 0.002992
# 2 -0.002957 0.011682 -0.003364 -0.000879 0.000378 0.000933
# 3 -0.002819 -0.003364 0.012993 -0.007368 -0.004509 -0.001177
# 4 0.001457 -0.000879 -0.007368 0.028738 0.002225 -0.005219
# 5 0.000879 0.000378 -0.004509 0.002225 0.024336 -0.002078
# 6 0.002992 0.000933 -0.001177 -0.005219 -0.002078 0.027424
#
#
# Mechanical properties :
#
#
# Convention : Reuss Voigt Hill
#
# Bulk Modulus (GPa) = 68.37587 81.04473 74.71030
# Shear Modulus (GPa) = 36.61401 42.37499 39.49450
#
# Velocity S-wave (km/s) = 4.08596 4.39567 4.24364
# Velocity P-wave (km/s) = 7.31011 7.91940 7.62085
#
# Compressibility (1/GPa) = 0.01462504
#
# Stress axis : x y z
#
# Youngs Moduli (GPa) = 121.50025 85.59814 76.96418
#
# Poissons Ratio (x) = 0.25310 0.21700
# Poissons Ratio (y) = 0.35925 0.25892
# Poissons Ratio (z) = 0.34257 0.28797
#
# Static dielectric constant tensor:
#      x y z
#    x 6.368800 0.765450 0.277220 
#    y 0.765450 4.560480 0.401170 
#    z 0.277220 0.401170 4.425340 
# 
# 
# High freq. dielectric constant tensor:
#      x y z
#    x 1.867580 -0.018300 0.011250 
#    y -0.018300 1.860160 0.020330 
#    z 0.011250 0.020330 1.874720 
# 
# From -- ./inp_files/381882.got.cif
#   From: 2010.06.25/outbox.cif.g09.slc.cpg/sg2_191_cif.got.tgz:381882.got - 2010.06.27 13:26:56.
