data_PCOD8026078
_publ_section_title
;
Structure prediction by ZEFSAII (Michael W. Deem and Ramdas Pophale) SiO2 
 PCOD8026078
Probable space group: P -1
;
_chemical_formula_sum "Si O2"
_cell_formula_units_Z 14
_cell_length_a 10.797961
_cell_length_b 4.835551
_cell_length_c 12.729533
_cell_angle_alpha 114.176242
_cell_angle_beta 125.764348
_cell_angle_gamma 68.298426
_cell_volume 484.324686
_symmetry_space_group_name_H-M "P -1"
_symmetry_group_IT_number 2
_symmetry_cell_setting 'triclinic'
loop_
_space_group_symop_operation_xyz
x,y,z
-x,-y,-z
loop_
_atom_site_type_symbol
_atom_site_label
_atom_site_fract_x
_atom_site_fract_y
_atom_site_fract_z
Si Si1 0.810641 0.093427 0.548773
Si Si2 0.467215 0.480827 0.151457
Si Si3 0.922419 0.631931 0.349675
Si Si4 0.524816 0.840273 0.685104
Si Si5 0.842695 0.876399 0.763663
Si Si6 0.771413 0.066980 0.170044
Si Si7 0.843109 0.266141 0.028095
O O1 0.625030 0.179008 0.462598
O O2 0.894351 0.378238 0.594516
O O3 0.881801 0.806234 0.466351
O O4 0.855342 0.024852 0.680297
O O5 0.462675 0.425452 0.264425
O O6 0.595569 0.241902 0.119847
O O7 0.304511 0.449056 0.007134
O O8 0.491053 0.834826 0.211366
O O9 0.888741 0.292593 0.301876
O O10 0.807395 0.779271 0.221706
O O11 0.680839 0.754808 0.678419
O O12 0.860209 0.136328 0.899170
O O13 0.000402 0.623499 0.830464
O O14 0.802716 0.006790 0.051005
#
# Coordination Sequence:
#
# PCOD8026078 Si02
#       7
#     2   2   2   2   2   2   2
#     4  11  22  47  72 105 141 179 234 290 347 413
#     4  11  23  45  72 104 139 180 230 291 345 405
#     4  11  26  41  76 102 141 178 231 291 352 403
#     4  11  24  45  71 104 140 181 231 284 349 413
#     4  10  23  48  71 103 142 191 227 284 344 418
#     4  12  22  48  69 107 138 180 231 292 345 407
#     4  10  24  45  73 100 145 183 239 274 349 416
#
# _framework density 28.906227000000001
#
# number of rings (size 3 to 8) (size 9 to 14) (size 15 to 20)
#    0.000    1.143    4.286    0.857    0.000    6.286 
#    5.143    8.571    0.000    0.000    0.000    0.000 
#    0.000    0.000    0.000    0.000    0.000    0.000 
#
# Total GULP energy -173580.901597 kJ/mol
# GULP energy per Si atom -12398.635828 kJ/mol
# Density = 2.884044 g / cm^3
# Si number density = 28.906227 Si / 1000 Ang^3
#
#
#
# Elastic Constant Matrix: (Units=GPa)
#
#
# Indices 1 2 3 4 5 6 
#
# 1 196.6968 22.5880 84.5536 -27.6729 16.9038 -25.9659
# 2 22.5880 50.1106 26.1458 -17.0566 9.0956 -8.9207
# 3 84.5536 26.1458 202.2629 -38.1097 4.4141 -10.4618
# 4 -27.6729 -17.0566 -38.1097 34.3618 1.8490 17.7302
# 5 16.9038 9.0956 4.4141 1.8490 80.1390 -20.9526
# 6 -25.9659 -8.9207 -10.4618 17.7302 -20.9526 43.4386
#
#
#
# Elastic Compliance Matrix: (Units=1/GPa)
#
#
# Indices 1 2 3 4 5 6 
#
# 1 0.006735 -0.000885 -0.002354 0.001073 -0.000541 0.002579
# 2 -0.000885 0.025141 -0.000562 0.012530 -0.003531 -0.002319
# 3 -0.002354 -0.000562 0.007295 0.007683 -0.000890 -0.003330
# 4 0.001073 0.012530 0.007683 0.056892 -0.009305 -0.022645
# 5 -0.000541 -0.003531 -0.000890 -0.009305 0.015928 0.010218
# 6 0.002579 -0.002319 -0.003330 -0.022645 0.010218 0.037455
#
#
# Mechanical properties :
#
#
# Convention : Reuss Voigt Hill
#
# Bulk Modulus (GPa) = 31.67585 79.51613 55.59599
# Shear Modulus (GPa) = 29.83771 52.64006 41.23889
#
# Velocity S-wave (km/s) = 3.21631 4.27202 3.78119
# Velocity P-wave (km/s) = 4.97743 7.20427 6.19178
#
# Compressibility (1/GPa) = 0.03156980
#
# Stress axis : x y z
#
# Youngs Moduli (GPa) = 148.47127 39.77531 137.07215
#
# Poissons Ratio (x) = 0.03522 0.32265
# Poissons Ratio (y) = 0.13147 0.07700
# Poissons Ratio (z) = 0.34948 0.02234
#
# Static dielectric constant tensor:
#      x y z
#    x 6.062490 -0.371760 0.306910 
#    y -0.371760 5.138310 -0.140870 
#    z 0.306910 -0.140870 5.576390 
# 
# 
# High freq. dielectric constant tensor:
#      x y z
#    x 2.196310 -0.016150 0.002030 
#    y -0.016150 2.167010 -0.003580 
#    z 0.002030 -0.003580 2.208810 
# 
# From -- ./inp_files/411167.got.cif
#   From: 2010.06.25/outbox.cif.g09.slc.cpg/sg2_206_cif.got.tgz:411167.got - 2010.06.27 13:26:56.
