data_PCOD8026418
_publ_section_title
;
Structure prediction by ZEFSAII (Michael W. Deem and Ramdas Pophale) SiO2 
 PCOD8026418
Probable space group: P -1
;
_chemical_formula_sum "Si O2"
_cell_formula_units_Z 16
_cell_length_a 23.553272
_cell_length_b 8.813094
_cell_length_c 8.578578
_cell_angle_alpha 46.923682
_cell_angle_beta 138.862394
_cell_angle_gamma 138.265216
_cell_volume 749.498320
_symmetry_space_group_name_H-M "P -1"
_symmetry_group_IT_number 2
_symmetry_cell_setting 'triclinic'
loop_
_space_group_symop_operation_xyz
x,y,z
-x,-y,-z
loop_
_atom_site_type_symbol
_atom_site_label
_atom_site_fract_x
_atom_site_fract_y
_atom_site_fract_z
Si Si1 0.573436 0.938738 0.107614
Si Si2 0.768533 0.234057 0.474258
Si Si3 0.016819 0.091931 0.213650
Si Si4 0.714703 0.000516 0.841853
Si Si5 0.047657 0.732334 0.329170
Si Si6 0.400169 0.837009 0.318759
Si Si7 0.498315 0.433500 0.364948
Si Si8 0.844482 0.768190 0.309567
O O1 0.516865 0.660734 0.144601
O O2 0.664426 0.026317 0.349900
O O3 0.500000 0.000000 0.000000
O O4 0.610087 0.060831 0.935552
O O5 0.846503 0.231744 0.518944
O O6 0.776112 0.494163 0.310710
O O7 0.780653 0.149484 0.729112
O O8 0.092022 0.233218 0.409365
O O9 0.059996 0.950829 0.304581
O O10 0.912539 0.907818 0.204615
O O11 0.007769 0.275905 0.944307
O O12 0.606044 0.789610 0.730052
O O13 0.696717 0.192431 0.769472
O O14 0.776633 0.887790 0.131955
O O15 0.000000 0.500000 0.500000
O O16 0.407045 0.600704 0.459506
O O17 0.500000 0.000000 0.500000
O O18 0.500000 0.500000 0.500000
#
# Coordination Sequence:
#
# PCOD8026418 Si02
#       8
#     2   2   2   2   2   2   2   2
#     4  12  23  41  70  98 133 178 225 273 333 395
#     4  12  25  41  68 100 134 178 227 272 337 404
#     4  10  24  45  69  96 133 172 225 274 347 399
#     4  11  24  43  62 100 139 170 229 275 330 406
#     4  11  23  46  72 100 131 175 225 286 335 405
#     4  10  24  42  63  94 130 174 224 277 329 387
#     4  11  21  42  70  92 131 183 219 273 328 389
#     4  11  24  43  68  98 133 180 216 280 338 405
#
# _framework density 21.347614
#
# number of rings (size 3 to 8) (size 9 to 14) (size 15 to 20)
#    0.000    1.000    5.000    1.500    1.750    4.500 
#    0.000    0.000    0.000    0.000    0.000    0.000 
#    0.000    0.000    0.000    0.000    0.000    0.000 
#
# Total GULP energy -198281.253401 kJ/mol
# GULP energy per Si atom -12392.578338 kJ/mol
# Density = 2.129903 g / cm^3
# Si number density = 21.347614 Si / 1000 Ang^3
#
#
#
# Elastic Constant Matrix: (Units=GPa)
#
#
# Indices 1 2 3 4 5 6 
#
# 1 138.5117 32.5896 43.9674 -6.9675 21.4693 -0.6284
# 2 32.5896 68.5327 28.1998 -18.3806 4.5801 4.8591
# 3 43.9674 28.1998 112.6379 -17.1058 1.9849 3.5890
# 4 -6.9675 -18.3806 -17.1058 33.7694 -4.6161 0.1666
# 5 21.4693 4.5801 1.9849 -4.6161 50.3561 -5.7207
# 6 -0.6284 4.8591 3.5890 0.1666 -5.7207 32.4951
#
#
#
# Elastic Compliance Matrix: (Units=1/GPa)
#
#
# Indices 1 2 3 4 5 6 
#
# 1 0.009522 -0.003594 -0.003078 -0.002066 -0.003754 0.000411
# 2 -0.003594 0.019753 -0.002091 0.009009 0.000328 -0.002781
# 3 -0.003078 -0.002091 0.011227 0.004102 0.001348 -0.000770
# 4 -0.002066 0.009009 0.004102 0.036597 0.003086 -0.001484
# 5 -0.003754 0.000328 0.001348 0.003086 0.022068 0.003599
# 6 0.000411 -0.002781 -0.000770 -0.001484 0.003599 0.031924
#
#
# Mechanical properties :
#
#
# Convention : Reuss Voigt Hill
#
# Bulk Modulus (GPa) = 43.52519 58.79953 51.16236
# Shear Modulus (GPa) = 31.99504 37.65250 34.82377
#
# Velocity S-wave (km/s) = 3.87559 4.20429 4.04328
# Velocity P-wave (km/s) = 6.36081 7.15344 6.76874
#
# Compressibility (1/GPa) = 0.02297520
#
# Stress axis : x y z
#
# Youngs Moduli (GPa) = 105.01991 50.62614 89.07369
#
# Poissons Ratio (x) = 0.18195 0.27415
# Poissons Ratio (y) = 0.37743 0.18629
# Poissons Ratio (z) = 0.32322 0.10588
#
# Static dielectric constant tensor:
#      x y z
#    x 4.131780 -0.212160 0.094720 
#    y -0.212160 4.201940 -0.410670 
#    z 0.094720 -0.410670 4.094930 
# 
# 
# High freq. dielectric constant tensor:
#      x y z
#    x 1.858520 -0.006790 0.003860 
#    y -0.006790 1.817090 -0.011590 
#    z 0.003860 -0.011590 1.848160 
# 
# From -- ./inp_files/351998.got.cif
#   From: 2010.06.25/outbox.cif.g09.slc.cpg/sg2_176_cif.got.tgz:351998.got - 2010.06.27 13:26:56.
