data_PCOD8026580
_publ_section_title
;
Structure prediction by ZEFSAII (Michael W. Deem and Ramdas Pophale) SiO2 
 PCOD8026580
Probable space group: P -1
;
_chemical_formula_sum "Si O2"
_cell_formula_units_Z 16
_cell_length_a 11.433564
_cell_length_b 13.639846
_cell_length_c 9.022614
_cell_angle_alpha 81.353600
_cell_angle_beta 140.719234
_cell_angle_gamma 117.259515
_cell_volume 737.961710
_symmetry_space_group_name_H-M "P -1"
_symmetry_group_IT_number 2
_symmetry_cell_setting 'triclinic'
loop_
_space_group_symop_operation_xyz
x,y,z
-x,-y,-z
loop_
_atom_site_type_symbol
_atom_site_label
_atom_site_fract_x
_atom_site_fract_y
_atom_site_fract_z
Si Si1 0.449174 0.976455 0.687807
Si Si2 0.591189 0.704964 0.086295
Si Si3 0.354049 0.786234 0.029367
Si Si4 0.714286 0.533618 0.017495
Si Si5 0.257582 0.058334 0.230447
Si Si6 0.462996 0.312294 0.283265
Si Si7 0.757905 0.404072 0.818514
Si Si8 0.953418 0.263859 0.518397
O O1 0.649961 0.970849 0.818015
O O2 0.253726 0.848390 0.579344
O O3 0.557827 0.075462 0.901277
O O4 0.341755 0.022615 0.460518
O O5 0.548854 0.777100 0.150015
O O6 0.471612 0.564562 0.032596
O O7 0.853078 0.760101 0.318139
O O8 0.484217 0.714341 0.823948
O O9 0.286694 0.721451 0.139222
O O10 0.135344 0.718549 0.728061
O O11 0.681597 0.633907 0.902007
O O12 0.691334 0.455998 0.873614
O O13 0.949507 0.614836 0.316430
O O14 0.339916 0.194623 0.286618
O O15 0.000000 0.000000 0.000000
O O16 0.661014 0.400996 0.563172
O O17 0.000000 0.500000 0.000000
#
# Coordination Sequence:
#
# PCOD8026580 Si02
#       8
#     2   2   2   2   2   2   2   2
#     4  11  25  44  64 101 132 167 228 269 324 396
#     4  10  24  42  69  97 132 176 221 268 327 392
#     4  11  25  44  64 100 135 172 220 273 325 395
#     4  10  24  43  65  96 130 173 222 268 327 393
#     4  11  24  42  69  95 134 176 212 272 334 389
#     4  11  21  43  65  94 130 168 220 268 327 391
#     4  11  26  38  65  99 131 171 214 274 333 388
#     4  11  23  41  71  92 131 180 220 271 327 384
#
# _framework density 21.681341
#
# number of rings (size 3 to 8) (size 9 to 14) (size 15 to 20)
#    0.000    1.250    1.250    4.500    7.000    3.500 
#    0.000    0.000    0.000    0.000    0.000    0.000 
#    0.000    0.000    0.000    0.000    0.000    0.000 
#
# Total GULP energy -198227.225148 kJ/mol
# GULP energy per Si atom -12389.201572 kJ/mol
# Density = 2.163199 g / cm^3
# Si number density = 21.681341 Si / 1000 Ang^3
#
#
#
# Elastic Constant Matrix: (Units=GPa)
#
#
# Indices 1 2 3 4 5 6 
#
# 1 87.6787 28.0553 49.3698 7.8737 17.5813 10.8741
# 2 28.0553 97.8804 23.6528 5.2222 10.1150 3.2255
# 3 49.3698 23.6528 107.6315 -2.0189 5.2796 -1.3846
# 4 7.8737 5.2222 -2.0189 39.0153 5.0020 -5.9547
# 5 17.5813 10.1150 5.2796 5.0020 32.8068 0.3784
# 6 10.8741 3.2255 -1.3846 -5.9547 0.3784 32.1861
#
#
#
# Elastic Compliance Matrix: (Units=1/GPa)
#
#
# Indices 1 2 3 4 5 6 
#
# 1 0.019707 -0.002365 -0.008315 -0.004236 -0.007762 -0.007471
# 2 -0.002365 0.011493 -0.001373 -0.000976 -0.001900 -0.000570
# 3 -0.008315 -0.001373 0.013403 0.002884 0.002236 0.004031
# 4 -0.004236 -0.000976 0.002884 0.028105 -0.002258 0.006879
# 5 -0.007762 -0.001900 0.002236 -0.002258 0.035187 0.002078
# 6 -0.007471 -0.000570 0.004031 0.006879 0.002078 0.035072
#
#
# Mechanical properties :
#
#
# Convention : Reuss Voigt Hill
#
# Bulk Modulus (GPa) = 48.78668 55.03849 51.91259
# Shear Modulus (GPa) = 28.75102 33.60916 31.18009
#
# Velocity S-wave (km/s) = 3.64548 3.94146 3.79635
# Velocity P-wave (km/s) = 6.34586 6.79365 6.57357
#
# Compressibility (1/GPa) = 0.02049740
#
# Stress axis : x y z
#
# Youngs Moduli (GPa) = 50.74277 87.00575 74.61068
#
# Poissons Ratio (x) = 0.20578 0.62036
# Poissons Ratio (y) = 0.12001 0.10247
# Poissons Ratio (z) = 0.42191 0.11949
#
# Static dielectric constant tensor:
#      x y z
#    x 3.906330 -0.109680 -0.253600 
#    y -0.109680 4.240730 0.158130 
#    z -0.253600 0.158130 4.026850 
# 
# 
# High freq. dielectric constant tensor:
#      x y z
#    x 1.849280 0.003130 -0.011690 
#    y 0.003130 1.868190 -0.002890 
#    z -0.011690 -0.002890 1.855500 
# 
# From -- ./inp_files/273030.got.cif
#   From: 2010.06.25/outbox.cif.g09.slc.cpg/sg2_137_cif.got.tgz:273030.got - 2010.06.27 13:26:56.
