data_PCOD8026454
_publ_section_title
;
Structure prediction by ZEFSAII (Michael W. Deem and Ramdas Pophale) SiO2 
 PCOD8026454
Probable space group: P -1
;
_chemical_formula_sum "Si O2"
_cell_formula_units_Z 16
_cell_length_a 6.460869
_cell_length_b 5.934699
_cell_length_c 23.534318
_cell_angle_alpha 78.282541
_cell_angle_beta 53.810919
_cell_angle_gamma 90.384979
_cell_volume 703.897617
_symmetry_space_group_name_H-M "P -1"
_symmetry_group_IT_number 2
_symmetry_cell_setting 'triclinic'
loop_
_space_group_symop_operation_xyz
x,y,z
-x,-y,-z
loop_
_atom_site_type_symbol
_atom_site_label
_atom_site_fract_x
_atom_site_fract_y
_atom_site_fract_z
Si Si1 0.786140 0.425067 0.845824
Si Si2 0.010842 0.060125 0.902027
Si Si3 0.741225 0.206827 0.214231
Si Si4 0.085331 0.912200 0.593004
Si Si5 0.628760 0.183819 0.650678
Si Si6 0.444691 0.722871 0.463930
Si Si7 0.211640 0.336155 0.961651
Si Si8 0.714341 0.511353 0.728752
O O1 0.856971 0.193438 0.875016
O O2 0.505734 0.471811 0.911861
O O3 0.784469 0.378776 0.780729
O O4 0.984619 0.658186 0.815370
O O5 0.172836 0.244357 0.908517
O O6 0.217202 0.927925 0.843565
O O7 0.810688 0.875492 0.979275
O O8 0.550237 0.388880 0.222059
O O9 0.615503 0.021623 0.291132
O O10 0.178344 0.793011 0.527422
O O11 0.953011 0.715532 0.667780
O O12 0.327786 0.058914 0.578088
O O13 0.883404 0.077070 0.598912
O O14 0.578685 0.338825 0.596200
O O15 0.672800 0.336614 0.691899
O O16 0.500000 0.500000 0.500000
O O17 0.000000 0.500000 0.000000
#
# Coordination Sequence:
#
# PCOD8026454 Si02
#       8
#     2   2   2   2   2   2   2   2
#     4  12  24  42  67  96 129 169 215 266 322 380
#     4  11  25  43  67  98 131 170 215 265 320 385
#     4  11  25  43  66  95 130 171 216 265 321 388
#     4  10  24  42  65  96 130 173 217 267 326 390
#     4  11  24  44  66  94 131 172 216 268 327 386
#     4  11  24  42  66  97 131 170 220 271 325 388
#     4  11  25  46  68  97 134 171 214 265 322 384
#     4  11  25  44  67  95 131 172 217 269 324 386
#
# _framework density 22.730577
#
# number of rings (size 3 to 8) (size 9 to 14) (size 15 to 20)
#    0.000    1.000    0.000    6.000    0.000   17.000 
#    0.000    0.000    0.000    0.000    0.000    0.000 
#    0.000    0.000    0.000    0.000    0.000    0.000 
#
# Total GULP energy -198470.926577 kJ/mol
# GULP energy per Si atom -12404.432911 kJ/mol
# Density = 2.267884 g / cm^3
# Si number density = 22.730577 Si / 1000 Ang^3
#
#
#
# Elastic Constant Matrix: (Units=GPa)
#
#
# Indices 1 2 3 4 5 6 
#
# 1 126.4742 71.5700 97.6534 0.1245 6.2505 -7.6784
# 2 71.5700 134.2798 68.9403 16.8426 5.6242 -9.3644
# 3 97.6534 68.9403 143.0626 12.5699 8.1527 -12.1145
# 4 0.1245 16.8426 12.5699 42.9805 -3.0554 10.2898
# 5 6.2505 5.6242 8.1527 -3.0554 64.1845 -5.4142
# 6 -7.6784 -9.3644 -12.1145 10.2898 -5.4142 23.1571
#
#
#
# Elastic Compliance Matrix: (Units=1/GPa)
#
#
# Indices 1 2 3 4 5 6 
#
# 1 0.020118 -0.005791 -0.011971 0.006910 -0.000025 -0.005010
# 2 -0.005791 0.012077 -0.000942 -0.005635 -0.000228 0.004921
# 3 -0.011971 -0.000942 0.016796 -0.006244 -0.000586 0.007074
# 4 0.006910 -0.005635 -0.006244 0.031411 0.000671 -0.017054
# 5 -0.000025 -0.000228 -0.000586 0.000671 0.015964 0.003028
# 6 -0.005010 0.004921 0.007074 -0.017054 0.003028 0.055499
#
#
# Mechanical properties :
#
#
# Convention : Reuss Voigt Hill
#
# Bulk Modulus (GPa) = 86.34219 97.79381 92.06800
# Shear Modulus (GPa) = 25.88873 37.10795 31.49834
#
# Velocity S-wave (km/s) = 3.37848 4.04482 3.72657
# Velocity P-wave (km/s) = 7.29975 8.05795 7.68820
#
# Compressibility (1/GPa) = 0.01158182
#
# Stress axis : x y z
#
# Youngs Moduli (GPa) = 49.70783 82.80251 59.53711
#
# Poissons Ratio (x) = 0.47955 0.71273
# Poissons Ratio (y) = 0.28788 0.05607
# Poissons Ratio (z) = 0.59507 0.07798
#
# Static dielectric constant tensor:
#      x y z
#    x 3.983320 0.021320 -0.126730 
#    y 0.021320 4.082000 -0.073200 
#    z -0.126730 -0.073200 4.438310 
# 
# 
# High freq. dielectric constant tensor:
#      x y z
#    x 1.892740 0.000160 -0.005780 
#    y 0.000160 1.896210 -0.007170 
#    z -0.005780 -0.007170 1.924840 
# 
# From -- ./inp_files/14730.got.cif
#   From: 2010.06.25/outbox.cif.g09.slc.cpg/sg2_8_cif.got.tgz:14730.got - 2010.06.27 13:26:56.
