data_PCOD8026294
_publ_section_title
;
Structure prediction by ZEFSAII (Michael W. Deem and Ramdas Pophale) SiO2 
 PCOD8026294
Probable space group: P -1
;
_chemical_formula_sum "Si O2"
_cell_formula_units_Z 12
_cell_length_a 5.330707
_cell_length_b 15.667363
_cell_length_c 7.321440
_cell_angle_alpha 116.937341
_cell_angle_beta 109.120610
_cell_angle_gamma 84.086001
_cell_volume 514.308302
_symmetry_space_group_name_H-M "P -1"
_symmetry_group_IT_number 2
_symmetry_cell_setting 'triclinic'
loop_
_space_group_symop_operation_xyz
x,y,z
-x,-y,-z
loop_
_atom_site_type_symbol
_atom_site_label
_atom_site_fract_x
_atom_site_fract_y
_atom_site_fract_z
Si Si1 0.008925 0.141902 0.232596
Si Si2 0.551023 0.607207 0.189233
Si Si3 0.020611 0.392938 0.973709
Si Si4 0.578056 0.856037 0.946396
Si Si5 0.257990 0.062517 0.561942
Si Si6 0.770242 0.672843 0.673546
O O1 0.704295 0.099342 0.127812
O O2 0.180073 0.091267 0.063708
O O3 0.171515 0.130820 0.445715
O O4 0.002270 0.255737 0.295304
O O5 0.638698 0.604963 0.419727
O O6 0.500000 0.500000 0.000000
O O7 0.774520 0.659501 0.161692
O O8 0.273118 0.660863 0.160712
O O9 0.113570 0.394198 0.207776
O O10 0.000000 0.500000 0.000000
O O11 0.559040 0.742512 0.782601
O O12 0.639961 0.868167 0.184919
O O13 0.500000 0.000000 0.500000
O O14 0.000000 0.000000 0.500000
#
# Coordination Sequence:
#
# PCOD8026294 Si02
#       6
#     2   2   2   2   2   2
#     4  10  25  43  66  97 131 174 216 260 331 377
#     4  10  24  41  64  93 128 170 218 272 324 375
#     4  10  24  41  64  93 128 170 218 272 324 375
#     4  10  25  43  66  97 131 174 216 260 331 377
#     4  12  26  44  70  98 134 168 214 268 320 392
#     4  10  26  40  70  92 136 170 222 266 320 388
#
# _framework density 23.332305999999999
#
# number of rings (size 3 to 8) (size 9 to 14) (size 15 to 20)
#    1.000    0.667    0.000    2.000    7.000    9.333 
#    0.000    0.000    0.000    0.000    0.000    0.000 
#    0.000    0.000    0.000    0.000    0.000    0.000 
#
# Total GULP energy -148684.599735 kJ/mol
# GULP energy per Si atom -12390.383311 kJ/mol
# Density = 2.327920 g / cm^3
# Si number density = 23.332306 Si / 1000 Ang^3
#
#
#
# Elastic Constant Matrix: (Units=GPa)
#
#
# Indices 1 2 3 4 5 6 
#
# 1 228.7232 21.1447 68.6434 -16.8965 -2.1386 -18.4652
# 2 21.1447 51.3194 31.0824 -21.7807 -9.9217 -10.0688
# 3 68.6434 31.0824 216.0110 -29.5122 -5.5446 -19.8340
# 4 -16.8965 -21.7807 -29.5122 47.7771 -5.5514 1.7517
# 5 -2.1386 -9.9217 -5.5446 -5.5514 31.4119 -9.7659
# 6 -18.4652 -10.0688 -19.8340 1.7517 -9.7659 15.1716
#
#
#
# Elastic Compliance Matrix: (Units=1/GPa)
#
#
# Indices 1 2 3 4 5 6 
#
# 1 0.005375 0.001882 -0.000678 0.002484 0.004172 0.009303
# 2 0.001882 0.047027 0.002519 0.025954 0.038157 0.058358
# 3 -0.000678 0.002519 0.006622 0.005324 0.007029 0.013413
# 4 0.002484 0.025954 0.005324 0.038785 0.029039 0.041421
# 5 0.004172 0.038157 0.007029 0.029039 0.077275 0.085979
# 6 0.009303 0.058358 0.013413 0.041421 0.085979 0.184062
#
#
# Mechanical properties :
#
#
# Convention : Reuss Voigt Hill
#
# Bulk Modulus (GPa) = 15.04457 81.97718 48.51088
# Shear Modulus (GPa) = 13.37412 43.88433 28.62923
#
# Velocity S-wave (km/s) = 2.39676 4.34157 3.50669
# Velocity P-wave (km/s) = 3.75782 7.76809 6.10182
#
# Compressibility (1/GPa) = 0.06646916
#
# Stress axis : x y z
#
# Youngs Moduli (GPa) = 186.03899 21.26443 151.01528
#
# Poissons Ratio (x) = -0.04002 0.10244
# Poissons Ratio (y) = -0.35013 -0.38039
# Poissons Ratio (z) = 0.12620 -0.05356
#
# Static dielectric constant tensor:
#      x y z
#    x 6.586810 -0.136140 -0.350260 
#    y -0.136140 3.685650 -0.169730 
#    z -0.350260 -0.169730 4.191990 
# 
# 
# High freq. dielectric constant tensor:
#      x y z
#    x 1.940880 -0.006790 -0.006910 
#    y -0.006790 1.891690 -0.013960 
#    z -0.006910 -0.013960 1.928840 
# 
# From -- ./inp_files/7154.got.cif
#   From: 2010.06.25/outbox.cif.g09.slc.cpg/sg2_4_cif.got.tgz:7154.got - 2010.06.27 13:26:56.
