data_PCOD8026513
_publ_section_title
;
Structure prediction by ZEFSAII (Michael W. Deem and Ramdas Pophale) SiO2 
 PCOD8026513
Probable space group: P -1
;
_chemical_formula_sum "Si O2"
_cell_formula_units_Z 16
_cell_length_a 8.861263
_cell_length_b 12.199460
_cell_length_c 11.852155
_cell_angle_alpha 93.398623
_cell_angle_beta 143.187059
_cell_angle_gamma 83.277801
_cell_volume 761.174914
_symmetry_space_group_name_H-M "P -1"
_symmetry_group_IT_number 2
_symmetry_cell_setting 'triclinic'
loop_
_space_group_symop_operation_xyz
x,y,z
-x,-y,-z
loop_
_atom_site_type_symbol
_atom_site_label
_atom_site_fract_x
_atom_site_fract_y
_atom_site_fract_z
Si Si1 0.465061 0.226832 0.045538
Si Si2 0.764222 0.950868 0.960901
Si Si3 0.082349 0.425484 0.881988
Si Si4 0.954305 0.775795 0.626627
Si Si5 0.131063 0.470236 0.458036
Si Si6 0.517725 0.807406 0.199706
Si Si7 0.238317 0.052333 0.292564
Si Si8 0.307914 0.602152 0.168259
O O1 0.363027 0.117976 0.026217
O O2 0.763357 0.215019 0.246416
O O3 0.328408 0.335668 0.030352
O O4 0.399413 0.239862 0.875465
O O5 0.721964 0.902399 0.807721
O O6 0.649458 0.077457 0.906149
O O7 0.060802 0.952744 0.169757
O O8 0.980591 0.440179 0.694605
O O9 0.861141 0.380919 0.819944
O O10 0.158698 0.541075 0.980567
O O11 0.922551 0.649390 0.625182
O O12 0.770002 0.824832 0.420075
O O13 0.892201 0.845210 0.707224
O O14 0.431110 0.472994 0.650102
O O15 0.000000 0.500000 0.500000
O O16 0.355103 0.722118 0.159446
O O17 0.500000 0.000000 0.500000
#
# Coordination Sequence:
#
# PCOD8026513 Si02
#       8
#     2   2   2   2   2   2   2   2
#     4  12  26  41  63  99 133 173 219 268 328 392
#     4  11  26  42  68  94 133 170 218 272 327 385
#     4  11  24  41  66  96 130 173 219 270 325 391
#     4  11  24  41  69  96 129 175 218 269 331 389
#     4  11  23  43  68  98 135 171 215 272 329 392
#     4  11  23  44  66  93 131 171 217 270 331 387
#     4  11  24  44  67  95 127 171 222 268 325 388
#     4  10  24  42  67  94 128 170 221 272 327 386
#
# _framework density 21.020136000000001
#
# number of rings (size 3 to 8) (size 9 to 14) (size 15 to 20)
#    0.000    1.000    2.500    3.750    3.500    4.000 
#    0.000    2.500    0.000    0.000    0.000    0.000 
#    0.000    0.000    0.000    0.000    0.000    0.000 
#
# Total GULP energy -198480.782843 kJ/mol
# GULP energy per Si atom -12405.048928 kJ/mol
# Density = 2.097229 g / cm^3
# Si number density = 21.020136 Si / 1000 Ang^3
#
#
#
# Elastic Constant Matrix: (Units=GPa)
#
#
# Indices 1 2 3 4 5 6 
#
# 1 147.9970 44.7106 55.8443 0.6714 -3.5092 -1.7894
# 2 44.7106 89.4175 23.5269 -7.6901 -4.6503 0.3870
# 3 55.8443 23.5269 118.9145 -2.7659 -4.9522 6.3726
# 4 0.6714 -7.6901 -2.7659 29.0080 -6.8000 -0.9270
# 5 -3.5092 -4.6503 -4.9522 -6.8000 33.9555 -3.7076
# 6 -1.7894 0.3870 6.3726 -0.9270 -3.7076 40.4151
#
#
#
# Elastic Compliance Matrix: (Units=1/GPa)
#
#
# Indices 1 2 3 4 5 6 
#
# 1 0.009338 -0.003851 -0.003727 -0.001638 -0.000328 0.000970
# 2 -0.003851 0.013779 -0.000733 0.004200 0.002236 0.000115
# 3 -0.003727 -0.000733 0.010465 0.001088 0.001075 -0.001685
# 4 -0.001638 0.004200 0.001088 0.037708 0.008262 0.001339
# 5 -0.000328 0.002236 0.001075 0.008262 0.031851 0.002906
# 6 0.000970 0.000115 -0.001685 0.001339 0.002906 0.025348
#
#
# Mechanical properties :
#
#
# Convention : Reuss Voigt Hill
#
# Bulk Modulus (GPa) = 58.96241 67.16585 63.06413
# Shear Modulus (GPa) = 33.16435 36.15885 34.66160
#
# Velocity S-wave (km/s) = 3.97639 4.15203 4.06516
# Velocity P-wave (km/s) = 7.01381 7.41676 7.21810
#
# Compressibility (1/GPa) = 0.01695996
#
# Stress axis : x y z
#
# Youngs Moduli (GPa) = 107.08952 72.57547 95.55537
#
# Poissons Ratio (x) = 0.27946 0.35615
# Poissons Ratio (y) = 0.41237 0.07005
# Poissons Ratio (z) = 0.39914 0.05321
#
# Static dielectric constant tensor:
#      x y z
#    x 3.935170 -0.143480 0.035690 
#    y -0.143480 3.687930 0.034990 
#    z 0.035690 0.034990 4.009430 
# 
# 
# High freq. dielectric constant tensor:
#      x y z
#    x 1.833320 -0.012330 0.001610 
#    y -0.012330 1.820850 -0.001020 
#    z 0.001610 -0.001020 1.839190 
# 
# From -- ./inp_files/390548.got.cif
#   From: 2010.06.25/outbox.cif.g09.slc.cpg/sg2_196_cif.got.tgz:390548.got - 2010.06.27 13:26:56.
