data_PCOD8026496
_publ_section_title
;
Structure prediction by ZEFSAII (Michael W. Deem and Ramdas Pophale) SiO2 
 PCOD8026496
Probable space group: P -1
;
_chemical_formula_sum "Si O2"
_cell_formula_units_Z 14
_cell_length_a 10.726879
_cell_length_b 12.046743
_cell_length_c 4.935943
_cell_angle_alpha 105.359776
_cell_angle_beta 98.142820
_cell_angle_gamma 72.098741
_cell_volume 584.021001
_symmetry_space_group_name_H-M "P -1"
_symmetry_group_IT_number 2
_symmetry_cell_setting 'triclinic'
loop_
_space_group_symop_operation_xyz
x,y,z
-x,-y,-z
loop_
_atom_site_type_symbol
_atom_site_label
_atom_site_fract_x
_atom_site_fract_y
_atom_site_fract_z
Si Si1 0.547456 0.243225 0.206605
Si Si2 0.277908 0.795882 0.247971
Si Si3 0.265957 0.376447 0.162822
Si Si4 0.106280 0.626848 0.090684
Si Si5 0.358087 0.125092 0.842482
Si Si6 0.931865 0.687060 0.569425
Si Si7 0.241119 0.055709 0.269294
O O1 0.615865 0.207629 0.490196
O O2 0.418845 0.356938 0.283743
O O3 0.646676 0.272581 0.038056
O O4 0.501893 0.128751 0.996616
O O5 0.170798 0.731204 0.265823
O O6 0.203476 0.934049 0.242828
O O7 0.215451 0.499943 0.067600
O O8 0.182385 0.370177 0.404004
O O9 0.262749 0.263642 0.894834
O O10 0.983406 0.632709 0.255779
O O11 0.056137 0.644569 0.781067
O O12 0.360292 0.070889 0.508738
O O13 0.709483 0.949229 0.025991
O O14 0.885914 0.832039 0.643460
#
# Coordination Sequence:
#
# PCOD8026496 Si02
#       7
#     2   2   2   2   2   2   2
#     4  10  24  42  66  97 130 160 216 255 327 372
#     4  12  26  41  62 100 129 179 198 249 326 397
#     4   9  23  44  68  98 121 162 217 273 314 360
#     4  12  26  42  67  92 134 168 213 253 321 381
#     4   9  21  39  64  94 122 162 202 271 309 355
#     4  11  24  43  66  95 122 170 216 272 303 364
#     4  11  22  41  64  94 132 157 219 257 319 368
#
# _framework density 23.971741999999999
#
# number of rings (size 3 to 8) (size 9 to 14) (size 15 to 20)
#    0.857    0.571    0.000    5.143    0.000    9.143 
#    0.000    0.000    0.000    0.000    0.000    0.000 
#    0.000    0.000    0.000    0.000    0.000    0.000 
#
# Total GULP energy -173614.792429 kJ/mol
# GULP energy per Si atom -12401.056602 kJ/mol
# Density = 2.391718 g / cm^3
# Si number density = 23.971742 Si / 1000 Ang^3
#
#
#
# Elastic Constant Matrix: (Units=GPa)
#
#
# Indices 1 2 3 4 5 6 
#
# 1 33.2583 14.0439 7.6877 -1.5751 -18.0813 1.9978
# 2 14.0439 140.8799 22.5532 -11.5171 -1.3227 -4.6484
# 3 7.6877 22.5532 60.8417 -17.0009 -3.6634 0.6229
# 4 -1.5751 -11.5171 -17.0009 24.4063 -0.4480 3.4039
# 5 -18.0813 -1.3227 -3.6634 -0.4480 18.8057 1.6245
# 6 1.9978 -4.6484 0.6229 3.4039 1.6245 35.7871
#
#
#
# Elastic Compliance Matrix: (Units=1/GPa)
#
#
# Indices 1 2 3 4 5 6 
#
# 1 0.070563 -0.006163 -0.001666 0.002855 0.067851 -0.008062
# 2 -0.006163 0.008190 -0.002171 0.001630 -0.005868 0.001557
# 3 -0.001666 -0.002171 0.021644 0.014287 0.002980 -0.002060
# 4 0.002855 0.001630 0.014287 0.052788 0.007380 -0.005552
# 5 0.067851 -0.005868 0.002980 0.007380 0.119684 -0.010737
# 6 -0.008062 0.001557 -0.002060 -0.005552 -0.010737 0.029647
#
#
# Mechanical properties :
#
#
# Convention : Reuss Voigt Hill
#
# Bulk Modulus (GPa) = 12.43825 35.94994 24.19410
# Shear Modulus (GPa) = 14.31378 28.51282 21.41330
#
# Velocity S-wave (km/s) = 2.44624 3.45256 2.99201
# Velocity P-wave (km/s) = 3.63025 5.56084 4.69583
#
# Compressibility (1/GPa) = 0.08039716
#
# Stress axis : x y z
#
# Youngs Moduli (GPa) = 14.17177 122.10482 46.20221
#
# Poissons Ratio (x) = 0.75255 0.07695
# Poissons Ratio (y) = 0.08734 0.10030
# Poissons Ratio (z) = 0.02360 0.26508
#
# Static dielectric constant tensor:
#      x y z
#    x 4.018020 -0.194720 -0.103570 
#    y -0.194720 4.387540 -0.114690 
#    z -0.103570 -0.114690 4.038640 
# 
# 
# High freq. dielectric constant tensor:
#      x y z
#    x 1.928740 -0.016440 -0.009530 
#    y -0.016440 1.961690 -0.013810 
#    z -0.009530 -0.013810 1.946510 
# 
# From -- ./inp_files/67632.got.cif
#   From: 2010.06.25/outbox.cif.g09.slc.cpg/sg2_34_cif.got.tgz:67632.got - 2010.06.27 13:26:56.
