data_PCOD8026066
_publ_section_title
;
Structure prediction by ZEFSAII (Michael W. Deem and Ramdas Pophale) SiO2 
 PCOD8026066
Probable space group: P -1
;
_chemical_formula_sum "Si O2"
_cell_formula_units_Z 16
_cell_length_a 6.419855
_cell_length_b 5.535552
_cell_length_c 23.084897
_cell_angle_alpha 101.080549
_cell_angle_beta 54.629063
_cell_angle_gamma 104.350483
_cell_volume 646.847728
_symmetry_space_group_name_H-M "P -1"
_symmetry_group_IT_number 2
_symmetry_cell_setting 'triclinic'
loop_
_space_group_symop_operation_xyz
x,y,z
-x,-y,-z
loop_
_atom_site_type_symbol
_atom_site_label
_atom_site_fract_x
_atom_site_fract_y
_atom_site_fract_z
Si Si1 0.983437 0.869645 0.234517
Si Si2 0.354955 0.264642 0.255606
Si Si3 0.639447 0.300760 0.436913
Si Si4 0.477426 0.481597 0.647704
Si Si5 0.569094 0.419013 0.844336
Si Si6 0.793612 0.155505 0.515960
Si Si7 0.831743 0.024819 0.142432
Si Si8 0.385645 0.251063 0.043113
O O1 0.199724 0.708433 0.172179
O O2 0.716522 0.717905 0.294276
O O3 0.097268 0.062015 0.276103
O O4 0.915116 0.008151 0.194758
O O5 0.388673 0.303669 0.320382
O O6 0.338911 0.516578 0.233830
O O7 0.607037 0.186311 0.182826
O O8 0.500000 0.500000 0.500000
O O9 0.698902 0.402874 0.366848
O O10 0.870916 0.260334 0.442682
O O11 0.476565 0.027608 0.447278
O O12 0.729778 0.383915 0.576008
O O13 0.557104 0.668164 0.895398
O O14 0.286386 0.241312 0.880580
O O15 0.000000 0.000000 0.500000
O O16 0.079619 0.170785 0.074789
O O17 0.500000 0.500000 0.000000
O O18 0.500000 0.000000 0.000000
#
# Coordination Sequence:
#
# PCOD8026066 Si02
#       8
#     2   2   2   2   2   2   2   2
#     4  11  24  46  71 107 146 190 238 312 377 440
#     4  11  25  44  73 108 139 192 239 305 381 435
#     4   9  22  46  65  95 136 185 225 293 362 426
#     4  11  24  44  71 104 141 181 250 295 370 456
#     4  11  25  47  73 104 149 196 244 309 386 430
#     4  10  23  48  69  97 142 188 234 297 368 435
#     4  11  25  47  75 100 157 189 242 315 379 432
#     4  12  28  47  76 113 152 209 261 304 374 465
#
# _framework density 24.735340999999998
#
# number of rings (size 3 to 8) (size 9 to 14) (size 15 to 20)
#    0.000    1.250    2.500    1.500    5.250    3.000 
#   18.000    0.000    0.000    0.000    0.000    0.000 
#    0.000    0.000    0.000    0.000    0.000    0.000 
#
# Total GULP energy -198246.978277 kJ/mol
# GULP energy per Si atom -12390.436142 kJ/mol
# Density = 2.467904 g / cm^3
# Si number density = 24.735341 Si / 1000 Ang^3
#
#
#
# Elastic Constant Matrix: (Units=GPa)
#
#
# Indices 1 2 3 4 5 6 
#
# 1 119.7540 34.1867 40.0498 3.3610 2.6468 0.5955
# 2 34.1867 97.7686 22.2681 7.5493 7.6147 7.6457
# 3 40.0498 22.2681 70.9282 2.5902 11.8556 6.7376
# 4 3.3610 7.5493 2.5902 42.3808 4.0947 13.1459
# 5 2.6468 7.6147 11.8556 4.0947 35.8221 -6.6482
# 6 0.5955 7.6457 6.7376 13.1459 -6.6482 53.1407
#
#
#
# Elastic Compliance Matrix: (Units=1/GPa)
#
#
# Indices 1 2 3 4 5 6 
#
# 1 0.011053 -0.002757 -0.005829 -0.000671 0.002041 0.001433
# 2 -0.002757 0.011928 -0.001693 -0.001180 -0.001899 -0.001416
# 3 -0.005829 -0.001693 0.019238 0.001195 -0.006310 -0.003215
# 4 -0.000671 -0.001180 0.001195 0.026403 -0.004423 -0.007059
# 5 0.002041 -0.001899 -0.006310 -0.004423 0.031901 0.006136
# 6 0.001433 -0.001416 -0.003215 -0.007059 0.006136 0.021927
#
#
# Mechanical properties :
#
#
# Convention : Reuss Voigt Hill
#
# Bulk Modulus (GPa) = 46.16342 53.49555 49.82948
# Shear Modulus (GPa) = 33.28289 39.06513 36.17401
#
# Velocity S-wave (km/s) = 3.67217 3.97838 3.82834
# Velocity P-wave (km/s) = 6.05667 6.54045 6.30320
#
# Compressibility (1/GPa) = 0.02166218
#
# Stress axis : x y z
#
# Youngs Moduli (GPa) = 90.47086 83.83945 51.98083
#
# Poissons Ratio (x) = 0.23112 0.30297
# Poissons Ratio (y) = 0.24940 0.08800
# Poissons Ratio (z) = 0.52732 0.14194
#
# Static dielectric constant tensor:
#      x y z
#    x 4.855000 0.168280 0.373050 
#    y 0.168280 4.757450 0.026500 
#    z 0.373050 0.026500 4.440030 
# 
# 
# High freq. dielectric constant tensor:
#      x y z
#    x 1.996650 0.004740 0.011870 
#    y 0.004740 1.999790 -0.000200 
#    z 0.011870 -0.000200 1.968750 
# 
# From -- ./inp_files/11174.got.cif
#   From: 2010.06.25/outbox.cif.g09.slc.cpg/sg2_6_cif.got.tgz:11174.got - 2010.06.27 13:26:56.
