data_PCOD8026097
_publ_section_title
;
Structure prediction by ZEFSAII (Michael W. Deem and Ramdas Pophale) SiO2 
 PCOD8026097
Probable space group: P -1
;
_chemical_formula_sum "Si O2"
_cell_formula_units_Z 10
_cell_length_a 9.387621
_cell_length_b 5.001539
_cell_length_c 13.158277
_cell_angle_alpha 68.202856
_cell_angle_beta 142.091684
_cell_angle_gamma 112.331585
_cell_volume 348.324251
_symmetry_space_group_name_H-M "P -1"
_symmetry_group_IT_number 2
_symmetry_cell_setting 'triclinic'
loop_
_space_group_symop_operation_xyz
x,y,z
-x,-y,-z
loop_
_atom_site_type_symbol
_atom_site_label
_atom_site_fract_x
_atom_site_fract_y
_atom_site_fract_z
Si Si1 0.789720 0.807862 0.553625
Si Si2 0.610022 0.533799 0.947820
Si Si3 0.121828 0.838142 0.974003
Si Si4 0.744834 0.218676 0.723266
Si Si5 0.848510 0.745615 0.367832
O O1 0.818055 0.481632 0.647868
O O2 0.534833 0.883058 0.431268
O O3 0.808460 0.887973 0.433502
O O4 0.028068 0.036668 0.684618
O O5 0.410335 0.411003 0.776323
O O6 0.500000 0.500000 0.000000
O O7 0.814103 0.338902 0.064123
O O8 0.700368 0.872288 0.936876
O O9 0.147697 0.661787 0.120953
O O10 0.864196 0.936325 0.795832
O O11 0.000000 0.500000 0.500000
#
# Coordination Sequence:
#
# PCOD8026097 Si02
#       5
#     2   2   2   2   2
#     4  10  23  50  79 118 158 210 269 328 401 468
#     4  12  28  51  82 116 160 214 268 329 397 473
#     4  11  26  51  79 117 164 208 267 325 401 480
#     4  10  23  48  82 118 159 214 256 333 402 481
#     4  11  25  47  81 114 160 206 277 329 391 473
#
# _framework density 28.708881000000002
#
# number of rings (size 3 to 8) (size 9 to 14) (size 15 to 20)
#    0.000    1.200    2.000    1.800    5.600    4.800 
#    7.200    3.000    0.000    1.200    0.000    0.000 
#    0.000    0.000    0.000    0.000    0.000    0.000 
#
# Total GULP energy -123896.674556 kJ/mol
# GULP energy per Si atom -12389.667456 kJ/mol
# Density = 2.864354 g / cm^3
# Si number density = 28.708881 Si / 1000 Ang^3
#
#
#
# Elastic Constant Matrix: (Units=GPa)
#
#
# Indices 1 2 3 4 5 6 
#
# 1 189.2455 75.1045 49.7257 -25.2351 30.1751 0.0637
# 2 75.1045 114.2817 40.0077 -19.8581 17.1337 30.8566
# 3 49.7257 40.0077 111.9063 -15.2603 19.8472 26.9097
# 4 -25.2351 -19.8581 -15.2603 51.9559 2.7649 10.3637
# 5 30.1751 17.1337 19.8472 2.7649 35.5146 1.8607
# 6 0.0637 30.8566 26.9097 10.3637 1.8607 69.3971
#
#
#
# Elastic Compliance Matrix: (Units=1/GPa)
#
#
# Indices 1 2 3 4 5 6 
#
# 1 0.008532 -0.004845 -0.001778 0.001447 -0.004174 0.002732
# 2 -0.004845 0.015396 -0.000326 0.005076 -0.003137 -0.007389
# 3 -0.001778 -0.000326 0.012605 0.004039 -0.005418 -0.005199
# 4 0.001447 0.005076 0.004039 0.024941 -0.007492 -0.007348
# 5 -0.004174 -0.003137 -0.005418 -0.007492 0.036638 0.003636
# 6 0.002732 -0.007389 -0.005199 -0.007348 0.003636 0.020708
#
#
# Mechanical properties :
#
#
# Convention : Reuss Voigt Hill
#
# Bulk Modulus (GPa) = 44.18169 82.78991 63.48580
# Shear Modulus (GPa) = 35.64759 48.07988 41.86374
#
# Velocity S-wave (km/s) = 3.52759 4.09680 3.82280
# Velocity P-wave (km/s) = 5.65816 7.16091 6.45343
#
# Compressibility (1/GPa) = 0.02263381
#
# Stress axis : x y z
#
# Youngs Moduli (GPa) = 117.21108 64.95319 79.33539
#
# Poissons Ratio (x) = 0.31468 0.14109
# Poissons Ratio (y) = 0.56786 0.02587
# Poissons Ratio (z) = 0.20844 0.02118
#
# Static dielectric constant tensor:
#      x y z
#    x 8.738160 1.098720 0.545140 
#    y 1.098720 4.406510 -0.558750 
#    z 0.545140 -0.558750 4.755790 
# 
# 
# High freq. dielectric constant tensor:
#      x y z
#    x 2.185000 0.022740 0.007320 
#    y 0.022740 2.183330 0.011280 
#    z 0.007320 0.011280 2.177000 
# 
# From -- ./inp_files/487533.got.cif
#   From: 2010.06.25/outbox.cif.g09.slc.cpg/sg2_244_cif.got.tgz:487533.got - 2010.06.27 13:26:56.
