data_PCOD8026312
_publ_section_title
;
Structure prediction by ZEFSAII (Michael W. Deem and Ramdas Pophale) SiO2 
 PCOD8026312
Probable space group: P -1
;
_chemical_formula_sum "Si O2"
_cell_formula_units_Z 16
_cell_length_a 8.938035
_cell_length_b 9.471890
_cell_length_c 15.656562
_cell_angle_alpha 38.329490
_cell_angle_beta 69.024056
_cell_angle_gamma 74.820764
_cell_volume 767.155179
_symmetry_space_group_name_H-M "P -1"
_symmetry_group_IT_number 2
_symmetry_cell_setting 'triclinic'
loop_
_space_group_symop_operation_xyz
x,y,z
-x,-y,-z
loop_
_atom_site_type_symbol
_atom_site_label
_atom_site_fract_x
_atom_site_fract_y
_atom_site_fract_z
Si Si1 0.349641 0.423369 0.323509
Si Si2 0.295695 0.630537 0.758887
Si Si3 0.619918 0.859633 0.784426
Si Si4 0.817229 0.981997 0.517400
Si Si5 0.277244 0.612384 0.957582
Si Si6 0.202517 0.243962 0.850370
Si Si7 0.144743 0.730987 0.103606
Si Si8 0.476640 0.671521 0.346444
O O1 0.512670 0.328277 0.295736
O O2 0.220450 0.210507 0.456629
O O3 0.280609 0.595225 0.187175
O O4 0.378175 0.540928 0.353389
O O5 0.212179 0.671706 0.847949
O O6 0.261031 0.369526 0.864541
O O7 0.223524 0.777692 0.628123
O O8 0.703771 0.915560 0.651077
O O9 0.443760 0.752236 0.862322
O O10 0.617730 0.100044 0.721232
O O11 0.715353 0.663229 0.906949
O O12 0.000000 0.000000 0.500000
O O13 0.160839 0.703965 0.010625
O O14 0.341477 0.257535 0.746071
O O15 0.037625 0.349159 0.797279
O O16 0.168894 0.987451 0.007739
O O17 0.500000 0.500000 0.500000
#
# Coordination Sequence:
#
# PCOD8026312 Si02
#       8
#     2   2   2   2   2   2   2   2
#     4  11  23  41  69  95 128 179 222 263 334 398
#     4  11  24  39  68 100 128 176 224 271 325 405
#     4  11  22  43  65 100 131 173 221 273 331 387
#     4  12  25  45  67  97 139 174 216 275 343 397
#     4  11  22  39  71  97 130 167 228 280 312 392
#     4  10  24  41  65  94 139 169 214 270 342 385
#     4  11  22  44  65  97 134 175 210 279 334 393
#     4  11  25  42  68  96 133 176 227 274 318 404
#
# _framework density 20.856276000000001
#
# number of rings (size 3 to 8) (size 9 to 14) (size 15 to 20)
#    0.000    1.000    3.750    3.375    3.500    1.500 
#    0.000    2.500    0.000    0.000    0.000    0.000 
#    0.000    0.000    0.000    0.000    0.000    0.000 
#
# Total GULP energy -198322.252799 kJ/mol
# GULP energy per Si atom -12395.140800 kJ/mol
# Density = 2.080881 g / cm^3
# Si number density = 20.856276 Si / 1000 Ang^3
#
#
#
# Elastic Constant Matrix: (Units=GPa)
#
#
# Indices 1 2 3 4 5 6 
#
# 1 115.4513 34.9672 32.5955 -5.5139 -1.6648 -2.5591
# 2 34.9672 116.0310 41.8415 -12.3395 -5.6930 12.7614
# 3 32.5955 41.8415 75.9115 -5.1363 1.8778 7.5723
# 4 -5.5139 -12.3395 -5.1363 32.9465 4.9866 -0.0235
# 5 -1.6648 -5.6930 1.8778 4.9866 31.8886 -2.7176
# 6 -2.5591 12.7614 7.5723 -0.0235 -2.7176 28.1017
#
#
#
# Elastic Compliance Matrix: (Units=1/GPa)
#
#
# Indices 1 2 3 4 5 6 
#
# 1 0.010400 -0.002098 -0.003594 0.000308 0.000581 0.002925
# 2 -0.002098 0.011943 -0.005101 0.003098 0.001490 -0.004093
# 3 -0.003594 -0.005101 0.017944 0.000665 -0.002522 -0.003089
# 4 0.000308 0.003098 0.000665 0.032378 -0.004702 -0.001986
# 5 0.000581 0.001490 -0.002522 -0.004702 0.032814 0.003225
# 6 0.002925 -0.004093 -0.003089 -0.001986 0.003225 0.038853
#
#
# Mechanical properties :
#
#
# Convention : Reuss Voigt Hill
#
# Bulk Modulus (GPa) = 53.47665 58.46692 55.97179
# Shear Modulus (GPa) = 29.04417 31.78666 30.41542
#
# Velocity S-wave (km/s) = 3.73579 3.90818 3.82296
# Velocity P-wave (km/s) = 6.65615 6.96127 6.81042
#
# Compressibility (1/GPa) = 0.01869975
#
# Stress axis : x y z
#
# Youngs Moduli (GPa) = 96.15456 83.73197 55.73036
#
# Poissons Ratio (x) = 0.17570 0.20031
# Poissons Ratio (y) = 0.20177 0.28426
# Poissons Ratio (z) = 0.34560 0.42709
#
# Static dielectric constant tensor:
#      x y z
#    x 3.913670 0.081860 -0.261710 
#    y 0.081860 4.261830 -0.314250 
#    z -0.261710 -0.314250 4.046720 
# 
# 
# High freq. dielectric constant tensor:
#      x y z
#    x 1.811610 0.004240 -0.007060 
#    y 0.004240 1.825960 -0.014430 
#    z -0.007060 -0.014430 1.818160 
# 
# From -- ./inp_files/206930.got.cif
#   From: 2010.06.25/outbox.cif.g09.slc.cpg/sg2_104_cif.got.tgz:206930.got - 2010.06.27 13:26:56.
