data_PCOD8026645
_publ_section_title
;
Structure prediction by ZEFSAII (Michael W. Deem and Ramdas Pophale) SiO2 
 PCOD8026645
Probable space group: P -1
;
_chemical_formula_sum "Si O2"
_cell_formula_units_Z 12
_cell_length_a 14.061190
_cell_length_b 8.686707
_cell_length_c 9.731322
_cell_angle_alpha 106.293365
_cell_angle_beta 115.220880
_cell_angle_gamma 29.889810
_cell_volume 525.355137
_symmetry_space_group_name_H-M "P -1"
_symmetry_group_IT_number 2
_symmetry_cell_setting 'triclinic'
loop_
_space_group_symop_operation_xyz
x,y,z
-x,-y,-z
loop_
_atom_site_type_symbol
_atom_site_label
_atom_site_fract_x
_atom_site_fract_y
_atom_site_fract_z
Si Si1 0.335213 0.140847 0.266728
Si Si2 0.509563 0.231420 0.472484
Si Si3 0.886848 0.159504 0.115670
Si Si4 0.909767 0.839905 0.252467
Si Si5 0.837462 0.047146 0.550831
Si Si6 0.549722 0.112467 0.011559
O O1 0.452503 0.156758 0.320707
O O2 0.105583 0.467149 0.264427
O O3 0.466364 0.859740 0.380263
O O4 0.328446 0.054896 0.099138
O O5 0.720311 0.034143 0.501630
O O6 0.317588 0.602170 0.442739
O O7 0.653315 0.514475 0.032002
O O8 0.893340 0.978232 0.146456
O O9 0.987880 0.161093 0.277501
O O10 0.000000 0.000000 0.000000
O O11 0.936691 0.909389 0.425381
O O12 0.704537 0.000889 0.181761
O O13 0.500000 0.000000 0.000000
#
# Coordination Sequence:
#
# PCOD8026645 Si02
#       6
#     2   2   2   2   2   2
#     4  11  24  44  69 103 140 178 227 281 346 403
#     4  10  24  42  72  98 140 176 230 281 341 397
#     4  12  28  46  71 102 140 182 231 279 344 407
#     4  12  26  46  73 101 138 183 231 279 343 405
#     4  11  25  45  73 100 135 181 235 278 336 408
#     4  12  28  45  69 101 144 179 229 284 345 403
#
# _framework density 22.841691999999998
#
# number of rings (size 3 to 8) (size 9 to 14) (size 15 to 20)
#    0.000    0.667    1.667    4.500   14.000    0.667 
#    0.000    0.000    0.000    0.000    0.000    0.000 
#    0.000    0.000    0.000    0.000    0.000    0.000 
#
# Total GULP energy -148889.395818 kJ/mol
# GULP energy per Si atom -12407.449651 kJ/mol
# Density = 2.278970 g / cm^3
# Si number density = 22.841692 Si / 1000 Ang^3
#
#
#
# Elastic Constant Matrix: (Units=GPa)
#
#
# Indices 1 2 3 4 5 6 
#
# 1 101.4379 13.2047 29.5071 -5.3772 8.2818 2.5497
# 2 13.2047 69.0396 28.6454 -1.7123 2.5981 -11.0951
# 3 29.5071 28.6454 132.1199 9.3563 7.9785 -10.7438
# 4 -5.3772 -1.7123 9.3563 39.6554 -15.6766 -0.5195
# 5 8.2818 2.5981 7.9785 -15.6766 33.1756 -1.4591
# 6 2.5497 -11.0951 -10.7438 -0.5195 -1.4591 31.4268
#
#
#
# Elastic Compliance Matrix: (Units=1/GPa)
#
#
# Indices 1 2 3 4 5 6 
#
# 1 0.010971 -0.001399 -0.002331 0.001342 -0.001532 -0.002230
# 2 -0.001399 0.016862 -0.003094 0.001639 0.000770 0.005072
# 3 -0.002331 -0.003094 0.009399 -0.003900 -0.003187 0.002098
# 4 0.001342 0.001639 -0.003900 0.032699 0.015944 0.000417
# 5 -0.001532 0.000770 -0.003187 0.015944 0.038826 0.001373
# 6 -0.002230 0.005072 0.002098 0.000417 0.001373 0.034579
#
#
# Mechanical properties :
#
#
# Convention : Reuss Voigt Hill
#
# Bulk Modulus (GPa) = 42.39775 49.47907 45.93841
# Shear Modulus (GPa) = 30.33168 36.26757 33.29963
#
# Velocity S-wave (km/s) = 3.64800 3.98902 3.82231
# Velocity P-wave (km/s) = 6.02874 6.55173 6.29567
#
# Compressibility (1/GPa) = 0.02358615
#
# Stress axis : x y z
#
# Youngs Moduli (GPa) = 91.15280 59.30372 106.38992
#
# Poissons Ratio (x) = 0.08294 0.24796
# Poissons Ratio (y) = 0.12748 0.32915
# Poissons Ratio (z) = 0.21245 0.18347
#
# Static dielectric constant tensor:
#      x y z
#    x 4.271410 -0.008480 0.197050 
#    y -0.008480 4.059000 -0.148250 
#    z 0.197050 -0.148250 4.549240 
# 
# 
# High freq. dielectric constant tensor:
#      x y z
#    x 1.912080 -0.000870 0.004050 
#    y -0.000870 1.905210 -0.002590 
#    z 0.004050 -0.002590 1.913710 
# 
# From -- ./inp_files/146225.got.cif
#   From: 2010.06.25/outbox.cif.g09.slc.cpg/sg2_74_cif.got.tgz:146225.got - 2010.06.27 13:26:56.
