data_PCOD8026830
_publ_section_title
;
Structure prediction by ZEFSAII (Michael W. Deem and Ramdas Pophale) SiO2 
 PCOD8026830
Probable space group: P -1
;
_chemical_formula_sum "Si O2"
_cell_formula_units_Z 16
_cell_length_a 8.716361
_cell_length_b 15.026432
_cell_length_c 12.050144
_cell_angle_alpha 154.358255
_cell_angle_beta 83.685414
_cell_angle_gamma 91.975582
_cell_volume 671.124439
_symmetry_space_group_name_H-M "P -1"
_symmetry_group_IT_number 2
_symmetry_cell_setting 'triclinic'
loop_
_space_group_symop_operation_xyz
x,y,z
-x,-y,-z
loop_
_atom_site_type_symbol
_atom_site_label
_atom_site_fract_x
_atom_site_fract_y
_atom_site_fract_z
Si Si1 0.058617 0.838791 0.120545
Si Si2 0.485612 0.653304 0.443800
Si Si3 0.680688 0.882119 0.534144
Si Si4 0.424536 0.227283 0.952725
Si Si5 0.080257 0.426162 0.522735
Si Si6 0.164931 0.350176 0.945472
Si Si7 0.144347 0.771358 0.522514
Si Si8 0.413701 0.217549 0.206944
O O1 0.994611 0.750914 0.142901
O O2 0.921722 0.997790 0.251786
O O3 0.200568 0.963982 0.269342
O O4 0.119364 0.634081 0.813837
O O5 0.632955 0.756685 0.503879
O O6 0.502001 0.426714 0.133051
O O7 0.318731 0.785233 0.569351
O O8 0.498388 0.628055 0.549444
O O9 0.746701 0.719919 0.252790
O O10 0.523199 0.022914 0.661176
O O11 0.428726 0.224892 0.082667
O O12 0.253309 0.261889 0.952300
O O13 0.232378 0.259973 0.301048
O O14 0.000000 0.500000 0.500000
O O15 0.960775 0.304068 0.458474
O O16 0.141762 0.602136 0.232207
O O17 0.500000 0.000000 0.000000
#
# Coordination Sequence:
#
# PCOD8026830 Si02
#       8
#     2   2   2   2   2   2   2   2
#     4  11  24  43  69  97 137 180 231 283 353 413
#     4  11  24  42  67 101 143 180 232 285 348 418
#     4  12  24  41  69 102 136 183 231 287 347 417
#     4  11  24  44  67  97 138 182 227 287 346 411
#     4  11  25  46  69 102 141 184 234 287 350 416
#     4  10  24  45  68  99 137 180 234 290 343 410
#     4  10  24  43  68  99 138 184 229 284 346 420
#     4  12  24  44  72 100 141 181 232 290 343 413
#
# _framework density 23.840589000000001
#
# number of rings (size 3 to 8) (size 9 to 14) (size 15 to 20)
#    0.000    1.000    1.250    5.625    1.750    6.000 
#    0.000    0.000    0.000    0.000    0.000    0.000 
#    0.000    0.000    0.000    0.000    0.000    0.000 
#
# Total GULP energy -198291.597265 kJ/mol
# GULP energy per Si atom -12393.224829 kJ/mol
# Density = 2.378633 g / cm^3
# Si number density = 23.840589 Si / 1000 Ang^3
#
#
#
# Elastic Constant Matrix: (Units=GPa)
#
#
# Indices 1 2 3 4 5 6 
#
# 1 95.9893 41.8726 31.4860 -6.8835 0.4422 22.3235
# 2 41.8726 69.9912 35.6515 -5.2637 -3.2863 1.8876
# 3 31.4860 35.6515 105.2769 -11.2861 -22.2829 9.3128
# 4 -6.8835 -5.2637 -11.2861 26.3483 1.1420 -3.1615
# 5 0.4422 -3.2863 -22.2829 1.1420 42.3132 7.2153
# 6 22.3235 1.8876 9.3128 -3.1615 7.2153 35.1278
#
#
#
# Elastic Compliance Matrix: (Units=1/GPa)
#
#
# Indices 1 2 3 4 5 6 
#
# 1 0.017322 -0.009559 -0.000856 0.001004 0.000346 -0.010248
# 2 -0.009559 0.022761 -0.005938 0.000449 -0.002461 0.006972
# 3 -0.000856 -0.005938 0.014146 0.003828 0.007594 -0.004102
# 4 0.001004 0.000449 0.003828 0.040133 0.000650 0.001801
# 5 0.000346 -0.002461 0.007594 0.000650 0.028776 -0.007953
# 6 -0.010248 0.006972 -0.004102 0.001801 -0.007953 0.037489
#
#
# Mechanical properties :
#
#
# Convention : Reuss Voigt Hill
#
# Bulk Modulus (GPa) = 46.46200 54.36418 50.41309
# Shear Modulus (GPa) = 24.93652 31.57436 28.25544
#
# Velocity S-wave (km/s) = 3.23765 3.64317 3.44638
# Velocity P-wave (km/s) = 5.78856 6.36786 6.08511
#
# Compressibility (1/GPa) = 0.02152296
#
# Stress axis : x y z
#
# Youngs Moduli (GPa) = 57.72939 43.93431 70.68920
#
# Poissons Ratio (x) = 0.41996 0.06052
# Poissons Ratio (y) = 0.55182 0.41979
# Poissons Ratio (z) = 0.04942 0.26090
#
# Static dielectric constant tensor:
#      x y z
#    x 4.573450 -0.141230 -0.029330 
#    y -0.141230 4.149270 0.163440 
#    z -0.029330 0.163440 4.775810 
# 
# 
# High freq. dielectric constant tensor:
#      x y z
#    x 1.953240 0.001980 -0.002870 
#    y 0.001980 1.939420 0.013060 
#    z -0.002870 0.013060 1.962200 
# 
# From -- ./inp_files/399941.got.cif
#   From: 2010.06.25/outbox.cif.g09.slc.cpg/sg2_200_cif.got.tgz:399941.got - 2010.06.27 13:26:56.
