data_PCOD8026058
_publ_section_title
;
Structure prediction by ZEFSAII (Michael W. Deem and Ramdas Pophale) SiO2 
 PCOD8026058
Probable space group: P -1
;
_chemical_formula_sum "Si O2"
_cell_formula_units_Z 16
_cell_length_a 8.291863
_cell_length_b 12.325530
_cell_length_c 12.081991
_cell_angle_alpha 84.552814
_cell_angle_beta 118.433446
_cell_angle_gamma 50.290634
_cell_volume 674.455765
_symmetry_space_group_name_H-M "P -1"
_symmetry_group_IT_number 2
_symmetry_cell_setting 'triclinic'
loop_
_space_group_symop_operation_xyz
x,y,z
-x,-y,-z
loop_
_atom_site_type_symbol
_atom_site_label
_atom_site_fract_x
_atom_site_fract_y
_atom_site_fract_z
Si Si1 0.605742 0.609940 0.363963
Si Si2 0.004757 0.965347 0.181913
Si Si3 0.562944 0.765350 0.132266
Si Si4 0.081201 0.383465 0.939289
Si Si5 0.700547 0.013544 0.553988
Si Si6 0.590333 0.995261 0.170145
Si Si7 0.061445 0.757337 0.514038
Si Si8 0.573004 0.645809 0.599251
O O1 0.692140 0.669356 0.303147
O O2 0.762706 0.433260 0.379017
O O3 0.717488 0.571386 0.530928
O O4 0.250301 0.768168 0.233859
O O5 0.182156 0.984711 0.293883
O O6 0.792196 0.998913 0.191567
O O7 0.780908 0.112883 0.999035
O O8 0.745068 0.631880 0.100814
O O9 0.575403 0.891434 0.102319
O O10 0.776204 0.490354 0.770199
O O11 0.000000 0.500000 0.000000
O O12 0.261877 0.195701 0.062922
O O13 0.997907 0.851570 0.597581
O O14 0.500000 0.000000 0.500000
O O15 0.488054 0.199669 0.405441
O O16 0.738231 0.886779 0.343910
O O17 0.257281 0.732998 0.491700
#
# Coordination Sequence:
#
# PCOD8026058 Si02
#       8
#     2   2   2   2   2   2   2   2
#     4  11  25  44  69 107 142 182 245 294 356 411
#     4  10  23  48  67 101 145 191 230 293 361 429
#     4  11  26  44  74 105 151 185 235 298 365 419
#     4  11  25  43  71 105 143 188 243 289 351 425
#     4  11  26  45  71 103 144 189 237 289 361 421
#     4  11  24  45  75 104 142 190 240 286 362 427
#     4  12  25  43  77 103 142 190 242 293 350 428
#     4  11  25  46  75 101 144 188 242 294 350 428
#
# _framework density 23.722829999999998
#
# number of rings (size 3 to 8) (size 9 to 14) (size 15 to 20)
#    0.000    1.000    2.500    4.125   12.250    1.000 
#    0.000    0.625    0.000    0.000    0.000    0.000 
#    0.000    0.000    0.000    0.000    0.000    0.000 
#
# Total GULP energy -198254.333479 kJ/mol
# GULP energy per Si atom -12390.895842 kJ/mol
# Density = 2.366884 g / cm^3
# Si number density = 23.722830 Si / 1000 Ang^3
#
#
#
# Elastic Constant Matrix: (Units=GPa)
#
#
# Indices 1 2 3 4 5 6 
#
# 1 93.2029 44.0411 31.0424 -0.5986 -4.5132 12.0780
# 2 44.0411 168.9758 54.5671 -20.2065 -8.7682 -7.0613
# 3 31.0424 54.5671 132.4870 -9.1892 3.8372 2.7121
# 4 -0.5986 -20.2065 -9.1892 32.8369 -2.2146 -1.4930
# 5 -4.5132 -8.7682 3.8372 -2.2146 38.1733 2.9461
# 6 12.0780 -7.0613 2.7121 -1.4930 2.9461 41.0320
#
#
#
# Elastic Compliance Matrix: (Units=1/GPa)
#
#
# Indices 1 2 3 4 5 6 
#
# 1 0.013595 -0.003349 -0.001919 -0.002477 0.001245 -0.004631
# 2 -0.003349 0.008335 -0.002434 0.004629 0.001830 0.002618
# 3 -0.001919 -0.002434 0.009115 0.000895 -0.001627 -0.000307
# 4 -0.002477 0.004629 0.000895 0.033787 0.002446 0.002520
# 5 0.001245 0.001830 -0.001627 0.002446 0.027209 -0.001809
# 6 -0.004631 0.002618 -0.000307 0.002520 -0.001809 0.026427
#
#
# Mechanical properties :
#
#
# Convention : Reuss Voigt Hill
#
# Bulk Modulus (GPa) = 63.93005 72.66301 68.29653
# Shear Modulus (GPa) = 35.94924 40.07611 38.01268
#
# Velocity S-wave (km/s) = 3.89702 4.11463 4.00730
# Velocity P-wave (km/s) = 6.87432 7.29863 7.08965
#
# Compressibility (1/GPa) = 0.01564210
#
# Stress axis : x y z
#
# Youngs Moduli (GPa) = 73.55449 119.98178 109.70457
#
# Poissons Ratio (x) = 0.40179 0.21055
# Poissons Ratio (y) = 0.24631 0.26698
# Poissons Ratio (z) = 0.14117 0.29199
#
# Static dielectric constant tensor:
#      x y z
#    x 3.957690 -0.128180 0.019080 
#    y -0.128180 4.366060 -0.344970 
#    z 0.019080 -0.344970 4.667470 
# 
# 
# High freq. dielectric constant tensor:
#      x y z
#    x 1.917640 -0.017010 0.000130 
#    y -0.017010 1.941400 -0.019790 
#    z 0.000130 -0.019790 1.954880 
# 
# From -- ./inp_files/392620.got.cif
#   From: 2010.06.25/outbox.cif.g09.slc.cpg/sg2_197_cif.got.tgz:392620.got - 2010.06.27 13:26:56.
