data_PCOD8026222
_publ_section_title
;
Structure prediction by ZEFSAII (Michael W. Deem and Ramdas Pophale) SiO2 
 PCOD8026222
Probable space group: P -1
;
_chemical_formula_sum "Si O2"
_cell_formula_units_Z 16
_cell_length_a 8.685631
_cell_length_b 12.306978
_cell_length_c 17.960961
_cell_angle_alpha 144.376841
_cell_angle_beta 52.621929
_cell_angle_gamma 102.311030
_cell_volume 707.208378
_symmetry_space_group_name_H-M "P -1"
_symmetry_group_IT_number 2
_symmetry_cell_setting 'triclinic'
loop_
_space_group_symop_operation_xyz
x,y,z
-x,-y,-z
loop_
_atom_site_type_symbol
_atom_site_label
_atom_site_fract_x
_atom_site_fract_y
_atom_site_fract_z
Si Si1 0.720216 0.456752 0.639260
Si Si2 0.695939 0.132198 0.568242
Si Si3 0.782010 0.992981 0.781696
Si Si4 0.789534 0.173663 0.029648
Si Si5 0.275627 0.175794 0.073338
Si Si6 0.100478 0.325511 0.052677
Si Si7 0.411794 0.764527 0.178312
Si Si8 0.831954 0.690740 0.217849
O O1 0.712116 0.332689 0.645982
O O2 0.734000 0.666807 0.771450
O O3 0.966794 0.260660 0.414413
O O4 0.469649 0.577141 0.731683
O O5 0.742931 0.110752 0.631526
O O6 0.434442 0.195840 0.668096
O O7 0.873639 0.888809 0.332754
O O8 0.763175 0.170249 0.945878
O O9 0.770364 0.082637 0.751266
O O10 0.553480 0.986604 0.857593
O O11 0.827899 0.955864 0.938392
O O12 0.032387 0.148413 0.961211
O O13 0.108325 0.351181 0.153237
O O14 0.882355 0.569369 0.216002
O O15 0.356397 0.232022 0.887954
O O16 0.500000 0.500000 0.000000
O O17 0.000000 0.500000 0.000000
#
# Coordination Sequence:
#
# PCOD8026222 Si02
#       8
#     2   2   2   2   2   2   2   2
#     4  11  23  40  67  96 128 170 220 262 323 397
#     4  11  24  39  65  99 132 175 216 259 330 394
#     4  10  24  40  66  93 133 168 216 265 326 386
#     4  11  23  44  68  92 128 171 221 276 327 383
#     4  10  24  44  65  95 128 171 219 273 334 380
#     4  11  23  42  69  92 133 166 219 272 322 386
#     4  11  24  42  66  98 141 176 216 264 329 397
#     4  11  24  40  66  95 133 173 215 269 327 389
#
# _framework density 22.624165999999999
#
# number of rings (size 3 to 8) (size 9 to 14) (size 15 to 20)
#    0.000    1.250    2.500    4.125    5.250    2.500 
#    0.000    0.000    0.000    3.750    0.000    0.000 
#    0.000    0.000    0.000    0.000    0.000    0.000 
#
# Total GULP energy -198300.682193 kJ/mol
# GULP energy per Si atom -12393.792637 kJ/mol
# Density = 2.257267 g / cm^3
# Si number density = 22.624166 Si / 1000 Ang^3
#
#
#
# Elastic Constant Matrix: (Units=GPa)
#
#
# Indices 1 2 3 4 5 6 
#
# 1 88.1362 22.6653 24.3544 -6.9990 -3.7403 12.1699
# 2 22.6653 82.7939 18.0189 8.4679 5.1747 14.5836
# 3 24.3544 18.0189 107.3388 8.9530 7.6038 6.5551
# 4 -6.9990 8.4679 8.9530 22.6292 -1.6166 2.6057
# 5 -3.7403 5.1747 7.6038 -1.6166 21.5438 -0.9239
# 6 12.1699 14.5836 6.5551 2.6057 -0.9239 50.9046
#
#
#
# Elastic Compliance Matrix: (Units=1/GPa)
#
#
# Indices 1 2 3 4 5 6 
#
# 1 0.014496 -0.003958 -0.003527 0.007985 0.005217 -0.002192
# 2 -0.003958 0.014757 -0.000523 -0.006531 -0.004664 -0.002965
# 3 -0.003527 -0.000523 0.011023 -0.005573 -0.004805 -0.000229
# 4 0.007985 -0.006531 -0.005573 0.052146 0.008757 -0.001830
# 5 0.005217 -0.004664 -0.004805 0.008757 0.050847 0.001182
# 6 -0.002192 -0.002965 -0.000229 -0.001830 0.001182 0.021163
#
#
# Mechanical properties :
#
#
# Convention : Reuss Voigt Hill
#
# Bulk Modulus (GPa) = 41.21584 45.37180 43.29382
# Shear Modulus (GPa) = 26.52037 33.23085 29.87561
#
# Velocity S-wave (km/s) = 3.42748 3.83668 3.63783
# Velocity P-wave (km/s) = 5.82414 6.30277 6.06818
#
# Compressibility (1/GPa) = 0.02426252
#
# Stress axis : x y z
#
# Youngs Moduli (GPa) = 68.98241 67.76361 90.71554
#
# Poissons Ratio (x) = 0.26819 0.31991
# Poissons Ratio (y) = 0.27301 0.04745
# Poissons Ratio (z) = 0.24327 0.03545
#
# Static dielectric constant tensor:
#      x y z
#    x 4.354000 -0.028030 -0.032310 
#    y -0.028030 4.074800 0.088530 
#    z -0.032310 0.088530 4.438950 
# 
# 
# High freq. dielectric constant tensor:
#      x y z
#    x 1.897470 0.005010 -0.016490 
#    y 0.005010 1.896970 0.003060 
#    z -0.016490 0.003060 1.874870 
# 
# From -- ./inp_files/560014.got.cif
#   From: 2010.06.25/outbox.cif.g09.slc.cpg/sg2_281_cif.got.tgz:560014.got - 2010.06.27 13:26:56.
