data_PCOD8026162
_publ_section_title
;
Structure prediction by ZEFSAII (Michael W. Deem and Ramdas Pophale) SiO2 
 PCOD8026162
Probable space group: P -1
;
_chemical_formula_sum "Si O2"
_cell_formula_units_Z 16
_cell_length_a 14.875347
_cell_length_b 11.949512
_cell_length_c 9.263936
_cell_angle_alpha 49.177101
_cell_angle_beta 38.783480
_cell_angle_gamma 52.591056
_cell_volume 763.703197
_symmetry_space_group_name_H-M "P -1"
_symmetry_group_IT_number 2
_symmetry_cell_setting 'triclinic'
loop_
_space_group_symop_operation_xyz
x,y,z
-x,-y,-z
loop_
_atom_site_type_symbol
_atom_site_label
_atom_site_fract_x
_atom_site_fract_y
_atom_site_fract_z
Si Si1 0.327748 0.669646 0.955647
Si Si2 0.995959 0.342389 0.709809
Si Si3 0.512744 0.343351 0.946017
Si Si4 0.286083 0.280867 0.914660
Si Si5 0.014717 0.343855 0.029726
Si Si6 0.298377 0.630793 0.579196
Si Si7 0.406973 0.838351 0.474908
Si Si8 0.269364 0.174861 0.341812
O O1 0.155047 0.705038 0.105755
O O2 0.357745 0.675849 0.083012
O O3 0.404497 0.504665 0.944578
O O4 0.403695 0.800640 0.681283
O O5 0.000000 0.500000 0.500000
O O6 0.016547 0.358489 0.842007
O O7 0.129906 0.217968 0.584615
O O8 0.594941 0.318676 0.712487
O O9 0.412384 0.219852 0.196634
O O10 0.164753 0.241820 0.988064
O O11 0.313605 0.450565 0.721421
O O12 0.432142 0.161848 0.788188
O O13 0.236165 0.256784 0.159918
O O14 0.000000 0.500000 0.000000
O O15 0.870328 0.284252 0.309369
O O16 0.344026 0.695536 0.616627
O O17 0.301543 0.995166 0.432951
#
# Coordination Sequence:
#
# PCOD8026162 Si02
#       8
#     2   2   2   2   2   2   2   2
#     4  11  25  43  69  97 129 172 221 268 327 386
#     4  12  24  43  68  96 136 170 212 273 328 391
#     4  11  24  41  69 102 124 170 224 270 321 391
#     4  11  23  42  68  98 129 175 218 275 320 385
#     4  10  24  39  68 101 125 166 221 268 326 380
#     4  11  21  42  69  94 129 166 225 271 316 391
#     4  12  24  44  66  94 134 177 218 273 326 388
#     4  12  27  42  65  99 135 173 217 268 339 387
#
# _framework density 20.950545999999999
#
# number of rings (size 3 to 8) (size 9 to 14) (size 15 to 20)
#    0.000    0.750    5.000    3.000    7.000    1.000 
#    0.000    0.625    0.000    0.000    0.000    0.000 
#    0.000    0.000    0.000    0.000    0.000    0.000 
#
# Total GULP energy -198363.611656 kJ/mol
# GULP energy per Si atom -12397.725729 kJ/mol
# Density = 2.090286 g / cm^3
# Si number density = 20.950546 Si / 1000 Ang^3
#
#
#
# Elastic Constant Matrix: (Units=GPa)
#
#
# Indices 1 2 3 4 5 6 
#
# 1 132.0483 42.4527 40.8453 15.9937 -4.1379 -11.1211
# 2 42.4527 84.5115 39.5702 19.2346 2.7944 -10.9549
# 3 40.8453 39.5702 102.2144 23.0082 0.0093 -1.6955
# 4 15.9937 19.2346 23.0082 34.0037 -5.5876 -3.6455
# 5 -4.1379 2.7944 0.0093 -5.5876 26.3617 8.0669
# 6 -11.1211 -10.9549 -1.6955 -3.6455 8.0669 14.8775
#
#
#
# Elastic Compliance Matrix: (Units=1/GPa)
#
#
# Indices 1 2 3 4 5 6 
#
# 1 0.009790 -0.003024 -0.002521 -0.000653 0.000358 0.004450
# 2 -0.003024 0.018936 -0.004528 -0.006043 -0.008063 0.014058
# 3 -0.002521 -0.004528 0.013832 -0.006118 0.000427 -0.005373
# 4 -0.000653 -0.006043 -0.006118 0.038647 0.009062 -0.001078
# 5 0.000358 -0.008063 0.000427 0.009062 0.050122 -0.030578
# 6 0.004450 0.014058 -0.005373 -0.001078 -0.030578 0.096597
#
#
# Mechanical properties :
#
#
# Convention : Reuss Voigt Hill
#
# Bulk Modulus (GPa) = 44.61907 62.72340 53.67123
# Shear Modulus (GPa) = 19.56637 28.10899 23.83768
#
# Velocity S-wave (km/s) = 3.05934 3.66687 3.37680
# Velocity P-wave (km/s) = 5.81576 6.92327 6.39354
#
# Compressibility (1/GPa) = 0.02241194
#
# Stress axis : x y z
#
# Youngs Moduli (GPa) = 102.14557 52.80884 72.29820
#
# Poissons Ratio (x) = 0.15969 0.18225
# Poissons Ratio (y) = 0.30888 0.32738
# Poissons Ratio (z) = 0.25748 0.23913
#
# Static dielectric constant tensor:
#      x y z
#    x 4.352710 -0.202890 -0.300020 
#    y -0.202890 3.655150 0.309980 
#    z -0.300020 0.309980 4.114490 
# 
# 
# High freq. dielectric constant tensor:
#      x y z
#    x 1.832980 -0.005650 -0.001120 
#    y -0.005650 1.797680 0.020330 
#    z -0.001120 0.020330 1.830640 
# 
# From -- ./inp_files/205618.got.cif
#   From: 2010.06.25/outbox.cif.g09.slc.cpg/sg2_103_cif.got.tgz:205618.got - 2010.06.27 13:26:56.
