data_PCOD8026179
_publ_section_title
;
Structure prediction by ZEFSAII (Michael W. Deem and Ramdas Pophale) SiO2 
 PCOD8026179
Probable space group: P -1
;
_chemical_formula_sum "Si O2"
_cell_formula_units_Z 16
_cell_length_a 15.353325
_cell_length_b 19.882425
_cell_length_c 8.836745
_cell_angle_alpha 113.059629
_cell_angle_beta 75.714865
_cell_angle_gamma 160.377515
_cell_volume 765.554852
_symmetry_space_group_name_H-M "P -1"
_symmetry_group_IT_number 2
_symmetry_cell_setting 'triclinic'
loop_
_space_group_symop_operation_xyz
x,y,z
-x,-y,-z
loop_
_atom_site_type_symbol
_atom_site_label
_atom_site_fract_x
_atom_site_fract_y
_atom_site_fract_z
Si Si1 0.687807 0.133697 0.247146
Si Si2 0.197540 0.873484 0.544418
Si Si3 0.943168 0.351658 0.801120
Si Si4 0.556147 0.662859 0.116550
Si Si5 0.195068 0.655493 0.401366
Si Si6 0.036811 0.149947 0.377883
Si Si7 0.529415 0.520541 0.255682
Si Si8 0.120359 0.452756 0.122046
O O1 0.854587 0.202526 0.337140
O O2 0.828004 0.324121 0.400733
O O3 0.786308 0.188366 0.081998
O O4 0.356179 0.873876 0.181921
O O5 0.997202 0.679884 0.335606
O O6 0.162519 0.933035 0.616262
O O7 0.502332 0.079293 0.543712
O O8 0.005218 0.464613 0.753088
O O9 0.162410 0.520200 0.995981
O O10 0.564496 0.613131 0.205971
O O11 0.281740 0.501510 0.111818
O O12 0.526913 0.598815 0.912673
O O13 0.844707 0.931386 0.235662
O O14 0.233964 0.598152 0.325785
O O15 0.266786 0.334355 0.311407
O O16 0.183767 0.260968 0.576837
#
# Coordination Sequence:
#
# PCOD8026179 Si02
#       8
#     2   2   2   2   2   2   2   2
#     4   9  19  32  51  73 109 142 176 219 267 315
#     4   9  17  35  53  75  99 142 181 212 263 329
#     4   9  19  32  51  73 109 142 176 219 267 315
#     4  11  23  39  59  88 116 142 190 238 284 338
#     4   9  18  33  49  73 105 142 174 213 260 318
#     4  11  20  40  65  83 111 151 189 225 289 348
#     4  10  24  40  60  86 114 146 182 240 292 338
#     4  12  19  31  52  80 103 138 179 225 269 319
#
# _framework density 20.899872999999999
#
# number of rings (size 3 to 8) (size 9 to 14) (size 15 to 20)
#    0.000    2.000    1.250    4.875    0.000    0.000 
#    0.000    0.000    0.000    0.000    0.000    0.000 
#    0.000    0.000    0.000    0.000    0.000    0.000 
#
# Total GULP energy -198228.840735 kJ/mol
# GULP energy per Si atom -12389.302546 kJ/mol
# Density = 2.085230 g / cm^3
# Si number density = 20.899873 Si / 1000 Ang^3
#
#
#
# Elastic Constant Matrix: (Units=GPa)
#
#
# Indices 1 2 3 4 5 6 
#
# 1 93.0017 -3.5679 36.5443 -3.3543 -13.5465 9.3559
# 2 -3.5679 22.8044 10.7508 -5.8870 -4.9716 8.0388
# 3 36.5443 10.7508 100.8308 -11.2423 -5.1507 1.0593
# 4 -3.3543 -5.8870 -11.2423 31.3222 -8.6392 -3.7089
# 5 -13.5465 -4.9716 -5.1507 -8.6392 30.3122 -0.4070
# 6 9.3559 8.0388 1.0593 -3.7089 -0.4070 20.9871
#
#
#
# Elastic Compliance Matrix: (Units=1/GPa)
#
#
# Indices 1 2 3 4 5 6 
#
# 1 0.016121 0.011905 -0.006230 0.002874 0.008773 -0.010754
# 2 0.011905 0.066810 -0.008861 0.012280 0.017897 -0.027933
# 3 -0.006230 -0.008861 0.013321 0.002860 -0.001079 0.005984
# 4 0.002874 0.012280 0.002860 0.039897 0.015172 0.001216
# 5 0.008773 0.017897 -0.001079 0.015172 0.043890 -0.007179
# 6 -0.010754 -0.027933 0.005984 0.001216 -0.007179 0.062915
#
#
# Mechanical properties :
#
#
# Convention : Reuss Voigt Hill
#
# Bulk Modulus (GPa) = 11.12616 33.78793 22.45705
# Shear Modulus (GPa) = 17.90269 28.05163 22.97716
#
# Velocity S-wave (km/s) = 2.92994 3.66757 3.31931
# Velocity P-wave (km/s) = 4.09648 5.84264 5.04567
#
# Compressibility (1/GPa) = 0.08987828
#
# Stress axis : x y z
#
# Youngs Moduli (GPa) = 62.03182 14.96787 75.06720
#
# Poissons Ratio (x) = -0.17819 0.46770
# Poissons Ratio (y) = -0.73848 0.66519
# Poissons Ratio (z) = 0.38649 0.13263
#
# Static dielectric constant tensor:
#      x y z
#    x 3.664810 -0.166740 -0.013550 
#    y -0.166740 3.822170 -0.213490 
#    z -0.013550 -0.213490 3.956920 
# 
# 
# High freq. dielectric constant tensor:
#      x y z
#    x 1.818550 -0.012130 -0.007220 
#    y -0.012130 1.813610 -0.016490 
#    z -0.007220 -0.016490 1.827580 
# 
# From -- ./inp_files/201997.got.cif
#   From: 2010.06.25/outbox.cif.g09.slc.cpg/sg2_101_cif.got.tgz:201997.got - 2010.06.27 13:26:56.
