data_PCOD8026552
_publ_section_title
;
Structure prediction by ZEFSAII (Michael W. Deem and Ramdas Pophale) SiO2 
 PCOD8026552
Probable space group: P -1
;
_chemical_formula_sum "Si O2"
_cell_formula_units_Z 16
_cell_length_a 18.090106
_cell_length_b 14.323689
_cell_length_c 5.322255
_cell_angle_alpha 68.830386
_cell_angle_beta 75.481877
_cell_angle_gamma 33.162570
_cell_volume 699.862337
_symmetry_space_group_name_H-M "P -1"
_symmetry_group_IT_number 2
_symmetry_cell_setting 'triclinic'
loop_
_space_group_symop_operation_xyz
x,y,z
-x,-y,-z
loop_
_atom_site_type_symbol
_atom_site_label
_atom_site_fract_x
_atom_site_fract_y
_atom_site_fract_z
Si Si1 0.417907 0.941081 0.168796
Si Si2 0.706029 0.329032 0.638919
Si Si3 0.555250 0.651165 0.689102
Si Si4 0.949831 0.885405 0.194862
Si Si5 0.800432 0.517153 0.620217
Si Si6 0.693019 0.725581 0.996049
Si Si7 0.871294 0.165022 0.178571
Si Si8 0.329442 0.850060 0.056899
O O1 0.478358 0.833352 0.481047
O O2 0.323382 0.956198 0.125480
O O3 0.323090 0.137628 0.117515
O O4 0.544290 0.834847 0.981632
O O5 0.572922 0.544946 0.565346
O O6 0.789417 0.283831 0.380125
O O7 0.670030 0.252848 0.681954
O O8 0.779861 0.255149 0.918015
O O9 0.707645 0.520834 0.760054
O O10 0.472486 0.692548 0.944400
O O11 0.047570 0.686281 0.367513
O O12 0.940403 0.979310 0.334994
O O13 0.010964 0.879245 0.907495
O O14 0.801313 0.001721 0.155463
O O15 0.790019 0.597488 0.800189
O O16 0.757246 0.622658 0.304944
#
# Coordination Sequence:
#
# PCOD8026552 Si02
#       8
#     2   2   2   2   2   2   2   2
#     4  10  24  42  68  98 131 176 218 281 344 386
#     4  11  25  42  69  99 136 179 227 269 319 399
#     4  11  24  42  68  99 138 175 223 275 330 404
#     4  10  24  44  69  97 137 180 223 272 329 397
#     4  11  23  43  72 100 122 176 230 278 320 397
#     4  10  24  44  72  95 130 169 233 279 327 395
#     4  10  24  44  66  96 136 185 225 262 321 400
#     4  11  25  43  64 101 142 178 213 277 343 395
#
# _framework density 22.861637000000002
#
# number of rings (size 3 to 8) (size 9 to 14) (size 15 to 20)
#    0.000    1.500    2.500    0.375   10.500    8.500 
#    0.000    1.250    0.000    0.000    0.000    0.000 
#    0.000    0.000    0.000    0.000    0.000    0.000 
#
# Total GULP energy -198334.613521 kJ/mol
# GULP energy per Si atom -12395.913345 kJ/mol
# Density = 2.280960 g / cm^3
# Si number density = 22.861637 Si / 1000 Ang^3
#
#
#
# Elastic Constant Matrix: (Units=GPa)
#
#
# Indices 1 2 3 4 5 6 
#
# 1 78.0363 -2.7503 6.8592 0.9561 -7.8110 22.6138
# 2 -2.7503 60.0648 13.3402 17.0393 3.2957 38.6266
# 3 6.8592 13.3402 88.7707 15.2490 8.9076 16.4534
# 4 0.9561 17.0393 15.2490 20.0984 3.4227 -10.8366
# 5 -7.8110 3.2957 8.9076 3.4227 25.3003 -3.8395
# 6 22.6138 38.6266 16.4534 -10.8366 -3.8395 38.0480
#
#
#
# Elastic Compliance Matrix: (Units=1/GPa)
#
#
# Indices 1 2 3 4 5 6 
#
# 1 0.010519 -0.008987 -0.004215 0.014444 0.005367 0.009350
# 2 -0.008987 -0.012026 -0.009568 0.034628 0.002300 0.031783
# 3 -0.004215 -0.009568 0.010809 0.005384 -0.003261 0.008749
# 4 0.014444 0.034628 0.005384 -0.009766 -0.008164 -0.049673
# 5 0.005367 0.002300 -0.003261 -0.008164 0.042814 -0.002119
# 6 0.009350 0.031783 0.008749 -0.049673 -0.002119 -0.029686
#
#
# Mechanical properties :
#
#
# Convention : Reuss Voigt Hill
#
# Bulk Modulus (GPa) = -27.59475 29.08555 0.74540
# Shear Modulus (GPa) = 108.39990 30.65084 69.52537
#
# Velocity S-wave (km/s) = 6.89337 3.66554 5.52063
# Velocity P-wave (km/s) = 7.15972 5.53760 6.40026
#
# Compressibility (1/GPa) = -0.03623878
#
# Stress axis : x y z
#
# Youngs Moduli (GPa) = 95.06575 -83.15136 92.51187
#
# Poissons Ratio (x) = -0.74729 0.38994
# Poissons Ratio (y) = 0.85437 0.88518
# Poissons Ratio (z) = 0.40071 -0.79562
#
# Static dielectric constant tensor:
#      x y z
#    x 4.074320 0.116940 -0.097500 
#    y 0.116940 4.386800 -0.068500 
#    z -0.097500 -0.068500 3.805820 
# 
# 
# High freq. dielectric constant tensor:
#      x y z
#    x 1.887660 0.013490 -0.000600 
#    y 0.013490 1.912690 -0.003350 
#    z -0.000600 -0.003350 1.888590 
# 
# From -- ./inp_files/110713.got.cif
#   From: 2010.06.25/outbox.cif.g09.slc.cpg/sg2_56_cif.got.tgz:110713.got - 2010.06.27 13:26:56.
