data_PCOD8026106
_publ_section_title
;
Structure prediction by ZEFSAII (Michael W. Deem and Ramdas Pophale) SiO2 
 PCOD8026106
Probable space group: P -1
;
_chemical_formula_sum "Si O2"
_cell_formula_units_Z 12
_cell_length_a 14.648619
_cell_length_b 11.506903
_cell_length_c 14.952641
_cell_angle_alpha 151.825911
_cell_angle_beta 154.747043
_cell_angle_gamma 25.368796
_cell_volume 431.236957
_symmetry_space_group_name_H-M "P -1"
_symmetry_group_IT_number 2
_symmetry_cell_setting 'triclinic'
loop_
_space_group_symop_operation_xyz
x,y,z
-x,-y,-z
loop_
_atom_site_type_symbol
_atom_site_label
_atom_site_fract_x
_atom_site_fract_y
_atom_site_fract_z
Si Si1 0.695486 0.696012 0.091277
Si Si2 0.758486 0.805042 0.648077
Si Si3 0.488085 0.123732 0.355306
Si Si4 0.165709 0.813705 0.702709
Si Si5 0.053551 0.650902 0.230958
Si Si6 0.087676 0.937650 0.180287
O O1 0.827415 0.779729 0.189583
O O2 0.664642 0.855488 0.266075
O O3 0.426785 0.764786 0.864558
O O4 0.875688 0.348537 0.031388
O O5 0.699121 0.930269 0.783307
O O6 0.854701 0.466298 0.512300
O O7 0.500000 0.000000 0.500000
O O8 0.958373 0.839910 0.790063
O O9 0.664735 0.162192 0.607471
O O10 0.324182 0.423941 0.359072
O O11 0.946768 0.070967 0.621299
O O12 0.144799 0.915212 0.856265
O O13 0.000000 0.500000 0.000000
#
# Coordination Sequence:
#
# PCOD8026106 Si02
#       6
#     2   2   2   2   2   2
#     4  12  24  47  73 104 147 186 232 294 351 421
#     4  10  23  49  72 102 143 185 241 293 349 418
#     4  11  26  45  73 110 140 189 238 284 360 422
#     4  12  24  47  75  99 146 190 227 299 353 409
#     4  12  26  46  70 109 147 184 237 290 357 424
#     4  11  25  49  75 104 144 188 237 296 350 415
#
# _framework density 27.826929
#
# number of rings (size 3 to 8) (size 9 to 14) (size 15 to 20)
#    0.000    0.667    6.667    1.000    2.333    2.000 
#    0.000    1.667    0.000    0.000    0.000    0.000 
#    0.000    0.000    0.000    0.000    0.000    0.000 
#
# Total GULP energy -148771.747511 kJ/mol
# GULP energy per Si atom -12397.645626 kJ/mol
# Density = 2.776359 g / cm^3
# Si number density = 27.826929 Si / 1000 Ang^3
#
#
#
# Elastic Constant Matrix: (Units=GPa)
#
#
# Indices 1 2 3 4 5 6 
#
# 1 215.6630 80.2984 64.6486 43.3505 -27.7935 -3.7566
# 2 80.2984 150.5990 52.2495 29.7814 -11.1997 10.9221
# 3 64.6486 52.2495 105.5007 29.4452 -30.9438 4.1490
# 4 43.3505 29.7814 29.4452 59.0782 -1.0918 4.1310
# 5 -27.7935 -11.1997 -30.9438 -1.0918 44.6823 8.2026
# 6 -3.7566 10.9221 4.1490 4.1310 8.2026 61.4893
#
#
#
# Elastic Compliance Matrix: (Units=1/GPa)
#
#
# Indices 1 2 3 4 5 6 
#
# 1 0.006958 -0.002452 -0.001486 -0.003143 0.002452 0.000845
# 2 -0.002452 0.009258 -0.002968 -0.001313 -0.001041 -0.001367
# 3 -0.001486 -0.002968 0.016235 -0.005212 0.009743 -0.001609
# 4 -0.003143 -0.001313 -0.005212 0.022423 -0.005270 -0.000411
# 5 0.002452 -0.001041 0.009743 -0.005270 0.031017 -0.004106
# 6 0.000845 -0.001367 -0.001609 -0.000411 -0.004106 0.017241
#
#
# Mechanical properties :
#
#
# Convention : Reuss Voigt Hill
#
# Bulk Modulus (GPa) = 53.65149 96.23952 74.94550
# Shear Modulus (GPa) = 40.59851 51.35438 45.97645
#
# Velocity S-wave (km/s) = 3.82378 4.30058 4.06917
# Velocity P-wave (km/s) = 6.23036 7.70195 7.00491
#
# Compressibility (1/GPa) = 0.01863881
#
# Stress axis : x y z
#
# Youngs Moduli (GPa) = 143.72758 108.01004 61.59577
#
# Poissons Ratio (x) = 0.26479 0.09155
# Poissons Ratio (y) = 0.35236 0.18283
# Poissons Ratio (z) = 0.21361 0.32060
#
# Static dielectric constant tensor:
#      x y z
#    x 6.385450 0.042150 -0.024700 
#    y 0.042150 5.448560 -0.078100 
#    z -0.024700 -0.078100 5.087970 
# 
# 
# High freq. dielectric constant tensor:
#      x y z
#    x 2.153720 -0.008450 -0.005910 
#    y -0.008450 2.133300 -0.020180 
#    z -0.005910 -0.020180 2.138870 
# 
# From -- ./inp_files/530819.got.cif
#   From: 2010.06.25/outbox.cif.g09.slc.cpg/sg2_266_cif.got.tgz:530819.got - 2010.06.27 13:26:56.
