data_PCOD8026047
_publ_section_title
;
Structure prediction by ZEFSAII (Michael W. Deem and Ramdas Pophale) SiO2 
 PCOD8026047
Probable space group: P -1
;
_chemical_formula_sum "Si O2"
_cell_formula_units_Z 14
_cell_length_a 6.172385
_cell_length_b 16.652053
_cell_length_c 15.223033
_cell_angle_alpha 154.276237
_cell_angle_beta 79.677204
_cell_angle_gamma 109.053718
_cell_volume 616.216579
_symmetry_space_group_name_H-M "P -1"
_symmetry_group_IT_number 2
_symmetry_cell_setting 'triclinic'
loop_
_space_group_symop_operation_xyz
x,y,z
-x,-y,-z
loop_
_atom_site_type_symbol
_atom_site_label
_atom_site_fract_x
_atom_site_fract_y
_atom_site_fract_z
Si Si1 0.299797 0.057393 0.118300
Si Si2 0.995901 0.064512 0.465179
Si Si3 0.421284 0.200977 0.866147
Si Si4 0.762950 0.331318 0.812022
Si Si5 0.514433 0.371470 0.705042
Si Si6 0.010435 0.280818 0.298034
Si Si7 0.385137 0.869043 0.676248
O O1 0.260988 0.258217 0.282929
O O2 0.374495 0.101741 0.257903
O O3 0.065956 0.853439 0.917832
O O4 0.500000 0.000000 0.000000
O O5 0.261154 0.186058 0.532267
O O6 0.837205 0.197487 0.606519
O O7 0.000000 0.000000 0.500000
O O8 0.852332 0.877424 0.227729
O O9 0.602226 0.200559 0.774216
O O10 0.441679 0.070997 0.817500
O O11 0.504192 0.422468 0.118682
O O12 0.608389 0.413858 0.840978
O O13 0.000000 0.500000 0.000000
O O14 0.680240 0.318670 0.571143
O O15 0.000000 0.500000 0.500000
O O16 0.838877 0.174906 0.287362
#
# Coordination Sequence:
#
# PCOD8026047 Si02
#       7
#     2   2   2   2   2   2   2
#     4   9  22  45  73 101 137 181 228 279 356 440
#     4  12  23  42  69  91 137 190 245 299 348 422
#     4  12  25  45  66  99 144 186 238 304 356 412
#     4  12  23  45  67  94 137 192 248 285 354 423
#     4  12  26  44  65 101 140 191 240 294 360 413
#     4  10  23  47  75 103 140 183 228 283 363 445
#     4  11  26  43  66 107 140 173 235 294 358 430
#
# _framework density 22.719284999999999
#
# number of rings (size 3 to 8) (size 9 to 14) (size 15 to 20)
#    0.000    0.857    4.286    2.571    2.000    6.857 
#    2.571    0.000    0.000    0.000    0.000    0.000 
#    0.000    0.000    0.000    0.000    0.000    0.000 
#
# Total GULP energy -173477.129632 kJ/mol
# GULP energy per Si atom -12391.223545 kJ/mol
# Density = 2.266757 g / cm^3
# Si number density = 22.719285 Si / 1000 Ang^3
#
#
#
# Elastic Constant Matrix: (Units=GPa)
#
#
# Indices 1 2 3 4 5 6 
#
# 1 111.7720 46.4882 35.6721 6.0386 6.1923 -18.4394
# 2 46.4882 117.3584 42.0731 1.9613 -0.4026 -23.3850
# 3 35.6721 42.0731 100.2793 4.2126 -1.9755 -11.2396
# 4 6.0386 1.9613 4.2126 32.3018 -6.0870 -4.8279
# 5 6.1923 -0.4026 -1.9755 -6.0870 52.9633 0.0069
# 6 -18.4394 -23.3850 -11.2396 -4.8279 0.0069 44.1716
#
#
#
# Elastic Compliance Matrix: (Units=1/GPa)
#
#
# Indices 1 2 3 4 5 6 
#
# 1 0.011653 -0.003236 -0.002490 -0.001621 -0.001667 0.002341
# 2 -0.003236 0.011828 -0.003379 0.001037 0.000461 0.004165
# 3 -0.002490 -0.003379 0.012347 -0.000786 0.000636 0.000227
# 4 -0.001621 0.001037 -0.000786 0.032519 0.003905 0.003226
# 5 -0.001667 0.000461 0.000636 0.003905 0.019552 0.000134
# 6 0.002341 0.004165 0.000227 0.003226 0.000134 0.026231
#
#
# Mechanical properties :
#
#
# Convention : Reuss Voigt Hill
#
# Bulk Modulus (GPa) = 56.75959 64.20850 60.48404
# Shear Modulus (GPa) = 36.17596 39.56577 37.87087
#
# Velocity S-wave (km/s) = 3.99470 4.17766 4.08720
# Velocity P-wave (km/s) = 6.80544 7.18286 6.99670
#
# Compressibility (1/GPa) = 0.01761817
#
# Stress axis : x y z
#
# Youngs Moduli (GPa) = 85.81158 84.54391 80.99252
#
# Poissons Ratio (x) = 0.27354 0.20169
# Poissons Ratio (y) = 0.27765 0.27370
# Poissons Ratio (z) = 0.21369 0.28570
#
# Static dielectric constant tensor:
#      x y z
#    x 4.627310 -0.346270 -0.228380 
#    y -0.346270 4.135800 0.003040 
#    z -0.228380 0.003040 4.773290 
# 
# 
# High freq. dielectric constant tensor:
#      x y z
#    x 1.904930 -0.014550 -0.006330 
#    y -0.014550 1.881720 -0.008620 
#    z -0.006330 -0.008620 1.903190 
# 
# From -- ./inp_files/98354.got.cif
#   From: 2010.06.25/outbox.cif.g09.slc.cpg/sg2_50_cif.got.tgz:98354.got - 2010.06.27 13:26:56.
