data_PCOD8026933
_publ_section_title
;
Structure prediction by ZEFSAII (Michael W. Deem and Ramdas Pophale) SiO2 
 PCOD8026933
Probable space group: P -1
;
_chemical_formula_sum "Si O2"
_cell_formula_units_Z 12
_cell_length_a 17.584801
_cell_length_b 14.736646
_cell_length_c 9.001795
_cell_angle_alpha 141.284319
_cell_angle_beta 51.890481
_cell_angle_gamma 156.880660
_cell_volume 522.789595
_symmetry_space_group_name_H-M "P -1"
_symmetry_group_IT_number 2
_symmetry_cell_setting 'triclinic'
loop_
_space_group_symop_operation_xyz
x,y,z
-x,-y,-z
loop_
_atom_site_type_symbol
_atom_site_label
_atom_site_fract_x
_atom_site_fract_y
_atom_site_fract_z
Si Si1 0.881811 0.572301 0.428352
Si Si2 0.901722 0.384439 0.634927
Si Si3 0.300263 0.292225 0.882724
Si Si4 0.868089 0.622702 0.164619
Si Si5 0.445466 0.789138 0.401303
Si Si6 0.311666 0.325832 0.583463
O O1 0.846411 0.542012 0.257516
O O2 0.657730 0.297136 0.429494
O O3 0.946335 0.491352 0.272774
O O4 0.064792 0.916207 0.727318
O O5 0.000000 0.500000 0.500000
O O6 0.667467 0.000389 0.429667
O O7 0.856376 0.486254 0.876849
O O8 0.327717 0.276199 0.661614
O O9 0.500000 0.500000 0.000000
O O10 0.291033 0.456485 0.100205
O O11 0.678062 0.484289 0.186617
O O12 0.095283 0.998585 0.341695
O O13 0.500000 0.000000 0.500000
O O14 0.500000 0.500000 0.500000
#
# Coordination Sequence:
#
# PCOD8026933 Si02
#       6
#     2   2   2   2   2   2
#     4  11  25  45  71 101 142 187 235 297 350 424
#     4  12  25  43  69 104 146 184 234 296 354 421
#     4  11  24  44  70 104 140 183 238 292 351 420
#     4  10  25  45  66 105 141 184 239 287 357 422
#     4  12  25  43  70 105 139 187 237 289 364 413
#     4  10  24  43  71  99 141 188 230 294 355 417
#
# _framework density 22.953785
#
# number of rings (size 3 to 8) (size 9 to 14) (size 15 to 20)
#    0.000    1.000    3.333    2.000    4.667    2.000 
#    0.000    0.000    0.000    0.000    0.000    0.000 
#    0.000    0.000    0.000    0.000    0.000    0.000 
#
# Total GULP energy -148679.029285 kJ/mol
# GULP energy per Si atom -12389.919107 kJ/mol
# Density = 2.290154 g / cm^3
# Si number density = 22.953785 Si / 1000 Ang^3
#
#
#
# Elastic Constant Matrix: (Units=GPa)
#
#
# Indices 1 2 3 4 5 6 
#
# 1 112.6397 51.5283 20.8979 -11.8125 -2.8826 4.9256
# 2 51.5283 180.0751 39.9517 -26.5600 -4.1055 10.5421
# 3 20.8979 39.9517 97.9517 -17.5909 -11.8020 -1.3093
# 4 -11.8125 -26.5600 -17.5909 30.4677 4.6763 -3.1746
# 5 -2.8826 -4.1055 -11.8020 4.6763 40.4974 -1.1850
# 6 4.9256 10.5421 -1.3093 -3.1746 -1.1850 35.0351
#
#
#
# Elastic Compliance Matrix: (Units=1/GPa)
#
#
# Indices 1 2 3 4 5 6 
#
# 1 0.010372 -0.002543 -0.000968 0.001174 0.000045 -0.000621
# 2 -0.002543 0.007396 -0.001773 0.004352 -0.000496 -0.001557
# 3 -0.000968 -0.001773 0.012397 0.004976 0.002839 0.001680
# 4 0.001174 0.004352 0.004976 0.040589 -0.002645 0.002300
# 5 0.000045 -0.000496 0.002839 -0.002645 0.025804 0.000882
# 6 -0.000621 -0.001557 0.001680 0.002300 0.000882 0.029400
#
#
# Mechanical properties :
#
#
# Convention : Reuss Voigt Hill
#
# Bulk Modulus (GPa) = 51.02659 68.38025 59.70342
# Shear Modulus (GPa) = 34.95101 39.75262 37.35182
#
# Velocity S-wave (km/s) = 3.90637 4.16607 4.03831
# Velocity P-wave (km/s) = 6.52876 7.27988 6.91453
#
# Compressibility (1/GPa) = 0.01959763
#
# Stress axis : x y z
#
# Youngs Moduli (GPa) = 96.41297 135.21059 80.66531
#
# Poissons Ratio (x) = 0.34379 0.07807
# Poissons Ratio (y) = 0.24514 0.14303
# Poissons Ratio (z) = 0.09331 0.23975
#
# Static dielectric constant tensor:
#      x y z
#    x 5.017560 -0.191130 -0.259440 
#    y -0.191130 4.397310 0.290140 
#    z -0.259440 0.290140 4.199780 
# 
# 
# High freq. dielectric constant tensor:
#      x y z
#    x 1.917370 0.005420 -0.005570 
#    y 0.005420 1.911620 0.000140 
#    z -0.005570 0.000140 1.904780 
# 
# From -- ./inp_files/156373.got.cif
#   From: 2010.06.25/outbox.cif.g09.slc.cpg/sg2_79_cif.got.tgz:156373.got - 2010.06.27 13:26:56.
