data_PCOD8026779
_publ_section_title
;
Structure prediction by ZEFSAII (Michael W. Deem and Ramdas Pophale) SiO2 
 PCOD8026779
Probable space group: P -1
;
_chemical_formula_sum "Si O2"
_cell_formula_units_Z 16
_cell_length_a 9.538684
_cell_length_b 20.079977
_cell_length_c 12.312615
_cell_angle_alpha 159.510314
_cell_angle_beta 110.765265
_cell_angle_gamma 68.630234
_cell_volume 768.115978
_symmetry_space_group_name_H-M "P -1"
_symmetry_group_IT_number 2
_symmetry_cell_setting 'triclinic'
loop_
_space_group_symop_operation_xyz
x,y,z
-x,-y,-z
loop_
_atom_site_type_symbol
_atom_site_label
_atom_site_fract_x
_atom_site_fract_y
_atom_site_fract_z
Si Si1 0.648919 0.022815 0.648421
Si Si2 0.137634 0.348731 0.293033
Si Si3 0.027834 0.988025 0.365510
Si Si4 0.099885 0.716183 0.375823
Si Si5 0.353819 0.813918 0.728902
Si Si6 0.654802 0.382876 0.354340
Si Si7 0.784170 0.669473 0.284076
Si Si8 0.347085 0.247010 0.396203
O O1 0.683291 0.836104 0.447463
O O2 0.500000 0.000000 0.500000
O O3 0.793153 0.056977 0.667247
O O4 0.631663 0.212205 0.005110
O O5 0.240555 0.455441 0.403345
O O6 0.215369 0.292400 0.342667
O O7 0.000000 0.500000 0.500000
O O8 0.076018 0.161975 0.942024
O O9 0.972943 0.194734 0.617644
O O10 0.000000 0.000000 0.500000
O O11 0.214402 0.850222 0.664256
O O12 0.959546 0.707747 0.408415
O O13 0.201244 0.519153 0.075253
O O14 0.295911 0.699647 0.640477
O O15 0.497954 0.696075 0.529295
O O16 0.385649 0.024242 0.097558
O O17 0.500000 0.500000 0.500000
O O18 0.703233 0.640748 0.334579
#
# Coordination Sequence:
#
# PCOD8026779 Si02
#       8
#     2   2   2   2   2   2   2   2
#     4  11  26  45  67 101 139 177 225 279 342 403
#     4  12  26  44  68 101 138 179 229 276 335 404
#     4  11  26  45  67  99 138 180 225 279 337 401
#     4  10  24  43  67  98 130 175 223 272 339 399
#     4  11  24  43  69  97 131 175 225 276 335 392
#     4  12  26  44  68 103 139 180 225 276 342 402
#     4  10  24  43  68  97 132 173 222 276 337 401
#     4  11  24  43  68  98 132 172 226 279 329 396
#
# _framework density 20.830186999999999
#
# number of rings (size 3 to 8) (size 9 to 14) (size 15 to 20)
#    0.000    1.000    5.000    0.000    7.000    3.000 
#    0.000    0.000    0.000    0.000    0.000    0.000 
#    0.000    0.000    0.000    0.000    0.000    0.000 
#
# Total GULP energy -198272.715835 kJ/mol
# GULP energy per Si atom -12392.044740 kJ/mol
# Density = 2.078278 g / cm^3
# Si number density = 20.830187 Si / 1000 Ang^3
#
#
#
# Elastic Constant Matrix: (Units=GPa)
#
#
# Indices 1 2 3 4 5 6 
#
# 1 141.9199 59.4126 47.0140 -11.5433 -5.5022 1.9423
# 2 59.4126 111.8305 30.3059 -7.3968 -6.0963 2.8208
# 3 47.0140 30.3059 74.8189 2.0093 -5.0617 -4.8572
# 4 -11.5433 -7.3968 2.0093 36.1574 -1.6429 0.2793
# 5 -5.5022 -6.0963 -5.0617 -1.6429 41.5071 -1.2995
# 6 1.9423 2.8208 -4.8572 0.2793 -1.2995 42.6591
#
#
#
# Elastic Compliance Matrix: (Units=1/GPa)
#
#
# Indices 1 2 3 4 5 6 
#
# 1 0.010731 -0.004061 -0.005210 0.002904 0.000280 -0.000824
# 2 -0.004061 0.011879 -0.002285 0.001310 0.000953 -0.000840
# 3 -0.005210 -0.002285 0.017884 -0.003094 0.001110 0.002479
# 4 0.002904 0.001310 -0.003094 0.029090 0.001329 -0.000721
# 5 0.000280 0.000953 0.001110 0.001329 0.024482 0.000788
# 6 -0.000824 -0.000840 0.002479 -0.000721 0.000788 0.023846
#
#
# Mechanical properties :
#
#
# Convention : Reuss Voigt Hill
#
# Bulk Modulus (GPa) = 57.53447 66.89271 62.21359
# Shear Modulus (GPa) = 34.05596 36.85385 35.45490
#
# Velocity S-wave (km/s) = 4.04782 4.21081 4.13012
# Velocity P-wave (km/s) = 7.03755 7.47157 7.25780
#
# Compressibility (1/GPa) = 0.01738088
#
# Stress axis : x y z
#
# Youngs Moduli (GPa) = 93.19162 84.18521 55.91469
#
# Poissons Ratio (x) = 0.34186 0.29134
# Poissons Ratio (y) = 0.37843 0.12777
# Poissons Ratio (z) = 0.48557 0.19237
#
# Static dielectric constant tensor:
#      x y z
#    x 3.935910 -0.008170 0.025290 
#    y -0.008170 3.793520 0.278570 
#    z 0.025290 0.278570 3.455150 
# 
# 
# High freq. dielectric constant tensor:
#      x y z
#    x 1.832350 -0.002530 -0.005010 
#    y -0.002530 1.822790 0.010910 
#    z -0.005010 0.010910 1.812970 
# 
# From -- ./inp_files/218262.got.cif
#   From: 2010.06.25/outbox.cif.g09.slc.cpg/sg2_110_cif.got.tgz:218262.got - 2010.06.27 13:26:56.
