data_PCOD8026044
_publ_section_title
;
Structure prediction by ZEFSAII (Michael W. Deem and Ramdas Pophale) SiO2 
 PCOD8026044
Probable space group: P -1
;
_chemical_formula_sum "Si O2"
_cell_formula_units_Z 14
_cell_length_a 5.177094
_cell_length_b 17.833050
_cell_length_c 9.314064
_cell_angle_alpha 106.920119
_cell_angle_beta 59.937449
_cell_angle_gamma 77.804246
_cell_volume 642.416110
_symmetry_space_group_name_H-M "P -1"
_symmetry_group_IT_number 2
_symmetry_cell_setting 'triclinic'
loop_
_space_group_symop_operation_xyz
x,y,z
-x,-y,-z
loop_
_atom_site_type_symbol
_atom_site_label
_atom_site_fract_x
_atom_site_fract_y
_atom_site_fract_z
Si Si1 0.408242 0.888788 0.398978
Si Si2 0.929421 0.732910 0.634262
Si Si3 0.194288 0.023516 0.766904
Si Si4 0.472352 0.337804 0.127228
Si Si5 0.055723 0.775776 0.319175
Si Si6 0.246676 0.591797 0.679529
Si Si7 0.469019 0.918763 0.899540
O O1 0.605036 0.917596 0.242009
O O2 0.174778 0.849437 0.372762
O O3 0.684244 0.818834 0.386351
O O4 0.189890 0.979930 0.590479
O O5 0.602922 0.717845 0.756484
O O6 0.820334 0.834323 0.760145
O O7 0.045682 0.718279 0.427396
O O8 0.229565 0.667079 0.613167
O O9 0.345364 0.940848 0.783265
O O10 0.819895 0.093240 0.940964
O O11 0.647045 0.391441 0.183683
O O12 0.117067 0.405581 0.200126
O O13 0.694809 0.283222 0.903907
O O14 0.500000 0.500000 0.500000
O O15 0.500000 0.000000 0.000000
#
# Coordination Sequence:
#
# PCOD8026044 Si02
#       7
#     2   2   2   2   2   2   2
#     4  11  25  40  60  88 132 176 229 279 328 378
#     4  10  25  40  70  96 136 177 222 277 330 391
#     4  10  24  37  59  84 129 177 231 280 327 378
#     4  10  24  42  72 100 133 171 217 270 339 398
#     4  12  24  43  66  98 132 174 227 272 329 401
#     4  10  23  47  75 101 136 170 214 275 342 402
#     4  11  22  39  60  92 129 178 228 273 325 388
#
# _framework density 21.792729999999999
#
# number of rings (size 3 to 8) (size 9 to 14) (size 15 to 20)
#    0.857    0.571    1.429    3.000    6.000    3.429 
#    0.000    1.429    0.000    0.000    0.000    0.000 
#    0.000    0.000    0.000    0.000    0.000    0.000 
#
# Total GULP energy -173471.864844 kJ/mol
# GULP energy per Si atom -12390.847489 kJ/mol
# Density = 2.174313 g / cm^3
# Si number density = 21.792730 Si / 1000 Ang^3
#
#
#
# Elastic Constant Matrix: (Units=GPa)
#
#
# Indices 1 2 3 4 5 6 
#
# 1 83.2201 26.0633 31.9442 9.1233 9.2709 -6.3532
# 2 26.0633 73.4099 54.5719 11.2604 -5.3311 -10.5559
# 3 31.9442 54.5719 144.6725 -4.7772 -2.8449 -4.0342
# 4 9.1233 11.2604 -4.7772 38.5108 7.5375 -10.2060
# 5 9.2709 -5.3311 -2.8449 7.5375 27.1511 7.3591
# 6 -6.3532 -10.5559 -4.0342 -10.2060 7.3591 20.4305
#
#
#
# Elastic Compliance Matrix: (Units=1/GPa)
#
#
# Indices 1 2 3 4 5 6 
#
# 1 0.015160 -0.003777 -0.001923 0.000121 -0.007553 0.005164
# 2 -0.003777 0.022719 -0.007754 -0.006972 0.005950 0.003407
# 3 -0.001923 -0.007754 0.010376 0.004137 -0.000881 -0.000172
# 4 0.000121 -0.006972 0.004137 0.037907 -0.017607 0.022531
# 5 -0.007553 0.005950 -0.000881 -0.017607 0.052759 -0.027248
# 6 0.005164 0.003407 -0.000172 0.022531 -0.027248 0.073348
#
#
# Mechanical properties :
#
#
# Convention : Reuss Voigt Hill
#
# Bulk Modulus (GPa) = 46.84677 58.49571 52.67124
# Shear Modulus (GPa) = 20.30104 29.80002 25.05053
#
# Velocity S-wave (km/s) = 3.05544 3.70189 3.39409
# Velocity P-wave (km/s) = 5.83017 6.72102 6.29138
#
# Compressibility (1/GPa) = 0.02134619
#
# Stress axis : x y z
#
# Youngs Moduli (GPa) = 65.96382 44.01653 96.37517
#
# Poissons Ratio (x) = 0.16627 0.18533
# Poissons Ratio (y) = 0.24917 0.74728
# Poissons Ratio (z) = 0.12685 0.34130
#
# Static dielectric constant tensor:
#      x y z
#    x 4.128760 -0.058260 0.005320 
#    y -0.058260 3.768130 -0.291630 
#    z 0.005320 -0.291630 4.175270 
# 
# 
# High freq. dielectric constant tensor:
#      x y z
#    x 1.857470 -0.006750 -0.005920 
#    y -0.006750 1.825130 -0.010050 
#    z -0.005920 -0.010050 1.865920 
# 
# From -- ./inp_files/137898.got.cif
#   From: 2010.06.25/outbox.cif.g09.slc.cpg/sg2_69_cif.got.tgz:137898.got - 2010.06.27 13:26:56.
