data_PCOD8026036
_publ_section_title
;
Structure prediction by ZEFSAII (Michael W. Deem and Ramdas Pophale) SiO2 
 PCOD8026036
Probable space group: P -1
;
_chemical_formula_sum "Si O2"
_cell_formula_units_Z 14
_cell_length_a 10.640141
_cell_length_b 5.494179
_cell_length_c 26.190362
_cell_angle_alpha 56.631334
_cell_angle_beta 23.422114
_cell_angle_gamma 60.326703
_cell_volume 508.055810
_symmetry_space_group_name_H-M "P -1"
_symmetry_group_IT_number 2
_symmetry_cell_setting 'triclinic'
loop_
_space_group_symop_operation_xyz
x,y,z
-x,-y,-z
loop_
_atom_site_type_symbol
_atom_site_label
_atom_site_fract_x
_atom_site_fract_y
_atom_site_fract_z
Si Si1 0.592925 0.757949 0.189149
Si Si2 0.675476 0.310079 0.335159
Si Si3 0.282048 0.765303 0.555690
Si Si4 0.223915 0.694729 0.000103
Si Si5 0.661099 0.877039 0.902913
Si Si6 0.684890 0.463235 0.776025
Si Si7 0.196302 0.759364 0.424733
O O1 0.393718 0.519224 0.257365
O O2 0.370215 0.925415 0.292861
O O3 0.756452 0.965364 0.062165
O O4 0.850619 0.600814 0.147280
O O5 0.785004 0.212899 0.361855
O O6 0.476356 0.609061 0.371916
O O7 0.023773 0.306173 0.176517
O O8 0.431831 0.050569 0.438677
O O9 0.500000 0.500000 0.500000
O O10 0.955301 0.706325 0.655307
O O11 0.404871 0.672564 0.989764
O O12 0.384393 0.505562 0.918883
O O13 0.798794 0.139771 0.785836
O O14 0.500000 0.000000 0.000000
O O15 0.000000 0.500000 0.500000
O O16 0.000000 0.000000 0.500000
#
# Coordination Sequence:
#
# PCOD8026036 Si02
#       7
#     2   2   2   2   2   2   2
#     4  10  26  47  73 107 149 203 264 314 385 471
#     4  11  27  48  72 115 152 205 260 327 406 466
#     4  11  24  44  79 109 151 199 264 329 391 476
#     4  10  23  47  74 105 147 202 256 324 385 464
#     4  11  25  44  73 117 155 200 257 326 403 474
#     4  11  23  43  78 108 149 202 265 317 395 464
#     4  12  33  52  77 113 161 215 264 330 403 475
#
# _framework density 27.556027
#
# number of rings (size 3 to 8) (size 9 to 14) (size 15 to 20)
#    0.000    1.143    2.857    0.429   10.000    2.857 
#    0.000    0.000    0.000    0.000    0.000    0.000 
#    0.000    0.000    0.000    0.000    0.000    0.000 
#
# Total GULP energy -173474.942810 kJ/mol
# GULP energy per Si atom -12391.067344 kJ/mol
# Density = 2.749331 g / cm^3
# Si number density = 27.556027 Si / 1000 Ang^3
#
#
#
# Elastic Constant Matrix: (Units=GPa)
#
#
# Indices 1 2 3 4 5 6 
#
# 1 191.2940 70.9106 77.7066 16.5152 -23.3872 11.7085
# 2 70.9106 125.1706 66.2813 37.4346 -17.6586 5.1194
# 3 77.7066 66.2813 158.2026 36.9546 -20.8075 10.7637
# 4 16.5152 37.4346 36.9546 59.3588 10.2560 4.8263
# 5 -23.3872 -17.6586 -20.8075 10.2560 44.8663 10.6490
# 6 11.7085 5.1194 10.7637 4.8263 10.6490 45.9444
#
#
#
# Elastic Compliance Matrix: (Units=1/GPa)
#
#
# Indices 1 2 3 4 5 6 
#
# 1 0.007520 -0.003040 -0.002342 0.001107 0.001752 -0.001551
# 2 -0.003040 0.013561 -0.001802 -0.007353 0.004750 -0.000643
# 3 -0.002342 -0.001802 0.010150 -0.005129 0.004441 -0.002071
# 4 0.001107 -0.007353 -0.005129 0.026151 -0.011042 0.001551
# 5 0.001752 0.004750 0.004441 -0.011042 0.031596 -0.008180
# 6 -0.001551 -0.000643 -0.002071 0.001551 -0.008180 0.024450
#
#
# Mechanical properties :
#
#
# Convention : Reuss Voigt Hill
#
# Bulk Modulus (GPa) = 59.30812 100.49603 79.90208
# Shear Modulus (GPa) = 37.47622 47.35181 42.41402
#
# Velocity S-wave (km/s) = 3.69182 4.14984 3.92751
# Velocity P-wave (km/s) = 6.30414 7.71430 7.04459
#
# Compressibility (1/GPa) = 0.01686110
#
# Stress axis : x y z
#
# Youngs Moduli (GPa) = 132.98701 73.74025 98.52383
#
# Poissons Ratio (x) = 0.22416 0.23078
# Poissons Ratio (y) = 0.40427 0.17758
# Poissons Ratio (z) = 0.31151 0.13291
#
# Static dielectric constant tensor:
#      x y z
#    x 4.254040 -0.264650 -0.513220 
#    y -0.264650 4.982780 -0.127600 
#    z -0.513220 -0.127600 5.055850 
# 
# 
# High freq. dielectric constant tensor:
#      x y z
#    x 2.128060 -0.024070 -0.004300 
#    y -0.024070 2.124590 -0.000120 
#    z -0.004300 -0.000120 2.123590 
# 
# From -- ./inp_files/622856.got.cif
#   From: 2010.06.25/outbox.cif.g09.slc.cpg/sg2_312_cif.got.tgz:622856.got - 2010.06.27 13:26:56.
