data_PCOD8026055
_publ_section_title
;
Structure prediction by ZEFSAII (Michael W. Deem and Ramdas Pophale) SiO2 
 PCOD8026055
Probable space group: P -1
;
_chemical_formula_sum "Si O2"
_cell_formula_units_Z 16
_cell_length_a 9.161441
_cell_length_b 15.544717
_cell_length_c 12.251294
_cell_angle_alpha 133.649953
_cell_angle_beta 105.605027
_cell_angle_gamma 112.456413
_cell_volume 705.331331
_symmetry_space_group_name_H-M "P -1"
_symmetry_group_IT_number 2
_symmetry_cell_setting 'triclinic'
loop_
_space_group_symop_operation_xyz
x,y,z
-x,-y,-z
loop_
_atom_site_type_symbol
_atom_site_label
_atom_site_fract_x
_atom_site_fract_y
_atom_site_fract_z
Si Si1 0.579569 0.676724 0.622105
Si Si2 0.927458 0.027720 0.171989
Si Si3 0.424108 0.587807 0.080632
Si Si4 0.054525 0.456655 0.320043
Si Si5 0.803604 0.207818 0.268873
Si Si6 0.390808 0.803098 0.165646
Si Si7 0.075512 0.005601 0.396814
Si Si8 0.859830 0.209816 0.713839
O O1 0.500000 0.500000 0.500000
O O2 0.313602 0.560052 0.415026
O O3 0.792433 0.812459 0.688092
O O4 0.689869 0.829301 0.875779
O O5 0.895929 0.146945 0.292541
O O6 0.898829 0.945103 0.211199
O O7 0.455689 0.702300 0.086116
O O8 0.629170 0.761740 0.365633
O O9 0.500000 0.500000 0.000000
O O10 0.130044 0.425287 0.909409
O O11 0.132966 0.644431 0.507876
O O12 0.980341 0.343494 0.317271
O O13 0.798811 0.276857 0.037819
O O14 0.500000 0.000000 0.000000
O O15 0.260977 0.758284 0.215545
O O16 0.667412 0.050209 0.434808
O O17 0.073827 0.862328 0.260758
O O18 0.000000 0.000000 0.500000
#
# Coordination Sequence:
#
# PCOD8026055 Si02
#       8
#     2   2   2   2   2   2   2   2
#     4  11  24  47  70 106 139 177 240 287 354 413
#     4  11  26  44  74 101 142 188 225 295 351 414
#     4  11  23  43  67  97 133 178 232 276 344 417
#     4  11  25  44  70 101 134 182 232 291 348 420
#     4  11  24  46  64 102 141 177 233 280 349 424
#     4  10  25  42  70  96 133 179 226 291 352 406
#     4  11  25  43  67 105 139 182 236 282 343 417
#     4  10  23  48  63  98 137 175 233 290 339 415
#
# _framework density 22.684376
#
# number of rings (size 3 to 8) (size 9 to 14) (size 15 to 20)
#    0.000    1.250    3.750    0.375    5.250    3.000 
#    0.000    0.000    0.000    0.000    0.000    0.000 
#    0.000    0.000    0.000    0.000    0.000    0.000 
#
# Total GULP energy -198291.667545 kJ/mol
# GULP energy per Si atom -12393.229222 kJ/mol
# Density = 2.263275 g / cm^3
# Si number density = 22.684376 Si / 1000 Ang^3
#
#
#
# Elastic Constant Matrix: (Units=GPa)
#
#
# Indices 1 2 3 4 5 6 
#
# 1 103.4573 30.7783 21.2583 -2.8806 2.5536 -20.3916
# 2 30.7783 69.3936 33.7615 -5.7040 -3.9608 -14.5548
# 3 21.2583 33.7615 104.5810 4.0456 13.3761 -4.9202
# 4 -2.8806 -5.7040 4.0456 42.0503 -4.9666 9.5860
# 5 2.5536 -3.9608 13.3761 -4.9666 36.4941 6.1916
# 6 -20.3916 -14.5548 -4.9202 9.5860 6.1916 40.1509
#
#
#
# Elastic Compliance Matrix: (Units=1/GPa)
#
#
# Indices 1 2 3 4 5 6 
#
# 1 0.012065 -0.004232 -0.000529 -0.001116 -0.002131 0.005124
# 2 -0.004232 0.020533 -0.006343 0.002962 0.004730 0.003080
# 3 -0.000529 -0.006343 0.012593 -0.002916 -0.005759 0.000559
# 4 -0.001116 0.002962 -0.002916 0.026782 0.006338 -0.007222
# 5 -0.002131 0.004730 -0.005759 0.006338 0.032148 -0.006544
# 6 0.005124 0.003080 0.000559 -0.007222 -0.006544 0.031426
#
#
# Mechanical properties :
#
#
# Convention : Reuss Voigt Hill
#
# Bulk Modulus (GPa) = 43.51319 49.89200 46.70260
# Shear Modulus (GPa) = 30.22649 36.51464 33.37057
#
# Velocity S-wave (km/s) = 3.65428 4.01644 3.83963
# Velocity P-wave (km/s) = 6.08512 6.59930 6.34742
#
# Compressibility (1/GPa) = 0.02298154
#
# Stress axis : x y z
#
# Youngs Moduli (GPa) = 82.88356 48.70147 79.40953
#
# Poissons Ratio (x) = 0.20613 0.04204
# Poissons Ratio (y) = 0.35080 0.50370
# Poissons Ratio (z) = 0.04388 0.30892
#
# Static dielectric constant tensor:
#      x y z
#    x 4.248320 -0.131940 0.123920 
#    y -0.131940 3.924480 0.324320 
#    z 0.123920 0.324320 4.395560 
# 
# 
# High freq. dielectric constant tensor:
#      x y z
#    x 1.908480 -0.017630 0.013560 
#    y -0.017630 1.874220 0.024640 
#    z 0.013560 0.024640 1.909370 
# 
# From -- ./inp_files/399650.got.cif
#   From: 2010.06.25/outbox.cif.g09.slc.cpg/sg2_200_cif.got.tgz:399650.got - 2010.06.27 13:26:56.
