data_PCOD8026912
_publ_section_title
;
Structure prediction by ZEFSAII (Michael W. Deem and Ramdas Pophale) SiO2 
 PCOD8026912
Probable space group: P -1
;
_chemical_formula_sum "Si O2"
_cell_formula_units_Z 14
_cell_length_a 17.449419
_cell_length_b 5.182669
_cell_length_c 8.559352
_cell_angle_alpha 101.131739
_cell_angle_beta 42.603836
_cell_angle_gamma 102.127408
_cell_volume 511.423385
_symmetry_space_group_name_H-M "P -1"
_symmetry_group_IT_number 2
_symmetry_cell_setting 'triclinic'
loop_
_space_group_symop_operation_xyz
x,y,z
-x,-y,-z
loop_
_atom_site_type_symbol
_atom_site_label
_atom_site_fract_x
_atom_site_fract_y
_atom_site_fract_z
Si Si1 0.828807 0.302600 0.699411
Si Si2 0.471462 0.274248 0.693182
Si Si3 0.106068 0.663556 0.936427
Si Si4 0.690933 0.457976 0.207903
Si Si5 0.062357 0.196427 0.561858
Si Si6 0.220317 0.028159 0.549856
Si Si7 0.477114 0.154178 0.206586
O O1 0.894305 0.589486 0.607636
O O2 0.760810 0.203876 0.632352
O O3 0.927057 0.099415 0.560857
O O4 0.738468 0.300063 0.973158
O O5 0.585107 0.275002 0.419410
O O6 0.360338 0.275573 0.746524
O O7 0.461497 0.006011 0.772700
O O8 0.472112 0.538828 0.831372
O O9 0.208614 0.482313 0.805900
O O10 0.150167 0.907639 0.789766
O O11 0.000000 0.500000 0.000000
O O12 0.063837 0.769763 0.179378
O O13 0.146690 0.233353 0.593373
O O14 0.342423 0.160340 0.438934
O O15 0.500000 0.000000 0.000000
#
# Coordination Sequence:
#
# PCOD8026912 Si02
#       7
#     2   2   2   2   2   2   2
#     4  10  24  44  71 104 149 191 243 299 369 439
#     4  11  28  50  71 115 148 200 245 300 380 447
#     4  12  23  49  77 110 148 197 251 313 367 445
#     4  11  27  48  76 106 154 199 242 309 372 448
#     4  10  24  43  71 103 148 185 250 294 369 425
#     4  10  24  43  75 107 149 189 248 307 369 434
#     4  12  26  46  82 112 149 194 251 310 368 437
#
# _framework density 27.374580000000002
#
# number of rings (size 3 to 8) (size 9 to 14) (size 15 to 20)
#    0.857    0.286    2.857    1.714    6.000    4.571 
#    0.000    0.000    0.000    0.000    0.000    0.000 
#    0.000    0.000    0.000    0.000    0.000    0.000 
#
# Total GULP energy -173588.691968 kJ/mol
# GULP energy per Si atom -12399.192283 kJ/mol
# Density = 2.731227 g / cm^3
# Si number density = 27.374580 Si / 1000 Ang^3
#
#
#
# Elastic Constant Matrix: (Units=GPa)
#
#
# Indices 1 2 3 4 5 6 
#
# 1 140.6927 32.0757 32.3095 16.1856 -26.0796 -18.3214
# 2 32.0757 119.6608 20.0534 13.6201 -14.1563 -18.8553
# 3 32.3095 20.0534 136.0564 16.9091 -1.1910 -21.2538
# 4 16.1856 13.6201 16.9091 36.6788 -4.3832 -3.9367
# 5 -26.0796 -14.1563 -1.1910 -4.3832 45.2231 10.3538
# 6 -18.3214 -18.8553 -21.2538 -3.9367 10.3538 45.6971
#
#
#
# Elastic Compliance Matrix: (Units=1/GPa)
#
#
# Indices 1 2 3 4 5 6 
#
# 1 0.008909 -0.001200 -0.001433 -0.002185 0.004223 0.001265
# 2 -0.001200 0.009625 -0.000390 -0.002394 0.001443 0.002776
# 3 -0.001433 -0.000390 0.008648 -0.003057 -0.001802 0.003432
# 4 -0.002185 -0.002394 -0.003057 0.030559 0.001077 -0.000897
# 5 0.004223 0.001443 -0.001802 0.001077 0.026055 -0.004360
# 6 0.001265 0.002776 0.003432 -0.000897 -0.004360 0.026043
#
#
# Mechanical properties :
#
#
# Convention : Reuss Voigt Hill
#
# Bulk Modulus (GPa) = 47.31246 62.80969 55.06107
# Shear Modulus (GPa) = 40.67405 46.31791 43.49598
#
# Velocity S-wave (km/s) = 3.85883 4.11786 3.99045
# Velocity P-wave (km/s) = 6.09713 6.75303 6.43344
#
# Compressibility (1/GPa) = 0.02113608
#
# Stress axis : x y z
#
# Youngs Moduli (GPa) = 112.24268 103.90034 115.63663
#
# Poissons Ratio (x) = 0.12473 0.16566
# Poissons Ratio (y) = 0.13474 0.04507
# Poissons Ratio (z) = 0.16080 0.04049
#
# Static dielectric constant tensor:
#      x y z
#    x 5.821900 -0.322600 -0.035740 
#    y -0.322600 4.638530 0.386710 
#    z -0.035740 0.386710 5.362640 
# 
# 
# High freq. dielectric constant tensor:
#      x y z
#    x 2.142650 -0.008350 0.009070 
#    y -0.008350 2.091130 0.026000 
#    z 0.009070 0.026000 2.114860 
# 
# From -- ./inp_files/47824.got.cif
#   From: 2010.06.25/outbox.cif.g09.slc.cpg/sg2_24_cif.got.tgz:47824.got - 2010.06.27 13:26:56.
