data_PCOD8026540
_publ_section_title
;
Structure prediction by ZEFSAII (Michael W. Deem and Ramdas Pophale) SiO2 
 PCOD8026540
Probable space group: P -1
;
_chemical_formula_sum "Si O2"
_cell_formula_units_Z 10
_cell_length_a 8.819570
_cell_length_b 11.268517
_cell_length_c 9.388381
_cell_angle_alpha 64.560600
_cell_angle_beta 31.533555
_cell_angle_gamma 78.421564
_cell_volume 412.755666
_symmetry_space_group_name_H-M "P -1"
_symmetry_group_IT_number 2
_symmetry_cell_setting 'triclinic'
loop_
_space_group_symop_operation_xyz
x,y,z
-x,-y,-z
loop_
_atom_site_type_symbol
_atom_site_label
_atom_site_fract_x
_atom_site_fract_y
_atom_site_fract_z
Si Si1 0.103123 0.227313 0.774787
Si Si2 0.031154 0.052426 0.664362
Si Si3 0.797299 0.784706 0.836582
Si Si4 0.690101 0.162649 0.398510
Si Si5 0.328783 0.503740 0.280455
O O1 0.348179 0.168065 0.686460
O O2 0.302961 0.376384 0.471715
O O3 0.918229 0.118698 0.855644
O O4 0.856397 0.240106 0.080059
O O5 0.152815 0.176672 0.389111
O O6 0.754410 0.917776 0.888170
O O7 0.311383 0.998699 0.518714
O O8 0.097493 0.758447 0.677294
O O9 0.500163 0.645005 0.160258
O O10 0.000000 0.500000 0.500000
O O11 0.500000 0.500000 0.000000
#
# Coordination Sequence:
#
# PCOD8026540 Si02
#       5
#     2   2   2   2   2
#     4  12  23  43  71  97 135 176 214 278 331 392
#     4   9  20  45  68 101 134 176 220 269 330 399
#     4   9  22  45  68 100 134 177 220 276 322 398
#     4  10  24  42  68 103 134 167 223 273 335 384
#     4  12  26  46  68  97 132 179 226 268 330 399
#
# _framework density 24.227406999999999
#
# number of rings (size 3 to 8) (size 9 to 14) (size 15 to 20)
#    1.200    0.400    2.000    2.400    0.000    3.200 
#    0.000    3.000    0.000    0.000    0.000    0.000 
#    0.000    0.000    0.000    0.000    0.000    0.000 
#
# Total GULP energy -123945.229824 kJ/mol
# GULP energy per Si atom -12394.522982 kJ/mol
# Density = 2.417226 g / cm^3
# Si number density = 24.227407 Si / 1000 Ang^3
#
#
#
# Elastic Constant Matrix: (Units=GPa)
#
#
# Indices 1 2 3 4 5 6 
#
# 1 90.5032 24.0641 23.2551 -4.0054 18.4349 4.6964
# 2 24.0641 87.8431 19.3766 -25.6612 -6.2886 9.5002
# 3 23.2551 19.3766 68.6474 0.7011 1.8248 3.0576
# 4 -4.0054 -25.6612 0.7011 34.5667 -8.8730 -8.6263
# 5 18.4349 -6.2886 1.8248 -8.8730 37.8073 -15.2242
# 6 4.6964 9.5002 3.0576 -8.6263 -15.2242 30.6855
#
#
#
# Elastic Compliance Matrix: (Units=1/GPa)
#
#
# Indices 1 2 3 4 5 6 
#
# 1 0.017003 -0.006917 -0.002791 -0.009960 -0.016052 -0.010947
# 2 -0.006917 0.020390 -0.004401 0.020431 0.015178 0.008458
# 3 -0.002791 -0.004401 0.016989 -0.005211 -0.002455 -0.002586
# 4 -0.009960 0.020431 -0.005211 0.059136 0.034185 0.029303
# 5 -0.016052 0.015178 -0.002455 0.034185 0.059994 0.037378
# 6 -0.010947 0.008458 -0.002586 0.029303 0.037378 0.058685
#
#
# Mechanical properties :
#
#
# Convention : Reuss Voigt Hill
#
# Bulk Modulus (GPa) = 38.22267 42.26503 40.24385
# Shear Modulus (GPa) = 18.57795 32.63178 25.60486
#
# Velocity S-wave (km/s) = 2.77215 3.67399 3.25446
# Velocity P-wave (km/s) = 5.10463 5.95656 5.54698
#
# Compressibility (1/GPa) = 0.02616248
#
# Stress axis : x y z
#
# Youngs Moduli (GPa) = 58.81440 49.04399 58.86262
#
# Poissons Ratio (x) = 0.33923 0.16431
# Poissons Ratio (y) = 0.40682 0.25905
# Poissons Ratio (z) = 0.16418 0.21584
#
# Static dielectric constant tensor:
#      x y z
#    x 4.542130 -0.040210 0.210860 
#    y -0.040210 4.386760 -0.291880 
#    z 0.210860 -0.291880 3.888280 
# 
# 
# High freq. dielectric constant tensor:
#      x y z
#    x 1.978470 0.002930 0.016710 
#    y 0.002930 1.942990 -0.016000 
#    z 0.016710 -0.016000 1.948980 
# 
# From -- ./inp_files/24731.got.cif
#   From: 2010.06.25/outbox.cif.g09.slc.cpg/sg2_13_cif.got.tgz:24731.got - 2010.06.27 13:26:56.
