data_PCOD8026867
_publ_section_title
;
Structure prediction by ZEFSAII (Michael W. Deem and Ramdas Pophale) SiO2 
 PCOD8026867
Probable space group: P -1
;
_chemical_formula_sum "Si O2"
_cell_formula_units_Z 16
_cell_length_a 11.074080
_cell_length_b 9.117981
_cell_length_c 12.953099
_cell_angle_alpha 133.799427
_cell_angle_beta 131.900986
_cell_angle_gamma 56.698382
_cell_volume 693.393912
_symmetry_space_group_name_H-M "P -1"
_symmetry_group_IT_number 2
_symmetry_cell_setting 'triclinic'
loop_
_space_group_symop_operation_xyz
x,y,z
-x,-y,-z
loop_
_atom_site_type_symbol
_atom_site_label
_atom_site_fract_x
_atom_site_fract_y
_atom_site_fract_z
Si Si1 0.360786 0.696128 0.038168
Si Si2 0.882477 0.019363 0.302550
Si Si3 0.898064 0.724989 0.559998
Si Si4 0.125861 0.701541 0.390369
Si Si5 0.024147 0.284070 0.175750
Si Si6 0.590978 0.503985 0.660995
Si Si7 0.528749 0.766421 0.369200
Si Si8 0.267612 0.083035 0.046401
O O1 0.394087 0.766063 0.205044
O O2 0.379353 0.879803 0.057867
O O3 0.500000 0.500000 0.000000
O O4 0.172939 0.656246 0.912043
O O5 0.788450 0.173998 0.411302
O O6 0.039113 0.120637 0.408584
O O7 0.950479 0.811414 0.301364
O O8 0.774504 0.976193 0.122815
O O9 0.715429 0.708060 0.410376
O O10 0.000000 0.500000 0.500000
O O11 0.916340 0.820538 0.731643
O O12 0.240217 0.656101 0.332887
O O13 0.102061 0.489217 0.324235
O O14 0.105697 0.140401 0.056853
O O15 0.500000 0.500000 0.500000
O O16 0.489354 0.411560 0.645646
O O17 0.626805 0.733661 0.816359
O O18 0.500000 0.000000 0.500000
#
# Coordination Sequence:
#
# PCOD8026867 Si02
#       8
#     2   2   2   2   2   2   2   2
#     4  12  27  45  66 109 146 179 232 302 359 413
#     4  11  24  42  72 103 134 180 242 289 345 412
#     4  12  23  43  74  99 134 189 236 282 345 424
#     4  10  24  43  70 100 138 183 240 285 346 427
#     4  11  23  44  72 100 138 187 240 285 346 429
#     4  11  25  47  70 101 146 189 230 290 357 425
#     4  12  27  45  73 105 141 184 235 293 356 412
#     4  11  26  45  74 101 140 190 239 288 355 428
#
# _framework density 23.074907
#
# number of rings (size 3 to 8) (size 9 to 14) (size 15 to 20)
#    0.000    0.750    2.500    4.875    5.250    1.000 
#    2.250    1.250    0.000    0.000    0.000    0.000 
#    0.000    0.000    0.000    0.000    0.000    0.000 
#
# Total GULP energy -198341.009372 kJ/mol
# GULP energy per Si atom -12396.313086 kJ/mol
# Density = 2.302239 g / cm^3
# Si number density = 23.074907 Si / 1000 Ang^3
#
#
#
# Elastic Constant Matrix: (Units=GPa)
#
#
# Indices 1 2 3 4 5 6 
#
# 1 61.5100 25.6467 12.0638 11.9069 13.6797 4.4552
# 2 25.6467 118.7991 40.4750 9.7213 -10.6040 -3.7793
# 3 12.0638 40.4750 125.2188 -8.1395 -9.9203 4.8449
# 4 11.9069 9.7213 -8.1395 44.9608 0.3332 -5.5408
# 5 13.6797 -10.6040 -9.9203 0.3332 35.9353 -5.2589
# 6 4.4552 -3.7793 4.8449 -5.5408 -5.2589 37.1808
#
#
#
# Elastic Compliance Matrix: (Units=1/GPa)
#
#
# Indices 1 2 3 4 5 6 
#
# 1 0.022735 -0.005070 -0.001615 -0.005811 -0.011348 -0.005500
# 2 -0.005070 0.011122 -0.002912 -0.001304 0.004801 0.002602
# 3 -0.001615 -0.002912 0.009459 0.002677 0.002252 -0.000618
# 4 -0.005811 -0.001304 0.002677 0.025064 0.002973 0.004371
# 5 -0.011348 0.004801 0.002252 0.002973 0.035179 0.006973
# 6 -0.005500 0.002602 -0.000618 0.004371 0.006973 0.029537
#
#
# Mechanical properties :
#
#
# Convention : Reuss Voigt Hill
#
# Bulk Modulus (GPa) = 41.45583 51.32209 46.38896
# Shear Modulus (GPa) = 31.18532 38.77154 34.97843
#
# Velocity S-wave (km/s) = 3.68024 4.10353 3.89763
# Velocity P-wave (km/s) = 6.00530 6.68893 6.35631
#
# Compressibility (1/GPa) = 0.02412206
#
# Stress axis : x y z
#
# Youngs Moduli (GPa) = 43.98437 89.91023 105.71813
#
# Poissons Ratio (x) = 0.45586 0.17078
# Poissons Ratio (y) = 0.22301 0.30782
# Poissons Ratio (z) = 0.07105 0.26179
#
# Static dielectric constant tensor:
#      x y z
#    x 4.518530 0.017270 -0.365570 
#    y 0.017270 4.118160 0.318390 
#    z -0.365570 0.318390 4.046710 
# 
# 
# High freq. dielectric constant tensor:
#      x y z
#    x 1.908800 0.003310 -0.006190 
#    y 0.003310 1.925860 0.005770 
#    z -0.006190 0.005770 1.922400 
# 
# From -- ./inp_files/420119.got.cif
#   From: 2010.06.25/outbox.cif.g09.slc.cpg/sg2_211_cif.got.tgz:420119.got - 2010.06.27 13:26:56.
