data_PCOD8026731
_publ_section_title
;
Structure prediction by ZEFSAII (Michael W. Deem and Ramdas Pophale) SiO2 
 PCOD8026731
Probable space group: P -1
;
_chemical_formula_sum "Si O2"
_cell_formula_units_Z 14
_cell_length_a 13.895760
_cell_length_b 11.562215
_cell_length_c 11.799407
_cell_angle_alpha 114.225903
_cell_angle_beta 114.010775
_cell_angle_gamma 21.022275
_cell_volume 618.522378
_symmetry_space_group_name_H-M "P -1"
_symmetry_group_IT_number 2
_symmetry_cell_setting 'triclinic'
loop_
_space_group_symop_operation_xyz
x,y,z
-x,-y,-z
loop_
_atom_site_type_symbol
_atom_site_label
_atom_site_fract_x
_atom_site_fract_y
_atom_site_fract_z
Si Si1 0.571890 0.751146 0.725383
Si Si2 0.994922 0.786520 0.654668
Si Si3 0.223932 0.672100 0.916656
Si Si4 0.360493 0.759196 0.878991
Si Si5 0.075384 0.299850 0.878196
Si Si6 0.367225 0.593461 0.361291
Si Si7 0.523881 0.116925 0.519743
O O1 0.727886 0.443306 0.672103
O O2 0.424506 0.938163 0.611567
O O3 0.816328 0.578114 0.785101
O O4 0.351349 0.013197 0.824651
O O5 0.104978 0.684383 0.794783
O O6 0.242318 0.490770 0.569890
O O7 0.869910 0.054739 0.654684
O O8 0.779454 0.910414 0.610456
O O9 0.349740 0.630193 0.871121
O O10 0.424057 0.403643 0.003999
O O11 0.000000 0.000000 0.000000
O O12 0.420518 0.662381 0.739103
O O13 0.105569 0.137898 0.905432
O O14 0.000000 0.500000 0.000000
O O15 0.500000 0.500000 0.500000
O O16 0.500000 0.000000 0.500000
#
# Coordination Sequence:
#
# PCOD8026731 Si02
#       7
#     2   2   2   2   2   2   2
#     4  11  25  46  71 104 140 180 230 302 346 406
#     4  12  25  45  73 105 135 194 233 282 363 409
#     4  11  23  43  69 100 147 175 233 290 350 420
#     4  10  24  43  66 108 143 182 227 294 350 412
#     4  11  25  47  72 100 139 184 238 280 349 415
#     4  11  22  43  74 104 139 176 230 296 351 413
#     4  12  28  49  67 103 145 185 239 285 344 426
#
# _framework density 22.634591
#
# number of rings (size 3 to 8) (size 9 to 14) (size 15 to 20)
#    0.000    0.857    2.857    3.429    6.000    2.857 
#    2.571    0.000    0.000    0.000    0.000    0.000 
#    0.000    0.000    0.000    0.000    0.000    0.000 
#
# Total GULP energy -173476.173489 kJ/mol
# GULP energy per Si atom -12391.155249 kJ/mol
# Density = 2.258307 g / cm^3
# Si number density = 22.634591 Si / 1000 Ang^3
#
#
#
# Elastic Constant Matrix: (Units=GPa)
#
#
# Indices 1 2 3 4 5 6 
#
# 1 87.4629 27.1512 52.9519 -0.7897 10.2812 -3.3951
# 2 27.1512 101.9659 61.0054 6.7477 12.0366 -10.7615
# 3 52.9519 61.0054 175.4506 -8.9579 15.7711 0.0024
# 4 -0.7897 6.7477 -8.9579 41.4601 -3.2986 9.3755
# 5 10.2812 12.0366 15.7711 -3.2986 34.7350 -5.7291
# 6 -3.3951 -10.7615 0.0024 9.3755 -5.7291 38.3228
#
#
#
# Elastic Compliance Matrix: (Units=1/GPa)
#
#
# Indices 1 2 3 4 5 6 
#
# 1 0.014351 -0.001196 -0.003766 -0.000690 -0.002058 0.000797
# 2 -0.001196 0.013830 -0.004488 -0.004438 -0.002071 0.004554
# 3 -0.003766 -0.004488 0.008676 0.002995 -0.001403 -0.002537
# 4 -0.000690 -0.004438 0.002995 0.027363 0.001703 -0.007747
# 5 -0.002058 -0.002071 -0.001403 0.001703 0.031497 0.003528
# 6 0.000797 0.004554 -0.002537 -0.007747 0.003528 0.029867
#
#
# Mechanical properties :
#
#
# Convention : Reuss Voigt Hill
#
# Bulk Modulus (GPa) = 55.68828 71.89957 63.79393
# Shear Modulus (GPa) = 33.22956 37.82163 35.52560
#
# Velocity S-wave (km/s) = 3.83572 4.09218 3.96602
# Velocity P-wave (km/s) = 6.65384 7.35950 7.01555
#
# Compressibility (1/GPa) = 0.01795710
#
# Stress axis : x y z
#
# Youngs Moduli (GPa) = 69.68135 72.30825 115.26266
#
# Poissons Ratio (x) = 0.08646 0.43405
# Poissons Ratio (y) = 0.08332 0.51733
# Poissons Ratio (z) = 0.26240 0.32454
#
# Static dielectric constant tensor:
#      x y z
#    x 3.886780 0.059050 0.162780 
#    y 0.059050 4.265350 -0.128920 
#    z 0.162780 -0.128920 4.533680 
# 
# 
# High freq. dielectric constant tensor:
#      x y z
#    x 1.881980 -0.001770 0.003020 
#    y -0.001770 1.894530 -0.004890 
#    z 0.003020 -0.004890 1.914540 
# 
# From -- ./inp_files/67111.got.cif
#   From: 2010.06.25/outbox.cif.g09.slc.cpg/sg2_34_cif.got.tgz:67111.got - 2010.06.27 13:26:56.
