data_PCOD8026038
_publ_section_title
;
Structure prediction by ZEFSAII (Michael W. Deem and Ramdas Pophale) SiO2 
 PCOD8026038
Probable space group: P -1
;
_chemical_formula_sum "Si O2"
_cell_formula_units_Z 12
_cell_length_a 11.663904
_cell_length_b 8.640693
_cell_length_c 12.054799
_cell_angle_alpha 83.912836
_cell_angle_beta 145.271863
_cell_angle_gamma 115.830526
_cell_volume 542.513845
_symmetry_space_group_name_H-M "P -1"
_symmetry_group_IT_number 2
_symmetry_cell_setting 'triclinic'
loop_
_space_group_symop_operation_xyz
x,y,z
-x,-y,-z
loop_
_atom_site_type_symbol
_atom_site_label
_atom_site_fract_x
_atom_site_fract_y
_atom_site_fract_z
Si Si1 0.954727 0.404518 0.140480
Si Si2 0.535932 0.662311 0.258776
Si Si3 0.523445 0.182075 0.458285
Si Si4 0.568327 0.740855 0.849821
Si Si5 0.902033 0.869463 0.735562
Si Si6 0.593936 0.220431 0.053892
O O1 0.208437 0.621481 0.304960
O O2 0.987176 0.245542 0.133392
O O3 0.878358 0.361562 0.214991
O O4 0.721533 0.379250 0.891970
O O5 0.492101 0.458725 0.226512
O O6 0.769820 0.803440 0.515597
O O7 0.594873 0.769058 0.177675
O O8 0.504050 0.170909 0.310509
O O9 0.295072 0.179814 0.321843
O O10 0.500000 0.000000 0.500000
O O11 0.398049 0.700058 0.824624
O O12 0.867724 0.897495 0.106337
O O13 0.500000 0.000000 0.000000
#
# Coordination Sequence:
#
# PCOD8026038 Si02
#       6
#     2   2   2   2   2   2
#     4  10  24  48  70 106 141 188 235 298 353 419
#     4  10  25  46  73 109 141 189 234 295 364 420
#     4  12  28  46  73 107 144 196 240 293 356 426
#     4  12  24  48  73 108 145 187 244 292 361 428
#     4  12  25  47  74 103 146 190 236 293 357 427
#     4  10  23  47  74 107 144 184 240 297 360 426
#
# _framework density 22.119250000000001
#
# number of rings (size 3 to 8) (size 9 to 14) (size 15 to 20)
#    1.000    0.000    3.333    2.500    4.667    2.000 
#    0.000    0.000    0.000    0.000    0.000    0.000 
#    0.000    0.000    0.000    0.000    0.000    0.000 
#
# Total GULP energy -148792.139153 kJ/mol
# GULP energy per Si atom -12399.344929 kJ/mol
# Density = 2.206891 g / cm^3
# Si number density = 22.119250 Si / 1000 Ang^3
#
#
#
# Elastic Constant Matrix: (Units=GPa)
#
#
# Indices 1 2 3 4 5 6 
#
# 1 86.2712 29.7701 -3.4696 -7.1427 2.6883 -5.3539
# 2 29.7701 118.5170 31.5288 -13.1788 -5.6665 6.9682
# 3 -3.4696 31.5288 75.3078 -2.0894 -11.9145 -4.3705
# 4 -7.1427 -13.1788 -2.0894 37.8272 4.6566 7.6986
# 5 2.6883 -5.6665 -11.9145 4.6566 38.6415 -1.3255
# 6 -5.3539 6.9682 -4.3705 7.6986 -1.3255 34.4717
#
#
#
# Elastic Compliance Matrix: (Units=1/GPa)
#
#
# Indices 1 2 3 4 5 6 
#
# 1 0.013390 -0.004148 0.002427 0.000693 -0.000771 0.003041
# 2 -0.004148 0.011558 -0.005224 0.003907 -0.000253 -0.004525
# 3 0.002427 -0.005224 0.016478 -0.001842 0.004509 0.004107
# 4 0.000693 0.003907 -0.001842 0.029883 -0.003910 -0.007740
# 5 -0.000771 -0.000253 0.004509 -0.003910 0.027841 0.002447
# 6 0.003041 -0.004525 0.004107 -0.007740 0.002447 0.032740
#
#
# Mechanical properties :
#
#
# Convention : Reuss Voigt Hill
#
# Bulk Modulus (GPa) = 36.31467 43.97276 40.14371
# Shear Modulus (GPa) = 32.26672 37.00586 34.63629
#
# Velocity S-wave (km/s) = 3.82352 4.09469 3.96142
# Velocity P-wave (km/s) = 5.99547 6.50218 6.25396
#
# Compressibility (1/GPa) = 0.02753708
#
# Stress axis : x y z
#
# Youngs Moduli (GPa) = 74.68009 86.52257 60.68530
#
# Poissons Ratio (x) = 0.35888 -0.14730
# Poissons Ratio (y) = 0.30976 0.31703
# Poissons Ratio (z) = -0.18127 0.45201
#
# Static dielectric constant tensor:
#      x y z
#    x 4.234920 0.019160 0.045310 
#    y 0.019160 3.985310 -0.062190 
#    z 0.045310 -0.062190 3.906180 
# 
# 
# High freq. dielectric constant tensor:
#      x y z
#    x 1.874650 0.000400 0.000540 
#    y 0.000400 1.881310 -0.002790 
#    z 0.000540 -0.002790 1.864050 
# 
# From -- ./inp_files/417465.got.cif
#   From: 2010.06.25/outbox.cif.g09.slc.cpg/sg2_209_cif.got.tgz:417465.got - 2010.06.27 13:26:56.
