data_PCOD8026236
_publ_section_title
;
Structure prediction by ZEFSAII (Michael W. Deem and Ramdas Pophale) SiO2 
 PCOD8026236
Probable space group: P -1
;
_chemical_formula_sum "Si O2"
_cell_formula_units_Z 14
_cell_length_a 9.564042
_cell_length_b 25.331498
_cell_length_c 8.876317
_cell_angle_alpha 37.409079
_cell_angle_beta 135.124063
_cell_angle_gamma 149.974298
_cell_volume 652.168175
_symmetry_space_group_name_H-M "P -1"
_symmetry_group_IT_number 2
_symmetry_cell_setting 'triclinic'
loop_
_space_group_symop_operation_xyz
x,y,z
-x,-y,-z
loop_
_atom_site_type_symbol
_atom_site_label
_atom_site_fract_x
_atom_site_fract_y
_atom_site_fract_z
Si Si1 0.720031 0.381632 0.473032
Si Si2 0.868483 0.726903 0.653738
Si Si3 0.620763 0.363826 0.094449
Si Si4 0.852591 0.041689 0.846643
Si Si5 0.932988 0.623748 0.673699
Si Si6 0.259491 0.813872 0.016234
Si Si7 0.028417 0.201144 0.900699
O O1 0.451532 0.340825 0.440721
O O2 0.726753 0.411559 0.236910
O O3 0.690033 0.269472 0.712736
O O4 0.000000 0.500000 0.500000
O O5 0.075919 0.862879 0.435575
O O6 0.887649 0.645301 0.757558
O O7 0.972796 0.735961 0.879863
O O8 0.752744 0.316673 0.234079
O O9 0.289458 0.249620 0.089248
O O10 0.718901 0.477699 0.812882
O O11 0.953351 0.100955 0.955730
O O12 0.518678 0.927587 0.857188
O O13 0.000000 0.000000 0.000000
O O14 0.884137 0.683515 0.378857
O O15 0.226625 0.859189 0.042323
#
# Coordination Sequence:
#
# PCOD8026236 Si02
#       7
#     2   2   2   2   2   2   2
#     4  12  26  42  69 104 140 174 223 278 332 403
#     4  11  25  45  70 100 133 182 221 275 343 391
#     4  11  23  43  65 101 134 181 220 271 334 404
#     4  11  25  46  69 100 133 176 229 284 331 391
#     4  10  24  40  67  98 137 173 225 269 332 402
#     4  12  24  46  68  98 138 177 228 275 332 402
#     4  11  24  43  69  95 136 177 224 275 339 391
#
# _framework density 21.466854999999999
#
# number of rings (size 3 to 8) (size 9 to 14) (size 15 to 20)
#    0.000    0.857    4.286    2.143    4.000    5.714 
#    0.000    1.429    0.000    0.000    0.000    0.000 
#    0.000    0.000    0.000    0.000    0.000    0.000 
#
# Total GULP energy -173651.863185 kJ/mol
# GULP energy per Si atom -12403.704513 kJ/mol
# Density = 2.141800 g / cm^3
# Si number density = 21.466855 Si / 1000 Ang^3
#
#
#
# Elastic Constant Matrix: (Units=GPa)
#
#
# Indices 1 2 3 4 5 6 
#
# 1 182.0921 53.1111 38.4482 4.8196 14.3718 0.4360
# 2 53.1111 104.6910 28.5199 13.6125 9.3973 14.8516
# 3 38.4482 28.5199 65.2466 5.2391 8.1171 3.7999
# 4 4.8196 13.6125 5.2391 30.0304 -1.8949 -7.7706
# 5 14.3718 9.3973 8.1171 -1.8949 35.8146 -2.2031
# 6 0.4360 14.8516 3.7999 -7.7706 -2.2031 36.0819
#
#
#
# Elastic Compliance Matrix: (Units=1/GPa)
#
#
# Indices 1 2 3 4 5 6 
#
# 1 0.007051 -0.003068 -0.002846 0.001103 -0.001220 0.001641
# 2 -0.003068 0.014166 -0.003038 -0.007438 -0.002636 -0.007237
# 3 -0.002846 -0.003038 0.018876 -0.001949 -0.002521 -0.001277
# 4 0.001103 -0.007438 -0.001949 0.040303 0.004835 0.012228
# 5 -0.001220 -0.002636 -0.002521 0.004835 0.030191 0.004250
# 6 0.001641 -0.007237 -0.001277 0.012228 0.004250 0.033701
#
#
# Mechanical properties :
#
#
# Convention : Reuss Voigt Hill
#
# Bulk Modulus (GPa) = 45.06704 65.79868 55.43286
# Shear Modulus (GPa) = 29.48306 35.84872 32.66589
#
# Velocity S-wave (km/s) = 3.70999 4.09094 3.90512
# Velocity P-wave (km/s) = 6.27626 7.28233 6.79793
#
# Compressibility (1/GPa) = 0.02218917
#
# Stress axis : x y z
#
# Youngs Moduli (GPa) = 141.82888 70.58961 52.97815
#
# Poissons Ratio (x) = 0.21659 0.15078
# Poissons Ratio (y) = 0.43518 0.16092
# Poissons Ratio (z) = 0.40365 0.21442
#
# Static dielectric constant tensor:
#      x y z
#    x 4.130090 0.056290 0.069800 
#    y 0.056290 3.669210 -0.032620 
#    z 0.069800 -0.032620 3.852040 
# 
# 
# High freq. dielectric constant tensor:
#      x y z
#    x 1.865430 0.005900 0.002960 
#    y 0.005900 1.831790 0.002120 
#    z 0.002960 0.002120 1.845470 
# 
# From -- ./inp_files/40332.got.cif
#   From: 2010.06.25/outbox.cif.g09.slc.cpg/sg2_21_cif.got.tgz:40332.got - 2010.06.27 13:26:56.
