data_PCOD8026761
_publ_section_title
;
Structure prediction by ZEFSAII (Michael W. Deem and Ramdas Pophale) SiO2 
 PCOD8026761
Probable space group: P -1
;
_chemical_formula_sum "Si O2"
_cell_formula_units_Z 12
_cell_length_a 14.907076
_cell_length_b 18.530343
_cell_length_c 11.456052
_cell_angle_alpha 23.015752
_cell_angle_beta 32.568371
_cell_angle_gamma 22.464661
_cell_volume 472.138308
_symmetry_space_group_name_H-M "P -1"
_symmetry_group_IT_number 2
_symmetry_cell_setting 'triclinic'
loop_
_space_group_symop_operation_xyz
x,y,z
-x,-y,-z
loop_
_atom_site_type_symbol
_atom_site_label
_atom_site_fract_x
_atom_site_fract_y
_atom_site_fract_z
Si Si1 0.272564 0.750177 0.058458
Si Si2 0.276511 0.771705 0.401871
Si Si3 0.122672 0.485625 0.566062
Si Si4 0.179461 0.086477 0.253460
Si Si5 0.458413 0.880319 0.486485
Si Si6 0.671129 0.015448 0.171834
O O1 0.296582 0.510886 0.390843
O O2 0.358610 0.768039 0.814087
O O3 0.418532 0.736633 0.022562
O O4 0.000000 0.000000 0.000000
O O5 0.500000 0.500000 0.500000
O O6 0.061120 0.799010 0.597296
O O7 0.305548 0.833829 0.408626
O O8 0.210933 0.998157 0.055431
O O9 0.256389 0.339799 0.514581
O O10 0.860679 0.758702 0.424044
O O11 0.117994 0.320582 0.904933
O O12 0.344690 0.015239 0.285797
O O13 0.441355 0.065685 0.321425
#
# Coordination Sequence:
#
# PCOD8026761 Si02
#       6
#     2   2   2   2   2   2
#     4  10  24  43  67 103 143 186 244 299 356 435
#     4  11  27  49  77 109 150 195 249 303 374 440
#     4  11  24  47  73 106 146 193 246 299 372 435
#     4  11  26  49  77 109 149 196 247 307 369 444
#     4  12  24  45  74 105 146 193 244 299 376 433
#     4  11  25  47  73 109 146 191 250 303 366 442
#
# _framework density 25.416281999999999
#
# number of rings (size 3 to 8) (size 9 to 14) (size 15 to 20)
#    0.000    1.000    1.667    4.000    2.333    4.000 
#    0.000    5.000    0.000    0.000    0.000    0.000 
#    0.000    0.000    0.000    0.000    0.000    0.000 
#
# Total GULP energy -148721.550573 kJ/mol
# GULP energy per Si atom -12393.462548 kJ/mol
# Density = 2.535843 g / cm^3
# Si number density = 25.416282 Si / 1000 Ang^3
#
#
#
# Elastic Constant Matrix: (Units=GPa)
#
#
# Indices 1 2 3 4 5 6 
#
# 1 162.6566 22.8994 43.0631 -12.2066 -15.2046 1.2966
# 2 22.8994 113.4141 50.8947 15.0243 -0.6516 4.9479
# 3 43.0631 50.8947 121.0599 24.7795 -28.2306 -11.0841
# 4 -12.2066 15.0243 24.7795 34.8111 1.7500 -6.3259
# 5 -15.2046 -0.6516 -28.2306 1.7500 40.3130 3.9599
# 6 1.2966 4.9479 -11.0841 -6.3259 3.9599 23.6276
#
#
#
# Elastic Compliance Matrix: (Units=1/GPa)
#
#
# Indices 1 2 3 4 5 6 
#
# 1 0.007596 -0.000631 -0.003533 0.005341 0.000203 -0.000546
# 2 -0.000631 0.011954 -0.005621 -0.002138 -0.003386 -0.005110
# 3 -0.003533 -0.005621 0.016885 -0.010493 0.010391 0.004741
# 4 0.005341 -0.002138 -0.010493 0.040742 -0.007869 0.007459
# 5 0.000203 -0.003386 0.010391 -0.007869 0.032643 -0.002005
# 6 -0.000546 -0.005110 0.004741 0.007459 -0.002005 0.047981
#
#
# Mechanical properties :
#
#
# Convention : Reuss Voigt Hill
#
# Bulk Modulus (GPa) = 59.29313 70.09388 64.69351
# Shear Modulus (GPa) = 27.32348 38.43523 32.87935
#
# Velocity S-wave (km/s) = 3.28233 3.89296 3.60061
# Velocity P-wave (km/s) = 6.14365 6.91701 6.54177
#
# Compressibility (1/GPa) = 0.01686536
#
# Stress axis : x y z
#
# Youngs Moduli (GPa) = 131.64436 83.65563 59.22329
#
# Poissons Ratio (x) = 0.05278 0.20923
# Poissons Ratio (y) = 0.08306 0.33290
# Poissons Ratio (z) = 0.46509 0.47023
#
# Static dielectric constant tensor:
#      x y z
#    x 5.310670 0.464020 -0.628700 
#    y 0.464020 4.459920 0.030370 
#    z -0.628700 0.030370 4.930770 
# 
# 
# High freq. dielectric constant tensor:
#      x y z
#    x 2.028710 0.013570 -0.016650 
#    y 0.013570 2.006210 0.016940 
#    z -0.016650 0.016940 2.025490 
# 
# From -- ./inp_files/466836.got.cif
#   From: 2010.06.25/outbox.cif.g09.slc.cpg/sg2_234_cif.got.tgz:466836.got - 2010.06.27 13:26:56.
