data_PCOD8026485
_publ_section_title
;
Structure prediction by ZEFSAII (Michael W. Deem and Ramdas Pophale) SiO2 
 PCOD8026485
Probable space group: P -1
;
_chemical_formula_sum "Si O2"
_cell_formula_units_Z 14
_cell_length_a 12.082457
_cell_length_b 15.380185
_cell_length_c 9.588485
_cell_angle_alpha 128.189112
_cell_angle_beta 104.423079
_cell_angle_gamma 118.666298
_cell_volume 751.438190
_symmetry_space_group_name_H-M "P -1"
_symmetry_group_IT_number 2
_symmetry_cell_setting 'triclinic'
loop_
_space_group_symop_operation_xyz
x,y,z
-x,-y,-z
loop_
_atom_site_type_symbol
_atom_site_label
_atom_site_fract_x
_atom_site_fract_y
_atom_site_fract_z
Si Si1 0.645248 0.433456 0.116647
Si Si2 0.804822 0.639743 0.083791
Si Si3 0.250432 0.038670 0.721662
Si Si4 0.879817 0.464776 0.809192
Si Si5 0.440239 0.969111 0.792941
Si Si6 0.854701 0.383523 0.207350
Si Si7 0.560699 0.603746 0.768533
O O1 0.679301 0.523673 0.072348
O O2 0.821132 0.483066 0.245943
O O3 0.643925 0.520109 0.332638
O O4 0.419285 0.192451 0.803355
O O5 0.025705 0.870128 0.418217
O O6 0.826177 0.543847 0.913902
O O7 0.682582 0.619346 0.921669
O O8 0.280045 0.942201 0.704892
O O9 0.292782 0.169048 0.981327
O O10 0.026503 0.589783 0.845443
O O11 0.666094 0.229239 0.484807
O O12 0.000000 0.500000 0.000000
O O13 0.639583 0.150235 0.940084
O O14 0.500000 0.000000 0.000000
O O15 0.000000 0.500000 0.500000
O O16 0.500000 0.500000 0.500000
#
# Coordination Sequence:
#
# PCOD8026485 Si02
#       7
#     2   2   2   2   2   2   2
#     4   9  22  40  64  87 123 163 204 247 312 359
#     4  12  22  42  67  87 127 163 205 247 310 378
#     4   9  22  40  64  87 123 163 204 247 312 359
#     4  12  24  38  64  99 121 161 210 253 307 377
#     4  11  22  39  63  91 131 164 202 255 315 368
#     4  11  22  39  63  91 131 164 202 255 315 368
#     4  10  24  42  66  89 120 160 210 262 300 355
#
# _framework density 18.630939999999999
#
# number of rings (size 3 to 8) (size 9 to 14) (size 15 to 20)
#    0.857    0.571    4.286    0.857    4.000    1.714 
#    0.000    0.714    0.000    0.000    0.000    0.000 
#    0.000    0.000    0.000    0.000    0.000    0.000 
#
# Total GULP energy -173517.503393 kJ/mol
# GULP energy per Si atom -12394.107385 kJ/mol
# Density = 1.858853 g / cm^3
# Si number density = 18.630940 Si / 1000 Ang^3
#
#
#
# Elastic Constant Matrix: (Units=GPa)
#
#
# Indices 1 2 3 4 5 6 
#
# 1 97.4386 35.0723 40.8679 -3.3139 -19.7737 5.3244
# 2 35.0723 98.9609 43.8443 -8.6163 0.7236 13.9136
# 3 40.8679 43.8443 130.4170 -2.2836 -10.9185 6.3663
# 4 -3.3139 -8.6163 -2.2836 32.1774 1.0136 -0.1186
# 5 -19.7737 0.7236 -10.9185 1.0136 37.6053 -5.5691
# 6 5.3244 13.9136 6.3663 -0.1186 -5.5691 32.7310
#
#
#
# Elastic Compliance Matrix: (Units=1/GPa)
#
#
# Indices 1 2 3 4 5 6 
#
# 1 0.014149 -0.004106 -0.002526 -0.000037 0.006952 0.001118
# 2 -0.004106 0.014199 -0.003530 0.003246 -0.004346 -0.005409
# 3 -0.002526 -0.003530 0.009759 -0.000563 0.001631 0.000289
# 4 -0.000037 0.003246 -0.000563 0.031939 -0.001309 -0.001371
# 5 0.006952 -0.004346 0.001631 -0.001309 0.031697 0.005788
# 6 0.001118 -0.005409 0.000289 -0.001371 0.005788 0.033593
#
#
# Mechanical properties :
#
#
# Convention : Reuss Voigt Hill
#
# Bulk Modulus (GPa) = 56.23789 62.93172 59.58480
# Shear Modulus (GPa) = 30.94286 34.30489 32.62387
#
# Velocity S-wave (km/s) = 4.07975 4.29568 4.18911
# Velocity P-wave (km/s) = 7.24177 7.64560 7.44642
#
# Compressibility (1/GPa) = 0.01778161
#
# Stress axis : x y z
#
# Youngs Moduli (GPa) = 70.67615 70.42757 102.47349
#
# Poissons Ratio (x) = 0.28920 0.25890
# Poissons Ratio (y) = 0.29022 0.36170
# Poissons Ratio (z) = 0.17856 0.24859
#
# Static dielectric constant tensor:
#      x y z
#    x 3.402810 -0.001120 0.149560 
#    y -0.001120 3.529250 0.162250 
#    z 0.149560 0.162250 3.345060 
# 
# 
# High freq. dielectric constant tensor:
#      x y z
#    x 1.731740 -0.006980 0.003250 
#    y -0.006980 1.724460 0.002230 
#    z 0.003250 0.002230 1.717860 
# 
# From -- ./inp_files/245991.got.cif
#   From: 2010.06.25/outbox.cif.g09.slc.cpg/sg2_123_cif.got.tgz:245991.got - 2010.06.27 13:26:56.
