data_PCOD8026138
_publ_section_title
;
Structure prediction by ZEFSAII (Michael W. Deem and Ramdas Pophale) SiO2 
 PCOD8026138
Probable space group: P -1
;
_chemical_formula_sum "Si O2"
_cell_formula_units_Z 14
_cell_length_a 5.271922
_cell_length_b 27.728980
_cell_length_c 5.138418
_cell_angle_alpha 101.232520
_cell_angle_beta 59.157898
_cell_angle_gamma 101.784340
_cell_volume 627.703025
_symmetry_space_group_name_H-M "P -1"
_symmetry_group_IT_number 2
_symmetry_cell_setting 'triclinic'
loop_
_space_group_symop_operation_xyz
x,y,z
-x,-y,-z
loop_
_atom_site_type_symbol
_atom_site_label
_atom_site_fract_x
_atom_site_fract_y
_atom_site_fract_z
Si Si1 0.182718 0.519312 0.675140
Si Si2 0.668164 0.170972 0.040958
Si Si3 0.845273 0.019366 0.350931
Si Si4 0.177302 0.719416 0.780184
Si Si5 0.578351 0.370311 0.278485
Si Si6 0.976724 0.134853 0.348346
Si Si7 0.413864 0.325734 0.822571
O O1 0.500000 0.500000 0.500000
O O2 0.223372 0.578607 0.707520
O O3 0.000000 0.500000 0.500000
O O4 0.000000 0.500000 0.000000
O O5 0.650249 0.228344 0.171279
O O6 0.843698 0.146848 0.152196
O O7 0.333670 0.144333 0.162442
O O8 0.845114 0.167415 0.674697
O O9 0.879054 0.078177 0.407360
O O10 0.500000 0.000000 0.500000
O O11 0.000000 0.000000 0.500000
O O12 0.000000 0.000000 0.000000
O O13 0.223046 0.674983 0.910410
O O14 0.822173 0.719016 0.986670
O O15 0.295177 0.702712 0.418204
O O16 0.433089 0.370813 0.069718
O O17 0.343351 0.354040 0.619462
#
# Coordination Sequence:
#
# PCOD8026138 Si02
#       7
#     2   2   2   2   2   2   2
#     4  12  28  46  73 101 138 176 223 280 348 402
#     4  12  26  43  69  96 143 175 229 276 352 402
#     4  12  24  44  72 100 138 182 237 282 339 402
#     4  10  26  40  68  92 131 175 221 271 332 404
#     4  10  26  42  69  94 133 168 227 267 334 402
#     4  12  26  45  68 104 139 183 225 290 339 402
#     4  10  24  38  67  90 129 162 228 262 332 382
#
# _framework density 22.303540000000002
#
# number of rings (size 3 to 8) (size 9 to 14) (size 15 to 20)
#    0.857    0.000    0.000    6.000   10.000    0.000 
#    0.000    0.000    0.000    0.000    0.000    0.000 
#    0.000    0.000    0.000    0.000    0.000    0.000 
#
# Total GULP energy -173476.118908 kJ/mol
# GULP energy per Si atom -12391.151351 kJ/mol
# Density = 2.225278 g / cm^3
# Si number density = 22.303540 Si / 1000 Ang^3
#
#
#
# Elastic Constant Matrix: (Units=GPa)
#
#
# Indices 1 2 3 4 5 6 
#
# 1 139.5930 27.9914 66.4794 -6.5968 -0.8783 9.4276
# 2 27.9914 137.7245 12.1798 -0.0463 -7.4698 12.9208
# 3 66.4794 12.1798 160.6815 -10.6734 -0.4914 12.0261
# 4 -6.5968 -0.0463 -10.6734 29.7115 10.6069 -2.9119
# 5 -0.8783 -7.4698 -0.4914 10.6069 43.7280 -1.1393
# 6 9.4276 12.9208 12.0261 -2.9119 -1.1393 39.9766
#
#
#
# Elastic Compliance Matrix: (Units=1/GPa)
#
#
# Indices 1 2 3 4 5 6 
#
# 1 0.009271 -0.001529 -0.003625 0.000817 -0.000328 -0.000551
# 2 -0.001529 0.007852 0.000142 -0.001034 0.001504 -0.002252
# 3 -0.003625 0.000142 0.007958 0.002092 -0.000504 -0.001447
# 4 0.000817 -0.001034 0.002092 0.038117 -0.009330 0.002023
# 5 -0.000328 0.001504 -0.000504 -0.009330 0.025371 -0.000214
# 6 -0.000551 -0.002252 -0.001447 0.002023 -0.000214 0.026449
#
#
# Mechanical properties :
#
#
# Convention : Reuss Voigt Hill
#
# Bulk Modulus (GPa) = 66.41999 72.36670 69.39335
# Shear Modulus (GPa) = 38.44339 44.77311 41.60825
#
# Velocity S-wave (km/s) = 4.15618 4.48531 4.32388
# Velocity P-wave (km/s) = 7.27162 7.70330 7.49057
#
# Compressibility (1/GPa) = 0.01505571
#
# Stress axis : x y z
#
# Youngs Moduli (GPa) = 107.86874 127.36125 125.65490
#
# Poissons Ratio (x) = 0.19478 0.45551
# Poissons Ratio (y) = 0.16497 -0.01785
# Poissons Ratio (z) = 0.39103 -0.01809
#
# Static dielectric constant tensor:
#      x y z
#    x 4.143460 0.060110 0.034790 
#    y 0.060110 4.078040 -0.020760 
#    z 0.034790 -0.020760 4.190500 
# 
# 
# High freq. dielectric constant tensor:
#      x y z
#    x 1.874730 0.010100 0.007180 
#    y 0.010100 1.885030 -0.003540 
#    z 0.007180 -0.003540 1.902790 
# 
# From -- ./inp_files/14587.got.cif
#   From: 2010.06.25/outbox.cif.g09.slc.cpg/sg2_8_cif.got.tgz:14587.got - 2010.06.27 13:26:56.
