data_PCOD8026125
_publ_section_title
;
Structure prediction by ZEFSAII (Michael W. Deem and Ramdas Pophale) SiO2 
 PCOD8026125
Probable space group: P -1
;
_chemical_formula_sum "Si O2"
_cell_formula_units_Z 14
_cell_length_a 5.147413
_cell_length_b 12.178017
_cell_length_c 16.232415
_cell_angle_alpha 59.771450
_cell_angle_beta 55.061080
_cell_angle_gamma 76.206560
_cell_volume 718.922711
_symmetry_space_group_name_H-M "P -1"
_symmetry_group_IT_number 2
_symmetry_cell_setting 'triclinic'
loop_
_space_group_symop_operation_xyz
x,y,z
-x,-y,-z
loop_
_atom_site_type_symbol
_atom_site_label
_atom_site_fract_x
_atom_site_fract_y
_atom_site_fract_z
Si Si1 0.644785 0.683587 0.770662
Si Si2 0.698365 0.926422 0.377251
Si Si3 0.331079 0.805036 0.634833
Si Si4 0.348002 0.608851 0.139691
Si Si5 0.584169 0.076291 0.750487
Si Si6 0.359733 0.800170 0.931361
Si Si7 0.759683 0.725636 0.156460
O O1 0.576732 0.733141 0.673024
O O2 0.577031 0.532549 0.844634
O O3 0.401882 0.746331 0.852549
O O4 0.006014 0.719409 0.716616
O O5 0.490468 0.826564 0.508701
O O6 0.511534 0.939112 0.321491
O O7 0.047832 0.876450 0.321770
O O8 0.747660 0.062262 0.360941
O O9 0.477875 0.644395 0.192886
O O10 0.969237 0.625971 0.204420
O O11 0.514332 0.705107 0.004625
O O12 0.373046 0.178698 0.790635
O O13 0.524484 0.941237 0.858245
O O14 0.983963 0.803603 0.018943
#
# Coordination Sequence:
#
# PCOD8026125 Si02
#       7
#     2   2   2   2   2   2   2
#     4  12  22  40  65  89 127 158 197 251 304 356
#     4  11  23  40  63  93 120 152 202 257 310 355
#     4  11  23  40  63  93 120 152 202 257 310 355
#     4  10  24  39  59  88 130 162 204 236 290 361
#     4  12  22  40  65  89 127 158 197 251 304 356
#     4  10  24  36  61  96 121 162 196 246 298 366
#     4  10  24  39  59  88 130 162 204 236 290 361
#
# _framework density 19.473582
#
# number of rings (size 3 to 8) (size 9 to 14) (size 15 to 20)
#    0.857    0.286    2.857    3.429    4.000    3.429 
#    0.000    0.000    0.000   17.143    0.000    0.000 
#    0.000    0.000    0.000    0.000    0.000    0.000 
#
# Total GULP energy -173605.388848 kJ/mol
# GULP energy per Si atom -12400.384918 kJ/mol
# Density = 1.942926 g / cm^3
# Si number density = 19.473582 Si / 1000 Ang^3
#
#
#
# Elastic Constant Matrix: (Units=GPa)
#
#
# Indices 1 2 3 4 5 6 
#
# 1 97.6356 4.7654 16.4099 1.3768 5.3720 3.4145
# 2 4.7654 65.0896 18.8242 10.8604 0.2795 -3.9152
# 3 16.4099 18.8242 65.0064 8.5240 -2.5939 -2.8198
# 4 1.3768 10.8604 8.5240 11.3589 -5.6695 -2.2114
# 5 5.3720 0.2795 -2.5939 -5.6695 20.3801 2.4764
# 6 3.4145 -3.9152 -2.8198 -2.2114 2.4764 32.4436
#
#
#
# Elastic Compliance Matrix: (Units=1/GPa)
#
#
# Indices 1 2 3 4 5 6 
#
# 1 0.010962 0.000185 -0.002835 -0.001351 -0.003482 -0.001204
# 2 0.000185 0.019623 -0.003422 -0.019077 -0.006209 0.001225
# 3 -0.002835 -0.003422 0.018437 -0.009924 0.000284 0.000790
# 4 -0.001351 -0.019077 -0.009924 0.132385 0.035786 0.003270
# 5 -0.003482 -0.006209 0.000284 0.035786 0.060369 -0.002527
# 6 -0.001204 0.001225 0.000790 0.003270 -0.002527 0.031582
#
#
# Mechanical properties :
#
#
# Convention : Reuss Voigt Hill
#
# Bulk Modulus (GPa) = 27.11636 34.19230 30.65433
# Shear Modulus (GPa) = 16.79010 25.35200 21.07105
#
# Velocity S-wave (km/s) = 2.93951 3.61205 3.29299
# Velocity P-wave (km/s) = 5.04736 5.91543 5.49855
#
# Compressibility (1/GPa) = 0.03687810
#
# Stress axis : x y z
#
# Youngs Moduli (GPa) = 91.22117 50.96069 54.23980
#
# Poissons Ratio (x) = -0.00944 0.15377
# Poissons Ratio (y) = -0.01690 0.18562
# Poissons Ratio (z) = 0.25861 0.17440
#
# Static dielectric constant tensor:
#      x y z
#    x 3.534260 -0.018490 0.021470 
#    y -0.018490 3.418170 -0.002410 
#    z 0.021470 -0.002410 3.494030 
# 
# 
# High freq. dielectric constant tensor:
#      x y z
#    x 1.767790 -0.001550 0.002310 
#    y -0.001550 1.750220 0.002330 
#    z 0.002310 0.002330 1.747590 
# 
# From -- ./inp_files/82803.got.cif
#   From: 2010.06.25/outbox.cif.g09.slc.cpg/sg2_42_cif.got.tgz:82803.got - 2010.06.27 13:26:56.
