data_PCOD8026766
_publ_section_title
;
Structure prediction by ZEFSAII (Michael W. Deem and Ramdas Pophale) SiO2 
 PCOD8026766
Probable space group: P -1
;
_chemical_formula_sum "Si O2"
_cell_formula_units_Z 16
_cell_length_a 23.920103
_cell_length_b 14.568694
_cell_length_c 5.340522
_cell_angle_alpha 101.174575
_cell_angle_beta 76.394535
_cell_angle_gamma 158.598505
_cell_volume 658.386492
_symmetry_space_group_name_H-M "P -1"
_symmetry_group_IT_number 2
_symmetry_cell_setting 'triclinic'
loop_
_space_group_symop_operation_xyz
x,y,z
-x,-y,-z
loop_
_atom_site_type_symbol
_atom_site_label
_atom_site_fract_x
_atom_site_fract_y
_atom_site_fract_z
Si Si1 0.268549 0.596794 0.249814
Si Si2 0.088321 0.209202 0.857710
Si Si3 0.667396 0.815444 0.718993
Si Si4 0.627518 0.401167 0.518529
Si Si5 0.138120 0.635128 0.901273
Si Si6 0.327461 0.896579 0.327468
Si Si7 0.454713 0.317427 0.725324
Si Si8 0.990055 0.225641 0.694268
O O1 0.386627 0.709598 0.341460
O O2 0.347259 0.814794 0.230256
O O3 0.106136 0.369122 0.434834
O O4 0.225620 0.475595 0.982811
O O5 0.191312 0.311344 0.594749
O O6 0.961324 0.090678 0.825728
O O7 0.000000 0.000000 0.000000
O O8 0.531857 0.534917 0.733966
O O9 0.638026 0.839041 0.522844
O O10 0.833165 0.018327 0.613077
O O11 0.666164 0.869395 0.013377
O O12 0.582151 0.430886 0.710167
O O13 0.503352 0.199166 0.318959
O O14 0.232838 0.785922 0.619110
O O15 0.062583 0.418191 0.886064
O O16 0.248981 0.819570 0.120317
O O17 0.000000 0.500000 0.000000
#
# Coordination Sequence:
#
# PCOD8026766 Si02
#       8
#     2   2   2   2   2   2   2   2
#     4  10  24  46  66 101 137 184 233 288 354 411
#     4  11  26  43  72 102 139 187 236 292 353 417
#     4  10  24  43  67  92 140 178 225 282 343 412
#     4  11  27  42  71 103 139 182 238 293 345 422
#     4  11  25  44  71 105 141 184 235 287 349 422
#     4  11  25  46  71 103 141 181 235 290 354 414
#     4  10  25  42  64 102 130 181 229 279 344 408
#     4  10  24  43  69 100 137 187 228 293 352 417
#
# _framework density 24.301836000000002
#
# number of rings (size 3 to 8) (size 9 to 14) (size 15 to 20)
#    0.000    1.500    1.250    0.750   12.250    2.500 
#    0.000    0.000    0.000    0.000    0.000    0.000 
#    0.000    0.000    0.000    0.000    0.000    0.000 
#
# Total GULP energy -198373.237299 kJ/mol
# GULP energy per Si atom -12398.327331 kJ/mol
# Density = 2.424652 g / cm^3
# Si number density = 24.301836 Si / 1000 Ang^3
#
#
#
# Elastic Constant Matrix: (Units=GPa)
#
#
# Indices 1 2 3 4 5 6 
#
# 1 138.7696 18.5920 38.6322 -21.0589 3.4270 33.9888
# 2 18.5920 46.0688 6.2826 -8.5037 10.8216 18.6623
# 3 38.6322 6.2826 109.3108 6.2191 6.6269 16.3224
# 4 -21.0589 -8.5037 6.2191 27.1928 7.0777 7.7820
# 5 3.4270 10.8216 6.6269 7.0777 34.0030 2.8576
# 6 33.9888 18.6623 16.3224 7.7820 2.8576 42.8470
#
#
#
# Elastic Compliance Matrix: (Units=1/GPa)
#
#
# Indices 1 2 3 4 5 6 
#
# 1 0.014612 0.006177 -0.003931 0.020186 -0.005523 -0.016082
# 2 0.006177 0.038977 -0.001244 0.028901 -0.016654 -0.025542
# 3 -0.003931 -0.001244 0.010867 -0.006069 -0.000115 0.000631
# 4 0.020186 0.028901 -0.006069 0.080177 -0.023437 -0.039288
# 5 -0.005523 -0.016654 -0.000115 -0.023437 0.039047 0.013331
# 6 -0.016082 -0.025542 0.000631 -0.039288 0.013331 0.053227
#
#
# Mechanical properties :
#
#
# Convention : Reuss Voigt Hill
#
# Bulk Modulus (GPa) = 15.04670 46.79586 30.92128
# Shear Modulus (GPa) = 19.45103 36.18470 27.81786
#
# Velocity S-wave (km/s) = 2.83219 3.86290 3.38698
# Velocity P-wave (km/s) = 4.11097 6.26051 5.29594
#
# Compressibility (1/GPa) = 0.06645976
#
# Stress axis : x y z
#
# Youngs Moduli (GPa) = 68.43842 25.65613 92.01934
#
# Poissons Ratio (x) = -0.15849 0.36176
# Poissons Ratio (y) = -0.42277 0.11449
# Poissons Ratio (z) = 0.26906 0.03192
#
# Static dielectric constant tensor:
#      x y z
#    x 4.754010 -0.011050 -0.112610 
#    y -0.011050 4.053100 0.107910 
#    z -0.112610 0.107910 4.555300 
# 
# 
# High freq. dielectric constant tensor:
#      x y z
#    x 1.987840 0.002160 -0.006550 
#    y 0.002160 1.954970 0.004280 
#    z -0.006550 0.004280 1.964010 
# 
# From -- ./inp_files/69037.got.cif
#   From: 2010.06.25/outbox.cif.g09.slc.cpg/sg2_35_cif.got.tgz:69037.got - 2010.06.27 13:26:56.
