data_PCOD8026425
_publ_section_title
;
Structure prediction by ZEFSAII (Michael W. Deem and Ramdas Pophale) SiO2 
 PCOD8026425
Probable space group: P -1
;
_chemical_formula_sum "Si O2"
_cell_formula_units_Z 14
_cell_length_a 14.106510
_cell_length_b 4.969369
_cell_length_c 13.826152
_cell_angle_alpha 78.862430
_cell_angle_beta 38.302803
_cell_angle_gamma 74.516134
_cell_volume 578.719175
_symmetry_space_group_name_H-M "P -1"
_symmetry_group_IT_number 2
_symmetry_cell_setting 'triclinic'
loop_
_space_group_symop_operation_xyz
x,y,z
-x,-y,-z
loop_
_atom_site_type_symbol
_atom_site_label
_atom_site_fract_x
_atom_site_fract_y
_atom_site_fract_z
Si Si1 0.195253 0.795468 0.475786
Si Si2 0.331770 0.470670 0.679161
Si Si3 0.255555 0.603530 0.233342
Si Si4 0.029411 0.321156 0.678138
Si Si5 0.120600 0.041326 0.817059
Si Si6 0.530142 0.173589 0.090533
Si Si7 0.547851 0.598837 0.204740
O O1 0.171977 0.771413 0.380402
O O2 0.142521 0.113893 0.530129
O O3 0.370480 0.677036 0.378235
O O4 0.091988 0.604413 0.625533
O O5 0.500000 0.500000 0.500000
O O6 0.259910 0.206428 0.719988
O O7 0.340132 0.445115 0.790163
O O8 0.208062 0.742721 0.730063
O O9 0.344299 0.293262 0.216813
O O10 0.385466 0.772341 0.080119
O O11 0.138654 0.587406 0.241295
O O12 0.015022 0.186278 0.803510
O O13 0.000000 0.000000 0.000000
O O14 0.585990 0.319424 0.130558
O O15 0.574723 0.846084 0.095545
#
# Coordination Sequence:
#
# PCOD8026425 Si02
#       7
#     2   2   2   2   2   2   2
#     4  11  24  43  65 104 131 177 219 283 327 425
#     4  12  26  47  76 103 140 190 246 296 351 418
#     4  10  24  42  68  96 139 174 223 269 344 405
#     4  12  25  42  69  94 141 177 223 270 354 396
#     4  12  28  48  71 108 147 184 243 299 353 423
#     4  10  24  42  64 102 130 173 223 280 323 421
#     4  11  23  42  71  93 137 172 230 274 347 389
#
# _framework density 24.191351000000001
#
# number of rings (size 3 to 8) (size 9 to 14) (size 15 to 20)
#    0.000    0.857    0.000    6.857    4.000    9.714 
#    0.000    0.000    0.000    0.000    0.000    0.000 
#    0.000    0.000    0.000    0.000    0.000    0.000 
#
# Total GULP energy -173638.285149 kJ/mol
# GULP energy per Si atom -12402.734653 kJ/mol
# Density = 2.413629 g / cm^3
# Si number density = 24.191351 Si / 1000 Ang^3
#
#
#
# Elastic Constant Matrix: (Units=GPa)
#
#
# Indices 1 2 3 4 5 6 
#
# 1 75.7730 35.0333 -32.2956 -4.9961 15.6110 -10.0677
# 2 35.0333 55.4915 30.8416 -12.4204 -5.9659 3.5181
# 3 -32.2956 30.8416 76.8868 -5.7102 4.0272 4.9082
# 4 -4.9961 -12.4204 -5.7102 33.0967 2.0362 4.4282
# 5 15.6110 -5.9659 4.0272 2.0362 36.0584 -8.4509
# 6 -10.0677 3.5181 4.9082 4.4282 -8.4509 34.1456
#
#
#
# Elastic Compliance Matrix: (Units=1/GPa)
#
#
# Indices 1 2 3 4 5 6 
#
# 1 -0.088324 0.112611 -0.083921 0.012135 0.062838 -0.011603
# 2 0.112611 -0.117675 0.097014 -0.007617 -0.075416 0.013705
# 3 -0.083921 0.097014 -0.062362 0.011369 0.055542 -0.013503
# 4 0.012135 -0.007617 0.011369 0.032345 -0.010567 -0.004081
# 5 0.062838 -0.075416 0.055542 -0.010567 -0.013740 0.016284
# 6 -0.011603 0.013705 -0.013503 -0.004081 0.016284 0.030954
#
#
# Mechanical properties :
#
#
# Convention : Reuss Voigt Hill
#
# Bulk Modulus (GPa) = -58.98780 30.58998 -14.19891
# Shear Modulus (GPa) = -10.50727 32.29825 10.89549
#
# Velocity S-wave (km/s) = -2.08634 3.65789 2.12454
# Velocity P-wave (km/s) = 5.49914 5.52383 0.36885
#
# Compressibility (1/GPa) = -0.01695266
#
# Stress axis : x y z
#
# Youngs Moduli (GPa) = -11.32195 -8.49800 -16.03540
#
# Poissons Ratio (x) = 0.95697 -1.34570
# Poissons Ratio (y) = 1.27498 1.55565
# Poissons Ratio (z) = -0.95015 0.82442
#
# Static dielectric constant tensor:
#      x y z
#    x 4.400630 -0.031410 -0.014430 
#    y -0.031410 4.331510 -0.103190 
#    z -0.014430 -0.103190 4.318830 
# 
# 
# High freq. dielectric constant tensor:
#      x y z
#    x 1.970500 -0.001190 0.008810 
#    y -0.001190 1.964090 -0.007280 
#    z 0.008810 -0.007280 1.961610 
# 
# From -- ./inp_files/524702.got.cif
#   From: 2010.06.25/outbox.cif.g09.slc.cpg/sg2_263_cif.got.tgz:524702.got - 2010.06.27 13:26:56.
