data_PCOD8026925
_publ_section_title
;
Structure prediction by ZEFSAII (Michael W. Deem and Ramdas Pophale) SiO2 
 PCOD8026925
Probable space group: P -1
;
_chemical_formula_sum "Si O2"
_cell_formula_units_Z 16
_cell_length_a 8.947461
_cell_length_b 8.310958
_cell_length_c 29.097776
_cell_angle_alpha 44.075787
_cell_angle_beta 31.825523
_cell_angle_gamma 43.955992
_cell_volume 757.547711
_symmetry_space_group_name_H-M "P -1"
_symmetry_group_IT_number 2
_symmetry_cell_setting 'triclinic'
loop_
_space_group_symop_operation_xyz
x,y,z
-x,-y,-z
loop_
_atom_site_type_symbol
_atom_site_label
_atom_site_fract_x
_atom_site_fract_y
_atom_site_fract_z
Si Si1 0.296627 0.282034 0.388947
Si Si2 0.145916 0.968861 0.113868
Si Si3 0.131451 0.101834 0.712934
Si Si4 0.692423 0.192422 0.729452
Si Si5 0.184327 0.601501 0.584349
Si Si6 0.304632 0.418165 0.965311
Si Si7 0.820164 0.953792 0.446517
Si Si8 0.825144 0.056772 0.082107
O O1 0.416542 0.514665 0.304634
O O2 0.055279 0.274327 0.416355
O O3 0.568958 0.039494 0.362253
O O4 0.139449 0.262798 0.482591
O O5 0.384371 0.704722 0.117739
O O6 0.875777 0.012334 0.211329
O O7 0.039351 0.984540 0.085405
O O8 0.287686 0.183767 0.047034
O O9 0.109249 0.376873 0.672928
O O10 0.854994 0.094229 0.754849
O O11 0.413672 0.089209 0.820142
O O12 0.919976 0.114120 0.644357
O O13 0.500000 0.500000 0.500000
O O14 0.170916 0.793846 0.587283
O O15 0.334244 0.651763 0.937088
O O16 0.000000 0.500000 0.000000
O O17 0.500000 0.000000 0.500000
O O18 0.000000 0.000000 0.000000
#
# Coordination Sequence:
#
# PCOD8026925 Si02
#       8
#     2   2   2   2   2   2   2   2
#     4  11  24  45  67  94 137 182 218 268 332 396
#     4  10  24  43  71  95 127 181 221 267 334 401
#     4  11  25  43  67  97 132 176 227 265 327 404
#     4  11  27  42  66  99 137 175 221 279 333 393
#     4  11  24  42  67  98 131 176 224 269 322 401
#     4   9  22  44  68  94 127 174 222 272 327 396
#     4  12  23  45  67  98 137 175 220 278 331 384
#     4  11  27  44  66 102 138 170 221 280 334 392
#
# _framework density 21.120781000000001
#
# number of rings (size 3 to 8) (size 9 to 14) (size 15 to 20)
#    0.000    1.250    2.500    1.500   10.500    4.500 
#    0.000    0.000    0.000    0.000    0.000    0.000 
#    0.000    0.000    0.000    0.000    0.000    0.000 
#
# Total GULP energy -198276.019820 kJ/mol
# GULP energy per Si atom -12392.251239 kJ/mol
# Density = 2.107271 g / cm^3
# Si number density = 21.120781 Si / 1000 Ang^3
#
#
#
# Elastic Constant Matrix: (Units=GPa)
#
#
# Indices 1 2 3 4 5 6 
#
# 1 110.5962 50.4884 61.9315 -12.0891 -3.9022 9.9358
# 2 50.4884 123.2655 34.6757 -8.7137 -5.5849 2.8525
# 3 61.9315 34.6757 130.8594 2.2599 3.1266 6.9269
# 4 -12.0891 -8.7137 2.2599 29.0467 6.1299 -5.0993
# 5 -3.9022 -5.5849 3.1266 6.1299 45.3706 1.2119
# 6 9.9358 2.8525 6.9269 -5.0993 1.2119 26.8182
#
#
#
# Elastic Compliance Matrix: (Units=1/GPa)
#
#
# Indices 1 2 3 4 5 6 
#
# 1 0.015052 -0.004036 -0.006011 0.004919 0.000619 -0.002687
# 2 -0.004036 0.010122 -0.000861 0.001421 0.000743 0.000878
# 3 -0.006011 -0.000861 0.010858 -0.003625 -0.000851 -0.001137
# 4 0.004919 0.001421 -0.003625 0.039331 -0.004644 0.006651
# 5 0.000619 0.000743 -0.000851 -0.004644 0.022925 -0.002008
# 6 -0.002687 0.000878 -0.001137 0.006651 -0.002008 0.039839
#
#
# Mechanical properties :
#
#
# Convention : Reuss Voigt Hill
#
# Bulk Modulus (GPa) = 70.34875 73.21246 71.78061
# Shear Modulus (GPa) = 30.36181 34.75547 32.55864
#
# Velocity S-wave (km/s) = 3.79559 4.06095 3.93051
# Velocity P-wave (km/s) = 7.25182 7.53176 7.39311
#
# Compressibility (1/GPa) = 0.01421489
#
# Stress axis : x y z
#
# Youngs Moduli (GPa) = 66.43811 98.79892 92.09801
#
# Poissons Ratio (x) = 0.39875 0.55364
# Poissons Ratio (y) = 0.26814 0.07927
# Poissons Ratio (z) = 0.39939 0.08504
#
# Static dielectric constant tensor:
#      x y z
#    x 3.869380 0.161660 -0.077990 
#    y 0.161660 4.374720 -0.128380 
#    z -0.077990 -0.128380 3.902820 
# 
# 
# High freq. dielectric constant tensor:
#      x y z
#    x 1.823580 0.002380 -0.006370 
#    y 0.002380 1.843310 -0.005430 
#    z -0.006370 -0.005430 1.837630 
# 
# From -- ./inp_files/47596.got.cif
#   From: 2010.06.25/outbox.cif.g09.slc.cpg/sg2_24_cif.got.tgz:47596.got - 2010.06.27 13:26:56.
