data_PCOD8026754
_publ_section_title
;
Structure prediction by ZEFSAII (Michael W. Deem and Ramdas Pophale) SiO2 
 PCOD8026754
Probable space group: P -1
;
_chemical_formula_sum "Si O2"
_cell_formula_units_Z 16
_cell_length_a 24.036932
_cell_length_b 11.742700
_cell_length_c 5.135781
_cell_angle_alpha 81.508790
_cell_angle_beta 72.005490
_cell_angle_gamma 31.106550
_cell_volume 691.852242
_symmetry_space_group_name_H-M "P -1"
_symmetry_group_IT_number 2
_symmetry_cell_setting 'triclinic'
loop_
_space_group_symop_operation_xyz
x,y,z
-x,-y,-z
loop_
_atom_site_type_symbol
_atom_site_label
_atom_site_fract_x
_atom_site_fract_y
_atom_site_fract_z
Si Si1 0.255317 0.804553 0.725870
Si Si2 0.927238 0.700335 0.236294
Si Si3 0.249141 0.419186 0.441349
Si Si4 0.273274 0.517729 0.876397
Si Si5 0.632706 0.295227 0.922636
Si Si6 0.356474 0.977122 0.929186
Si Si7 0.862515 0.593943 0.644426
Si Si8 0.459129 0.903488 0.298241
O O1 0.217120 0.736549 0.817060
O O2 0.307029 0.742576 0.390065
O O3 0.149414 0.069631 0.860674
O O4 0.352673 0.652960 0.857513
O O5 0.844683 0.749740 0.485743
O O6 0.011513 0.625027 0.337590
O O7 0.000000 0.500000 0.000000
O O8 0.228621 0.505816 0.725870
O O9 0.154618 0.477629 0.520221
O O10 0.381234 0.150524 0.312629
O O11 0.227998 0.552827 0.209396
O O12 0.411783 0.283862 0.751802
O O13 0.688448 0.076722 0.965966
O O14 0.500000 0.500000 0.000000
O O15 0.240789 0.249211 0.049124
O O16 0.452273 0.846666 0.053232
O O17 0.407579 0.908984 0.594189
#
# Coordination Sequence:
#
# PCOD8026754 Si02
#       8
#     2   2   2   2   2   2   2   2
#     4  12  26  44  67 100 139 179 227 272 344 407
#     4  11  25  45  75  98 132 170 226 294 354 400
#     4  11  24  41  69  93 137 177 230 274 318 402
#     4  12  24  44  63  98 139 185 221 266 331 399
#     4  12  23  40  64  98 141 182 212 268 339 415
#     4  11  21  37  64 100 135 162 223 278 334 399
#     4  10  24  43  67 102 124 170 227 289 345 387
#     4  11  22  38  66  99 134 181 222 271 328 396
#
# _framework density 23.126324
#
# number of rings (size 3 to 8) (size 9 to 14) (size 15 to 20)
#    0.000    0.750    1.250    7.125    8.750    0.000 
#    0.000    1.250    0.000    0.000    0.000    0.000 
#    0.000    0.000    0.000    0.000    0.000    0.000 
#
# Total GULP energy -198444.947030 kJ/mol
# GULP energy per Si atom -12402.809189 kJ/mol
# Density = 2.307369 g / cm^3
# Si number density = 23.126324 Si / 1000 Ang^3
#
#
#
# Elastic Constant Matrix: (Units=GPa)
#
#
# Indices 1 2 3 4 5 6 
#
# 1 144.3744 39.5518 18.9791 -10.7738 0.8095 -8.2648
# 2 39.5518 93.0416 21.0803 -14.4363 -11.4316 6.7533
# 3 18.9791 21.0803 90.1064 -23.1774 3.4921 -5.2737
# 4 -10.7738 -14.4363 -23.1774 34.4302 0.2556 -5.8376
# 5 0.8095 -11.4316 3.4921 0.2556 29.4266 0.3733
# 6 -8.2648 6.7533 -5.2737 -5.8376 0.3733 31.6033
#
#
#
# Elastic Compliance Matrix: (Units=1/GPa)
#
#
# Indices 1 2 3 4 5 6 
#
# 1 0.008264 -0.003669 -0.000266 0.001421 -0.001674 0.003183
# 2 -0.003669 0.014259 -0.002385 0.002500 0.005952 -0.004013
# 3 -0.000266 -0.002385 0.014540 0.009515 -0.002787 0.004657
# 4 0.001421 0.002500 0.009515 0.038392 -0.000639 0.008524
# 5 -0.001674 0.005952 -0.002787 -0.000639 0.036712 -0.002726
# 6 0.003183 -0.004013 0.004657 0.008524 -0.002726 0.035716
#
#
# Mechanical properties :
#
#
# Convention : Reuss Voigt Hill
#
# Bulk Modulus (GPa) = 40.94617 54.08276 47.51446
# Shear Modulus (GPa) = 29.64462 35.61942 32.63202
#
# Velocity S-wave (km/s) = 3.58419 3.92881 3.76045
# Velocity P-wave (km/s) = 5.90529 6.63455 6.28051
#
# Compressibility (1/GPa) = 0.02442231
#
# Stress axis : x y z
#
# Youngs Moduli (GPa) = 121.00420 70.13299 68.77573
#
# Poissons Ratio (x) = 0.25733 0.01827
# Poissons Ratio (y) = 0.44398 0.16406
# Poissons Ratio (z) = 0.03214 0.16730
#
# Static dielectric constant tensor:
#      x y z
#    x 4.465000 0.077470 0.054940 
#    y 0.077470 4.148650 -0.256380 
#    z 0.054940 -0.256380 4.129020 
# 
# 
# High freq. dielectric constant tensor:
#      x y z
#    x 1.926080 0.000550 0.006300 
#    y 0.000550 1.895490 -0.019350 
#    z 0.006300 -0.019350 1.913650 
# 
# From -- ./inp_files/123623.got.cif
#   From: 2010.06.25/outbox.cif.g09.slc.cpg/sg2_62_cif.got.tgz:123623.got - 2010.06.27 13:26:56.
