data_PCOD8026353
_publ_section_title
;
Structure prediction by ZEFSAII (Michael W. Deem and Ramdas Pophale) SiO2 
 PCOD8026353
Probable space group: P -1
;
_chemical_formula_sum "Si O2"
_cell_formula_units_Z 16
_cell_length_a 9.888903
_cell_length_b 8.940684
_cell_length_c 13.411300
_cell_angle_alpha 52.665719
_cell_angle_beta 104.054683
_cell_angle_gamma 72.901220
_cell_volume 750.090121
_symmetry_space_group_name_H-M "P -1"
_symmetry_group_IT_number 2
_symmetry_cell_setting 'triclinic'
loop_
_space_group_symop_operation_xyz
x,y,z
-x,-y,-z
loop_
_atom_site_type_symbol
_atom_site_label
_atom_site_fract_x
_atom_site_fract_y
_atom_site_fract_z
Si Si1 0.019284 0.289516 0.145102
Si Si2 0.441469 0.398667 0.451107
Si Si3 0.796535 0.265292 0.269998
Si Si4 0.987583 0.259196 0.492534
Si Si5 0.557902 0.538739 0.799196
Si Si6 0.612171 0.913138 0.654347
Si Si7 0.086265 0.931609 0.936520
Si Si8 0.921482 0.399295 0.642648
O O1 0.193497 0.163027 0.291989
O O2 0.864392 0.367921 0.162122
O O3 0.025558 0.117991 0.134431
O O4 0.000000 0.500000 0.000000
O O5 0.500000 0.500000 0.500000
O O6 0.508456 0.396285 0.353111
O O7 0.238929 0.550440 0.344471
O O8 0.515232 0.143532 0.610323
O O9 0.854589 0.269459 0.389988
O O10 0.591911 0.423209 0.172010
O O11 0.861635 0.007336 0.353972
O O12 0.890095 0.391429 0.522758
O O13 0.059255 0.398434 0.404749
O O14 0.612877 0.702514 0.784403
O O15 0.717307 0.277833 0.942409
O O16 0.500000 0.000000 0.500000
O O17 0.081555 0.149394 0.806482
O O18 0.000000 0.000000 0.000000
#
# Coordination Sequence:
#
# PCOD8026353 Si02
#       8
#     2   2   2   2   2   2   2   2
#     4  12  26  47  71 104 138 189 230 276 357 425
#     4  11  22  37  67  97 138 175 234 287 338 402
#     4  11  25  43  71  97 139 172 233 293 344 407
#     4  10  24  41  68  97 133 177 227 290 355 398
#     4  11  24  43  64 103 134 182 230 287 344 404
#     4  10  24  41  68 102 136 174 236 282 338 405
#     4  12  25  45  71  96 142 187 232 280 347 422
#     4  11  22  43  64  98 134 183 228 281 350 412
#
# _framework density 21.330770999999999
#
# number of rings (size 3 to 8) (size 9 to 14) (size 15 to 20)
#    0.000    1.000    3.750    2.250   12.250    0.500 
#    0.000    0.625    0.000    0.000    0.000    0.000 
#    0.000    0.000    0.000    0.000    0.000    0.000 
#
# Total GULP energy -198352.471691 kJ/mol
# GULP energy per Si atom -12397.029481 kJ/mol
# Density = 2.128222 g / cm^3
# Si number density = 21.330771 Si / 1000 Ang^3
#
#
#
# Elastic Constant Matrix: (Units=GPa)
#
#
# Indices 1 2 3 4 5 6 
#
# 1 148.9325 52.5682 59.8604 -13.1770 7.6970 -10.7638
# 2 52.5682 103.3396 31.1148 -11.4811 1.1895 5.4280
# 3 59.8604 31.1148 106.5074 -25.8435 -4.4913 -1.2997
# 4 -13.1770 -11.4811 -25.8435 41.0164 3.2778 -1.4347
# 5 7.6970 1.1895 -4.4913 3.2778 39.1077 -6.5218
# 6 -10.7638 5.4280 -1.2997 -1.4347 -6.5218 34.9123
#
#
#
# Elastic Compliance Matrix: (Units=1/GPa)
#
#
# Indices 1 2 3 4 5 6 
#
# 1 0.010358 -0.004031 -0.004823 -0.000575 -0.001877 0.003266
# 2 -0.004031 0.012377 -0.001061 0.001417 -0.000360 -0.003216
# 3 -0.004823 -0.001061 0.014171 0.006917 0.002007 -0.000135
# 4 -0.000575 0.001417 0.006917 0.029094 -0.001443 0.000786
# 5 -0.001877 -0.000360 0.002007 -0.001443 0.027061 0.004548
# 6 0.003266 -0.003216 -0.000135 0.000786 0.004548 0.031027
#
#
# Mechanical properties :
#
#
# Convention : Reuss Voigt Hill
#
# Bulk Modulus (GPa) = 58.55779 71.76293 65.16036
# Shear Modulus (GPa) = 33.42067 37.35636 35.38851
#
# Velocity S-wave (km/s) = 3.96255 4.18938 4.07755
# Velocity P-wave (km/s) = 6.96043 7.55759 7.26515
#
# Compressibility (1/GPa) = 0.01707715
#
# Stress axis : x y z
#
# Youngs Moduli (GPa) = 96.54653 80.79380 70.56728
#
# Poissons Ratio (x) = 0.32565 0.34032
# Poissons Ratio (y) = 0.38915 0.07487
# Poissons Ratio (z) = 0.46561 0.08572
#
# Static dielectric constant tensor:
#      x y z
#    x 3.808640 0.239750 -0.185330 
#    y 0.239750 4.108480 -0.147390 
#    z -0.185330 -0.147390 3.795600 
# 
# 
# High freq. dielectric constant tensor:
#      x y z
#    x 1.828360 0.007750 -0.000850 
#    y 0.007750 1.849160 -0.010370 
#    z -0.000850 -0.010370 1.832440 
# 
# From -- ./inp_files/272686.got.cif
#   From: 2010.06.25/outbox.cif.g09.slc.cpg/sg2_137_cif.got.tgz:272686.got - 2010.06.27 13:26:56.
