data_PCOD8026416
_publ_section_title
;
Structure prediction by ZEFSAII (Michael W. Deem and Ramdas Pophale) SiO2 
 PCOD8026416
Probable space group: P -1
;
_chemical_formula_sum "Si O2"
_cell_formula_units_Z 16
_cell_length_a 21.704331
_cell_length_b 18.463860
_cell_length_c 9.579355
_cell_angle_alpha 147.179131
_cell_angle_beta 33.698536
_cell_angle_gamma 162.033561
_cell_volume 629.519643
_symmetry_space_group_name_H-M "P -1"
_symmetry_group_IT_number 2
_symmetry_cell_setting 'triclinic'
loop_
_space_group_symop_operation_xyz
x,y,z
-x,-y,-z
loop_
_atom_site_type_symbol
_atom_site_label
_atom_site_fract_x
_atom_site_fract_y
_atom_site_fract_z
Si Si1 0.167475 0.769018 0.970947
Si Si2 0.042061 0.234055 0.198402
Si Si3 0.347535 0.117215 0.974477
Si Si4 0.809753 0.223119 0.754505
Si Si5 0.264584 0.526019 0.992447
Si Si6 0.191320 0.243856 0.449036
Si Si7 0.267580 0.305026 0.102542
Si Si8 0.575508 0.031989 0.631452
O O1 0.933067 0.486751 0.969021
O O2 0.163410 0.883266 0.047596
O O3 0.345069 0.839231 0.709118
O O4 0.242002 0.893610 0.186190
O O5 0.241357 0.385082 0.154902
O O6 0.983579 0.319213 0.500712
O O7 0.073888 0.278686 0.042750
O O8 0.852444 0.948264 0.125520
O O9 0.353071 0.024481 0.681402
O O10 0.545546 0.308177 0.000848
O O11 0.333539 0.256784 0.182657
O O12 0.600037 0.020366 0.731594
O O13 0.291801 0.468403 0.706430
O O14 0.260241 0.681385 0.230417
O O15 0.163106 0.262469 0.371436
O O16 0.000000 0.000000 0.500000
O O17 0.500000 0.500000 0.000000
#
# Coordination Sequence:
#
# PCOD8026416 Si02
#       8
#     2   2   2   2   2   2   2   2
#     4  10  24  42  63 100 136 176 224 282 342 409
#     4  11  24  43  67  97 135 179 229 280 346 411
#     4  11  24  44  70  96 137 178 229 284 343 405
#     4  11  24  39  68  96 136 179 222 283 347 405
#     4  11  24  45  70 100 136 181 230 287 341 408
#     4  12  26  43  70 103 136 177 234 287 340 411
#     4  11  26  45  67  97 137 183 229 282 344 412
#     4  11  24  44  70 100 135 179 233 279 340 411
#
# _framework density 25.416205999999999
#
# number of rings (size 3 to 8) (size 9 to 14) (size 15 to 20)
#    0.000    1.000    1.250    5.250    3.500    5.000 
#    0.000    0.000    0.000    0.000    0.000    0.000 
#    0.000    0.000    0.000    0.000    0.000    0.000 
#
# Total GULP energy -198330.088371 kJ/mol
# GULP energy per Si atom -12395.630523 kJ/mol
# Density = 2.535836 g / cm^3
# Si number density = 25.416206 Si / 1000 Ang^3
#
#
#
# Elastic Constant Matrix: (Units=GPa)
#
#
# Indices 1 2 3 4 5 6 
#
# 1 79.6068 -13.9262 25.2597 6.5016 21.8072 -3.3685
# 2 -13.9262 36.6547 2.6848 4.7917 5.8098 1.0506
# 3 25.2597 2.6848 127.9718 17.1229 14.4084 -8.4727
# 4 6.5016 4.7917 17.1229 34.1188 -4.6985 8.2520
# 5 21.8072 5.8098 14.4084 -4.6985 46.4761 -6.5946
# 6 -3.3685 1.0506 -8.4727 8.2520 -6.5946 35.6478
#
#
#
# Elastic Compliance Matrix: (Units=1/GPa)
#
#
# Indices 1 2 3 4 5 6 
#
# 1 0.017726 0.008998 -0.001940 -0.005044 -0.009294 0.000397
# 2 0.008998 0.033120 -0.000498 -0.007301 -0.008976 -0.000215
# 3 -0.001940 -0.000498 0.009326 -0.005217 -0.002038 0.002879
# 4 -0.005044 -0.007301 -0.005217 0.037040 0.007406 -0.008706
# 5 -0.009294 -0.008976 -0.002038 0.007406 0.028735 0.002503
# 6 0.000397 -0.000215 0.002879 -0.008706 0.002503 0.031259
#
#
# Mechanical properties :
#
#
# Convention : Reuss Voigt Hill
#
# Bulk Modulus (GPa) = 13.64397 30.25220 21.94809
# Shear Modulus (GPa) = 29.67082 38.59618 34.13350
#
# Velocity S-wave (km/s) = 3.42043 3.90111 3.66865
# Velocity P-wave (km/s) = 4.58028 5.67627 5.15747
#
# Compressibility (1/GPa) = 0.07329245
#
# Stress axis : x y z
#
# Youngs Moduli (GPa) = 56.41366 30.19323 107.23037
#
# Poissons Ratio (x) = -0.27168 0.20803
# Poissons Ratio (y) = -0.50761 0.05336
# Poissons Ratio (z) = 0.10945 0.01503
#
# Static dielectric constant tensor:
#      x y z
#    x 5.477910 -0.587330 0.117210 
#    y -0.587330 4.851910 0.105270 
#    z 0.117210 0.105270 4.906370 
# 
# 
# High freq. dielectric constant tensor:
#      x y z
#    x 2.031860 0.000390 0.015180 
#    y 0.000390 2.007820 0.002680 
#    z 0.015180 0.002680 2.009810 
# 
# From -- ./inp_files/348936.got.cif
#   From: 2010.06.25/outbox.cif.g09.slc.cpg/sg2_175_cif.got.tgz:348936.got - 2010.06.27 13:26:56.
