data_PCOD8026370
_publ_section_title
;
Structure prediction by ZEFSAII (Michael W. Deem and Ramdas Pophale) SiO2 
 PCOD8026370
Probable space group: P -1
;
_chemical_formula_sum "Si O2"
_cell_formula_units_Z 14
_cell_length_a 11.411805
_cell_length_b 9.102002
_cell_length_c 9.611184
_cell_angle_alpha 61.266803
_cell_angle_beta 69.079815
_cell_angle_gamma 42.369758
_cell_volume 589.934178
_symmetry_space_group_name_H-M "P -1"
_symmetry_group_IT_number 2
_symmetry_cell_setting 'triclinic'
loop_
_space_group_symop_operation_xyz
x,y,z
-x,-y,-z
loop_
_atom_site_type_symbol
_atom_site_label
_atom_site_fract_x
_atom_site_fract_y
_atom_site_fract_z
Si Si1 0.824907 0.719953 0.749550
Si Si2 0.636937 0.020635 0.431381
Si Si3 0.330684 0.460882 0.994917
Si Si4 0.841538 0.432090 0.261557
Si Si5 0.836350 0.996582 0.805696
Si Si6 0.616202 0.490269 0.560358
Si Si7 0.282013 0.873067 0.916514
O O1 0.748095 0.604334 0.836139
O O2 0.034173 0.521006 0.782474
O O3 0.785722 0.843990 0.561291
O O4 0.740276 0.922752 0.810445
O O5 0.520461 0.292206 0.382261
O O6 0.731139 0.971052 0.267271
O O7 0.500000 0.000000 0.500000
O O8 0.534968 0.284806 0.009279
O O9 0.295253 0.421509 0.872560
O O10 0.245645 0.721527 0.939193
O O11 0.744092 0.492476 0.419849
O O12 0.974145 0.160662 0.278021
O O13 0.729376 0.265255 0.710382
O O14 0.859067 0.952498 0.982991
O O15 0.500000 0.500000 0.500000
#
# Coordination Sequence:
#
# PCOD8026370 Si02
#       7
#     2   2   2   2   2   2   2
#     4  10  24  45  67 101 139 179 235 277 338 412
#     4  12  25  45  69 105 136 178 230 286 346 402
#     4  11  22  42  68 100 140 179 228 283 340 403
#     4  10  24  42  71  99 139 183 231 279 337 411
#     4  10  24  41  69 105 134 180 229 278 345 402
#     4  12  21  42  72 100 134 180 231 283 331 409
#     4  11  24  42  70 101 139 175 228 290 339 402
#
# _framework density 23.731460999999999
#
# number of rings (size 3 to 8) (size 9 to 14) (size 15 to 20)
#    0.857    0.286    2.857    4.286    0.000    2.286 
#    0.000    2.143    0.000    0.000    0.000    0.000 
#    0.000    0.000    0.000    0.000    0.000    0.000 
#
# Total GULP energy -173496.419632 kJ/mol
# GULP energy per Si atom -12392.601402 kJ/mol
# Density = 2.367745 g / cm^3
# Si number density = 23.731461 Si / 1000 Ang^3
#
#
#
# Elastic Constant Matrix: (Units=GPa)
#
#
# Indices 1 2 3 4 5 6 
#
# 1 70.2378 4.8234 4.0010 -11.5926 9.7626 -9.5598
# 2 4.8234 15.5760 15.0618 -6.3913 1.9833 -1.2011
# 3 4.0010 15.0618 146.2538 -0.8829 6.5937 -3.4116
# 4 -11.5926 -6.3913 -0.8829 36.3539 1.2742 -7.1057
# 5 9.7626 1.9833 6.5937 1.2742 38.4427 0.4880
# 6 -9.5598 -1.2011 -3.4116 -7.1057 0.4880 22.3354
#
#
#
# Elastic Compliance Matrix: (Units=1/GPa)
#
#
# Indices 1 2 3 4 5 6 
#
# 1 0.017576 -0.001091 0.000127 0.007536 -0.004805 0.009986
# 2 -0.001091 0.079086 -0.007713 0.014927 -0.003069 0.007424
# 3 0.000127 -0.007713 0.007676 -0.000996 -0.000924 0.000515
# 4 0.007536 0.014927 -0.000996 0.035637 -0.003889 0.015299
# 5 -0.004805 -0.003069 -0.000924 -0.003889 0.027732 -0.004206
# 6 0.009986 0.007424 0.000515 0.015299 -0.004206 0.054483
#
#
# Mechanical properties :
#
#
# Convention : Reuss Voigt Hill
#
# Bulk Modulus (GPa) = 11.49644 31.09332 21.29488
# Shear Modulus (GPa) = 18.61922 33.30516 25.96219
#
# Velocity S-wave (km/s) = 2.80407 3.75029 3.31115
# Velocity P-wave (km/s) = 3.91646 5.64654 4.85912
#
# Compressibility (1/GPa) = 0.08698342
#
# Stress axis : x y z
#
# Youngs Moduli (GPa) = 56.89589 12.64443 130.27668
#
# Poissons Ratio (x) = 0.01379 -0.01649
# Poissons Ratio (y) = 0.06206 1.00484
# Poissons Ratio (z) = -0.00720 0.09753
#
# Static dielectric constant tensor:
#      x y z
#    x 4.238380 0.078160 0.364750 
#    y 0.078160 3.862810 -0.187820 
#    z 0.364750 -0.187820 2.432890 
# 
# 
# High freq. dielectric constant tensor:
#      x y z
#    x 1.944200 0.001830 0.006500 
#    y 0.001830 1.915950 0.001830 
#    z 0.006500 0.001830 1.947090 
# 
# From -- ./inp_files/237513.got.cif
#   From: 2010.06.25/outbox.cif.g09.slc.cpg/sg2_119_cif.got.tgz:237513.got - 2010.06.27 13:26:56.
