data_PCOD8026658
_publ_section_title
;
Structure prediction by ZEFSAII (Michael W. Deem and Ramdas Pophale) SiO2 
 PCOD8026658
Probable space group: P -1
;
_chemical_formula_sum "Si O2"
_cell_formula_units_Z 14
_cell_length_a 11.147827
_cell_length_b 11.560404
_cell_length_c 7.598158
_cell_angle_alpha 71.392415
_cell_angle_beta 43.046873
_cell_angle_gamma 56.431133
_cell_volume 550.669666
_symmetry_space_group_name_H-M "P -1"
_symmetry_group_IT_number 2
_symmetry_cell_setting 'triclinic'
loop_
_space_group_symop_operation_xyz
x,y,z
-x,-y,-z
loop_
_atom_site_type_symbol
_atom_site_label
_atom_site_fract_x
_atom_site_fract_y
_atom_site_fract_z
Si Si1 0.733641 0.421263 0.741267
Si Si2 0.183412 0.398332 0.691397
Si Si3 0.233387 0.556473 0.927163
Si Si4 0.744833 0.896353 0.168400
Si Si5 0.437638 0.685467 0.437998
Si Si6 0.025416 0.135014 0.408666
Si Si7 0.680390 0.003511 0.543458
O O1 0.799990 0.527942 0.538324
O O2 0.457944 0.415945 0.794191
O O3 0.500000 0.500000 0.000000
O O4 0.851048 0.372800 0.826675
O O5 0.260262 0.233060 0.667572
O O6 0.348247 0.402693 0.641542
O O7 0.941488 0.469918 0.964089
O O8 0.260708 0.669594 0.726501
O O9 0.530126 0.996348 0.255500
O O10 0.783557 0.977050 0.250403
O O11 0.912269 0.845664 0.862799
O O12 0.358426 0.847582 0.410963
O O13 0.185339 0.721321 0.396613
O O14 0.188078 0.113777 0.395613
O O15 0.000000 0.000000 0.500000
#
# Coordination Sequence:
#
# PCOD8026658 Si02
#       7
#     2   2   2   2   2   2   2
#     4  12  28  48  71 107 150 194 254 313 370 441
#     4  11  24  46  74 103 144 189 253 301 375 435
#     4  11  24  42  73 107 147 196 248 304 375 439
#     4  10  25  48  78 106 147 199 246 313 372 452
#     4  10  24  42  74 109 144 197 239 316 366 449
#     4  12  30  45  75 116 147 199 248 307 380 457
#     4  10  24  49  73 108 153 194 246 306 384 448
#
# _framework density 25.423590000000001
#
# number of rings (size 3 to 8) (size 9 to 14) (size 15 to 20)
#    0.000    1.143    1.429    2.143   12.000    1.714 
#    0.000    0.000    0.000    0.000    0.000    0.000 
#    0.000    0.000    0.000    0.000    0.000    0.000 
#
# Total GULP energy -173465.515120 kJ/mol
# GULP energy per Si atom -12390.393937 kJ/mol
# Density = 2.536572 g / cm^3
# Si number density = 25.423590 Si / 1000 Ang^3
#
#
#
# Elastic Constant Matrix: (Units=GPa)
#
#
# Indices 1 2 3 4 5 6 
#
# 1 52.7216 27.6618 44.9382 10.8835 8.1942 5.4582
# 2 27.6618 114.2133 45.6382 26.0445 -1.2098 3.3319
# 3 44.9382 45.6382 159.9268 13.0880 -2.5031 2.7768
# 4 10.8835 26.0445 13.0880 34.9906 9.5399 -8.2056
# 5 8.1942 -1.2098 -2.5031 9.5399 41.3374 8.9048
# 6 5.4582 3.3319 2.7768 -8.2056 8.9048 43.6942
#
#
#
# Elastic Compliance Matrix: (Units=1/GPa)
#
#
# Indices 1 2 3 4 5 6 
#
# 1 0.028099 -0.003451 -0.006711 -0.002878 -0.004905 -0.002361
# 2 -0.003451 0.012531 -0.001736 -0.009304 0.003722 -0.002920
# 3 -0.006711 -0.001736 0.008698 -0.000406 0.001910 -0.000047
# 4 -0.002878 -0.009304 -0.000406 0.042535 -0.012027 0.011534
# 5 -0.004905 0.003722 0.001910 -0.012027 0.029919 -0.008149
# 6 -0.002361 -0.002920 -0.000047 0.011534 -0.008149 0.027234
#
#
# Mechanical properties :
#
#
# Convention : Reuss Voigt Hill
#
# Bulk Modulus (GPa) = 39.16522 62.59313 50.87917
# Shear Modulus (GPa) = 27.57505 37.91268 32.74387
#
# Velocity S-wave (km/s) = 3.29694 3.86585 3.59267
# Velocity P-wave (km/s) = 5.47098 6.67832 6.10457
#
# Compressibility (1/GPa) = 0.02553286
#
# Stress axis : x y z
#
# Youngs Moduli (GPa) = 35.58805 79.80044 114.96893
#
# Poissons Ratio (x) = 0.27536 0.77158
# Poissons Ratio (y) = 0.12280 0.19959
# Poissons Ratio (z) = 0.23884 0.13854
#
# Static dielectric constant tensor:
#      x y z
#    x 5.258630 -0.158390 0.205710 
#    y -0.158390 4.522630 0.303610 
#    z 0.205710 0.303610 4.661000 
# 
# 
# High freq. dielectric constant tensor:
#      x y z
#    x 2.045300 -0.011210 0.002320 
#    y -0.011210 2.018810 0.027070 
#    z 0.002320 0.027070 2.010190 
# 
# From -- ./inp_files/276309.got.cif
#   From: 2010.06.25/outbox.cif.g09.slc.cpg/sg2_139_cif.got.tgz:276309.got - 2010.06.27 13:26:56.
