data_PCOD8026936
_publ_section_title
;
Structure prediction by ZEFSAII (Michael W. Deem and Ramdas Pophale) SiO2 
 PCOD8026936
Probable space group: P -1
;
_chemical_formula_sum "Si O2"
_cell_formula_units_Z 16
_cell_length_a 14.148881
_cell_length_b 11.732127
_cell_length_c 8.864215
_cell_angle_alpha 92.222482
_cell_angle_beta 150.185112
_cell_angle_gamma 81.417822
_cell_volume 710.985533
_symmetry_space_group_name_H-M "P -1"
_symmetry_group_IT_number 2
_symmetry_cell_setting 'triclinic'
loop_
_space_group_symop_operation_xyz
x,y,z
-x,-y,-z
loop_
_atom_site_type_symbol
_atom_site_label
_atom_site_fract_x
_atom_site_fract_y
_atom_site_fract_z
Si Si1 0.372099 0.204156 0.579367
Si Si2 0.856678 0.383666 0.384403
Si Si3 0.540049 0.522628 0.729618
Si Si4 0.530464 0.871860 0.600828
Si Si5 0.647965 0.196798 0.201537
Si Si6 0.828640 0.532132 0.641389
Si Si7 0.792958 0.023878 0.641730
Si Si8 0.289549 0.274546 0.921487
O O1 0.418621 0.220780 0.468719
O O2 0.239963 0.327477 0.458890
O O3 0.265075 0.099769 0.454862
O O4 0.588787 0.165827 0.950557
O O5 0.778523 0.291701 0.375947
O O6 0.887907 0.484896 0.550240
O O7 0.061899 0.331182 0.580313
O O8 0.708634 0.427631 0.044529
O O9 0.500000 0.500000 0.500000
O O10 0.343378 0.528497 0.550325
O O11 0.603100 0.644489 0.825270
O O12 0.332765 0.874423 0.419738
O O13 0.500000 0.000000 0.500000
O O14 0.701419 0.838735 0.962841
O O15 0.776343 0.081946 0.455595
O O16 0.424799 0.243460 0.959785
O O17 0.000000 0.500000 0.000000
O O18 0.000000 0.000000 0.000000
#
# Coordination Sequence:
#
# PCOD8026936 Si02
#       8
#     2   2   2   2   2   2   2   2
#     4  11  22  44  67  95 141 178 224 288 345 406
#     4  12  25  46  70 102 146 189 229 288 352 407
#     4  12  24  42  63 100 139 181 234 283 338 416
#     4   9  21  41  67  95 132 173 224 283 346 399
#     4  11  24  45  71 100 141 182 227 285 350 412
#     4  12  25  41  70 104 142 188 233 283 351 418
#     4  10  24  43  72 100 133 176 231 287 347 415
#     4  11  24  43  69  97 141 183 231 285 346 410
#
# _framework density 22.503975000000001
#
# number of rings (size 3 to 8) (size 9 to 14) (size 15 to 20)
#    0.000    1.000    2.500    4.125    5.250    1.000 
#    2.250    1.875    0.000    0.000    0.000    0.000 
#    0.000    0.000    0.000    0.000    0.000    0.000 
#
# Total GULP energy -198231.219090 kJ/mol
# GULP energy per Si atom -12389.451193 kJ/mol
# Density = 2.245276 g / cm^3
# Si number density = 22.503975 Si / 1000 Ang^3
#
#
#
# Elastic Constant Matrix: (Units=GPa)
#
#
# Indices 1 2 3 4 5 6 
#
# 1 66.2896 15.9148 26.8157 -8.1588 0.6123 10.1598
# 2 15.9148 92.9330 30.7478 -2.8672 0.1664 19.8251
# 3 26.8157 30.7478 163.5472 -11.5854 -2.2809 8.1024
# 4 -8.1588 -2.8672 -11.5854 34.8421 2.8572 -3.6078
# 5 0.6123 0.1664 -2.2809 2.8572 42.1970 -4.0802
# 6 10.1598 19.8251 8.1024 -3.6078 -4.0802 28.2642
#
#
#
# Elastic Compliance Matrix: (Units=1/GPa)
#
#
# Indices 1 2 3 4 5 6 
#
# 1 0.017315 -0.001176 -0.002206 0.002835 -0.000998 -0.004549
# 2 -0.001176 0.013441 -0.001964 -0.000642 -0.000936 -0.008659
# 3 -0.002206 -0.001964 0.006945 0.001648 0.000346 0.000440
# 4 0.002835 -0.000642 0.001648 0.030270 -0.001751 0.002570
# 5 -0.000998 -0.000936 0.000346 -0.001751 0.024259 0.004194
# 6 -0.004549 -0.008659 0.000440 0.002570 0.004194 0.043897
#
#
# Mechanical properties :
#
#
# Convention : Reuss Voigt Hill
#
# Bulk Modulus (GPa) = 37.02243 52.19183 44.60713
# Shear Modulus (GPa) = 32.08820 37.68009 34.88414
#
# Velocity S-wave (km/s) = 3.78019 4.09635 3.94144
# Velocity P-wave (km/s) = 5.96157 6.75397 6.37010
#
# Compressibility (1/GPa) = 0.02701065
#
# Stress axis : x y z
#
# Youngs Moduli (GPa) = 57.75251 74.40170 143.98647
#
# Poissons Ratio (x) = 0.08748 0.31759
# Poissons Ratio (y) = 0.06790 0.28274
# Poissons Ratio (z) = 0.12739 0.14610
#
# Static dielectric constant tensor:
#      x y z
#    x 4.821950 0.181620 -0.643030 
#    y 0.181620 4.576630 -0.339060 
#    z -0.643030 -0.339060 4.916920 
# 
# 
# High freq. dielectric constant tensor:
#      x y z
#    x 1.895070 0.010450 -0.018680 
#    y 0.010450 1.883400 -0.015110 
#    z -0.018680 -0.015110 1.897070 
# 
# From -- ./inp_files/226287.got.cif
#   From: 2010.06.25/outbox.cif.g09.slc.cpg/sg2_114_cif.got.tgz:226287.got - 2010.06.27 13:26:56.
