data_PCOD8026143
_publ_section_title
;
Structure prediction by ZEFSAII (Michael W. Deem and Ramdas Pophale) SiO2 
 PCOD8026143
Probable space group: P -1
;
_chemical_formula_sum "Si O2"
_cell_formula_units_Z 16
_cell_length_a 11.446747
_cell_length_b 13.606450
_cell_length_c 13.935163
_cell_angle_alpha 42.530116
_cell_angle_beta 114.882260
_cell_angle_gamma 146.209845
_cell_volume 701.922306
_symmetry_space_group_name_H-M "P -1"
_symmetry_group_IT_number 2
_symmetry_cell_setting 'triclinic'
loop_
_space_group_symop_operation_xyz
x,y,z
-x,-y,-z
loop_
_atom_site_type_symbol
_atom_site_label
_atom_site_fract_x
_atom_site_fract_y
_atom_site_fract_z
Si Si1 0.248822 0.723590 0.662296
Si Si2 0.612265 0.626428 0.807910
Si Si3 0.573285 0.409696 0.705939
Si Si4 0.234424 0.415838 0.948896
Si Si5 0.041243 0.389124 0.647096
Si Si6 0.547869 0.373809 0.506623
Si Si7 0.767382 0.943146 0.004818
Si Si8 0.113471 0.894453 0.575795
O O1 0.251395 0.607689 0.832721
O O2 0.109004 0.494150 0.702113
O O3 0.112779 0.737262 0.637668
O O4 0.500000 0.000000 0.500000
O O5 0.496803 0.625259 0.845408
O O6 0.395295 0.353677 0.863923
O O7 0.795269 0.893219 0.615251
O O8 0.782523 0.671129 0.888686
O O9 0.598797 0.369056 0.636609
O O10 0.451584 0.452245 0.624454
O O11 0.396051 0.139416 0.906328
O O12 0.833735 0.665835 0.666631
O O13 0.023924 0.150059 0.996202
O O14 0.240245 0.485644 0.590145
O O15 0.000000 0.500000 0.500000
O O16 0.801673 0.063195 0.828108
O O17 0.286339 0.055995 0.612950
#
# Coordination Sequence:
#
# PCOD8026143 Si02
#       8
#     2   2   2   2   2   2   2   2
#     4  11  21  42  67  97 135 174 226 282 342 403
#     4  11  23  36  68  99 132 173 223 287 336 396
#     4  11  27  41  67 103 140 184 223 277 344 418
#     4  10  24  39  61 101 134 173 219 286 343 395
#     4  11  25  44  74 102 132 182 231 287 341 408
#     4  11  24  43  68  99 138 182 222 283 339 402
#     4  11  25  43  67  99 141 170 228 284 343 393
#     4  12  23  43  70  99 138 181 234 275 344 412
#
# _framework density 22.794547000000001
#
# number of rings (size 3 to 8) (size 9 to 14) (size 15 to 20)
#    0.000    1.000    3.750    2.250    7.000    1.000 
#    0.000    5.625    0.000    4.500    0.000    0.000 
#    0.000    0.000    0.000    0.000    0.000    0.000 
#
# Total GULP energy -198232.784226 kJ/mol
# GULP energy per Si atom -12389.549014 kJ/mol
# Density = 2.274267 g / cm^3
# Si number density = 22.794547 Si / 1000 Ang^3
#
#
#
# Elastic Constant Matrix: (Units=GPa)
#
#
# Indices 1 2 3 4 5 6 
#
# 1 85.3858 29.9526 50.3955 5.2258 8.2192 4.1177
# 2 29.9526 97.5092 50.3364 11.3700 -5.9531 6.2847
# 3 50.3955 50.3364 126.9794 10.7768 -6.1302 20.4038
# 4 5.2258 11.3700 10.7768 25.8566 2.8119 -6.3427
# 5 8.2192 -5.9531 -6.1302 2.8119 35.6228 1.2084
# 6 4.1177 6.2847 20.4038 -6.3427 1.2084 36.2459
#
#
#
# Elastic Compliance Matrix: (Units=1/GPa)
#
#
# Indices 1 2 3 4 5 6 
#
# 1 0.016729 -0.002499 -0.006492 0.001690 -0.005619 0.002671
# 2 -0.002499 0.013718 -0.003817 -0.004415 0.002588 -0.000805
# 3 -0.006492 -0.003817 0.013752 -0.004962 0.003867 -0.007339
# 4 0.001690 -0.004415 -0.004962 0.045837 -0.005993 0.011588
# 5 -0.005619 0.002588 0.003867 -0.005993 0.031078 -0.004072
# 6 0.002671 -0.000805 -0.007339 0.011588 -0.004072 0.033721
#
#
# Mechanical properties :
#
#
# Convention : Reuss Voigt Hill
#
# Bulk Modulus (GPa) = 53.81680 63.47149 58.64414
# Shear Modulus (GPa) = 26.78857 31.49106 29.13982
#
# Velocity S-wave (km/s) = 3.43186 3.72091 3.57931
# Velocity P-wave (km/s) = 6.27410 6.80924 6.54714
#
# Compressibility (1/GPa) = 0.01858156
#
# Stress axis : x y z
#
# Youngs Moduli (GPa) = 59.77709 72.89440 72.71486
#
# Poissons Ratio (x) = 0.18220 0.47209
# Poissons Ratio (y) = 0.14941 0.27757
# Poissons Ratio (z) = 0.38809 0.27825
#
# Static dielectric constant tensor:
#      x y z
#    x 3.978150 -0.280310 -0.972170 
#    y -0.280310 4.005930 -0.748000 
#    z -0.972170 -0.748000 0.676250 
# 
# 
# High freq. dielectric constant tensor:
#      x y z
#    x 1.886800 -0.004500 -0.006990 
#    y -0.004500 1.901520 0.001270 
#    z -0.006990 0.001270 1.905570 
# 
# From -- ./inp_files/522284.got.cif
#   From: 2010.06.25/outbox.cif.g09.slc.cpg/sg2_262_cif.got.tgz:522284.got - 2010.06.27 13:26:56.
