data_PCOD8026758
_publ_section_title
;
Structure prediction by ZEFSAII (Michael W. Deem and Ramdas Pophale) SiO2 
 PCOD8026758
Probable space group: P -1
;
_chemical_formula_sum "Si O2"
_cell_formula_units_Z 14
_cell_length_a 9.501680
_cell_length_b 20.832817
_cell_length_c 5.611653
_cell_angle_alpha 120.053528
_cell_angle_beta 65.886277
_cell_angle_gamma 144.894144
_cell_volume 552.928686
_symmetry_space_group_name_H-M "P -1"
_symmetry_group_IT_number 2
_symmetry_cell_setting 'triclinic'
loop_
_space_group_symop_operation_xyz
x,y,z
-x,-y,-z
loop_
_atom_site_type_symbol
_atom_site_label
_atom_site_fract_x
_atom_site_fract_y
_atom_site_fract_z
Si Si1 0.431118 0.744081 0.465870
Si Si2 0.851048 0.623750 0.148319
Si Si3 0.885180 0.983772 0.799606
Si Si4 0.513014 0.388452 0.665911
Si Si5 0.911969 0.527921 0.302371
Si Si6 0.694084 0.055094 0.165980
Si Si7 0.358480 0.831639 0.289205
O O1 0.594680 0.849730 0.746604
O O2 0.540844 0.700875 0.286431
O O3 0.456306 0.794533 0.286146
O O4 0.140480 0.627823 0.512150
O O5 0.739679 0.665322 0.326514
O O6 0.843520 0.580653 0.327986
O O7 0.138052 0.733631 0.072240
O O8 0.700717 0.520537 0.871834
O O9 0.906468 0.081848 0.959298
O O10 0.000000 0.000000 0.500000
O O11 0.000000 0.000000 0.000000
O O12 0.661704 0.407226 0.376517
O O13 0.000000 0.500000 0.000000
O O14 0.587129 0.960965 0.270450
O O15 0.781702 0.165499 0.418562
O O16 0.500000 0.000000 0.000000
#
# Coordination Sequence:
#
# PCOD8026758 Si02
#       7
#     2   2   2   2   2   2   2
#     4  11  24  45  70 107 135 197 240 303 369 436
#     4  10  24  43  67 102 142 188 232 301 364 434
#     4  12  29  49  73 109 151 191 246 314 378 440
#     4  11  24  42  68 104 143 182 243 297 365 435
#     4  11  23  43  68 101 143 191 240 295 356 444
#     4  11  24  47  72 103 139 189 248 302 360 451
#     4  10  24  44  74 102 141 191 249 302 370 439
#
# _framework density 25.319717000000001
#
# number of rings (size 3 to 8) (size 9 to 14) (size 15 to 20)
#    0.000    1.143    2.857    1.714    6.000    2.286 
#    0.000    1.429    0.000    0.000    0.000    0.000 
#    0.000    0.000    0.000    0.000    0.000    0.000 
#
# Total GULP energy -173440.622586 kJ/mol
# GULP energy per Si atom -12388.615899 kJ/mol
# Density = 2.526209 g / cm^3
# Si number density = 25.319717 Si / 1000 Ang^3
#
#
#
# Elastic Constant Matrix: (Units=GPa)
#
#
# Indices 1 2 3 4 5 6 
#
# 1 217.5161 26.0362 39.6562 -3.8701 -3.3570 -19.6466
# 2 26.0362 67.9946 2.7443 1.8654 1.6858 -2.5550
# 3 39.6562 2.7443 90.4501 0.0958 -5.6742 -0.5555
# 4 -3.8701 1.8654 0.0958 31.1614 5.7721 2.5554
# 5 -3.3570 1.6858 -5.6742 5.7721 45.0057 17.8856
# 6 -19.6466 -2.5550 -0.5555 2.5554 17.8856 40.7634
#
#
#
# Elastic Compliance Matrix: (Units=1/GPa)
#
#
# Indices 1 2 3 4 5 6 
#
# 1 0.005528 -0.001903 -0.002417 0.000768 -0.001089 0.002942
# 2 -0.001903 0.015486 0.000323 -0.001067 -0.000719 0.000441
# 3 -0.002417 0.000323 0.012232 -0.000606 0.002181 -0.001897
# 4 0.000768 -0.001067 -0.000606 0.033032 -0.004251 0.000090
# 5 -0.001089 -0.000719 0.002181 -0.004251 0.027971 -0.012546
# 6 0.002942 0.000441 -0.001897 0.000090 -0.012546 0.031451
#
#
# Mechanical properties :
#
#
# Convention : Reuss Voigt Hill
#
# Bulk Modulus (GPa) = 39.60004 56.98159 48.29081
# Shear Modulus (GPa) = 35.18349 43.88772 39.53561
#
# Velocity S-wave (km/s) = 3.73174 4.16786 3.95581
# Velocity P-wave (km/s) = 5.85165 6.76129 6.32285
#
# Compressibility (1/GPa) = 0.02525250
#
# Stress axis : x y z
#
# Youngs Moduli (GPa) = 180.88439 64.57312 81.75551
#
# Poissons Ratio (x) = 0.12288 0.19761
# Poissons Ratio (y) = 0.34420 -0.02642
# Poissons Ratio (z) = 0.43722 -0.02087
#
# Static dielectric constant tensor:
#      x y z
#    x 5.011120 0.054620 -0.264040 
#    y 0.054620 4.740560 0.285800 
#    z -0.264040 0.285800 4.622810 
# 
# 
# High freq. dielectric constant tensor:
#      x y z
#    x 2.036320 -0.005400 -0.005300 
#    y -0.005400 1.991640 0.016820 
#    z -0.005300 0.016820 2.001160 
# 
# From -- ./inp_files/53700.got.cif
#   From: 2010.06.25/outbox.cif.g09.slc.cpg/sg2_27_cif.got.tgz:53700.got - 2010.06.27 13:26:56.
