data_PCOD8026977
_publ_section_title
;
Structure prediction by ZEFSAII (Michael W. Deem and Ramdas Pophale) SiO2 
 PCOD8026977
Probable space group: P -1
;
_chemical_formula_sum "Si O2"
_cell_formula_units_Z 12
_cell_length_a 17.408303
_cell_length_b 8.864459
_cell_length_c 11.253044
_cell_angle_alpha 140.996211
_cell_angle_beta 38.918772
_cell_angle_gamma 150.017187
_cell_volume 514.882838
_symmetry_space_group_name_H-M "P -1"
_symmetry_group_IT_number 2
_symmetry_cell_setting 'triclinic'
loop_
_space_group_symop_operation_xyz
x,y,z
-x,-y,-z
loop_
_atom_site_type_symbol
_atom_site_label
_atom_site_fract_x
_atom_site_fract_y
_atom_site_fract_z
Si Si1 0.721898 0.184278 0.073889
Si Si2 0.180316 0.638792 0.680311
Si Si3 0.258444 0.226163 0.380726
Si Si4 0.555595 0.889522 0.525790
Si Si5 0.909282 0.641671 0.930195
Si Si6 0.826639 0.210713 0.584021
O O1 0.822445 0.265510 0.122995
O O2 0.541631 0.031494 0.236730
O O3 0.808580 0.515747 0.097905
O O4 0.717491 0.934721 0.851662
O O5 0.153974 0.317301 0.515740
O O6 0.041621 0.597720 0.751317
O O7 0.357376 0.897602 0.566253
O O8 0.436216 0.526076 0.402296
O O9 0.158252 0.992130 0.468761
O O10 0.694305 0.971792 0.497861
O O11 0.782682 0.393124 0.827031
O O12 0.000000 0.000000 0.000000
O O13 0.000000 0.500000 0.500000
#
# Coordination Sequence:
#
# PCOD8026977 Si02
#       6
#     2   2   2   2   2   2
#     4  10  24  44  68 104 134 180 232 280 339 404
#     4  11  24  44  70 101 139 183 226 278 346 404
#     4  10  24  43  73  97 139 181 227 283 342 399
#     4  11  24  44  70 101 140 180 229 278 344 403
#     4  11  26  44  68 102 139 179 229 285 342 402
#     4  11  24  44  67 102 133 182 230 275 341 404
#
# _framework density 23.306273999999998
#
# number of rings (size 3 to 8) (size 9 to 14) (size 15 to 20)
#    0.000    1.333    1.667    3.000    4.667   12.000 
#    0.000    0.000    0.000    0.000    0.000    0.000 
#    0.000    0.000    0.000    0.000    0.000    0.000 
#
# Total GULP energy -148676.923592 kJ/mol
# GULP energy per Si atom -12389.743633 kJ/mol
# Density = 2.325323 g / cm^3
# Si number density = 23.306274 Si / 1000 Ang^3
#
#
#
# Elastic Constant Matrix: (Units=GPa)
#
#
# Indices 1 2 3 4 5 6 
#
# 1 97.7789 52.7026 54.5386 12.5677 10.8995 -15.9825
# 2 52.7026 145.4702 54.5351 2.4629 6.0522 -28.1244
# 3 54.5386 54.5351 143.6599 9.4017 18.4095 -12.1264
# 4 12.5677 2.4629 9.4017 50.8889 0.1132 3.2962
# 5 10.8995 6.0522 18.4095 0.1132 37.9107 -3.0880
# 6 -15.9825 -28.1244 -12.1264 3.2962 -3.0880 42.8682
#
#
#
# Elastic Compliance Matrix: (Units=1/GPa)
#
#
# Indices 1 2 3 4 5 6 
#
# 1 0.015223 -0.003490 -0.003827 -0.003036 -0.001756 0.002410
# 2 -0.003490 0.009774 -0.002145 0.000490 0.000852 0.004529
# 3 -0.003827 -0.002145 0.009671 -0.000712 -0.003274 -0.000279
# 4 -0.003036 0.000490 -0.000712 0.020671 0.000872 -0.002539
# 5 -0.001756 0.000852 -0.003274 0.000872 0.028412 0.000958
# 6 0.002410 0.004529 -0.000279 -0.002539 0.000958 0.027382
#
#
# Mechanical properties :
#
#
# Convention : Reuss Voigt Hill
#
# Bulk Modulus (GPa) = 63.51483 78.94017 71.22750
# Shear Modulus (GPa) = 36.95392 41.34240 39.14816
#
# Velocity S-wave (km/s) = 3.98625 4.21631 4.10289
# Velocity P-wave (km/s) = 6.96408 7.59258 7.28511
#
# Compressibility (1/GPa) = 0.01574435
#
# Stress axis : x y z
#
# Youngs Moduli (GPa) = 65.69110 102.30832 103.40714
#
# Poissons Ratio (x) = 0.35704 0.39576
# Poissons Ratio (y) = 0.22925 0.22176
# Poissons Ratio (z) = 0.25141 0.21940
#
# Static dielectric constant tensor:
#      x y z
#    x 4.468030 -0.100450 0.547540 
#    y -0.100450 4.519150 0.000070 
#    z 0.547540 0.000070 4.347480 
# 
# 
# High freq. dielectric constant tensor:
#      x y z
#    x 1.928490 -0.008090 0.027330 
#    y -0.008090 1.939470 -0.006240 
#    z 0.027330 -0.006240 1.918060 
# 
# From -- ./inp_files/181990.got.cif
#   From: 2010.06.25/outbox.cif.g09.slc.cpg/sg2_91_cif.got.tgz:181990.got - 2010.06.27 13:26:56.
