data_PCOD8026543
_publ_section_title
;
Structure prediction by ZEFSAII (Michael W. Deem and Ramdas Pophale) SiO2 
 PCOD8026543
Probable space group: P -1
;
_chemical_formula_sum "Si O2"
_cell_formula_units_Z 16
_cell_length_a 8.540668
_cell_length_b 11.215725
_cell_length_c 8.994317
_cell_angle_alpha 87.207340
_cell_angle_beta 63.151173
_cell_angle_gamma 62.370720
_cell_volume 666.805490
_symmetry_space_group_name_H-M "P -1"
_symmetry_group_IT_number 2
_symmetry_cell_setting 'triclinic'
loop_
_space_group_symop_operation_xyz
x,y,z
-x,-y,-z
loop_
_atom_site_type_symbol
_atom_site_label
_atom_site_fract_x
_atom_site_fract_y
_atom_site_fract_z
Si Si1 0.704918 0.924085 0.515216
Si Si2 0.873240 0.177710 0.798257
Si Si3 0.794564 0.716914 0.930098
Si Si4 0.814810 0.367150 0.090297
Si Si5 0.493026 0.683732 0.241614
Si Si6 0.701120 0.986238 0.843601
Si Si7 0.206902 0.367493 0.381379
Si Si8 0.455005 0.641815 0.577452
O O1 0.684450 0.008874 0.670121
O O2 0.762615 0.770587 0.546227
O O3 0.891649 0.913022 0.340643
O O4 0.500000 0.000000 0.500000
O O5 0.733483 0.271266 0.716870
O O6 0.787014 0.075328 0.882770
O O7 0.846691 0.280410 0.934637
O O8 0.850093 0.828746 0.835173
O O9 0.778497 0.634229 0.802636
O O10 0.983096 0.625061 0.962112
O O11 0.584275 0.770676 0.111581
O O12 0.637841 0.525077 0.144823
O O13 0.761344 0.291736 0.251420
O O14 0.473595 0.724529 0.423150
O O15 0.500000 0.000000 0.000000
O O16 0.385539 0.389073 0.360577
O O17 0.000000 0.500000 0.500000
O O18 0.500000 0.500000 0.500000
#
# Coordination Sequence:
#
# PCOD8026543 Si02
#       8
#     2   2   2   2   2   2   2   2
#     4  11  30  49  73 109 145 197 252 306 368 443
#     4  12  27  46  78 102 146 196 248 304 360 449
#     4  11  25  46  72 105 149 189 238 303 369 439
#     4  11  26  43  72 114 147 186 242 303 370 432
#     4  11  24  44  73 107 151 188 241 299 365 441
#     4  11  26  51  73 100 146 193 247 301 370 431
#     4  11  25  44  77 105 149 193 242 306 379 433
#     4  10  24  42  68 108 152 186 237 304 366 436
#
# _framework density 23.995003000000001
#
# number of rings (size 3 to 8) (size 9 to 14) (size 15 to 20)
#    0.000    1.000    1.250    3.375   15.750    1.500 
#    0.000    0.000    0.000    0.000    0.000    0.000 
#    0.000    0.000    0.000    0.000    0.000    0.000 
#
# Total GULP energy -198289.933467 kJ/mol
# GULP energy per Si atom -12393.120842 kJ/mol
# Density = 2.394039 g / cm^3
# Si number density = 23.995003 Si / 1000 Ang^3
#
#
#
# Elastic Constant Matrix: (Units=GPa)
#
#
# Indices 1 2 3 4 5 6 
#
# 1 180.5895 35.4002 54.7268 8.0484 3.9276 -12.9449
# 2 35.4002 69.5868 17.4986 -3.8484 4.8057 -7.3360
# 3 54.7268 17.4986 124.7730 1.7624 0.9561 -13.5338
# 4 8.0484 -3.8484 1.7624 35.7430 0.5196 -5.2398
# 5 3.9276 4.8057 0.9561 0.5196 48.8681 7.3151
# 6 -12.9449 -7.3360 -13.5338 -5.2398 7.3151 39.8422
#
#
#
# Elastic Compliance Matrix: (Units=1/GPa)
#
#
# Indices 1 2 3 4 5 6 
#
# 1 0.007019 -0.002921 -0.002566 -0.001660 -0.000315 0.000711
# 2 -0.002921 0.016609 -0.000799 0.002885 -0.001795 0.002547
# 3 -0.002566 -0.000799 0.009503 0.000370 -0.000256 0.002343
# 4 -0.001660 0.002885 0.000370 0.029270 -0.001093 0.004168
# 5 -0.000315 -0.001795 -0.000256 -0.001093 0.021368 -0.004587
# 6 0.000711 0.002547 0.002343 0.004168 -0.004587 0.027985
#
#
# Mechanical properties :
#
#
# Convention : Reuss Voigt Hill
#
# Bulk Modulus (GPa) = 48.63862 65.57786 57.10824
# Shear Modulus (GPa) = 38.11538 42.71223 40.41380
#
# Velocity S-wave (km/s) = 3.98989 4.22364 4.10842
# Velocity P-wave (km/s) = 6.44515 7.15364 6.80862
#
# Compressibility (1/GPa) = 0.02055979
#
# Stress axis : x y z
#
# Youngs Moduli (GPa) = 142.46199 60.20743 105.22946
#
# Poissons Ratio (x) = 0.17585 0.27004
# Poissons Ratio (y) = 0.41608 0.08408
# Poissons Ratio (z) = 0.36559 0.04811
#
# Static dielectric constant tensor:
#      x y z
#    x 4.489520 -0.175780 0.193660 
#    y -0.175780 5.437920 -0.967300 
#    z 0.193660 -0.967300 5.564270 
# 
# 
# High freq. dielectric constant tensor:
#      x y z
#    x 1.961440 -0.001260 -0.002970 
#    y -0.001260 1.963220 0.001220 
#    z -0.002970 0.001220 1.960900 
# 
# From -- ./inp_files/186518.got.cif
#   From: 2010.06.25/outbox.cif.g09.slc.cpg/sg2_94_cif.got.tgz:186518.got - 2010.06.27 13:26:56.
