data_PCOD8026362
_publ_section_title
;
Structure prediction by ZEFSAII (Michael W. Deem and Ramdas Pophale) SiO2 
 PCOD8026362
Probable space group: P -1
;
_chemical_formula_sum "Si O2"
_cell_formula_units_Z 16
_cell_length_a 13.518636
_cell_length_b 19.149627
_cell_length_c 22.564514
_cell_angle_alpha 17.297538
_cell_angle_beta 153.653860
_cell_angle_gamma 145.723730
_cell_volume 751.603029
_symmetry_space_group_name_H-M "P -1"
_symmetry_group_IT_number 2
_symmetry_cell_setting 'triclinic'
loop_
_space_group_symop_operation_xyz
x,y,z
-x,-y,-z
loop_
_atom_site_type_symbol
_atom_site_label
_atom_site_fract_x
_atom_site_fract_y
_atom_site_fract_z
Si Si1 0.301560 0.551156 0.513384
Si Si2 0.407480 0.386179 0.486182
Si Si3 0.513078 0.430294 0.214142
Si Si4 0.899279 0.444426 0.191593
Si Si5 0.961199 0.932988 0.601564
Si Si6 0.462458 0.814846 0.973091
Si Si7 0.515237 0.105615 0.588249
Si Si8 0.817438 0.589489 0.164837
O O1 0.491433 0.494059 0.611020
O O2 0.319429 0.787357 0.367314
O O3 0.050849 0.612135 0.302082
O O4 0.351652 0.318116 0.771898
O O5 0.500000 0.500000 0.500000
O O6 0.137055 0.481086 0.263550
O O7 0.477548 0.093950 0.754927
O O8 0.539023 0.208553 0.452337
O O9 0.722878 0.386492 0.315108
O O10 0.285508 0.423908 0.061011
O O11 0.513694 0.685024 0.041679
O O12 0.896291 0.165452 0.419769
O O13 0.857560 0.538705 0.158897
O O14 0.746226 0.808699 0.596098
O O15 0.000000 0.000000 0.500000
O O16 0.206110 0.779451 0.880715
O O17 0.609703 0.821926 0.868887
#
# Coordination Sequence:
#
# PCOD8026362 Si02
#       8
#     2   2   2   2   2   2   2   2
#     4  11  25  42  67  97 127 171 215 267 319 387
#     4  11  23  44  65  98 129 169 213 262 330 383
#     4  11  24  42  67  97 126 173 217 266 317 383
#     4  11  23  42  66  93 133 170 211 269 326 376
#     4  11  20  42  69  95 130 167 210 276 324 371
#     4  10  24  41  68  98 126 164 215 272 320 373
#     4  11  25  40  69  98 122 176 221 260 323 380
#     4  12  24  46  60  92 139 174 211 263 322 385
#
# _framework density 21.287834
#
# number of rings (size 3 to 8) (size 9 to 14) (size 15 to 20)
#    0.000    1.000    3.750    3.000    1.750    5.000 
#    0.000    0.000    0.000    0.000    0.000    0.000 
#    0.000    0.000    0.000    0.000    0.000    0.000 
#
# Total GULP energy -198328.130997 kJ/mol
# GULP energy per Si atom -12395.508187 kJ/mol
# Density = 2.123938 g / cm^3
# Si number density = 21.287834 Si / 1000 Ang^3
#
#
#
# Elastic Constant Matrix: (Units=GPa)
#
#
# Indices 1 2 3 4 5 6 
#
# 1 348.8780 120.7101 79.3462 -22.0643 -26.8987 -73.5194
# 2 120.7101 137.5313 48.4592 10.1307 -16.5692 -35.3010
# 3 79.3462 48.4592 64.6064 3.9567 0.3797 -22.0964
# 4 -22.0643 10.1307 3.9567 36.2490 5.7917 13.4154
# 5 -26.8987 -16.5692 0.3797 5.7917 24.4039 14.5354
# 6 -73.5194 -35.3010 -22.0964 13.4154 14.5354 70.5504
#
#
#
# Elastic Compliance Matrix: (Units=1/GPa)
#
#
# Indices 1 2 3 4 5 6 
#
# 1 0.005701 -0.002970 -0.004362 0.003700 0.002321 0.001907
# 2 -0.002970 0.013597 -0.005516 -0.006757 0.006500 0.001926
# 3 -0.004362 -0.005516 0.026595 -0.003795 -0.010380 0.003884
# 4 0.003700 -0.006757 -0.003795 0.035310 -0.005023 -0.006394
# 5 0.002321 0.006500 -0.010380 -0.005023 0.053907 -0.007731
# 6 0.001907 0.001926 0.003884 -0.006394 -0.007731 0.021150
#
#
# Mechanical properties :
#
#
# Convention : Reuss Voigt Hill
#
# Bulk Modulus (GPa) = 49.51492 116.44962 82.98227
# Shear Modulus (GPa) = 26.49876 46.40732 36.45304
#
# Velocity S-wave (km/s) = 3.53198 4.67410 4.14259
# Velocity P-wave (km/s) = 6.32008 9.16247 7.87065
#
# Compressibility (1/GPa) = 0.02019593
#
# Stress axis : x y z
#
# Youngs Moduli (GPa) = 175.41795 73.54618 37.60160
#
# Poissons Ratio (x) = 0.21844 0.16400
# Poissons Ratio (y) = 0.52101 0.20743
# Poissons Ratio (z) = 0.76510 0.40571
#
# Static dielectric constant tensor:
#      x y z
#    x 4.196220 0.076060 0.096850 
#    y 0.076060 4.133570 0.188550 
#    z 0.096850 0.188550 3.719480 
# 
# 
# High freq. dielectric constant tensor:
#      x y z
#    x 1.847910 -0.004180 0.004460 
#    y -0.004180 1.843060 0.016610 
#    z 0.004460 0.016610 1.821160 
# 
# From -- ./inp_files/438327.got.cif
#   From: 2010.06.25/outbox.cif.g09.slc.cpg/sg2_220_cif.got.tgz:438327.got - 2010.06.27 13:26:56.
