data_PCOD8026142
_publ_section_title
;
Structure prediction by ZEFSAII (Michael W. Deem and Ramdas Pophale) SiO2 
 PCOD8026142
Probable space group: P -1
;
_chemical_formula_sum "Si O2"
_cell_formula_units_Z 14
_cell_length_a 15.272664
_cell_length_b 9.129888
_cell_length_c 7.126345
_cell_angle_alpha 95.144566
_cell_angle_beta 95.601063
_cell_angle_gamma 41.760832
_cell_volume 658.441256
_symmetry_space_group_name_H-M "P -1"
_symmetry_group_IT_number 2
_symmetry_cell_setting 'triclinic'
loop_
_space_group_symop_operation_xyz
x,y,z
-x,-y,-z
loop_
_atom_site_type_symbol
_atom_site_label
_atom_site_fract_x
_atom_site_fract_y
_atom_site_fract_z
Si Si1 0.111546 0.078203 0.269405
Si Si2 0.752596 0.936394 0.027763
Si Si3 0.470348 0.795489 0.732195
Si Si4 0.814875 0.460305 0.288787
Si Si5 0.263954 0.610560 0.389463
Si Si6 0.698582 0.682459 0.899709
Si Si7 0.795951 0.802106 0.417599
O O1 0.179769 0.858632 0.361606
O O2 0.180203 0.021500 0.076972
O O3 0.123119 0.207598 0.415297
O O4 0.959019 0.232168 0.221595
O O5 0.737709 0.803550 0.889490
O O6 0.842079 0.789614 0.213481
O O7 0.609845 0.171368 0.101138
O O8 0.580629 0.548547 0.640226
O O9 0.362719 0.972738 0.571244
O O10 0.544999 0.849725 0.830027
O O11 0.753908 0.407054 0.397654
O O12 0.719853 0.607972 0.110876
O O13 0.824905 0.594734 0.433003
O O14 0.215340 0.534547 0.239866
#
# Coordination Sequence:
#
# PCOD8026142 Si02
#       7
#     2   2   2   2   2   2   2
#     4  12  24  38  58  89 124 156 186 232 301 350
#     4   9  20  39  62  87 112 152 193 248 282 330
#     4   8  20  42  59  90 111 148 202 236 297 327
#     4  11  23  39  63  86 113 161 196 235 286 339
#     4  10  24  39  58  89 120 155 188 241 289 351
#     4   9  20  41  63  88 110 153 199 246 280 336
#     4   9  22  40  62  89 112 153 194 250 282 334
#
# _framework density 21.262338
#
# number of rings (size 3 to 8) (size 9 to 14) (size 15 to 20)
#    1.714    0.571    0.000    2.143    0.000    8.000 
#    0.000    0.000    0.000    0.000    0.000    0.000 
#    0.000    0.000    0.000    0.000    0.000    0.000 
#
# Total GULP energy -173444.917948 kJ/mol
# GULP energy per Si atom -12388.922711 kJ/mol
# Density = 2.121394 g / cm^3
# Si number density = 21.262338 Si / 1000 Ang^3
#
#
#
# Elastic Constant Matrix: (Units=GPa)
#
#
# Indices 1 2 3 4 5 6 
#
# 1 44.1782 12.0850 21.0617 3.5991 -21.4378 -4.8414
# 2 12.0850 71.8954 -12.8641 -0.9508 -17.3537 -8.1751
# 3 21.0617 -12.8641 43.9647 -1.6096 -15.5509 0.6382
# 4 3.5991 -0.9508 -1.6096 26.7712 0.9108 -7.0118
# 5 -21.4378 -17.3537 -15.5509 0.9108 29.7065 -4.3897
# 6 -4.8414 -8.1751 0.6382 -7.0118 -4.3897 26.7833
#
#
#
# Elastic Compliance Matrix: (Units=1/GPa)
#
#
# Indices 1 2 3 4 5 6 
#
# 1 0.042753 -0.002647 -0.013059 -0.004851 0.024083 0.009908
# 2 -0.002647 0.023814 0.015970 0.004333 0.021872 0.011129
# 3 -0.013059 0.015970 0.041783 0.005834 0.022596 0.006749
# 4 -0.004851 0.004333 0.005834 0.041456 0.002523 0.011573
# 5 0.024083 0.021872 0.022596 0.002523 0.079135 0.024122
# 6 0.009908 0.011129 0.006749 0.011573 0.024122 0.049347
#
#
# Mechanical properties :
#
#
# Convention : Reuss Voigt Hill
#
# Bulk Modulus (GPa) = 9.18471 22.28926 15.73698
# Shear Modulus (GPa) = 15.92092 25.96927 20.94509
#
# Velocity S-wave (km/s) = 2.73936 3.49861 3.14200
# Velocity P-wave (km/s) = 3.78610 5.17939 4.53655
#
# Compressibility (1/GPa) = 0.10887665
#
# Stress axis : x y z
#
# Youngs Moduli (GPa) = 23.39012 41.99260 23.93345
#
# Poissons Ratio (x) = 0.11117 0.31254
# Poissons Ratio (y) = 0.06192 -0.38221
# Poissons Ratio (z) = 0.30545 -0.67062
#
# Static dielectric constant tensor:
#      x y z
#    x 3.576300 -0.092210 0.006620 
#    y -0.092210 3.607330 0.095200 
#    z 0.006620 0.095200 3.641770 
# 
# 
# High freq. dielectric constant tensor:
#      x y z
#    x 1.808460 -0.007590 -0.001630 
#    y -0.007590 1.823590 0.004010 
#    z -0.001630 0.004010 1.829820 
# 
# From -- ./inp_files/244018.got.cif
#   From: 2010.06.25/outbox.cif.g09.slc.cpg/sg2_123_cif.got.tgz:244018.got - 2010.06.27 13:26:56.
