data_PCOD8026393
_publ_section_title
;
Structure prediction by ZEFSAII (Michael W. Deem and Ramdas Pophale) SiO2 
 PCOD8026393
Probable space group: P -1
;
_chemical_formula_sum "Si O2"
_cell_formula_units_Z 16
_cell_length_a 9.126246
_cell_length_b 20.549828
_cell_length_c 11.045032
_cell_angle_alpha 21.433734
_cell_angle_beta 80.199595
_cell_angle_gamma 78.135828
_cell_volume 739.479383
_symmetry_space_group_name_H-M "P -1"
_symmetry_group_IT_number 2
_symmetry_cell_setting 'triclinic'
loop_
_space_group_symop_operation_xyz
x,y,z
-x,-y,-z
loop_
_atom_site_type_symbol
_atom_site_label
_atom_site_fract_x
_atom_site_fract_y
_atom_site_fract_z
Si Si1 0.238132 0.403223 0.180962
Si Si2 0.576865 0.815763 0.861714
Si Si3 0.176620 0.960544 0.554207
Si Si4 0.072673 0.087284 0.726090
Si Si5 0.297539 0.814206 0.040548
Si Si6 0.197190 0.782378 0.615844
Si Si7 0.475676 0.799421 0.383836
Si Si8 0.645960 0.473535 0.292805
O O1 0.104794 0.283622 0.421151
O O2 0.397339 0.295081 0.381875
O O3 0.190840 0.569621 0.988077
O O4 0.246505 0.471164 0.923761
O O5 0.500000 0.000000 0.500000
O O6 0.750792 0.850416 0.793067
O O7 0.480393 0.792388 0.038014
O O8 0.559423 0.653362 0.053362
O O9 0.242112 0.838556 0.644828
O O10 0.220193 0.842105 0.872452
O O11 0.000000 0.000000 0.500000
O O12 0.960685 0.105036 0.596928
O O13 0.232125 0.979293 0.850298
O O14 0.000000 0.000000 0.000000
O O15 0.258666 0.633529 0.425901
O O16 0.319066 0.826410 0.427114
O O17 0.464333 0.664973 0.503908
O O18 0.500000 0.000000 0.000000
#
# Coordination Sequence:
#
# PCOD8026393 Si02
#       8
#     2   2   2   2   2   2   2   2
#     4  11  24  43  72  98 134 176 231 285 341 407
#     4  10  24  41  73  95 133 184 221 283 336 405
#     4  11  24  46  69  99 137 181 229 275 348 406
#     4  12  24  45  69  99 137 182 225 281 349 407
#     4  11  24  43  68 100 134 179 228 278 335 417
#     4  11  24  41  68  99 138 178 224 280 349 405
#     4  11  25  43  72 103 134 175 229 296 333 403
#     4  11  23  43  69 103 136 173 230 280 346 401
#
# _framework density 21.636842000000001
#
# number of rings (size 3 to 8) (size 9 to 14) (size 15 to 20)
#    0.000    1.000    1.250    6.750   10.500    0.000 
#    0.000    0.625    0.000    0.000    0.000    0.000 
#    0.000    0.000    0.000    0.000    0.000    0.000 
#
# Total GULP energy -198322.658451 kJ/mol
# GULP energy per Si atom -12395.166153 kJ/mol
# Density = 2.158760 g / cm^3
# Si number density = 21.636842 Si / 1000 Ang^3
#
#
#
# Elastic Constant Matrix: (Units=GPa)
#
#
# Indices 1 2 3 4 5 6 
#
# 1 104.7962 35.2837 42.9120 4.4694 -13.6726 0.0375
# 2 35.2837 139.1421 74.9143 -14.2941 -15.2120 1.5852
# 3 42.9120 74.9143 162.4359 -2.1521 -15.4812 8.2131
# 4 4.4694 -14.2941 -2.1521 40.5447 2.9631 3.8461
# 5 -13.6726 -15.2120 -15.4812 2.9631 36.9582 0.6234
# 6 0.0375 1.5852 8.2131 3.8461 0.6234 28.5047
#
#
#
# Elastic Compliance Matrix: (Units=1/GPa)
#
#
# Indices 1 2 3 4 5 6 
#
# 1 0.011422 -0.001744 -0.002020 -0.002274 0.002829 0.000909
# 2 -0.001744 0.010392 -0.004137 0.003508 0.001616 0.000108
# 3 -0.002020 -0.004137 0.008831 -0.000651 0.001339 -0.002253
# 4 -0.002274 0.003508 -0.000651 0.026581 -0.001741 -0.003553
# 5 0.002829 0.001616 0.001339 -0.001741 0.029485 -0.000889
# 6 0.000909 0.000108 -0.002253 -0.003553 -0.000889 0.036223
#
#
# Mechanical properties :
#
#
# Convention : Reuss Voigt Hill
#
# Bulk Modulus (GPa) = 67.36672 79.17713 73.27192
# Shear Modulus (GPa) = 34.79862 38.08581 36.44222
#
# Velocity S-wave (km/s) = 4.01472 4.20006 4.10843
# Velocity P-wave (km/s) = 7.25902 7.75847 7.51289
#
# Compressibility (1/GPa) = 0.01484413
#
# Stress axis : x y z
#
# Youngs Moduli (GPa) = 87.54870 96.22418 113.23965
#
# Poissons Ratio (x) = 0.16778 0.22872
# Poissons Ratio (y) = 0.15266 0.46849
# Poissons Ratio (z) = 0.17683 0.39810
#
# Static dielectric constant tensor:
#      x y z
#    x 4.441980 -0.047820 -0.397350 
#    y -0.047820 4.174550 0.004600 
#    z -0.397350 0.004600 4.365490 
# 
# 
# High freq. dielectric constant tensor:
#      x y z
#    x 1.841800 -0.005950 0.000530 
#    y -0.005950 1.856350 -0.000230 
#    z 0.000530 -0.000230 1.858650 
# 
# From -- ./inp_files/405208.got.cif
#   From: 2010.06.25/outbox.cif.g09.slc.cpg/sg2_203_cif.got.tgz:405208.got - 2010.06.27 13:26:56.
