data_PCOD8026739
_publ_section_title
;
Structure prediction by ZEFSAII (Michael W. Deem and Ramdas Pophale) SiO2 
 PCOD8026739
Probable space group: P -1
;
_chemical_formula_sum "Si O2"
_cell_formula_units_Z 16
_cell_length_a 10.898836
_cell_length_b 14.660418
_cell_length_c 8.597597
_cell_angle_alpha 50.920681
_cell_angle_beta 53.025969
_cell_angle_gamma 47.271062
_cell_volume 746.112467
_symmetry_space_group_name_H-M "P -1"
_symmetry_group_IT_number 2
_symmetry_cell_setting 'triclinic'
loop_
_space_group_symop_operation_xyz
x,y,z
-x,-y,-z
loop_
_atom_site_type_symbol
_atom_site_label
_atom_site_fract_x
_atom_site_fract_y
_atom_site_fract_z
Si Si1 0.826346 0.646976 0.283572
Si Si2 0.920977 0.952550 0.476069
Si Si3 0.135667 0.447500 0.094504
Si Si4 0.719325 0.786694 0.538992
Si Si5 0.707585 0.922741 0.918190
Si Si6 0.740967 0.145910 0.818686
Si Si7 0.690200 0.070426 0.264359
Si Si8 0.411722 0.408135 0.691961
O O1 0.793941 0.683805 0.448910
O O2 0.710632 0.580373 0.375438
O O3 0.035438 0.548952 0.204562
O O4 0.774684 0.774499 0.080883
O O5 0.786568 0.906530 0.700608
O O6 0.803818 0.076101 0.316749
O O7 0.089969 0.836906 0.378293
O O8 0.000000 0.000000 0.500000
O O9 0.196386 0.297379 0.276232
O O10 0.306257 0.450424 0.891480
O O11 0.000000 0.500000 0.000000
O O12 0.759103 0.910455 0.358070
O O13 0.512033 0.847450 0.629994
O O14 0.778300 0.999417 0.891996
O O15 0.500000 0.000000 0.000000
O O16 0.565666 0.255847 0.753045
O O17 0.729076 0.144435 0.014711
O O18 0.500000 0.500000 0.500000
#
# Coordination Sequence:
#
# PCOD8026739 Si02
#       8
#     2   2   2   2   2   2   2   2
#     4  11  23  41  69  96 136 171 231 278 336 393
#     4  10  25  38  62  99 140 174 213 269 340 403
#     4  10  24  43  66  96 133 178 226 276 325 404
#     4  11  23  41  70 106 131 173 228 286 337 388
#     4  11  21  39  69 103 128 176 222 282 338 396
#     4  11  22  43  64 100 140 172 219 279 345 401
#     4  11  23  39  71 103 138 172 222 284 343 397
#     4  11  25  43  67  94 135 185 221 270 337 406
#
# _framework density 21.444489000000001
#
# number of rings (size 3 to 8) (size 9 to 14) (size 15 to 20)
#    0.000    1.250    3.750    1.500    8.750    1.000 
#    0.000    0.625    0.000    0.000    0.000    0.000 
#    0.000    0.000    0.000    0.000    0.000    0.000 
#
# Total GULP energy -198265.627721 kJ/mol
# GULP energy per Si atom -12391.601733 kJ/mol
# Density = 2.139568 g / cm^3
# Si number density = 21.444489 Si / 1000 Ang^3
#
#
#
# Elastic Constant Matrix: (Units=GPa)
#
#
# Indices 1 2 3 4 5 6 
#
# 1 82.8121 26.8929 32.8908 8.7840 9.1955 -11.4479
# 2 26.8929 100.3450 35.2023 14.0709 -9.4290 -13.4821
# 3 32.8908 35.2023 126.1970 23.4699 -6.2040 -6.1277
# 4 8.7840 14.0709 23.4699 40.8254 -8.3965 -3.2374
# 5 9.1955 -9.4290 -6.2040 -8.3965 38.1886 1.8493
# 6 -11.4479 -13.4821 -6.1277 -3.2374 1.8493 38.8129
#
#
#
# Elastic Compliance Matrix: (Units=1/GPa)
#
#
# Indices 1 2 3 4 5 6 
#
# 1 0.015434 -0.002949 -0.003049 -0.001411 -0.005404 0.003187
# 2 -0.002949 0.012373 -0.002105 -0.001592 0.002936 0.002823
# 3 -0.003049 -0.002105 0.010127 -0.004282 0.000939 -0.000434
# 4 -0.001411 -0.001592 -0.004282 0.029001 0.005603 0.000507
# 5 -0.005404 0.002936 0.000939 0.005603 0.029663 -0.001372
# 6 0.003187 0.002823 -0.000434 0.000507 -0.001372 0.027724
#
#
# Mechanical properties :
#
#
# Convention : Reuss Voigt Hill
#
# Bulk Modulus (GPa) = 46.02169 55.48067 50.75118
# Shear Modulus (GPa) = 33.83609 37.85659 35.84634
#
# Velocity S-wave (km/s) = 3.97652 4.20614 4.09294
# Velocity P-wave (km/s) = 6.52618 7.03681 6.78630
#
# Compressibility (1/GPa) = 0.02172889
#
# Stress axis : x y z
#
# Youngs Moduli (GPa) = 64.79114 80.82171 98.74192
#
# Poissons Ratio (x) = 0.23833 0.30103
# Poissons Ratio (y) = 0.19105 0.20789
# Poissons Ratio (z) = 0.19753 0.17016
#
# Static dielectric constant tensor:
#      x y z
#    x 3.822390 0.004470 -0.261170 
#    y 0.004470 3.841310 0.678180 
#    z -0.261170 0.678180 4.340770 
# 
# 
# High freq. dielectric constant tensor:
#      x y z
#    x 1.828860 -0.023820 0.008810 
#    y -0.023820 1.841590 0.020740 
#    z 0.008810 0.020740 1.854290 
# 
# From -- ./inp_files/189352.got.cif
#   From: 2010.06.25/outbox.cif.g09.slc.cpg/sg2_95_cif.got.tgz:189352.got - 2010.06.27 13:26:56.
