data_PCOD8026612
_publ_section_title
;
Structure prediction by ZEFSAII (Michael W. Deem and Ramdas Pophale) SiO2 
 PCOD8026612
Probable space group: P -1
;
_chemical_formula_sum "Si O2"
_cell_formula_units_Z 16
_cell_length_a 19.770622
_cell_length_b 9.316046
_cell_length_c 11.998532
_cell_angle_alpha 49.505569
_cell_angle_beta 140.702329
_cell_angle_gamma 150.794914
_cell_volume 680.504261
_symmetry_space_group_name_H-M "P -1"
_symmetry_group_IT_number 2
_symmetry_cell_setting 'triclinic'
loop_
_space_group_symop_operation_xyz
x,y,z
-x,-y,-z
loop_
_atom_site_type_symbol
_atom_site_label
_atom_site_fract_x
_atom_site_fract_y
_atom_site_fract_z
Si Si1 0.101373 0.615422 0.853100
Si Si2 0.603438 0.597132 0.763013
Si Si3 0.114253 0.318517 0.436124
Si Si4 0.712265 0.389061 0.280090
Si Si5 0.557046 0.816542 0.430734
Si Si6 0.908327 0.745938 0.143149
Si Si7 0.184282 0.405733 0.222421
Si Si8 0.441910 0.293589 0.928810
O O1 0.082924 0.440393 0.816972
O O2 0.947789 0.550207 0.694623
O O3 0.252169 0.969697 0.851655
O O4 0.117111 0.518064 0.037283
O O5 0.656219 0.870914 0.639503
O O6 0.470580 0.362473 0.616285
O O7 0.491752 0.478059 0.789540
O O8 0.759749 0.671005 0.939439
O O9 0.272780 0.513923 0.622665
O O10 0.157544 0.343838 0.350638
O O11 0.000000 0.000000 0.500000
O O12 0.872103 0.655399 0.272804
O O13 0.687332 0.133791 0.380856
O O14 0.547909 0.246725 0.084728
O O15 0.379463 0.666320 0.313644
O O16 0.081130 0.099906 0.179519
O O17 0.500000 0.500000 0.000000
#
# Coordination Sequence:
#
# PCOD8026612 Si02
#       8
#     2   2   2   2   2   2   2   2
#     4  12  26  45  73 105 138 186 238 283 350 418
#     4  10  24  42  71 102 142 175 229 287 347 409
#     4  12  28  48  67 101 143 185 232 290 349 416
#     4  11  24  46  69  98 141 179 233 287 349 411
#     4  11  24  43  71 106 135 175 235 294 342 404
#     4  11  24  47  74 101 142 186 231 283 352 419
#     4  12  26  47  71 103 145 185 234 288 349 416
#     4  11  24  43  71 101 142 187 231 281 360 415
#
# _framework density 23.511977000000002
#
# number of rings (size 3 to 8) (size 9 to 14) (size 15 to 20)
#    0.000    0.750    3.750    2.250    7.000    5.000 
#    0.000    0.000    0.000    0.000    0.000    0.000 
#    0.000    0.000    0.000    0.000    0.000    0.000 
#
# Total GULP energy -198266.666758 kJ/mol
# GULP energy per Si atom -12391.666672 kJ/mol
# Density = 2.345846 g / cm^3
# Si number density = 23.511977 Si / 1000 Ang^3
#
#
#
# Elastic Constant Matrix: (Units=GPa)
#
#
# Indices 1 2 3 4 5 6 
#
# 1 84.5020 14.7524 29.2085 -6.5975 -26.1620 -3.1340
# 2 14.7524 76.4099 20.2833 -12.9166 2.6180 -1.6434
# 3 29.2085 20.2833 113.8425 -21.1820 -22.3786 -2.1095
# 4 -6.5975 -12.9166 -21.1820 43.6522 0.9960 -6.9448
# 5 -26.1620 2.6180 -22.3786 0.9960 40.7376 -1.7039
# 6 -3.1340 -1.6434 -2.1095 -6.9448 -1.7039 29.5647
#
#
#
# Elastic Compliance Matrix: (Units=1/GPa)
#
#
# Indices 1 2 3 4 5 6 
#
# 1 0.016003 -0.002816 -0.001464 0.001009 0.009723 0.002233
# 2 -0.002816 0.014882 -0.002096 0.003195 -0.003956 0.000902
# 3 -0.001464 -0.002096 0.011582 0.004978 0.005521 0.002042
# 4 0.001009 0.003195 0.004978 0.027513 0.002808 0.007264
# 5 0.009723 -0.003956 0.005521 0.002808 0.034170 0.003834
# 6 0.002233 0.000902 0.002042 0.007264 0.003834 0.036184
#
#
# Mechanical properties :
#
#
# Convention : Reuss Voigt Hill
#
# Bulk Modulus (GPa) = 33.65057 44.80474 39.22765
# Shear Modulus (GPa) = 30.67629 36.82492 33.75060
#
# Velocity S-wave (km/s) = 3.61599 3.96184 3.79286
# Velocity P-wave (km/s) = 5.63711 6.32659 5.99178
#
# Compressibility (1/GPa) = 0.02971718
#
# Stress axis : x y z
#
# Youngs Moduli (GPa) = 62.48646 67.19399 86.33820
#
# Poissons Ratio (x) = 0.18920 0.12640
# Poissons Ratio (y) = 0.17595 0.18094
# Poissons Ratio (z) = 0.09148 0.14082
#
# Static dielectric constant tensor:
#      x y z
#    x 4.185890 -0.128660 -0.289480 
#    y -0.128660 4.652550 -0.171750 
#    z -0.289480 -0.171750 4.752360 
# 
# 
# High freq. dielectric constant tensor:
#      x y z
#    x 1.919660 0.002640 -0.014100 
#    y 0.002640 1.937140 -0.014250 
#    z -0.014100 -0.014250 1.952890 
# 
# From -- ./inp_files/282604.got.cif
#   From: 2010.06.25/outbox.cif.g09.slc.cpg/sg2_142_cif.got.tgz:282604.got - 2010.06.27 13:26:56.
