data_PCOD8026469
_publ_section_title
;
Structure prediction by ZEFSAII (Michael W. Deem and Ramdas Pophale) SiO2 
 PCOD8026469
Probable space group: P -1
;
_chemical_formula_sum "Si O2"
_cell_formula_units_Z 16
_cell_length_a 13.542591
_cell_length_b 20.134239
_cell_length_c 8.123591
_cell_angle_alpha 50.227584
_cell_angle_beta 79.040643
_cell_angle_gamma 35.986602
_cell_volume 688.745104
_symmetry_space_group_name_H-M "P -1"
_symmetry_group_IT_number 2
_symmetry_cell_setting 'triclinic'
loop_
_space_group_symop_operation_xyz
x,y,z
-x,-y,-z
loop_
_atom_site_type_symbol
_atom_site_label
_atom_site_fract_x
_atom_site_fract_y
_atom_site_fract_z
Si Si1 0.679511 0.565716 0.647240
Si Si2 0.721954 0.714826 0.302916
Si Si3 0.579345 0.905184 0.387761
Si Si4 0.838186 0.812081 0.704972
Si Si5 0.588135 0.303677 0.193917
Si Si6 0.740414 0.360717 0.707173
Si Si7 0.059587 0.973030 0.735662
Si Si8 0.907356 0.250425 0.491123
O O1 0.618994 0.697085 0.347663
O O2 0.474794 0.717477 0.613306
O O3 0.682299 0.475146 0.685308
O O4 0.936660 0.385589 0.935574
O O5 0.700799 0.759493 0.429896
O O6 0.000000 0.500000 0.500000
O O7 0.561828 0.899408 0.942216
O O8 0.787504 0.771366 0.663001
O O9 0.391794 0.990894 0.413236
O O10 0.894973 0.848609 0.512211
O O11 0.819671 0.180617 0.370951
O O12 0.694401 0.180346 0.185453
O O13 0.351190 0.546472 0.845453
O O14 0.500000 0.500000 0.500000
O O15 0.868221 0.312447 0.592703
O O16 0.923082 0.142902 0.054470
O O17 0.010912 0.070953 0.755410
#
# Coordination Sequence:
#
# PCOD8026469 Si02
#       8
#     2   2   2   2   2   2   2   2
#     4  11  26  44  72  99 144 182 233 279 353 406
#     4  11  24  46  74 104 139 180 219 289 351 411
#     4  10  24  47  73 101 144 172 234 279 351 413
#     4  10  24  45  68 105 135 183 224 294 330 417
#     4  10  24  42  66 100 130 178 229 291 330 420
#     4  12  26  45  67 101 143 184 234 293 341 412
#     4  11  24  41  73  93 134 185 231 283 354 393
#     4  11  24  43  68  96 139 175 238 283 342 410
#
# _framework density 23.230653
#
# number of rings (size 3 to 8) (size 9 to 14) (size 15 to 20)
#    0.000    1.250    2.500    1.500   10.500    2.500 
#    0.000    0.000    0.000    0.000    0.000    0.000 
#    0.000    0.000    0.000    0.000    0.000    0.000 
#
# Total GULP energy -198277.107644 kJ/mol
# GULP energy per Si atom -12392.319228 kJ/mol
# Density = 2.317778 g / cm^3
# Si number density = 23.230653 Si / 1000 Ang^3
#
#
#
# Elastic Constant Matrix: (Units=GPa)
#
#
# Indices 1 2 3 4 5 6 
#
# 1 104.9776 60.8482 50.4492 -8.3415 -2.3758 -7.6682
# 2 60.8482 162.6489 41.9614 -1.5227 -1.0080 -21.5121
# 3 50.4492 41.9614 64.9953 0.4227 -0.6875 -7.6385
# 4 -8.3415 -1.5227 0.4227 35.0207 -4.8315 -0.1467
# 5 -2.3758 -1.0080 -0.6875 -4.8315 37.0982 10.1651
# 6 -7.6682 -21.5121 -7.6385 -0.1467 10.1651 39.9320
#
#
#
# Elastic Compliance Matrix: (Units=1/GPa)
#
#
# Indices 1 2 3 4 5 6 
#
# 1 0.017375 -0.003710 -0.011246 0.004343 0.001707 -0.001232
# 2 -0.003710 0.008601 -0.002236 -0.000628 -0.001165 0.003788
# 3 -0.011246 -0.002236 0.025786 -0.003250 -0.001239 0.001872
# 4 0.004343 -0.000628 -0.003250 0.030210 0.004450 -0.001148
# 5 0.001707 -0.001165 -0.001239 0.004450 0.029812 -0.008109
# 6 -0.001232 0.003788 0.001872 -0.001148 -0.008109 0.029265
#
#
# Mechanical properties :
#
#
# Convention : Reuss Voigt Hill
#
# Bulk Modulus (GPa) = 57.54496 71.01548 64.28022
# Shear Modulus (GPa) = 27.59008 34.36771 30.97890
#
# Velocity S-wave (km/s) = 3.44998 3.85049 3.65572
# Velocity P-wave (km/s) = 6.37924 7.09961 6.74904
#
# Compressibility (1/GPa) = 0.01737772
#
# Stress axis : x y z
#
# Youngs Moduli (GPa) = 57.55536 116.26542 38.78058
#
# Poissons Ratio (x) = 0.43140 0.43611
# Poissons Ratio (y) = 0.21356 0.08671
# Poissons Ratio (z) = 0.64724 0.25996
#
# Static dielectric constant tensor:
#      x y z
#    x 3.956460 -0.172940 0.034390 
#    y -0.172940 4.621680 0.040090 
#    z 0.034390 0.040090 4.154060 
# 
# 
# High freq. dielectric constant tensor:
#      x y z
#    x 1.896340 -0.012810 0.002990 
#    y -0.012810 1.945320 0.002120 
#    z 0.002990 0.002120 1.913430 
# 
# From -- ./inp_files/279012.got.cif
#   From: 2010.06.25/outbox.cif.g09.slc.cpg/sg2_140_cif.got.tgz:279012.got - 2010.06.27 13:26:56.
