data_PCOD8026223
_publ_section_title
;
Structure prediction by ZEFSAII (Michael W. Deem and Ramdas Pophale) SiO2 
 PCOD8026223
Probable space group: P -1
;
_chemical_formula_sum "Si O2"
_cell_formula_units_Z 16
_cell_length_a 15.065619
_cell_length_b 9.210720
_cell_length_c 14.008813
_cell_angle_alpha 77.675517
_cell_angle_beta 27.466760
_cell_angle_gamma 95.688695
_cell_volume 672.853940
_symmetry_space_group_name_H-M "P -1"
_symmetry_group_IT_number 2
_symmetry_cell_setting 'triclinic'
loop_
_space_group_symop_operation_xyz
x,y,z
-x,-y,-z
loop_
_atom_site_type_symbol
_atom_site_label
_atom_site_fract_x
_atom_site_fract_y
_atom_site_fract_z
Si Si1 0.074139 0.500957 0.172552
Si Si2 0.724478 0.981658 0.840169
Si Si3 0.684202 0.693121 0.212059
Si Si4 0.532970 0.073316 0.188696
Si Si5 0.821311 0.322922 0.625241
Si Si6 0.137819 0.381293 0.778722
Si Si7 0.638184 0.976920 0.287609
Si Si8 0.967484 0.854050 0.740402
O O1 0.159147 0.372299 0.102856
O O2 0.851855 0.395595 0.478022
O O3 0.970692 0.512367 0.168240
O O4 0.305750 0.706573 0.963281
O O5 0.880986 0.173517 0.595692
O O6 0.881561 0.914633 0.726255
O O7 0.660494 0.049536 0.984080
O O8 0.472581 0.802450 0.050937
O O9 0.418617 0.501389 0.449693
O O10 0.829066 0.628735 0.136828
O O11 0.619055 0.788441 0.341480
O O12 0.860295 0.862194 0.942383
O O13 0.493697 0.943399 0.332708
O O14 0.263252 0.001768 0.427954
O O15 0.000000 0.500000 0.500000
O O16 0.933328 0.161341 0.968996
O O17 0.500000 0.000000 0.500000
#
# Coordination Sequence:
#
# PCOD8026223 Si02
#       8
#     2   2   2   2   2   2   2   2
#     4  11  24  43  65 100 135 178 225 282 339 396
#     4  11  24  45  72 100 133 180 225 274 343 408
#     4  11  23  41  66  99 135 183 224 276 337 391
#     4  11  23  44  68  98 139 181 223 272 340 403
#     4  11  23  45  75  97 136 175 222 286 343 395
#     4  10  24  40  66  95 138 173 231 268 333 402
#     4  11  23  41  65  98 139 181 226 279 328 395
#     4  12  25  43  71 101 138 176 226 277 333 408
#
# _framework density 23.779305000000001
#
# number of rings (size 3 to 8) (size 9 to 14) (size 15 to 20)
#    0.000    1.000    3.750    2.625    0.000    7.500 
#    0.000    1.250    0.000    0.000    0.000    0.000 
#    0.000    0.000    0.000    0.000    0.000    0.000 
#
# Total GULP energy -198243.769865 kJ/mol
# GULP energy per Si atom -12390.235617 kJ/mol
# Density = 2.372518 g / cm^3
# Si number density = 23.779305 Si / 1000 Ang^3
#
#
#
# Elastic Constant Matrix: (Units=GPa)
#
#
# Indices 1 2 3 4 5 6 
#
# 1 121.2811 34.5128 24.9345 -16.8392 -26.1587 -40.9006
# 2 34.5128 99.0170 44.1419 -17.1180 -22.6149 -17.9227
# 3 24.9345 44.1419 94.1315 -23.5248 -19.1882 -13.5028
# 4 -16.8392 -17.1180 -23.5248 32.9342 -0.2404 5.5244
# 5 -26.1587 -22.6149 -19.1882 -0.2404 42.9061 0.0116
# 6 -40.9006 -17.9227 -13.5028 5.5244 0.0116 40.2451
#
#
#
# Elastic Compliance Matrix: (Units=1/GPa)
#
#
# Indices 1 2 3 4 5 6 
#
# 1 0.017022 0.000122 0.002067 0.007472 0.011404 0.017018
# 2 0.000122 0.014831 -0.004015 0.004141 0.006118 0.004812
# 3 0.002067 -0.004015 0.016433 0.010010 0.006548 0.004450
# 4 0.007472 0.004141 0.010010 0.042400 0.011450 0.006972
# 5 0.011404 0.006118 0.006548 0.011450 0.036472 0.014929
# 6 0.017018 0.004812 0.004450 0.006972 0.014929 0.044817
#
#
# Mechanical properties :
#
#
# Convention : Reuss Voigt Hill
#
# Bulk Modulus (GPa) = 22.40455 57.95646 40.18050
# Shear Modulus (GPa) = 26.24606 37.27311 31.75959
#
# Velocity S-wave (km/s) = 3.32586 3.96341 3.65855
# Velocity P-wave (km/s) = 4.91841 6.73575 5.89751
#
# Compressibility (1/GPa) = 0.04463379
#
# Stress axis : x y z
#
# Youngs Moduli (GPa) = 58.74845 67.42839 60.85174
#
# Poissons Ratio (x) = -0.00824 -0.12577
# Poissons Ratio (y) = -0.00718 0.24432
# Poissons Ratio (z) = -0.12142 0.27072
#
# Static dielectric constant tensor:
#      x y z
#    x 4.679060 -0.184600 0.124450 
#    y -0.184600 4.299250 -0.150180 
#    z 0.124450 -0.150180 4.318390 
# 
# 
# High freq. dielectric constant tensor:
#      x y z
#    x 1.959910 -0.013000 0.005490 
#    y -0.013000 1.924680 -0.019430 
#    z 0.005490 -0.019430 1.946320 
# 
# From -- ./inp_files/529610.got.cif
#   From: 2010.06.25/outbox.cif.g09.slc.cpg/sg2_265_cif.got.tgz:529610.got - 2010.06.27 13:26:56.
