data_PCOD8026617
_publ_section_title
;
Structure prediction by ZEFSAII (Michael W. Deem and Ramdas Pophale) SiO2 
 PCOD8026617
Probable space group: P -1
;
_chemical_formula_sum "Si O2"
_cell_formula_units_Z 16
_cell_length_a 20.208115
_cell_length_b 11.811988
_cell_length_c 17.216271
_cell_angle_alpha 40.397130
_cell_angle_beta 159.096996
_cell_angle_gamma 149.040438
_cell_volume 736.574087
_symmetry_space_group_name_H-M "P -1"
_symmetry_group_IT_number 2
_symmetry_cell_setting 'triclinic'
loop_
_space_group_symop_operation_xyz
x,y,z
-x,-y,-z
loop_
_atom_site_type_symbol
_atom_site_label
_atom_site_fract_x
_atom_site_fract_y
_atom_site_fract_z
Si Si1 0.509998 0.660203 0.318008
Si Si2 0.923273 0.281910 0.656407
Si Si3 0.357320 0.201149 0.437818
Si Si4 0.967892 0.500832 0.172737
Si Si5 0.432646 0.537302 0.026001
Si Si6 0.181894 0.713361 0.140530
Si Si7 0.184439 0.246071 0.538442
Si Si8 0.547868 0.801210 0.866399
O O1 0.346092 0.396203 0.300048
O O2 0.614306 0.808702 0.432995
O O3 0.737616 0.754130 0.463996
O O4 0.322189 0.677825 0.060226
O O5 0.944855 0.346647 0.735551
O O6 0.712664 0.267321 0.393414
O O7 0.872340 0.043741 0.715771
O O8 0.172677 0.468213 0.789733
O O9 0.579236 0.255273 0.605958
O O10 0.076967 0.676927 0.129746
O O11 0.060063 0.358837 0.346903
O O12 0.571751 0.613893 0.219041
O O13 0.414052 0.328986 0.085103
O O14 0.573043 0.741829 0.011899
O O15 0.236553 0.933997 0.047341
O O16 0.000000 0.500000 0.000000
O O17 0.000000 0.000000 0.500000
#
# Coordination Sequence:
#
# PCOD8026617 Si02
#       8
#     2   2   2   2   2   2   2   2
#     4  11  24  46  68 104 141 177 234 277 349 413
#     4  11  24  44  70 104 138 177 232 282 345 410
#     4  10  24  42  71 105 138 184 223 290 342 409
#     4  12  25  45  71 100 140 178 228 290 342 409
#     4  11  24  46  68  98 139 187 231 277 349 413
#     4  11  23  42  70 102 141 180 231 284 346 405
#     4  12  28  46  70 100 139 183 232 286 346 417
#     4  10  25  43  68 101 139 184 229 285 342 413
#
# _framework density 21.722187000000002
#
# number of rings (size 3 to 8) (size 9 to 14) (size 15 to 20)
#    0.000    1.000    5.000    0.375    3.500    6.000 
#    4.500    0.000    0.000    0.000    0.000    0.000 
#    0.000    0.000    0.000    0.000    0.000    0.000 
#
# Total GULP energy -198446.117301 kJ/mol
# GULP energy per Si atom -12402.882331 kJ/mol
# Density = 2.167275 g / cm^3
# Si number density = 21.722187 Si / 1000 Ang^3
#
#
#
# Elastic Constant Matrix: (Units=GPa)
#
#
# Indices 1 2 3 4 5 6 
#
# 1 114.5988 53.4507 28.6790 9.0918 10.9643 -8.8413
# 2 53.4507 133.5324 38.2385 3.2201 4.8363 5.0074
# 3 28.6790 38.2385 88.6061 -2.4823 6.4766 -3.1324
# 4 9.0918 3.2201 -2.4823 25.5274 -1.8039 1.8148
# 5 10.9643 4.8363 6.4766 -1.8039 22.5260 -1.4364
# 6 -8.8413 5.0074 -3.1324 1.8148 -1.4364 27.5458
#
#
#
# Elastic Compliance Matrix: (Units=1/GPa)
#
#
# Indices 1 2 3 4 5 6 
#
# 1 0.012363 -0.004337 -0.001757 -0.004685 -0.004662 0.004622
# 2 -0.004337 0.010243 -0.003182 0.000243 0.000617 -0.003600
# 3 -0.001757 -0.003182 0.013485 0.002098 -0.002088 0.001301
# 4 -0.004685 0.000243 0.002098 0.041619 0.004715 -0.003805
# 5 -0.004662 0.000617 -0.002088 0.004715 0.047528 0.000322
# 6 0.004622 -0.003600 0.001301 -0.003805 0.000322 0.038857
#
#
# Mechanical properties :
#
#
# Convention : Reuss Voigt Hill
#
# Bulk Modulus (GPa) = 57.01637 64.16373 60.59005
# Shear Modulus (GPa) = 26.52607 29.54445 28.03526
#
# Velocity S-wave (km/s) = 3.49829 3.69196 3.59643
# Velocity P-wave (km/s) = 6.52858 6.91206 6.72305
#
# Compressibility (1/GPa) = 0.01753882
#
# Stress axis : x y z
#
# Youngs Moduli (GPa) = 80.88675 97.62830 74.15525
#
# Poissons Ratio (x) = 0.42342 0.13028
# Poissons Ratio (y) = 0.35081 0.23597
# Poissons Ratio (z) = 0.14211 0.31067
#
# Static dielectric constant tensor:
#      x y z
#    x 3.971750 -0.171870 0.067130 
#    y -0.171870 3.755930 -0.045620 
#    z 0.067130 -0.045620 3.976550 
# 
# 
# High freq. dielectric constant tensor:
#      x y z
#    x 1.867480 -0.005110 0.008710 
#    y -0.005110 1.847550 -0.002460 
#    z 0.008710 -0.002460 1.860720 
# 
# From -- ./inp_files/278873.got.cif
#   From: 2010.06.25/outbox.cif.g09.slc.cpg/sg2_140_cif.got.tgz:278873.got - 2010.06.27 13:26:56.
