data_PCOD8026573
_publ_section_title
;
Structure prediction by ZEFSAII (Michael W. Deem and Ramdas Pophale) SiO2 
 PCOD8026573
Probable space group: P -1
;
_chemical_formula_sum "Si O2"
_cell_formula_units_Z 12
_cell_length_a 13.103046
_cell_length_b 7.444258
_cell_length_c 7.328168
_cell_angle_alpha 103.619542
_cell_angle_beta 63.855224
_cell_angle_gamma 126.197588
_cell_volume 517.516434
_symmetry_space_group_name_H-M "P -1"
_symmetry_group_IT_number 2
_symmetry_cell_setting 'triclinic'
loop_
_space_group_symop_operation_xyz
x,y,z
-x,-y,-z
loop_
_atom_site_type_symbol
_atom_site_label
_atom_site_fract_x
_atom_site_fract_y
_atom_site_fract_z
Si Si1 0.539214 0.454270 0.194650
Si Si2 0.270701 0.245580 0.157317
Si Si3 0.074911 0.321790 0.542893
Si Si4 0.547468 0.838172 0.479369
Si Si5 0.150053 0.788627 0.580869
Si Si6 0.048684 0.860764 0.027551
O O1 0.397083 0.267401 0.167309
O O2 0.535762 0.673054 0.291831
O O3 0.555603 0.333470 0.324686
O O4 0.667666 0.541047 0.978091
O O5 0.161206 0.227696 0.380617
O O6 0.196766 0.022072 0.042286
O O7 0.162223 0.581954 0.484604
O O8 0.928972 0.187660 0.520332
O O9 0.058556 0.293934 0.767929
O O10 0.500000 0.000000 0.500000
O O11 0.702602 0.982874 0.465269
O O12 0.063320 0.723878 0.822815
O O13 0.000000 0.000000 0.000000
#
# Coordination Sequence:
#
# PCOD8026573 Si02
#       6
#     2   2   2   2   2   2
#     4  10  24  42  69  95 133 177 220 275 330 393
#     4  11  22  43  67  98 131 175 221 270 335 394
#     4  11  25  43  67  97 137 170 216 279 330 393
#     4  11  23  44  67  98 131 175 226 272 329 399
#     4  11  24  45  65 100 132 171 222 272 333 389
#     4  12  24  40  70  98 129 175 217 268 336 397
#
# _framework density 23.187667999999999
#
# number of rings (size 3 to 8) (size 9 to 14) (size 15 to 20)
#    0.000    1.000    3.333    3.000    2.333    1.333 
#    6.000    4.167    0.000    0.000    0.000    0.000 
#    0.000    0.000    0.000    0.000    0.000    0.000 
#
# Total GULP energy -148773.946200 kJ/mol
# GULP energy per Si atom -12397.828850 kJ/mol
# Density = 2.313489 g / cm^3
# Si number density = 23.187668 Si / 1000 Ang^3
#
#
#
# Elastic Constant Matrix: (Units=GPa)
#
#
# Indices 1 2 3 4 5 6 
#
# 1 52.2007 31.1234 31.9154 -5.3539 7.0630 -8.6193
# 2 31.1234 75.0632 -0.7517 5.6932 6.1022 -4.0887
# 3 31.9154 -0.7517 91.2091 -13.9400 27.2761 -21.2087
# 4 -5.3539 5.6932 -13.9400 40.6070 -0.2340 5.1542
# 5 7.0630 6.1022 27.2761 -0.2340 27.7937 -0.6450
# 6 -8.6193 -4.0887 -21.2087 5.1542 -0.6450 42.0749
#
#
#
# Elastic Compliance Matrix: (Units=1/GPa)
#
#
# Indices 1 2 3 4 5 6 
#
# 1 0.038036 -0.017089 -0.016900 0.001984 0.010631 -0.002468
# 2 -0.017089 0.021675 0.009485 -0.002542 -0.009664 0.003550
# 3 -0.016900 0.009485 0.027280 0.004359 -0.024284 0.010304
# 4 0.001984 -0.002542 0.004359 0.026844 -0.004021 -0.000993
# 5 0.010631 -0.009664 -0.024284 -0.004021 0.058975 -0.009606
# 6 -0.002468 0.003550 0.010304 -0.000993 -0.009606 0.028775
#
#
# Mechanical properties :
#
#
# Convention : Reuss Voigt Hill
#
# Bulk Modulus (GPa) = 26.32782 38.11637 32.22209
# Shear Modulus (GPa) = 18.99317 32.50751 25.75034
#
# Velocity S-wave (km/s) = 2.86511 3.74830 3.33606
# Velocity P-wave (km/s) = 4.72483 5.93354 5.36334
#
# Compressibility (1/GPa) = 0.03798264
#
# Stress axis : x y z
#
# Youngs Moduli (GPa) = 26.29086 46.13709 36.65698
#
# Poissons Ratio (x) = 0.78845 0.61950
# Poissons Ratio (y) = 0.44929 -0.34770
# Poissons Ratio (z) = 0.44431 -0.43762
#
# Static dielectric constant tensor:
#      x y z
#    x 3.945690 0.267240 0.281510 
#    y 0.267240 4.260170 0.085240 
#    z 0.281510 0.085240 4.570460 
# 
# 
# High freq. dielectric constant tensor:
#      x y z
#    x 1.902260 0.014140 0.021070 
#    y 0.014140 1.920850 -0.008720 
#    z 0.021070 -0.008720 1.925980 
# 
# From -- ./inp_files/239573.got.cif
#   From: 2010.06.25/outbox.cif.g09.slc.cpg/sg2_120_cif.got.tgz:239573.got - 2010.06.27 13:26:56.
