data_PCOD8026835
_publ_section_title
;
Structure prediction by ZEFSAII (Michael W. Deem and Ramdas Pophale) SiO2 
 PCOD8026835
Probable space group: P -1
;
_chemical_formula_sum "Si O2"
_cell_formula_units_Z 16
_cell_length_a 5.204047
_cell_length_b 12.501395
_cell_length_c 13.484045
_cell_angle_alpha 114.008911
_cell_angle_beta 113.554206
_cell_angle_gamma 97.004305
_cell_volume 690.870443
_symmetry_space_group_name_H-M "P -1"
_symmetry_group_IT_number 2
_symmetry_cell_setting 'triclinic'
loop_
_space_group_symop_operation_xyz
x,y,z
-x,-y,-z
loop_
_atom_site_type_symbol
_atom_site_label
_atom_site_fract_x
_atom_site_fract_y
_atom_site_fract_z
Si Si1 0.478997 0.683383 0.522189
Si Si2 0.714127 0.235973 0.675383
Si Si3 0.859977 0.909882 0.356011
Si Si4 0.395965 0.035165 0.853392
Si Si5 0.929955 0.573870 0.606001
Si Si6 0.836282 0.582455 0.057018
Si Si7 0.923028 0.814092 0.015617
Si Si8 0.534598 0.223308 0.225099
O O1 0.425266 0.764072 0.454760
O O2 0.809588 0.679728 0.581981
O O3 0.295741 0.538043 0.408482
O O4 0.422102 0.745279 0.639109
O O5 0.439357 0.200528 0.697037
O O6 0.882628 0.136434 0.664697
O O7 0.967000 0.365275 0.794255
O O8 0.775415 0.987439 0.285766
O O9 0.000000 0.000000 0.500000
O O10 0.206829 0.083177 0.921278
O O11 0.724982 0.133982 0.926079
O O12 0.410820 0.903947 0.842438
O O13 0.000000 0.500000 0.500000
O O14 0.218160 0.657004 0.744181
O O15 0.833714 0.696298 0.029995
O O16 0.500000 0.500000 0.000000
O O17 0.000000 0.500000 0.000000
O O18 0.777997 0.778492 0.870224
#
# Coordination Sequence:
#
# PCOD8026835 Si02
#       8
#     2   2   2   2   2   2   2   2
#     4  10  24  43  69 101 144 177 238 292 353 411
#     4  12  26  46  72 106 145 180 237 297 349 424
#     4  12  25  45  72 106 142 189 230 288 357 422
#     4  12  25  48  70 104 146 182 235 292 346 419
#     4   9  22  43  63 100 137 182 230 294 340 415
#     4  12  26  47  74 103 138 191 236 288 361 419
#     4  12  27  48  71 105 144 182 237 294 341 423
#     4  11  26  42  74 100 138 191 236 278 362 412
#
# _framework density 23.159191
#
# number of rings (size 3 to 8) (size 9 to 14) (size 15 to 20)
#    0.000    0.750    2.500    3.375   10.500    3.000 
#    0.000    0.000    0.000    0.000    0.000    0.000 
#    0.000    0.000    0.000    0.000    0.000    0.000 
#
# Total GULP energy -198286.619945 kJ/mol
# GULP energy per Si atom -12392.913747 kJ/mol
# Density = 2.310648 g / cm^3
# Si number density = 23.159191 Si / 1000 Ang^3
#
#
#
# Elastic Constant Matrix: (Units=GPa)
#
#
# Indices 1 2 3 4 5 6 
#
# 1 84.3588 -5.9727 0.1398 7.6994 5.0546 -14.1613
# 2 -5.9727 65.1021 11.3394 -2.0085 -0.8476 -14.8450
# 3 0.1398 11.3394 105.1698 -5.0603 8.8234 -5.2628
# 4 7.6994 -2.0085 -5.0603 45.7055 -1.5038 0.4280
# 5 5.0546 -0.8476 8.8234 -1.5038 32.7854 3.8185
# 6 -14.1613 -14.8450 -5.2628 0.4280 3.8185 38.7222
#
#
#
# Elastic Compliance Matrix: (Units=1/GPa)
#
#
# Indices 1 2 3 4 5 6 
#
# 1 0.013458 0.002517 0.000153 -0.002292 -0.002880 0.006217
# 2 0.002517 0.017555 -0.001483 0.000100 -0.000403 0.007488
# 3 0.000153 -0.001483 0.010007 0.000913 -0.002843 0.001118
# 4 -0.002292 0.000100 0.000913 0.022422 0.001261 -0.001048
# 5 -0.002880 -0.000403 -0.002843 0.001261 0.032316 -0.004795
# 6 0.006217 0.007488 0.001118 -0.001048 -0.004795 0.031606
#
#
# Mechanical properties :
#
#
# Convention : Reuss Voigt Hill
#
# Bulk Modulus (GPa) = 23.04449 29.51596 26.28023
# Shear Modulus (GPa) = 35.85444 40.05088 37.95266
#
# Velocity S-wave (km/s) = 3.93895 4.16308 4.05257
# Velocity P-wave (km/s) = 5.53708 5.99006 5.76802
#
# Compressibility (1/GPa) = 0.04339432
#
# Stress axis : x y z
#
# Youngs Moduli (GPa) = 74.30785 56.96386 99.93489
#
# Poissons Ratio (x) = -0.14340 -0.01530
# Poissons Ratio (y) = -0.18706 0.14819
# Poissons Ratio (z) = -0.01138 0.08447
#
# Static dielectric constant tensor:
#      x y z
#    x 4.521310 0.261530 0.527510 
#    y 0.261530 4.351650 -0.202840 
#    z 0.527510 -0.202840 3.438000 
# 
# 
# High freq. dielectric constant tensor:
#      x y z
#    x 1.924650 -0.012540 0.013870 
#    y -0.012540 1.909120 0.004950 
#    z 0.013870 0.004950 1.931950 
# 
# From -- ./inp_files/482979.got.cif
#   From: 2010.06.25/outbox.cif.g09.slc.cpg/sg2_242_cif.got.tgz:482979.got - 2010.06.27 13:26:56.
