data_PCOD8026212
_publ_section_title
;
Structure prediction by ZEFSAII (Michael W. Deem and Ramdas Pophale) SiO2 
 PCOD8026212
Probable space group: P -1
;
_chemical_formula_sum "Si O2"
_cell_formula_units_Z 16
_cell_length_a 13.103913
_cell_length_b 17.155719
_cell_length_c 8.347221
_cell_angle_alpha 79.776264
_cell_angle_beta 71.131556
_cell_angle_gamma 26.024502
_cell_volume 749.616001
_symmetry_space_group_name_H-M "P -1"
_symmetry_group_IT_number 2
_symmetry_cell_setting 'triclinic'
loop_
_space_group_symop_operation_xyz
x,y,z
-x,-y,-z
loop_
_atom_site_type_symbol
_atom_site_label
_atom_site_fract_x
_atom_site_fract_y
_atom_site_fract_z
Si Si1 0.825246 0.744147 0.260758
Si Si2 0.642249 0.028287 0.709584
Si Si3 0.035339 0.656258 0.523949
Si Si4 0.464143 0.606489 0.565956
Si Si5 0.261499 0.859831 0.358840
Si Si6 0.890394 0.590721 0.696008
Si Si7 0.967329 0.954428 0.903194
Si Si8 0.337296 0.992554 0.923172
O O1 0.559030 0.876013 0.343536
O O2 0.884683 0.739477 0.406457
O O3 0.799655 0.834041 0.116943
O O4 0.031741 0.537465 0.185896
O O5 0.680462 0.093097 0.614014
O O6 0.907312 0.810429 0.632853
O O7 0.569310 0.067014 0.918872
O O8 0.027616 0.583332 0.670514
O O9 0.309195 0.510450 0.396791
O O10 0.500000 0.500000 0.500000
O O11 0.468168 0.663053 0.391511
O O12 0.219520 0.769526 0.742695
O O13 0.000000 0.000000 0.500000
O O14 0.254375 0.868297 0.166693
O O15 0.000000 0.500000 0.500000
O O16 0.590129 0.804666 0.763943
O O17 0.870576 0.936798 0.035731
O O18 0.000000 0.000000 0.000000
#
# Coordination Sequence:
#
# PCOD8026212 Si02
#       8
#     2   2   2   2   2   2   2   2
#     4  11  24  41  66  95 131 178 214 270 338 389
#     4  11  22  42  65  96 134 170 219 271 335 391
#     4  11  23  41  67  98 128 168 225 274 322 396
#     4  11  23  44  67  96 132 172 227 274 321 402
#     4   9  20  41  65  91 124 180 217 260 327 394
#     4  10  24  40  65  97 129 166 224 266 328 394
#     4  10  24  43  68  96 133 176 219 275 334 390
#     4  11  24  45  64  96 138 169 215 279 331 397
#
# _framework density 21.344260999999999
#
# number of rings (size 3 to 8) (size 9 to 14) (size 15 to 20)
#    0.000    1.500    1.250    3.750    5.250    3.500 
#    9.000    1.250    0.000    0.000    0.000    0.000 
#    0.000    0.000    0.000    0.000    0.000    0.000 
#
# Total GULP energy -198227.588328 kJ/mol
# GULP energy per Si atom -12389.224271 kJ/mol
# Density = 2.129568 g / cm^3
# Si number density = 21.344261 Si / 1000 Ang^3
#
#
#
# Elastic Constant Matrix: (Units=GPa)
#
#
# Indices 1 2 3 4 5 6 
#
# 1 188.3478 67.8444 54.0613 -5.0673 -17.8317 8.3604
# 2 67.8444 131.8895 45.0431 -6.1052 -12.0668 25.9860
# 3 54.0613 45.0431 74.2150 7.2178 -8.1753 5.1368
# 4 -5.0673 -6.1052 7.2178 32.5529 5.2366 -7.2512
# 5 -17.8317 -12.0668 -8.1753 5.2366 39.2702 -5.5075
# 6 8.3604 25.9860 5.1368 -7.2512 -5.5075 47.7718
#
#
#
# Elastic Compliance Matrix: (Units=1/GPa)
#
#
# Indices 1 2 3 4 5 6 
#
# 1 0.007502 -0.002434 -0.004003 0.001512 0.001746 0.000872
# 2 -0.002434 0.011696 -0.005090 0.001736 0.000487 -0.005069
# 3 -0.004003 -0.005090 0.020238 -0.006222 0.001738 0.000549
# 4 0.001512 0.001736 -0.006222 0.034245 -0.004054 0.004191
# 5 0.001746 0.000487 0.001738 -0.004054 0.027563 0.001805
# 6 0.000872 -0.005069 0.000549 0.004191 0.001805 0.024323
#
#
# Mechanical properties :
#
#
# Convention : Reuss Voigt Hill
#
# Bulk Modulus (GPa) = 61.03968 80.92778 70.98373
# Shear Modulus (GPa) = 32.45017 39.08587 35.76802
#
# Velocity S-wave (km/s) = 3.90336 4.28391 4.09806
# Velocity P-wave (km/s) = 6.99820 7.90360 7.46464
#
# Compressibility (1/GPa) = 0.01638279
#
# Stress axis : x y z
#
# Youngs Moduli (GPa) = 133.29146 85.49673 49.41228
#
# Poissons Ratio (x) = 0.20813 0.19778
# Poissons Ratio (y) = 0.32448 0.25150
# Poissons Ratio (z) = 0.53352 0.43517
#
# Static dielectric constant tensor:
#      x y z
#    x 4.104420 0.417140 -0.223710 
#    y 0.417140 4.305670 -0.409030 
#    z -0.223710 -0.409030 3.972010 
# 
# 
# High freq. dielectric constant tensor:
#      x y z
#    x 1.860010 0.010890 -0.011720 
#    y 0.010890 1.844390 -0.005360 
#    z -0.011720 -0.005360 1.813630 
# 
# From -- ./inp_files/272850.got.cif
#   From: 2010.06.25/outbox.cif.g09.slc.cpg/sg2_137_cif.got.tgz:272850.got - 2010.06.27 13:26:56.
