data_PCOD8026898
_publ_section_title
;
Structure prediction by ZEFSAII (Michael W. Deem and Ramdas Pophale) SiO2 
 PCOD8026898
Probable space group: P -1
;
_chemical_formula_sum "Si O2"
_cell_formula_units_Z 16
_cell_length_a 24.438379
_cell_length_b 18.836259
_cell_length_c 14.836908
_cell_angle_alpha 28.246165
_cell_angle_beta 19.012233
_cell_angle_gamma 17.615379
_cell_volume 659.052117
_symmetry_space_group_name_H-M "P -1"
_symmetry_group_IT_number 2
_symmetry_cell_setting 'triclinic'
loop_
_space_group_symop_operation_xyz
x,y,z
-x,-y,-z
loop_
_atom_site_type_symbol
_atom_site_label
_atom_site_fract_x
_atom_site_fract_y
_atom_site_fract_z
Si Si1 0.445851 0.365521 0.047873
Si Si2 0.192379 0.568412 0.037318
Si Si3 0.344515 0.965887 0.158603
Si Si4 0.079239 0.979589 0.720425
Si Si5 0.392303 0.073275 0.451349
Si Si6 0.464533 0.327020 0.262028
Si Si7 0.562379 0.109087 0.608410
Si Si8 0.800053 0.391813 0.461052
O O1 0.550448 0.120036 0.151706
O O2 0.358970 0.459352 0.181701
O O3 0.201481 0.563775 0.137999
O O4 0.685932 0.307421 0.709304
O O5 0.207316 0.724879 0.798951
O O6 0.439723 0.301095 0.914963
O O7 0.915117 0.681677 0.313555
O O8 0.121551 0.156007 0.215380
O O9 0.199667 0.997228 0.434659
O O10 0.478966 0.034968 0.891010
O O11 0.172278 0.990937 0.656753
O O12 0.758527 0.189632 0.979687
O O13 0.531894 0.857374 0.542831
O O14 0.374295 0.005017 0.459128
O O15 0.261968 0.524343 0.432081
O O16 0.319236 0.399535 0.653687
#
# Coordination Sequence:
#
# PCOD8026898 Si02
#       8
#     2   2   2   2   2   2   2   2
#     4  12  21  43  69  96 132 166 216 272 320 383
#     4  11  25  43  67  99 130 171 216 265 325 387
#     4  12  25  45  64  94 138 173 215 262 324 390
#     4  11  24  45  68  96 130 170 221 267 320 380
#     4  10  24  43  70  98 128 166 219 272 321 381
#     4  10  24  43  70  98 128 166 219 272 321 381
#     4  11  24  45  68  96 130 170 221 267 320 380
#     4  11  25  43  67  99 130 171 216 265 325 387
#
# _framework density 24.277290000000001
#
# number of rings (size 3 to 8) (size 9 to 14) (size 15 to 20)
#    0.000    1.000    3.750    2.250    1.750    2.000 
#    2.250    0.000    0.000    0.000    0.000    0.000 
#    0.000    0.000    0.000    0.000    0.000    0.000 
#
# Total GULP energy -198365.593556 kJ/mol
# GULP energy per Si atom -12397.849597 kJ/mol
# Density = 2.422203 g / cm^3
# Si number density = 24.277290 Si / 1000 Ang^3
#
#
#
# Elastic Constant Matrix: (Units=GPa)
#
#
# Indices 1 2 3 4 5 6 
#
# 1 53.2853 22.6963 0.8401 -7.1347 -1.4984 -9.3108
# 2 22.6963 100.7410 41.0921 -5.2795 -2.6085 5.5548
# 3 0.8401 41.0921 91.0920 -27.6148 -3.5919 9.3358
# 4 -7.1347 -5.2795 -27.6148 48.5463 0.0636 -0.8651
# 5 -1.4984 -2.6085 -3.5919 0.0636 37.3976 -11.0091
# 6 -9.3108 5.5548 9.3358 -0.8651 -11.0091 28.5719
#
#
#
# Elastic Compliance Matrix: (Units=1/GPa)
#
#
# Indices 1 2 3 4 5 6 
#
# 1 0.024204 -0.007125 0.003676 0.005040 0.003653 0.009632
# 2 -0.007125 0.014461 -0.007276 -0.003670 -0.000917 -0.003220
# 3 0.003676 -0.007276 0.017427 0.009615 0.000537 -0.002584
# 4 0.005040 -0.003670 0.009615 0.026416 0.000935 0.000374
# 5 0.003653 -0.000917 0.000537 0.000935 0.030716 0.013057
# 6 0.009632 -0.003220 -0.002584 0.000374 0.013057 0.044651
#
#
# Mechanical properties :
#
#
# Convention : Reuss Voigt Hill
#
# Bulk Modulus (GPa) = 28.86695 41.59726 35.23210
# Shear Modulus (GPa) = 26.19542 34.93581 30.56561
#
# Velocity S-wave (km/s) = 3.28839 3.79757 3.55212
# Velocity P-wave (km/s) = 5.13170 6.03326 5.60065
#
# Compressibility (1/GPa) = 0.03464170
#
# Stress axis : x y z
#
# Youngs Moduli (GPa) = 41.31514 69.15091 57.38090
#
# Poissons Ratio (x) = 0.49268 -0.21091
# Poissons Ratio (y) = 0.29436 0.41753
# Poissons Ratio (z) = -0.15186 0.50317
#
# Static dielectric constant tensor:
#      x y z
#    x 4.358640 -0.303550 -0.027690 
#    y -0.303550 4.542530 -0.485580 
#    z -0.027690 -0.485580 4.539120 
# 
# 
# High freq. dielectric constant tensor:
#      x y z
#    x 1.953710 -0.012140 -0.007220 
#    y -0.012140 1.976500 -0.029050 
#    z -0.007220 -0.029050 1.966080 
# 
# From -- ./inp_files/543147.got.cif
#   From: 2010.06.25/outbox.cif.g09.slc.cpg/sg2_272_cif.got.tgz:543147.got - 2010.06.27 13:26:56.
