data_PCOD8026950
_publ_section_title
;
Structure prediction by ZEFSAII (Michael W. Deem and Ramdas Pophale) SiO2 
 PCOD8026950
Probable space group: P -1
;
_chemical_formula_sum "Si O2"
_cell_formula_units_Z 16
_cell_length_a 14.717745
_cell_length_b 11.090881
_cell_length_c 8.467480
_cell_angle_alpha 78.547060
_cell_angle_beta 92.199831
_cell_angle_gamma 149.414164
_cell_volume 664.489904
_symmetry_space_group_name_H-M "P -1"
_symmetry_group_IT_number 2
_symmetry_cell_setting 'triclinic'
loop_
_space_group_symop_operation_xyz
x,y,z
-x,-y,-z
loop_
_atom_site_type_symbol
_atom_site_label
_atom_site_fract_x
_atom_site_fract_y
_atom_site_fract_z
Si Si1 0.896489 0.456610 0.632367
Si Si2 0.515781 0.652747 0.533606
Si Si3 0.832797 0.641817 0.515032
Si Si4 0.023701 0.881414 0.005413
Si Si5 0.369696 0.961997 0.035738
Si Si6 0.793717 0.901190 0.733297
Si Si7 0.194375 0.900059 0.784768
Si Si8 0.691731 0.517893 0.889983
O O1 0.814373 0.474671 0.525513
O O2 0.735031 0.184586 0.769234
O O3 0.000000 0.500000 0.500000
O O4 0.025963 0.666828 0.721094
O O5 0.500000 0.500000 0.500000
O O6 0.306766 0.456982 0.593524
O O7 0.632084 0.790866 0.669481
O O8 0.617661 0.862138 0.362999
O O9 0.769576 0.590686 0.701509
O O10 0.044995 0.940404 0.425732
O O11 0.094755 0.899714 0.167442
O O12 0.158275 0.988631 0.848263
O O13 0.819706 0.599162 0.007306
O O14 0.000000 0.000000 0.000000
O O15 0.221685 0.815408 0.925447
O O16 0.500000 0.000000 0.000000
O O17 0.487593 0.226777 0.982891
O O18 0.693169 0.666807 0.869801
#
# Coordination Sequence:
#
# PCOD8026950 Si02
#       8
#     2   2   2   2   2   2   2   2
#     4  12  28  50  76 107 147 205 264 316 378 444
#     4  12  24  41  75 115 146 198 248 301 387 466
#     4  12  23  46  76 103 153 194 254 307 384 439
#     4  10  24  43  72 107 148 199 237 302 393 458
#     4  12  24  48  74 106 146 200 264 316 368 448
#     4  11  24  44  72 113 157 190 244 313 381 460
#     4  12  24  48  72 101 151 199 251 312 380 450
#     4  11  21  46  74 106 143 201 245 305 378 450
#
# _framework density 24.078621999999999
#
# number of rings (size 3 to 8) (size 9 to 14) (size 15 to 20)
#    0.000    0.500    6.250    0.750    5.250    0.000 
#    4.500    3.125    0.000    0.000    0.000    0.000 
#    0.000    0.000    0.000    0.000    0.000    0.000 
#
# Total GULP energy -198290.158986 kJ/mol
# GULP energy per Si atom -12393.134937 kJ/mol
# Density = 2.402382 g / cm^3
# Si number density = 24.078622 Si / 1000 Ang^3
#
#
#
# Elastic Constant Matrix: (Units=GPa)
#
#
# Indices 1 2 3 4 5 6 
#
# 1 128.9135 38.8830 41.6682 14.5944 18.9507 23.8665
# 2 38.8830 117.6289 55.0096 2.2112 13.8217 23.6598
# 3 41.6682 55.0096 103.9936 3.4475 8.9730 -0.5748
# 4 14.5944 2.2112 3.4475 57.9625 -2.5105 15.7694
# 5 18.9507 13.8217 8.9730 -2.5105 35.6873 5.8790
# 6 23.8665 23.6598 -0.5748 15.7694 5.8790 39.4224
#
#
#
# Elastic Compliance Matrix: (Units=1/GPa)
#
#
# Indices 1 2 3 4 5 6 
#
# 1 0.010769 -0.000179 -0.003879 -0.001165 -0.003862 -0.005427
# 2 -0.000179 0.013950 -0.007277 0.002322 -0.001828 -0.009027
# 3 -0.003879 -0.007277 0.015147 -0.001751 -0.000320 0.007684
# 4 -0.001165 0.002322 -0.001751 0.020216 0.003108 -0.009264
# 5 -0.003862 -0.001828 -0.000320 0.003108 0.031492 -0.002509
# 6 -0.005427 -0.009027 0.007684 -0.009264 -0.002509 0.038261
#
#
# Mechanical properties :
#
#
# Convention : Reuss Voigt Hill
#
# Bulk Modulus (GPa) = 58.14449 69.07305 63.60877
# Shear Modulus (GPa) = 31.59806 40.94612 36.27209
#
# Velocity S-wave (km/s) = 3.62648 4.12821 3.88545
# Velocity P-wave (km/s) = 6.46029 7.17437 6.82667
#
# Compressibility (1/GPa) = 0.01719853
#
# Stress axis : x y z
#
# Youngs Moduli (GPa) = 92.85877 71.68392 66.01805
#
# Poissons Ratio (x) = 0.01281 0.25606
# Poissons Ratio (y) = 0.01659 0.48040
# Poissons Ratio (z) = 0.36016 0.52163
#
# Static dielectric constant tensor:
#      x y z
#    x 1.313070 2.761100 -0.995790 
#    y 2.761100 2.656620 1.178320 
#    z -0.995790 1.178320 3.945140 
# 
# 
# High freq. dielectric constant tensor:
#      x y z
#    x 1.953970 0.019970 0.010400 
#    y 0.019970 1.956030 0.003510 
#    z 0.010400 0.003510 1.952220 
# 
# From -- ./inp_files/307353.got.cif
#   From: 2010.06.25/outbox.cif.g09.slc.cpg/sg2_154_cif.got.tgz:307353.got - 2010.06.27 13:26:56.
