data_PCOD8026564
_publ_section_title
;
Structure prediction by ZEFSAII (Michael W. Deem and Ramdas Pophale) SiO2 
 PCOD8026564
Probable space group: P -1
;
_chemical_formula_sum "Si O2"
_cell_formula_units_Z 14
_cell_length_a 8.780504
_cell_length_b 12.029155
_cell_length_c 11.358569
_cell_angle_alpha 131.822000
_cell_angle_beta 57.778009
_cell_angle_gamma 138.399506
_cell_volume 592.140453
_symmetry_space_group_name_H-M "P -1"
_symmetry_group_IT_number 2
_symmetry_cell_setting 'triclinic'
loop_
_space_group_symop_operation_xyz
x,y,z
-x,-y,-z
loop_
_atom_site_type_symbol
_atom_site_label
_atom_site_fract_x
_atom_site_fract_y
_atom_site_fract_z
Si Si1 0.868055 0.792463 0.859390
Si Si2 0.509404 0.276390 0.432226
Si Si3 0.043230 0.276708 0.988401
Si Si4 0.918730 0.911156 0.681996
Si Si5 0.397833 0.462949 0.784255
Si Si6 0.684383 0.052721 0.559968
Si Si7 0.093443 0.479855 0.743606
O O1 0.918221 0.689845 0.862144
O O2 0.946621 0.802928 0.699732
O O3 0.595071 0.685616 0.888823
O O4 0.000000 0.000000 0.000000
O O5 0.308431 0.240148 0.406189
O O6 0.525906 0.385477 0.620149
O O7 0.750331 0.408381 0.356980
O O8 0.449644 0.075340 0.357659
O O9 0.938071 0.382486 0.073442
O O10 0.282687 0.366063 0.887826
O O11 0.882428 0.057302 0.856389
O O12 0.151063 0.006033 0.578791
O O13 0.209407 0.425546 0.746047
O O14 0.845240 0.280432 0.674084
O O15 0.500000 0.000000 0.500000
#
# Coordination Sequence:
#
# PCOD8026564 Si02
#       7
#     2   2   2   2   2   2   2
#     4  10  24  42  69 103 142 192 237 289 364 430
#     4  12  25  48  81 102 145 197 243 299 361 430
#     4  11  26  43  71 107 151 185 236 305 367 418
#     4  11  22  51  73 105 143 194 247 290 364 442
#     4  12  22  47  74 102 142 195 247 290 357 444
#     4  12  28  45  74 110 148 186 244 305 358 432
#     4  12  27  46  72 115 142 189 250 298 359 428
#
# _framework density 23.643039000000002
#
# number of rings (size 3 to 8) (size 9 to 14) (size 15 to 20)
#    0.000    0.571    4.286    3.429    4.000    3.429 
#    2.571    0.000    0.000    0.000    0.000    0.000 
#    0.000    0.000    0.000    0.000    0.000    0.000 
#
# Total GULP energy -173492.955080 kJ/mol
# GULP energy per Si atom -12392.353934 kJ/mol
# Density = 2.358923 g / cm^3
# Si number density = 23.643039 Si / 1000 Ang^3
#
#
#
# Elastic Constant Matrix: (Units=GPa)
#
#
# Indices 1 2 3 4 5 6 
#
# 1 61.8821 17.9801 19.9404 18.1349 13.4985 6.6951
# 2 17.9801 144.3821 31.7746 4.9271 14.6518 -0.2325
# 3 19.9404 31.7746 94.8169 12.7969 -10.8094 -1.6438
# 4 18.1349 4.9271 12.7969 31.9321 -1.4357 12.7495
# 5 13.4985 14.6518 -10.8094 -1.4357 40.1501 1.5802
# 6 6.6951 -0.2325 -1.6438 12.7495 1.5802 40.6843
#
#
#
# Elastic Compliance Matrix: (Units=1/GPa)
#
#
# Indices 1 2 3 4 5 6 
#
# 1 0.023091 -0.000659 -0.004069 -0.011823 -0.009045 0.000088
# 2 -0.000659 0.008010 -0.002958 0.000112 -0.003499 0.000136
# 3 -0.004069 -0.002958 0.013528 -0.003173 0.005899 0.001965
# 4 -0.011823 0.000112 -0.003173 0.044430 0.005153 -0.012306
# 5 -0.009045 -0.003499 0.005899 0.005153 0.031040 -0.001114
# 6 0.000088 0.000136 0.001965 -0.012306 -0.001114 0.028545
#
#
# Mechanical properties :
#
#
# Convention : Reuss Voigt Hill
#
# Bulk Modulus (GPa) = 34.17791 48.94125 41.55958
# Shear Modulus (GPa) = 28.77390 37.97904 33.37647
#
# Velocity S-wave (km/s) = 3.49236 4.01228 3.76131
# Velocity P-wave (km/s) = 5.54520 6.49689 6.03982
#
# Compressibility (1/GPa) = 0.02925866
#
# Stress axis : x y z
#
# Youngs Moduli (GPa) = 43.30780 124.83629 73.91861
#
# Poissons Ratio (x) = 0.08221 0.30079
# Poissons Ratio (y) = 0.02852 0.21862
# Poissons Ratio (z) = 0.17623 0.36922
#
# Static dielectric constant tensor:
#      x y z
#    x 4.299190 -0.288150 0.414870 
#    y -0.288150 4.687950 -0.204750 
#    z 0.414870 -0.204750 4.348060 
# 
# 
# High freq. dielectric constant tensor:
#      x y z
#    x 1.917790 -0.008360 0.022800 
#    y -0.008360 1.963800 0.000560 
#    z 0.022800 0.000560 1.926950 
# 
# From -- ./inp_files/174136.got.cif
#   From: 2010.06.25/outbox.cif.g09.slc.cpg/sg2_88_cif.got.tgz:174136.got - 2010.06.27 13:26:56.
