data_PCOD8026760
_publ_section_title
;
Structure prediction by ZEFSAII (Michael W. Deem and Ramdas Pophale) SiO2 
 PCOD8026760
Probable space group: P -1
;
_chemical_formula_sum "Si O2"
_cell_formula_units_Z 14
_cell_length_a 6.381876
_cell_length_b 21.211057
_cell_length_c 10.153699
_cell_angle_alpha 144.866241
_cell_angle_beta 49.236769
_cell_angle_gamma 119.508584
_cell_volume 596.395117
_symmetry_space_group_name_H-M "P -1"
_symmetry_group_IT_number 2
_symmetry_cell_setting 'triclinic'
loop_
_space_group_symop_operation_xyz
x,y,z
-x,-y,-z
loop_
_atom_site_type_symbol
_atom_site_label
_atom_site_fract_x
_atom_site_fract_y
_atom_site_fract_z
Si Si1 0.390468 0.638854 0.927313
Si Si2 0.396621 0.618497 0.194539
Si Si3 0.551060 0.745937 0.587880
Si Si4 0.769132 0.594551 0.456768
Si Si5 0.845910 0.075246 0.831881
Si Si6 0.926128 0.148969 0.504385
Si Si7 0.426204 0.047608 0.469123
O O1 0.661445 0.631103 0.709145
O O2 0.209939 0.537685 0.793917
O O3 0.481674 0.633460 0.033734
O O4 0.205531 0.755174 0.177794
O O5 0.545921 0.704006 0.368946
O O6 0.065861 0.637305 0.382410
O O7 0.500000 0.500000 0.000000
O O8 0.551574 0.648251 0.528271
O O9 0.828980 0.805455 0.601317
O O10 0.276886 0.830925 0.859466
O O11 0.119049 0.115848 0.716930
O O12 0.596765 0.052481 0.794421
O O13 0.943878 0.959446 0.661505
O O14 0.677278 0.121991 0.458444
O O15 0.500000 0.000000 0.500000
#
# Coordination Sequence:
#
# PCOD8026760 Si02
#       7
#     2   2   2   2   2   2   2
#     4  11  25  48  72 103 144 187 237 290 361 417
#     4  12  25  48  73 104 145 187 235 295 357 424
#     4  12  26  44  72 106 145 185 240 293 350 431
#     4  11  26  48  71 106 144 188 234 299 352 425
#     4  10  24  43  67 103 140 186 241 284 356 426
#     4  11  24  44  70  99 143 190 226 297 352 418
#     4   9  22  43  65  98 139 185 233 296 346 414
#
# _framework density 23.47437
#
# number of rings (size 3 to 8) (size 9 to 14) (size 15 to 20)
#    0.000    1.143    2.857    1.714   10.000    2.286 
#    2.571    0.000    0.000    0.000    0.000    0.000 
#    0.000    0.000    0.000    0.000    0.000    0.000 
#
# Total GULP energy -173527.173217 kJ/mol
# GULP energy per Si atom -12394.798087 kJ/mol
# Density = 2.342094 g / cm^3
# Si number density = 23.474370 Si / 1000 Ang^3
#
#
#
# Elastic Constant Matrix: (Units=GPa)
#
#
# Indices 1 2 3 4 5 6 
#
# 1 118.7482 42.3621 49.9089 -1.1588 10.7887 5.9330
# 2 42.3621 68.1301 31.7426 -4.9803 1.6537 -8.0718
# 3 49.9089 31.7426 138.0656 0.6465 -2.5900 -15.1425
# 4 -1.1588 -4.9803 0.6465 45.3617 -11.7336 -1.7308
# 5 10.7887 1.6537 -2.5900 -11.7336 36.2128 1.4407
# 6 5.9330 -8.0718 -15.1425 -1.7308 1.4407 46.6196
#
#
#
# Elastic Compliance Matrix: (Units=1/GPa)
#
#
# Indices 1 2 3 4 5 6 
#
# 1 0.012938 -0.006847 -0.003605 -0.001596 -0.004160 -0.003933
# 2 -0.006847 0.020370 -0.001764 0.002673 0.001695 0.003872
# 3 -0.003605 -0.001764 0.009327 0.000153 0.001746 0.003135
# 4 -0.001596 0.002673 0.000153 0.024480 0.008242 0.001370
# 5 -0.004160 0.001695 0.001746 0.008242 0.031543 0.000721
# 6 -0.003933 0.003872 0.003135 0.001370 0.000721 0.023668
#
#
# Mechanical properties :
#
#
# Convention : Reuss Voigt Hill
#
# Bulk Modulus (GPa) = 54.93369 63.66344 59.29857
# Shear Modulus (GPa) = 32.71723 39.03419 35.87571
#
# Velocity S-wave (km/s) = 3.73734 4.08222 3.91358
# Velocity P-wave (km/s) = 6.48660 7.02842 6.76294
#
# Compressibility (1/GPa) = 0.01820376
#
# Stress axis : x y z
#
# Youngs Moduli (GPa) = 77.29442 49.09205 107.21078
#
# Poissons Ratio (x) = 0.33611 0.38645
# Poissons Ratio (y) = 0.52920 0.18915
# Poissons Ratio (z) = 0.27862 0.08661
#
# Static dielectric constant tensor:
#      x y z
#    x 4.792520 0.516040 0.080200 
#    y 0.516040 4.645750 0.147260 
#    z 0.080200 0.147260 4.285400 
# 
# 
# High freq. dielectric constant tensor:
#      x y z
#    x 1.928690 0.003320 -0.003730 
#    y 0.003320 1.928310 0.007540 
#    z -0.003730 0.007540 1.930790 
# 
# From -- ./inp_files/141672.got.cif
#   From: 2010.06.25/outbox.cif.g09.slc.cpg/sg2_71_cif.got.tgz:141672.got - 2010.06.27 13:26:56.
