data_PCOD8026381
_publ_section_title
;
Structure prediction by ZEFSAII (Michael W. Deem and Ramdas Pophale) SiO2 
 PCOD8026381
Probable space group: P -1
;
_chemical_formula_sum "Si O2"
_cell_formula_units_Z 12
_cell_length_a 5.228504
_cell_length_b 14.268287
_cell_length_c 21.399713
_cell_angle_alpha 23.184652
_cell_angle_beta 67.546506
_cell_angle_gamma 56.380896
_cell_volume 482.509577
_symmetry_space_group_name_H-M "P -1"
_symmetry_group_IT_number 2
_symmetry_cell_setting 'triclinic'
loop_
_space_group_symop_operation_xyz
x,y,z
-x,-y,-z
loop_
_atom_site_type_symbol
_atom_site_label
_atom_site_fract_x
_atom_site_fract_y
_atom_site_fract_z
Si Si1 0.321126 0.243501 0.815506
Si Si2 0.647583 0.303439 0.198794
Si Si3 0.146556 0.815768 0.520716
Si Si4 0.354768 0.331562 0.334068
Si Si5 0.383868 0.823104 0.301189
Si Si6 0.395010 0.882529 0.808593
O O1 0.384530 0.497506 0.664534
O O2 0.443810 0.131299 0.802814
O O3 0.925315 0.384957 0.774734
O O4 0.500000 0.000000 0.000000
O O5 0.390002 0.435132 0.199616
O O6 0.553959 0.137902 0.259156
O O7 0.639794 0.564827 0.007874
O O8 0.037306 0.077322 0.322548
O O9 0.300152 0.832619 0.559992
O O10 0.774983 0.880049 0.529923
O O11 0.500000 0.500000 0.500000
O O12 0.510510 0.911915 0.295121
O O13 0.989661 0.012747 0.209770
#
# Coordination Sequence:
#
# PCOD8026381 Si02
#       6
#     2   2   2   2   2   2
#     4  10  25  44  74 106 144 185 246 297 357 424
#     4  11  24  49  70 110 148 181 254 286 376 425
#     4  10  24  41  70 106 140 190 225 307 361 423
#     4  10  24  41  72 105 140 188 231 305 358 420
#     4  12  27  51  73 106 147 194 245 291 367 437
#     4  11  29  44  78 103 143 200 231 310 347 440
#
# _framework density 24.869973000000002
#
# number of rings (size 3 to 8) (size 9 to 14) (size 15 to 20)
#    1.000    0.333    0.000    3.500    4.667    8.667 
#    0.000    0.000    0.000    0.000    0.000    0.000 
#    0.000    0.000    0.000    0.000    0.000    0.000 
#
# Total GULP energy -148738.462915 kJ/mol
# GULP energy per Si atom -12394.871910 kJ/mol
# Density = 2.481337 g / cm^3
# Si number density = 24.869973 Si / 1000 Ang^3
#
#
#
# Elastic Constant Matrix: (Units=GPa)
#
#
# Indices 1 2 3 4 5 6 
#
# 1 146.3067 61.4911 48.7349 -2.6727 32.3793 24.4994
# 2 61.4911 144.6775 49.0740 20.4651 12.8939 10.2577
# 3 48.7349 49.0740 168.9368 4.7618 24.6722 12.4208
# 4 -2.6727 20.4651 4.7618 45.4127 6.6442 1.8088
# 5 32.3793 12.8939 24.6722 6.6442 31.3176 -4.8924
# 6 24.4994 10.2577 12.4208 1.8088 -4.8924 42.9827
#
#
#
# Elastic Compliance Matrix: (Units=1/GPa)
#
#
# Indices 1 2 3 4 5 6 
#
# 1 0.013494 -0.004606 0.000043 0.005331 -0.014545 -0.008484
# 2 -0.004606 0.009849 -0.002026 -0.005085 0.003614 0.001486
# 3 0.000043 -0.002026 0.007474 0.001061 -0.005697 -0.002394
# 4 0.005331 -0.005085 0.001061 0.026229 -0.010511 -0.004432
# 5 -0.014545 0.003614 -0.005697 -0.010511 0.054658 0.015738
# 6 -0.008484 0.001486 -0.002394 -0.004432 0.015738 0.030416
#
#
# Mechanical properties :
#
#
# Convention : Reuss Voigt Hill
#
# Bulk Modulus (GPa) = 56.69538 86.50234 71.59886
# Shear Modulus (GPa) = 31.02210 43.98399 37.50305
#
# Velocity S-wave (km/s) = 3.53565 4.20999 3.88747
# Velocity P-wave (km/s) = 6.28601 7.64783 7.00012
#
# Compressibility (1/GPa) = 0.01763812
#
# Stress axis : x y z
#
# Youngs Moduli (GPa) = 74.10963 101.53765 133.80446
#
# Poissons Ratio (x) = 0.46768 -0.00577
# Poissons Ratio (y) = 0.34135 0.27108
# Poissons Ratio (z) = -0.00319 0.20571
#
# Static dielectric constant tensor:
#      x y z
#    x 4.189950 0.052530 0.141350 
#    y 0.052530 4.761030 -0.085120 
#    z 0.141350 -0.085120 4.413680 
# 
# 
# High freq. dielectric constant tensor:
#      x y z
#    x 1.977460 0.003240 0.012080 
#    y 0.003240 2.015870 -0.006330 
#    z 0.012080 -0.006330 1.999840 
# 
# From -- ./inp_files/583507.got.cif
#   From: 2010.06.25/outbox.cif.g09.slc.cpg/sg2_292_cif.got.tgz:583507.got - 2010.06.27 13:26:56.
