data_PCOD8026872
_publ_section_title
;
Structure prediction by ZEFSAII (Michael W. Deem and Ramdas Pophale) SiO2 
 PCOD8026872
Probable space group: P -1
;
_chemical_formula_sum "Si O2"
_cell_formula_units_Z 16
_cell_length_a 8.439829
_cell_length_b 15.431049
_cell_length_c 9.197779
_cell_angle_alpha 103.679500
_cell_angle_beta 58.455531
_cell_angle_gamma 63.587258
_cell_volume 721.143673
_symmetry_space_group_name_H-M "P -1"
_symmetry_group_IT_number 2
_symmetry_cell_setting 'triclinic'
loop_
_space_group_symop_operation_xyz
x,y,z
-x,-y,-z
loop_
_atom_site_type_symbol
_atom_site_label
_atom_site_fract_x
_atom_site_fract_y
_atom_site_fract_z
Si Si1 0.281490 0.497619 0.120156
Si Si2 0.773633 0.696411 0.275104
Si Si3 0.044823 0.079541 0.076291
Si Si4 0.308379 0.283292 0.007523
Si Si5 0.452276 0.056698 0.391230
Si Si6 0.666895 0.011452 0.826702
Si Si7 0.554750 0.345783 0.462607
Si Si8 0.203096 0.559608 0.506711
O O1 0.388044 0.361459 0.001082
O O2 0.153022 0.550513 0.360710
O O3 0.066276 0.582308 0.133878
O O4 0.500000 0.500000 0.000000
O O5 0.653368 0.809279 0.486296
O O6 0.598610 0.667096 0.360233
O O7 0.764687 0.727414 0.123138
O O8 0.802610 0.221191 0.220119
O O9 0.081004 0.054695 0.223456
O O10 0.287938 0.040566 0.863217
O O11 0.000000 0.000000 0.000000
O O12 0.067652 0.341839 0.247362
O O13 0.538141 0.149132 0.908983
O O14 0.500000 0.000000 0.500000
O O15 0.253023 0.063771 0.393170
O O16 0.500000 0.000000 0.000000
O O17 0.367760 0.428508 0.451784
O O18 0.634496 0.403224 0.545124
#
# Coordination Sequence:
#
# PCOD8026872 Si02
#       8
#     2   2   2   2   2   2   2   2
#     4  12  29  46  71 108 144 185 245 296 359 423
#     4  12  26  46  73  98 152 185 233 301 357 431
#     4  11  24  42  71  99 140 181 238 293 352 419
#     4  12  25  48  74 104 144 191 238 294 367 423
#     4  11  23  45  67 103 134 189 238 286 358 416
#     4  10  24  43  70 101 142 182 238 295 349 428
#     4  11  25  45  69 103 142 187 238 284 362 418
#     4  11  26  43  75 102 139 186 240 290 353 430
#
# _framework density 22.186978
#
# number of rings (size 3 to 8) (size 9 to 14) (size 15 to 20)
#    0.000    0.750    3.750    3.000   10.500    0.000 
#    0.000    1.250    0.000    0.000    0.000    0.000 
#    0.000    0.000    0.000    0.000    0.000    0.000 
#
# Total GULP energy -198421.480838 kJ/mol
# GULP energy per Si atom -12401.342552 kJ/mol
# Density = 2.213648 g / cm^3
# Si number density = 22.186978 Si / 1000 Ang^3
#
#
#
# Elastic Constant Matrix: (Units=GPa)
#
#
# Indices 1 2 3 4 5 6 
#
# 1 87.9345 15.0017 20.0870 -16.3533 16.9505 4.9001
# 2 15.0017 94.4033 17.5061 -2.6027 5.3351 7.3491
# 3 20.0870 17.5061 90.3268 -7.3267 13.5635 -2.1178
# 4 -16.3533 -2.6027 -7.3267 34.3235 -4.9022 8.2528
# 5 16.9505 5.3351 13.5635 -4.9022 41.5384 -5.2825
# 6 4.9001 7.3491 -2.1178 8.2528 -5.2825 33.6511
#
#
#
# Elastic Compliance Matrix: (Units=1/GPa)
#
#
# Indices 1 2 3 4 5 6 
#
# 1 0.014429 -0.001153 -0.001803 0.006756 -0.004912 -0.004391
# 2 -0.001153 0.011380 -0.001875 0.000456 -0.000662 -0.002651
# 3 -0.001803 -0.001875 0.012365 0.001053 -0.002842 0.000746
# 4 0.006756 0.000456 0.001053 0.034887 -0.000265 -0.009615
# 5 -0.004912 -0.000662 -0.002842 -0.000265 0.027708 0.005096
# 6 -0.004391 -0.002651 0.000746 -0.009615 0.005096 0.034140
#
#
# Mechanical properties :
#
#
# Convention : Reuss Voigt Hill
#
# Bulk Modulus (GPa) = 35.07179 41.98381 38.52780
# Shear Modulus (GPa) = 32.45196 36.57390 34.51293
#
# Velocity S-wave (km/s) = 3.82862 4.06450 3.94832
# Velocity P-wave (km/s) = 5.94862 6.40240 6.17968
#
# Compressibility (1/GPa) = 0.02851294
#
# Stress axis : x y z
#
# Youngs Moduli (GPa) = 69.30671 87.87234 80.87477
#
# Poissons Ratio (x) = 0.10131 0.14578
# Poissons Ratio (y) = 0.07990 0.15163
# Poissons Ratio (z) = 0.12493 0.16475
#
# Static dielectric constant tensor:
#      x y z
#    x 4.327990 -0.085140 0.747380 
#    y -0.085140 4.167100 0.083360 
#    z 0.747380 0.083360 3.779780 
# 
# 
# High freq. dielectric constant tensor:
#      x y z
#    x 1.884630 0.000950 0.019710 
#    y 0.000950 1.885590 0.001270 
#    z 0.019710 0.001270 1.867520 
# 
# From -- ./inp_files/207602.got.cif
#   From: 2010.06.25/outbox.cif.g09.slc.cpg/sg2_104_cif.got.tgz:207602.got - 2010.06.27 13:26:56.
