data_PCOD8026887
_publ_section_title
;
Structure prediction by ZEFSAII (Michael W. Deem and Ramdas Pophale) SiO2 
 PCOD8026887
Probable space group: P -1
;
_chemical_formula_sum "Si O2"
_cell_formula_units_Z 12
_cell_length_a 12.127595
_cell_length_b 23.594933
_cell_length_c 22.168628
_cell_angle_alpha 168.041236
_cell_angle_beta 157.149902
_cell_angle_gamma 23.433457
_cell_volume 500.231090
_symmetry_space_group_name_H-M "P -1"
_symmetry_group_IT_number 2
_symmetry_cell_setting 'triclinic'
loop_
_space_group_symop_operation_xyz
x,y,z
-x,-y,-z
loop_
_atom_site_type_symbol
_atom_site_label
_atom_site_fract_x
_atom_site_fract_y
_atom_site_fract_z
Si Si1 0.148372 0.835592 0.557793
Si Si2 0.825194 0.951646 0.087259
Si Si3 0.466469 0.098232 0.718210
Si Si4 0.533215 0.257680 0.154814
Si Si5 0.794585 0.286201 0.188353
Si Si6 0.664367 0.489421 0.134700
O O1 0.997976 0.970321 0.684639
O O2 0.364368 0.999757 0.802493
O O3 0.314977 0.536230 0.354951
O O4 0.880986 0.837474 0.380183
O O5 0.809171 0.156016 0.233305
O O6 0.500000 0.000000 0.000000
O O7 0.983372 0.632406 0.818374
O O8 0.599668 0.767566 0.432917
O O9 0.573366 0.255513 0.992168
O O10 0.545847 0.240797 0.846896
O O11 0.624765 0.346146 0.227545
O O12 0.000000 0.500000 0.500000
O O13 0.000000 0.000000 0.000000
O O14 0.500000 0.500000 0.000000
#
# Coordination Sequence:
#
# PCOD8026887 Si02
#       6
#     2   2   2   2   2   2
#     4  11  24  44  71 108 144 188 242 300 371 433
#     4  10  24  43  70 106 147 190 239 297 361 435
#     4  12  27  45  74 107 146 188 247 302 360 441
#     4  11  25  45  72 102 146 194 241 298 366 432
#     4  12  27  49  71 102 144 193 248 301 359 435
#     4  12  25  45  72 106 149 190 239 303 371 436
#
# _framework density 23.988914000000001
#
# number of rings (size 3 to 8) (size 9 to 14) (size 15 to 20)
#    0.000    0.667    1.667    5.000    2.333    8.000 
#    0.000    0.000    0.000    0.000    0.000    0.000 
#    0.000    0.000    0.000    0.000    0.000    0.000 
#
# Total GULP energy -148660.344085 kJ/mol
# GULP energy per Si atom -12388.362007 kJ/mol
# Density = 2.393431 g / cm^3
# Si number density = 23.988914 Si / 1000 Ang^3
#
#
#
# Elastic Constant Matrix: (Units=GPa)
#
#
# Indices 1 2 3 4 5 6 
#
# 1 117.2258 57.6151 30.1263 -5.6765 -0.1603 19.2630
# 2 57.6151 129.3085 60.8587 13.9965 9.1176 6.1271
# 3 30.1263 60.8587 134.3241 10.1486 3.4749 5.1824
# 4 -5.6765 13.9965 10.1486 48.1080 -3.0907 -11.4503
# 5 -0.1603 9.1176 3.4749 -3.0907 33.5992 1.0926
# 6 19.2630 6.1271 5.1824 -11.4503 1.0926 40.6977
#
#
#
# Elastic Compliance Matrix: (Units=1/GPa)
#
#
# Indices 1 2 3 4 5 6 
#
# 1 0.012079 -0.005400 -0.000308 0.002157 0.001893 -0.004309
# 2 -0.005400 0.012739 -0.004209 -0.003614 -0.003388 0.000248
# 3 -0.000308 -0.004209 0.009521 -0.000984 0.000089 -0.000712
# 4 0.002157 -0.003614 -0.000984 0.024003 0.003095 0.006318
# 5 0.001893 -0.003388 0.000089 0.003095 0.030978 -0.000358
# 6 -0.004309 0.000248 -0.000712 0.006318 -0.000358 0.028451
#
#
# Mechanical properties :
#
#
# Convention : Reuss Voigt Hill
#
# Bulk Modulus (GPa) = 68.95014 75.33985 72.14499
# Shear Modulus (GPa) = 35.10264 39.96486 37.53375
#
# Velocity S-wave (km/s) = 3.82944 4.08606 3.95983
# Velocity P-wave (km/s) = 6.95397 7.33045 7.14469
#
# Compressibility (1/GPa) = 0.01450323
#
# Stress axis : x y z
#
# Youngs Moduli (GPa) = 82.79045 78.50073 105.03618
#
# Poissons Ratio (x) = 0.42387 0.03239
# Poissons Ratio (y) = 0.44703 0.44215
# Poissons Ratio (z) = 0.02553 0.33045
#
# Static dielectric constant tensor:
#      x y z
#    x 22.384950 -23.949310 -19.368060 
#    y -23.949310 37.251880 26.121500 
#    z -19.368060 26.121500 25.380880 
# 
# 
# High freq. dielectric constant tensor:
#      x y z
#    x 1.945670 0.000110 0.002590 
#    y 0.000110 1.971450 0.007870 
#    z 0.002590 0.007870 1.961930 
# 
# From -- ./inp_files/619940.got.cif
#   From: 2010.06.25/outbox.cif.g09.slc.cpg/sg2_310_cif.got.tgz:619940.got - 2010.06.27 13:26:56.
