data_PCOD8026215
_publ_section_title
;
Structure prediction by ZEFSAII (Michael W. Deem and Ramdas Pophale) SiO2 
 PCOD8026215
Probable space group: P -1
;
_chemical_formula_sum "Si O2"
_cell_formula_units_Z 14
_cell_length_a 15.607638
_cell_length_b 21.481376
_cell_length_c 6.561590
_cell_angle_alpha 128.671469
_cell_angle_beta 118.090953
_cell_angle_gamma 21.598743
_cell_volume 584.004757
_symmetry_space_group_name_H-M "P -1"
_symmetry_group_IT_number 2
_symmetry_cell_setting 'triclinic'
loop_
_space_group_symop_operation_xyz
x,y,z
-x,-y,-z
loop_
_atom_site_type_symbol
_atom_site_label
_atom_site_fract_x
_atom_site_fract_y
_atom_site_fract_z
Si Si1 0.012624 0.069018 0.341821
Si Si2 0.718443 0.287809 0.075950
Si Si3 0.532637 0.185106 0.804006
Si Si4 0.272251 0.133699 0.642438
Si Si5 0.886717 0.512903 0.769210
Si Si6 0.064683 0.574314 0.788205
Si Si7 0.794726 0.355317 0.971462
O O1 0.260347 0.902455 0.142848
O O2 0.060802 0.942324 0.215608
O O3 0.759261 0.267863 0.325054
O O4 0.993555 0.144445 0.660038
O O5 0.739250 0.358521 0.136254
O O6 0.452299 0.450797 0.050295
O O7 0.307408 0.370115 0.774082
O O8 0.675014 0.996942 0.514826
O O9 0.410940 0.269859 0.068486
O O10 0.028188 0.325039 0.615102
O O11 0.500000 0.000000 0.500000
O O12 0.192973 0.237926 0.981284
O O13 0.940048 0.483051 0.526826
O O14 0.000000 0.500000 0.000000
O O15 0.087803 0.646614 0.874206
#
# Coordination Sequence:
#
# PCOD8026215 Si02
#       7
#     2   2   2   2   2   2   2
#     4  11  22  43  67  97 134 182 225 275 337 392
#     4  10  24  40  65  99 138 179 219 282 333 401
#     4  11  24  44  67  98 138 173 232 279 334 412
#     4  11  24  47  70 101 131 176 228 278 343 416
#     4  11  26  48  67 101 136 176 227 282 344 409
#     4  11  26  43  72  99 140 181 221 288 340 397
#     4  11  22  43  64 101 135 176 231 271 340 401
#
# _framework density 23.972408000000001
#
# number of rings (size 3 to 8) (size 9 to 14) (size 15 to 20)
#    0.000    1.143    4.286    0.857    2.000    5.143 
#   10.286    0.000    0.000    0.000    0.000    0.000 
#    0.000    0.000    0.000    0.000    0.000    0.000 
#
# Total GULP energy -173511.913961 kJ/mol
# GULP energy per Si atom -12393.708140 kJ/mol
# Density = 2.391785 g / cm^3
# Si number density = 23.972408 Si / 1000 Ang^3
#
#
#
# Elastic Constant Matrix: (Units=GPa)
#
#
# Indices 1 2 3 4 5 6 
#
# 1 73.9333 19.6773 15.8067 -4.7774 -5.5691 3.0241
# 2 19.6773 79.3263 24.7098 5.5875 -0.5549 6.1728
# 3 15.8067 24.7098 124.1061 -10.0393 -14.6853 3.5763
# 4 -4.7774 5.5875 -10.0393 29.9431 4.0847 3.8302
# 5 -5.5691 -0.5549 -14.6853 4.0847 38.8945 11.2558
# 6 3.0241 6.1728 3.5763 3.8302 11.2558 36.7045
#
#
#
# Elastic Compliance Matrix: (Units=1/GPa)
#
#
# Indices 1 2 3 4 5 6 
#
# 1 0.015012 -0.003570 -0.000705 0.002743 0.001966 -0.001457
# 2 -0.003570 0.014758 -0.002839 -0.004030 -0.000568 -0.001316
# 3 -0.000705 -0.002839 0.009463 0.003333 0.003615 -0.001843
# 4 0.002743 -0.004030 0.003333 0.036295 -0.001272 -0.003271
# 5 0.001966 -0.000568 0.003615 -0.001272 0.030250 -0.009562
# 6 -0.001457 -0.001316 -0.001843 -0.003271 -0.009562 0.031039
#
#
# Mechanical properties :
#
#
# Convention : Reuss Voigt Hill
#
# Bulk Modulus (GPa) = 39.99161 44.19481 42.09321
# Shear Modulus (GPa) = 31.37154 35.58656 33.47905
#
# Velocity S-wave (km/s) = 3.62145 3.85707 3.74112
# Velocity P-wave (km/s) = 5.84852 6.18965 6.02150
#
# Compressibility (1/GPa) = 0.02500525
#
# Stress axis : x y z
#
# Youngs Moduli (GPa) = 66.61551 67.75793 105.67422
#
# Poissons Ratio (x) = 0.24192 0.07445
# Poissons Ratio (y) = 0.23784 0.30001
# Poissons Ratio (z) = 0.04693 0.19236
#
# Static dielectric constant tensor:
#      x y z
#    x 4.452150 0.236290 -0.055980 
#    y 0.236290 4.294810 0.341560 
#    z -0.055980 0.341560 4.452550 
# 
# 
# High freq. dielectric constant tensor:
#      x y z
#    x 1.957050 0.018870 0.000900 
#    y 0.018870 1.941640 0.021030 
#    z 0.000900 0.021030 1.948680 
# 
# From -- ./inp_files/112998.got.cif
#   From: 2010.06.25/outbox.cif.g09.slc.cpg/sg2_57_cif.got.tgz:112998.got - 2010.06.27 13:26:56.
