data_PCOD8026486
_publ_section_title
;
Structure prediction by ZEFSAII (Michael W. Deem and Ramdas Pophale) SiO2 
 PCOD8026486
Probable space group: P -1
;
_chemical_formula_sum "Si O2"
_cell_formula_units_Z 16
_cell_length_a 11.609081
_cell_length_b 9.486153
_cell_length_c 9.203489
_cell_angle_alpha 74.937397
_cell_angle_beta 78.878669
_cell_angle_gamma 53.092362
_cell_volume 781.695482
_symmetry_space_group_name_H-M "P -1"
_symmetry_group_IT_number 2
_symmetry_cell_setting 'triclinic'
loop_
_space_group_symop_operation_xyz
x,y,z
-x,-y,-z
loop_
_atom_site_type_symbol
_atom_site_label
_atom_site_fract_x
_atom_site_fract_y
_atom_site_fract_z
Si Si1 0.317961 0.002431 0.967738
Si Si2 0.166074 0.176118 0.442259
Si Si3 0.641110 0.705491 0.028990
Si Si4 0.365427 0.860871 0.682385
Si Si5 0.090344 0.065938 0.214523
Si Si6 0.770895 0.345219 0.257189
Si Si7 0.132242 0.718236 0.421911
Si Si8 0.695684 0.625768 0.703836
O O1 0.467916 0.834974 0.040878
O O2 0.187708 0.999579 0.064723
O O3 0.312731 0.990139 0.799763
O O4 0.293186 0.188753 0.963881
O O5 0.150939 0.145808 0.285664
O O6 0.212743 0.309737 0.405452
O O7 0.016416 0.264405 0.540148
O O8 0.288788 0.982804 0.528474
O O9 0.691932 0.548462 0.172381
O O10 0.698813 0.624219 0.877393
O O11 0.328708 0.717511 0.748886
O O12 0.535139 0.755380 0.646796
O O13 0.925062 0.219852 0.173076
O O14 0.094762 0.909018 0.336424
O O15 0.788231 0.338923 0.427811
O O16 0.234916 0.575016 0.313570
#
# Coordination Sequence:
#
# PCOD8026486 Si02
#       8
#     2   2   2   2   2   2   2   2
#     4  10  24  42  66  90 125 171 202 257 314 365
#     4  11  21  46  63  89 129 163 210 260 306 369
#     4  10  24  45  61  93 130 159 213 257 306 373
#     4  11  24  41  64  96 126 160 212 258 307 372
#     4  11  22  44  67  88 126 172 204 254 315 365
#     4  11  24  42  63  95 130 160 209 260 302 374
#     4  11  24  42  65  94 126 166 207 255 315 364
#     4  11  25  40  65  94 123 169 205 258 313 364
#
# _framework density 20.468326999999999
#
# number of rings (size 3 to 8) (size 9 to 14) (size 15 to 20)
#    0.000    1.250    3.750    1.500    5.250    4.500 
#    0.000    0.000    0.000    0.000    0.000    0.000 
#    0.000    0.000    0.000    0.000    0.000    0.000 
#
# Total GULP energy -198510.525791 kJ/mol
# GULP energy per Si atom -12406.907862 kJ/mol
# Density = 2.042174 g / cm^3
# Si number density = 20.468327 Si / 1000 Ang^3
#
#
#
# Elastic Constant Matrix: (Units=GPa)
#
#
# Indices 1 2 3 4 5 6 
#
# 1 91.3921 13.7265 15.5550 12.2500 -0.9845 14.2421
# 2 13.7265 91.4841 21.2853 5.6728 5.1331 7.5411
# 3 15.5550 21.2853 23.6444 3.1974 -4.1685 4.9534
# 4 12.2500 5.6728 3.1974 38.7464 -5.8572 -4.8168
# 5 -0.9845 5.1331 -4.1685 -5.8572 28.7509 -1.5742
# 6 14.2421 7.5411 4.9534 -4.8168 -1.5742 18.6161
#
#
#
# Elastic Compliance Matrix: (Units=1/GPa)
#
#
# Indices 1 2 3 4 5 6 
#
# 1 0.014659 0.001097 -0.007927 -0.005952 -0.002675 -0.011316
# 2 0.001097 0.014783 -0.013699 -0.002735 -0.005383 -0.004346
# 3 -0.007927 -0.013699 0.062558 0.000542 0.011139 -0.003949
# 4 -0.005952 -0.002735 0.000542 0.030930 0.007439 0.014149
# 5 -0.002675 -0.005383 0.011139 0.007439 0.039137 0.006498
# 6 -0.011316 -0.004346 -0.003949 0.014149 0.006498 0.069396
#
#
# Mechanical properties :
#
#
# Convention : Reuss Voigt Hill
#
# Bulk Modulus (GPa) = 19.63010 34.18378 26.90694
# Shear Modulus (GPa) = 17.27102 27.61961 22.44531
#
# Velocity S-wave (km/s) = 2.90796 3.67738 3.31507
# Velocity P-wave (km/s) = 4.57015 5.89643 5.27514
#
# Compressibility (1/GPa) = 0.05094217
#
# Stress axis : x y z
#
# Youngs Moduli (GPa) = 68.21866 67.64367 15.98507
#
# Poissons Ratio (x) = -0.07420 0.12672
# Poissons Ratio (y) = -0.07483 0.21898
# Poissons Ratio (z) = 0.54079 0.92664
#
# Static dielectric constant tensor:
#      x y z
#    x 3.870230 0.005260 0.001140 
#    y 0.005260 3.644330 0.073290 
#    z 0.001140 0.073290 3.543240 
# 
# 
# High freq. dielectric constant tensor:
#      x y z
#    x 1.813180 0.001950 -0.002200 
#    y 0.001950 1.804780 0.002930 
#    z -0.002200 0.002930 1.795880 
# 
# From -- ./inp_files/238372.got.cif
#   From: 2010.06.25/outbox.cif.g09.slc.cpg/sg2_120_cif.got.tgz:238372.got - 2010.06.27 13:26:56.
