data_PCOD8026499
_publ_section_title
;
Structure prediction by ZEFSAII (Michael W. Deem and Ramdas Pophale) SiO2 
 PCOD8026499
Probable space group: P -1
;
_chemical_formula_sum "Si O2"
_cell_formula_units_Z 16
_cell_length_a 8.668549
_cell_length_b 11.728280
_cell_length_c 9.513344
_cell_angle_alpha 67.416207
_cell_angle_beta 111.048678
_cell_angle_gamma 77.585335
_cell_volume 760.338486
_symmetry_space_group_name_H-M "P -1"
_symmetry_group_IT_number 2
_symmetry_cell_setting 'triclinic'
loop_
_space_group_symop_operation_xyz
x,y,z
-x,-y,-z
loop_
_atom_site_type_symbol
_atom_site_label
_atom_site_fract_x
_atom_site_fract_y
_atom_site_fract_z
Si Si1 0.578061 0.906668 0.937054
Si Si2 0.745244 0.627373 0.556060
Si Si3 0.043500 0.109489 0.043296
Si Si4 0.246118 0.603870 0.144335
Si Si5 0.137184 0.596338 0.804970
Si Si6 0.385162 0.080994 0.552659
Si Si7 0.614531 0.628498 0.204468
Si Si8 0.005152 0.113139 0.348359
O O1 0.753796 0.914587 0.920062
O O2 0.419812 0.973584 0.739920
O O3 0.614244 0.754768 0.056556
O O4 0.500000 0.000000 0.000000
O O5 0.686219 0.521369 0.666894
O O6 0.593331 0.780285 0.466298
O O7 0.734032 0.607414 0.394443
O O8 0.949602 0.595683 0.687313
O O9 0.011494 0.072226 0.208689
O O10 0.914424 0.266509 0.897405
O O11 0.000000 0.000000 0.000000
O O12 0.410388 0.648689 0.155667
O O13 0.173912 0.557342 0.001136
O O14 0.297753 0.499728 0.806590
O O15 0.152536 0.741567 0.732990
O O16 0.178544 0.142576 0.416430
O O17 0.500000 0.000000 0.500000
O O18 0.000000 0.000000 0.500000
#
# Coordination Sequence:
#
# PCOD8026499 Si02
#       8
#     2   2   2   2   2   2   2   2
#     4  12  25  44  67  97 135 171 224 273 329 398
#     4  11  24  44  66  94 134 170 225 271 330 400
#     4  11  25  43  67  98 132 177 217 270 337 389
#     4  11  25  44  66  98 133 170 223 275 331 396
#     4  10  24  43  65  97 128 177 218 265 339 389
#     4  11  24  42  68  97 129 177 220 269 333 388
#     4  12  25  42  69  98 132 175 219 277 333 390
#     4  10  24  42  66  98 135 170 220 272 325 399
#
# _framework density 21.043261000000001
#
# number of rings (size 3 to 8) (size 9 to 14) (size 15 to 20)
#    0.000    1.000    2.500    3.000    7.000    2.000 
#    0.000    0.000    0.000    0.000    0.000    0.000 
#    0.000    0.000    0.000    0.000    0.000    0.000 
#
# Total GULP energy -198314.108426 kJ/mol
# GULP energy per Si atom -12394.631777 kJ/mol
# Density = 2.099537 g / cm^3
# Si number density = 21.043261 Si / 1000 Ang^3
#
#
#
# Elastic Constant Matrix: (Units=GPa)
#
#
# Indices 1 2 3 4 5 6 
#
# 1 36.2933 36.1272 1.1794 -10.0015 -5.6924 0.5584
# 2 36.1272 162.8506 65.4286 4.2949 -22.7280 -19.4056
# 3 1.1794 65.4286 137.9483 -3.9238 -21.8633 8.0217
# 4 -10.0015 4.2949 -3.9238 36.0735 11.0488 0.6923
# 5 -5.6924 -22.7280 -21.8633 11.0488 42.2233 -2.4775
# 6 0.5584 -19.4056 8.0217 0.6923 -2.4775 38.0343
#
#
#
# Elastic Compliance Matrix: (Units=1/GPa)
#
#
# Indices 1 2 3 4 5 6 
#
# 1 0.047406 -0.015813 0.007701 0.017065 -0.003239 -0.010910
# 2 -0.015813 0.014377 -0.006696 -0.008513 0.004923 0.009455
# 3 0.007701 -0.006696 0.011099 0.003676 0.001878 -0.005815
# 4 0.017065 -0.008513 0.003676 0.037215 -0.010512 -0.006731
# 5 -0.003239 0.004923 0.001878 -0.010512 0.029872 0.004300
# 6 -0.010910 0.009455 -0.005815 -0.006731 0.004300 0.032905
#
#
# Mechanical properties :
#
#
# Convention : Reuss Voigt Hill
#
# Bulk Modulus (GPa) = 23.11174 60.28473 41.69823
# Shear Modulus (GPa) = 23.05081 38.89003 30.97042
#
# Velocity S-wave (km/s) = 3.31328 4.30362 3.84050
# Velocity P-wave (km/s) = 5.06398 7.30787 6.28685
#
# Compressibility (1/GPa) = 0.04326806
#
# Stress axis : x y z
#
# Youngs Moduli (GPa) = 21.09422 69.55603 90.09563
#
# Poissons Ratio (x) = 1.09989 -0.69385
# Poissons Ratio (y) = 0.33356 0.60324
# Poissons Ratio (z) = -0.16245 0.46572
#
# Static dielectric constant tensor:
#      x y z
#    x 3.576960 -0.145700 0.229480 
#    y -0.145700 2.743430 1.873780 
#    z 0.229480 1.873780 1.191440 
# 
# 
# High freq. dielectric constant tensor:
#      x y z
#    x 1.813740 -0.003850 0.002930 
#    y -0.003850 1.845330 -0.002640 
#    z 0.002930 -0.002640 1.841200 
# 
# From -- ./inp_files/185067.got.cif
#   From: 2010.06.25/outbox.cif.g09.slc.cpg/sg2_93_cif.got.tgz:185067.got - 2010.06.27 13:26:56.
