data_PCOD8026311
_publ_section_title
;
Structure prediction by ZEFSAII (Michael W. Deem and Ramdas Pophale) SiO2 
 PCOD8026311
Probable space group: P -1
;
_chemical_formula_sum "Si O2"
_cell_formula_units_Z 16
_cell_length_a 16.475561
_cell_length_b 8.466326
_cell_length_c 9.846107
_cell_angle_alpha 76.374772
_cell_angle_beta 34.503725
_cell_angle_gamma 81.713602
_cell_volume 752.960242
_symmetry_space_group_name_H-M "P -1"
_symmetry_group_IT_number 2
_symmetry_cell_setting 'triclinic'
loop_
_space_group_symop_operation_xyz
x,y,z
-x,-y,-z
loop_
_atom_site_type_symbol
_atom_site_label
_atom_site_fract_x
_atom_site_fract_y
_atom_site_fract_z
Si Si1 0.995604 0.637233 0.368842
Si Si2 0.075817 0.527721 0.752876
Si Si3 0.286692 0.207520 0.316691
Si Si4 0.368518 0.369880 0.431460
Si Si5 0.853862 0.059834 0.762182
Si Si6 0.498061 0.715423 0.219876
Si Si7 0.399917 0.128633 0.681845
Si Si8 0.230309 0.852630 0.420708
O O1 0.034682 0.560058 0.186637
O O2 0.831365 0.670065 0.570644
O O3 0.000000 0.500000 0.500000
O O4 0.100646 0.794129 0.227258
O O5 0.223143 0.447248 0.582415
O O6 0.093918 0.721686 0.658254
O O7 0.000000 0.500000 0.000000
O O8 0.395620 0.265018 0.278499
O O9 0.210988 0.025100 0.486275
O O10 0.365490 0.202001 0.065003
O O11 0.492052 0.517590 0.257289
O O12 0.356058 0.252185 0.601909
O O13 0.753692 0.121649 0.768973
O O14 0.000000 0.000000 0.500000
O O15 0.751179 0.939285 0.024173
O O16 0.503551 0.771634 0.357445
O O17 0.365822 0.779852 0.311832
O O18 0.500000 0.000000 0.500000
#
# Coordination Sequence:
#
# PCOD8026311 Si02
#       8
#     2   2   2   2   2   2   2   2
#     4  11  23  40  64  97 130 170 224 270 324 392
#     4  10  24  41  65  94 132 174 211 275 339 388
#     4  11  22  41  68  98 128 175 221 275 326 398
#     4  10  25  41  63  97 135 167 222 272 337 390
#     4  12  25  44  69 101 130 179 226 274 327 392
#     4  11  23  43  69  94 131 179 218 268 335 397
#     4  12  27  44  67 101 137 175 219 278 333 391
#     4  11  22  40  69  95 128 167 224 267 327 392
#
# _framework density 21.249462000000001
#
# number of rings (size 3 to 8) (size 9 to 14) (size 15 to 20)
#    0.000    1.000    3.750    1.875    3.500    5.000 
#    0.000    2.500    0.000    0.000    0.000    0.000 
#    0.000    0.000    0.000    0.000    0.000    0.000 
#
# Total GULP energy -198245.045823 kJ/mol
# GULP energy per Si atom -12390.315364 kJ/mol
# Density = 2.120110 g / cm^3
# Si number density = 21.249462 Si / 1000 Ang^3
#
#
#
# Elastic Constant Matrix: (Units=GPa)
#
#
# Indices 1 2 3 4 5 6 
#
# 1 148.9918 69.9874 39.3407 -14.2823 26.5896 24.4171
# 2 69.9874 140.5876 50.1135 -24.6490 15.0354 25.6137
# 3 39.3407 50.1135 94.8381 -11.7670 19.5105 8.4714
# 4 -14.2823 -24.6490 -11.7670 32.5918 0.2087 5.7462
# 5 26.5896 15.0354 19.5105 0.2087 35.6022 -0.7493
# 6 24.4171 25.6137 8.4714 5.7462 -0.7493 50.1131
#
#
#
# Elastic Compliance Matrix: (Units=1/GPa)
#
#
# Indices 1 2 3 4 5 6 
#
# 1 0.010296 -0.003079 -0.000739 0.002609 -0.006077 -0.003708
# 2 -0.003079 0.012288 -0.003611 0.007538 -0.001061 -0.005050
# 3 -0.000739 -0.003611 0.014272 0.002232 -0.005769 -0.000549
# 4 0.002609 0.007538 0.002232 0.040176 -0.006805 -0.010209
# 5 -0.006077 -0.001061 -0.005769 -0.006805 0.036399 0.005803
# 6 -0.003708 -0.005050 -0.000549 -0.010209 0.005803 0.025693
#
#
# Mechanical properties :
#
#
# Convention : Reuss Voigt Hill
#
# Bulk Modulus (GPa) = 45.45992 78.14453 61.80222
# Shear Modulus (GPa) = 30.99557 38.65982 34.82769
#
# Velocity S-wave (km/s) = 3.82337 4.26999 4.05284
# Velocity P-wave (km/s) = 6.39772 7.82081 7.14478
#
# Compressibility (1/GPa) = 0.02199740
#
# Stress axis : x y z
#
# Youngs Moduli (GPa) = 97.12964 81.37831 70.06898
#
# Poissons Ratio (x) = 0.25058 0.05175
# Poissons Ratio (y) = 0.29908 0.25304
# Poissons Ratio (z) = 0.07173 0.29388
#
# Static dielectric constant tensor:
#      x y z
#    x 4.405460 0.511290 0.181270 
#    y 0.511290 4.554990 -0.179690 
#    z 0.181270 -0.179690 3.827980 
# 
# 
# High freq. dielectric constant tensor:
#      x y z
#    x 1.857860 0.011210 0.009150 
#    y 0.011210 1.848270 -0.013480 
#    z 0.009150 -0.013480 1.810770 
# 
# From -- ./inp_files/201434.got.cif
#   From: 2010.06.25/outbox.cif.g09.slc.cpg/sg2_101_cif.got.tgz:201434.got - 2010.06.27 13:26:56.
