data_PCOD8026923
_publ_section_title
;
Structure prediction by ZEFSAII (Michael W. Deem and Ramdas Pophale) SiO2 
 PCOD8026923
Probable space group: P -1
;
_chemical_formula_sum "Si O2"
_cell_formula_units_Z 14
_cell_length_a 14.284586
_cell_length_b 13.228045
_cell_length_c 13.987826
_cell_angle_alpha 40.881355
_cell_angle_beta 20.616130
_cell_angle_gamma 43.721200
_cell_volume 607.802392
_symmetry_space_group_name_H-M "P -1"
_symmetry_group_IT_number 2
_symmetry_cell_setting 'triclinic'
loop_
_space_group_symop_operation_xyz
x,y,z
-x,-y,-z
loop_
_atom_site_type_symbol
_atom_site_label
_atom_site_fract_x
_atom_site_fract_y
_atom_site_fract_z
Si Si1 0.891626 0.832806 0.704968
Si Si2 0.383135 0.197751 0.281076
Si Si3 0.005247 0.460936 0.413241
Si Si4 0.620700 0.169668 0.458198
Si Si5 0.843715 0.816021 0.970452
Si Si6 0.486212 0.641528 0.760547
Si Si7 0.315995 0.835782 0.158675
O O1 0.871840 0.740606 0.890898
O O2 0.112800 0.742835 0.487116
O O3 0.599355 0.853791 0.925120
O O4 0.000000 0.000000 0.500000
O O5 0.108790 0.278500 0.439899
O O6 0.445120 0.266722 0.275062
O O7 0.358642 0.015525 0.438233
O O8 0.623745 0.241382 0.948274
O O9 0.000000 0.500000 0.500000
O O10 0.713713 0.505447 0.615915
O O11 0.209783 0.563987 0.088842
O O12 0.527926 0.234174 0.398782
O O13 0.901614 0.233323 0.172762
O O14 0.416693 0.232555 0.690333
O O15 0.831653 0.998808 0.836645
#
# Coordination Sequence:
#
# PCOD8026923 Si02
#       7
#     2   2   2   2   2   2   2
#     4  10  17  30  48  75 111 143 172 221 280 328
#     4  10  21  37  57  84 114 142 183 235 269 319
#     4  10  22  39  58  77 108 152 190 224 269 321
#     4  11  22  35  56  85 113 147 183 223 275 322
#     4  10  19  33  51  78 114 146 178 223 274 331
#     4  11  23  39  56  81 114 152 184 218 272 334
#     4  10  19  29  50  80 108 140 177 224 280 317
#
# _framework density 23.033802999999999
#
# number of rings (size 3 to 8) (size 9 to 14) (size 15 to 20)
#    0.000    1.714    0.000    9.000    0.000   10.286 
#    0.000    7.143    0.000    0.000    0.000   20.000 
#    0.000    0.000    0.000    0.000    0.000    0.000 
#
# Total GULP energy -173496.040226 kJ/mol
# GULP energy per Si atom -12392.574302 kJ/mol
# Density = 2.298138 g / cm^3
# Si number density = 23.033803 Si / 1000 Ang^3
#
#
#
# Elastic Constant Matrix: (Units=GPa)
#
#
# Indices 1 2 3 4 5 6 
#
# 1 135.2299 43.8733 50.0359 16.7380 20.1437 -21.3631
# 2 43.8733 79.1383 44.6429 12.6072 17.9335 -25.6935
# 3 50.0359 44.6429 143.5421 27.8457 14.0343 -12.4238
# 4 16.7380 12.6072 27.8457 37.4871 3.4566 -3.0021
# 5 20.1437 17.9335 14.0343 3.4566 50.0501 3.8644
# 6 -21.3631 -25.6935 -12.4238 -3.0021 3.8644 17.8960
#
#
#
# Elastic Compliance Matrix: (Units=1/GPa)
#
#
# Indices 1 2 3 4 5 6 
#
# 1 0.011080 0.001200 -0.002059 -0.002192 -0.005264 0.014289
# 2 0.001200 0.035768 -0.004831 -0.003338 -0.015750 0.052272
# 3 -0.002059 -0.004831 0.009825 -0.005075 0.000427 -0.003516
# 4 -0.002192 -0.003338 -0.005075 0.031908 0.001758 -0.005959
# 5 -0.005264 -0.015750 0.000427 0.001758 0.030190 -0.034824
# 6 0.014289 0.052272 -0.003516 -0.005959 -0.034824 0.152064
#
#
# Mechanical properties :
#
#
# Convention : Reuss Voigt Hill
#
# Bulk Modulus (GPa) = 22.07799 70.55717 46.31758
# Shear Modulus (GPa) = 16.81739 35.71052 26.26395
#
# Velocity S-wave (km/s) = 2.70500 3.94172 3.38040
# Velocity P-wave (km/s) = 4.40021 7.17041 5.94881
#
# Compressibility (1/GPa) = 0.04529398
#
# Stress axis : x y z
#
# Youngs Moduli (GPa) = 90.25228 27.95812 101.77874
#
# Poissons Ratio (x) = -0.03355 0.20955
# Poissons Ratio (y) = -0.10832 0.49167
# Poissons Ratio (z) = 0.18582 0.13506
#
# Static dielectric constant tensor:
#      x y z
#    x 4.608310 0.184650 0.595730 
#    y 0.184650 4.273690 0.831840 
#    z 0.595730 0.831840 4.863920 
# 
# 
# High freq. dielectric constant tensor:
#      x y z
#    x 1.924530 0.003450 0.007560 
#    y 0.003450 1.877110 0.028920 
#    z 0.007560 0.028920 1.933600 
# 
# From -- ./inp_files/47173.got.cif
#   From: 2010.06.25/outbox.cif.g09.slc.cpg/sg2_24_cif.got.tgz:47173.got - 2010.06.27 13:26:56.
