data_PCOD8026423
_publ_section_title
;
Structure prediction by ZEFSAII (Michael W. Deem and Ramdas Pophale) SiO2 
 PCOD8026423
Probable space group: P -1
;
_chemical_formula_sum "Si O2"
_cell_formula_units_Z 16
_cell_length_a 7.393821
_cell_length_b 17.362899
_cell_length_c 7.847224
_cell_angle_alpha 87.888707
_cell_angle_beta 53.225722
_cell_angle_gamma 104.958085
_cell_volume 755.382312
_symmetry_space_group_name_H-M "P -1"
_symmetry_group_IT_number 2
_symmetry_cell_setting 'triclinic'
loop_
_space_group_symop_operation_xyz
x,y,z
-x,-y,-z
loop_
_atom_site_type_symbol
_atom_site_label
_atom_site_fract_x
_atom_site_fract_y
_atom_site_fract_z
Si Si1 0.685046 0.892179 0.159704
Si Si2 0.287439 0.522911 0.032848
Si Si3 0.439384 0.818790 0.977275
Si Si4 0.370210 0.808817 0.646931
Si Si5 0.225301 0.927750 0.914129
Si Si6 0.074843 0.646134 0.316323
Si Si7 0.124599 0.638008 0.676741
Si Si8 0.535098 0.587582 0.546460
O O1 0.656371 0.853780 0.987910
O O2 0.520020 0.824431 0.387872
O O3 0.947727 0.915141 0.086517
O O4 0.618859 0.975165 0.187886
O O5 0.172162 0.573356 0.217197
O O6 0.069764 0.438941 0.108849
O O7 0.500000 0.500000 0.000000
O O8 0.404183 0.579714 0.802850
O O9 0.301395 0.884994 0.038250
O O10 0.262255 0.732974 0.152079
O O11 0.523224 0.807169 0.736035
O O12 0.152613 0.721251 0.758347
O O13 0.263707 0.882192 0.723798
O O14 0.024197 0.640925 0.545764
O O15 0.818830 0.638637 0.378961
O O16 0.391512 0.631905 0.508521
O O17 0.500000 0.500000 0.500000
#
# Coordination Sequence:
#
# PCOD8026423 Si02
#       8
#     2   2   2   2   2   2   2   2
#     4  11  20  48  67  95 137 172 210 278 329 387
#     4  12  25  44  66  95 129 173 226 270 329 396
#     4  10  24  42  66  99 133 168 219 270 322 394
#     4  10  24  42  64 101 130 170 219 268 326 394
#     4   9  24  42  70  99 129 172 223 260 332 408
#     4  12  25  46  63  97 132 175 224 271 336 387
#     4  12  24  45  65  94 133 175 218 278 333 385
#     4  12  26  42  69  91 129 179 223 278 327 390
#
# _framework density 21.181329999999999
#
# number of rings (size 3 to 8) (size 9 to 14) (size 15 to 20)
#    0.750    0.250    3.750    3.000    3.500    1.000 
#    4.500    1.250    0.000    0.000    0.000    0.000 
#    0.000    0.000    0.000    0.000    0.000    0.000 
#
# Total GULP energy -198300.251292 kJ/mol
# GULP energy per Si atom -12393.765706 kJ/mol
# Density = 2.113312 g / cm^3
# Si number density = 21.181330 Si / 1000 Ang^3
#
#
#
# Elastic Constant Matrix: (Units=GPa)
#
#
# Indices 1 2 3 4 5 6 
#
# 1 80.1652 14.7565 11.2616 -3.2681 -9.8711 2.2983
# 2 14.7565 88.9130 23.1867 -12.9282 2.9279 16.5717
# 3 11.2616 23.1867 58.5966 -1.2638 7.0187 4.5856
# 4 -3.2681 -12.9282 -1.2638 32.5987 3.1541 6.3632
# 5 -9.8711 2.9279 7.0187 3.1541 37.0795 2.1319
# 6 2.2983 16.5717 4.5856 6.3632 2.1319 28.8204
#
#
#
# Elastic Compliance Matrix: (Units=1/GPa)
#
#
# Indices 1 2 3 4 5 6 
#
# 1 0.013665 -0.001732 -0.002438 0.000192 0.004223 -0.000061
# 2 -0.001732 0.015829 -0.004880 0.007928 -0.000894 -0.009871
# 3 -0.002438 -0.004880 0.019887 -0.001099 -0.003956 0.000372
# 4 0.000192 0.007928 -0.001099 0.036454 -0.002764 -0.012243
# 5 0.004223 -0.000894 -0.003956 -0.002764 0.029191 -0.000742
# 6 -0.000061 -0.009871 0.000372 -0.012243 -0.000742 0.043077
#
#
# Mechanical properties :
#
#
# Convention : Reuss Voigt Hill
#
# Bulk Modulus (GPa) = 31.96873 36.23160 34.10016
# Shear Modulus (GPa) = 26.79097 31.59771 29.19434
#
# Velocity S-wave (km/s) = 3.56032 3.86654 3.71658
# Velocity P-wave (km/s) = 5.65922 6.08901 5.87804
#
# Compressibility (1/GPa) = 0.03128057
#
# Stress axis : x y z
#
# Youngs Moduli (GPa) = 73.17892 63.17479 50.28534
#
# Poissons Ratio (x) = 0.10942 0.12259
# Poissons Ratio (y) = 0.12675 0.24540
# Poissons Ratio (z) = 0.17840 0.30830
#
# Static dielectric constant tensor:
#      x y z
#    x 3.931940 0.021420 0.091030 
#    y 0.021420 3.996020 -0.042900 
#    z 0.091030 -0.042900 3.649170 
# 
# 
# High freq. dielectric constant tensor:
#      x y z
#    x 1.830790 0.001530 0.010280 
#    y 0.001530 1.846180 -0.004840 
#    z 0.010280 -0.004840 1.809200 
# 
# From -- ./inp_files/217790.got.cif
#   From: 2010.06.25/outbox.cif.g09.slc.cpg/sg2_109_cif.got.tgz:217790.got - 2010.06.27 13:26:56.
