data_PCOD8026652
_publ_section_title
;
Structure prediction by ZEFSAII (Michael W. Deem and Ramdas Pophale) SiO2 
 PCOD8026652
Probable space group: P -1
;
_chemical_formula_sum "Si O2"
_cell_formula_units_Z 16
_cell_length_a 8.776830
_cell_length_b 19.312919
_cell_length_c 9.890736
_cell_angle_alpha 59.204076
_cell_angle_beta 149.778177
_cell_angle_gamma 121.371229
_cell_volume 712.944241
_symmetry_space_group_name_H-M "P -1"
_symmetry_group_IT_number 2
_symmetry_cell_setting 'triclinic'
loop_
_space_group_symop_operation_xyz
x,y,z
-x,-y,-z
loop_
_atom_site_type_symbol
_atom_site_label
_atom_site_fract_x
_atom_site_fract_y
_atom_site_fract_z
Si Si1 0.349643 0.164019 0.786830
Si Si2 0.434617 0.901863 0.247084
Si Si3 0.614523 0.678975 0.990109
Si Si4 0.841001 0.548424 0.723237
Si Si5 0.873200 0.272711 0.224594
Si Si6 0.061910 0.575610 0.569229
Si Si7 0.731692 0.842917 0.775276
Si Si8 0.305595 0.052645 0.119604
O O1 0.393618 0.104105 0.756528
O O2 0.068621 0.209195 0.496627
O O3 0.668036 0.229831 0.985088
O O4 0.245160 0.110522 0.892227
O O5 0.528165 0.835995 0.489998
O O6 0.533803 0.992702 0.300850
O O7 0.071656 0.890726 0.953979
O O8 0.362260 0.706864 0.864999
O O9 0.778790 0.754211 0.950875
O O10 0.426685 0.612473 0.809172
O O11 0.864727 0.644147 0.305842
O O12 0.500000 0.500000 0.500000
O O13 0.983555 0.543223 0.691142
O O14 0.891816 0.643377 0.718626
O O15 0.000000 0.500000 0.000000
O O16 0.000000 0.500000 0.500000
O O17 0.555260 0.888322 0.708749
O O18 0.000000 0.000000 0.000000
#
# Coordination Sequence:
#
# PCOD8026652 Si02
#       8
#     2   2   2   2   2   2   2   2
#     4  12  24  44  66  99 140 175 223 280 334 399
#     4  11  25  43  61 102 136 172 218 284 341 382
#     4  11  22  42  71  94 131 176 225 271 320 404
#     4  11  23  44  68  97 132 172 222 269 318 404
#     4  11  24  42  72  97 131 184 225 264 338 395
#     4  11  24  44  67 100 133 171 219 269 342 390
#     4  11  23  43  68  95 132 174 231 271 329 397
#     4  10  24  42  73  96 132 179 232 272 332 402
#
# _framework density 22.442146000000001
#
# number of rings (size 3 to 8) (size 9 to 14) (size 15 to 20)
#    0.000    1.000    1.250    6.375    3.500    2.000 
#   13.500    4.375    0.000    0.000    0.000    0.000 
#    0.000    0.000    0.000    0.000    0.000    0.000 
#
# Total GULP energy -198362.203537 kJ/mol
# GULP energy per Si atom -12397.637721 kJ/mol
# Density = 2.239107 g / cm^3
# Si number density = 22.442146 Si / 1000 Ang^3
#
#
#
# Elastic Constant Matrix: (Units=GPa)
#
#
# Indices 1 2 3 4 5 6 
#
# 1 83.1279 29.8073 21.8535 0.9418 -15.2724 -12.2696
# 2 29.8073 74.3662 4.0815 3.4005 -6.0011 -3.1763
# 3 21.8535 4.0815 115.0757 -1.6295 -4.9722 -4.2084
# 4 0.9418 3.4005 -1.6295 35.4818 -6.7925 2.2955
# 5 -15.2724 -6.0011 -4.9722 -6.7925 28.6053 8.2395
# 6 -12.2696 -3.1763 -4.2084 2.2955 8.2395 28.5605
#
#
#
# Elastic Compliance Matrix: (Units=1/GPa)
#
#
# Indices 1 2 3 4 5 6 
#
# 1 0.016531 -0.005853 -0.002498 0.000913 0.006162 0.004232
# 2 -0.005853 0.015809 0.000517 -0.001265 0.000161 -0.000625
# 3 -0.002498 0.000517 0.009179 0.000512 0.000444 0.000168
# 4 0.000913 -0.001265 0.000512 0.030299 0.008849 -0.004661
# 5 0.006162 0.000161 0.000444 0.008849 0.043493 -0.010528
# 6 0.004232 -0.000625 0.000168 -0.004661 -0.010528 0.040199
#
#
# Mechanical properties :
#
#
# Convention : Reuss Voigt Hill
#
# Bulk Modulus (GPa) = 38.68288 42.67271 40.67780
# Shear Modulus (GPa) = 27.80960 32.98466 30.39713
#
# Velocity S-wave (km/s) = 3.52400 3.83791 3.68430
# Velocity P-wave (km/s) = 5.81655 6.22055 6.02194
#
# Compressibility (1/GPa) = 0.02585123
#
# Stress axis : x y z
#
# Youngs Moduli (GPa) = 60.49128 63.25660 108.95017
#
# Poissons Ratio (x) = 0.37022 0.27214
# Poissons Ratio (y) = 0.35404 -0.05632
# Poissons Ratio (z) = 0.15110 -0.03270
#
# Static dielectric constant tensor:
#      x y z
#    x 3.976880 -0.002800 -0.105470 
#    y -0.002800 5.262640 0.459630 
#    z -0.105470 0.459630 4.315590 
# 
# 
# High freq. dielectric constant tensor:
#      x y z
#    x 1.868520 -0.002250 -0.009390 
#    y -0.002250 1.898550 0.000990 
#    z -0.009390 0.000990 1.895330 
# 
# From -- ./inp_files/223543.got.cif
#   From: 2010.06.25/outbox.cif.g09.slc.cpg/sg2_112_cif.got.tgz:223543.got - 2010.06.27 13:26:56.
