data_PCOD8026001
_publ_section_title
;
Structure prediction by ZEFSAII (Michael W. Deem and Ramdas Pophale) SiO2 
 PCOD8026001
Probable space group: P -1
;
_chemical_formula_sum "Si O2"
_cell_formula_units_Z 14
_cell_length_a 9.168458
_cell_length_b 11.079229
_cell_length_c 9.384674
_cell_angle_alpha 124.360101
_cell_angle_beta 51.617134
_cell_angle_gamma 105.619642
_cell_volume 611.997024
_symmetry_space_group_name_H-M "P -1"
_symmetry_group_IT_number 2
_symmetry_cell_setting 'triclinic'
loop_
_space_group_symop_operation_xyz
x,y,z
-x,-y,-z
loop_
_atom_site_type_symbol
_atom_site_label
_atom_site_fract_x
_atom_site_fract_y
_atom_site_fract_z
Si Si1 0.988368 0.413800 0.132116
Si Si2 0.571551 0.142777 0.923927
Si Si3 0.306241 0.598654 0.161338
Si Si4 0.190579 0.298912 0.672863
Si Si5 0.538082 0.081840 0.388234
Si Si6 0.123296 0.762753 0.648756
Si Si7 0.791328 0.873567 0.727931
O O1 0.163047 0.504176 0.110809
O O2 0.812657 0.531587 0.266377
O O3 0.941419 0.334868 0.250711
O O4 0.046906 0.296617 0.892036
O O5 0.664162 0.266702 0.869526
O O6 0.482756 0.029643 0.799756
O O7 0.733291 0.048599 0.856426
O O8 0.393818 0.205867 0.172290
O O9 0.234844 0.655259 0.396068
O O10 0.500000 0.500000 0.000000
O O11 0.397116 0.232537 0.555094
O O12 0.120914 0.201756 0.520861
O O13 0.748587 0.121842 0.288709
O O14 0.500000 0.000000 0.500000
O O15 0.943273 0.854767 0.747716
#
# Coordination Sequence:
#
# PCOD8026001 Si02
#       7
#     2   2   2   2   2   2   2
#     4  11  25  45  69 102 137 183 229 277 347 404
#     4  10  24  46  70 101 139 183 224 284 346 401
#     4  12  24  41  71 103 137 179 226 284 338 407
#     4  10  24  48  67  95 144 180 228 283 337 412
#     4  11  24  45  68 101 137 178 229 281 343 398
#     4  12  25  43  74 102 134 181 231 288 332 408
#     4  10  23  47  71 101 136 179 238 279 336 407
#
# _framework density 22.875927999999998
#
# number of rings (size 3 to 8) (size 9 to 14) (size 15 to 20)
#    0.000    1.143    2.857    2.143    4.000    2.857 
#   15.429    0.000    0.000    0.000    0.000    0.000 
#    0.000    0.000    0.000    0.000    0.000    0.000 
#
# Total GULP energy -173621.697673 kJ/mol
# GULP energy per Si atom -12401.549834 kJ/mol
# Density = 2.282386 g / cm^3
# Si number density = 22.875928 Si / 1000 Ang^3
#
#
#
# Elastic Constant Matrix: (Units=GPa)
#
#
# Indices 1 2 3 4 5 6 
#
# 1 113.7447 98.0998 31.1864 -11.9882 -16.7494 -21.0034
# 2 98.0998 170.5374 75.1965 -27.6628 -12.6835 -19.7597
# 3 31.1864 75.1965 104.6456 -18.1672 -8.0580 -9.7947
# 4 -11.9882 -27.6628 -18.1672 31.4228 -7.9076 3.9494
# 5 -16.7494 -12.6835 -8.0580 -7.9076 31.0151 2.8471
# 6 -21.0034 -19.7597 -9.7947 3.9494 2.8471 43.4641
#
#
#
# Elastic Compliance Matrix: (Units=1/GPa)
#
#
# Indices 1 2 3 4 5 6 
#
# 1 0.020046 -0.012123 0.003689 0.000155 0.006446 0.004570
# 2 -0.012123 0.017194 -0.007707 0.006117 0.000073 -0.000339
# 3 0.003689 -0.007707 0.015103 0.004159 0.003728 0.001060
# 4 0.000155 0.006117 0.004159 0.043560 0.014877 -0.001139
# 5 0.006446 0.000073 0.003728 0.014877 0.040516 -0.000018
# 6 0.004570 -0.000339 0.001060 -0.001139 -0.000018 0.025405
#
#
# Mechanical properties :
#
#
# Convention : Reuss Voigt Hill
#
# Bulk Modulus (GPa) = 49.84980 88.65479 69.25230
# Shear Modulus (GPa) = 24.90119 33.47673 29.18896
#
# Velocity S-wave (km/s) = 3.30287 3.82960 3.57595
# Velocity P-wave (km/s) = 6.03191 7.64154 6.88394
#
# Compressibility (1/GPa) = 0.02006026
#
# Stress axis : x y z
#
# Youngs Moduli (GPa) = 49.88620 58.15921 66.21221
#
# Poissons Ratio (x) = 0.70509 -0.24424
# Poissons Ratio (y) = 0.60479 0.51027
# Poissons Ratio (z) = -0.18402 0.44821
#
# Static dielectric constant tensor:
#      x y z
#    x 30.752550 -0.458250 27.922280 
#    y -0.458250 -0.571670 0.562240 
#    z 27.922280 0.562240 33.906270 
# 
# 
# High freq. dielectric constant tensor:
#      x y z
#    x 1.911240 -0.026310 0.001960 
#    y -0.026310 1.897370 -0.003020 
#    z 0.001960 -0.003020 1.919850 
# 
# From -- ./inp_files/189645.got.cif
#   From: 2010.06.25/outbox.cif.g09.slc.cpg/sg2_95_cif.got.tgz:189645.got - 2010.06.27 13:26:56.
