data_PCOD8026695
_publ_section_title
;
Structure prediction by ZEFSAII (Michael W. Deem and Ramdas Pophale) SiO2 
 PCOD8026695
Probable space group: P -1
;
_chemical_formula_sum "Si O2"
_cell_formula_units_Z 16
_cell_length_a 18.072645
_cell_length_b 5.997217
_cell_length_c 8.908012
_cell_angle_alpha 80.519860
_cell_angle_beta 128.019687
_cell_angle_gamma 85.687708
_cell_volume 730.590334
_symmetry_space_group_name_H-M "P -1"
_symmetry_group_IT_number 2
_symmetry_cell_setting 'triclinic'
loop_
_space_group_symop_operation_xyz
x,y,z
-x,-y,-z
loop_
_atom_site_type_symbol
_atom_site_label
_atom_site_fract_x
_atom_site_fract_y
_atom_site_fract_z
Si Si1 0.401585 0.429656 0.350194
Si Si2 0.768747 0.574614 0.449540
Si Si3 0.059762 0.287552 0.508432
Si Si4 0.450559 0.782749 0.914364
Si Si5 0.653250 0.933861 0.490926
Si Si6 0.227026 0.773954 0.256117
Si Si7 0.880599 0.136298 0.181005
Si Si8 0.693148 0.402917 0.079721
O O1 0.500000 0.500000 0.500000
O O2 0.409646 0.175277 0.457962
O O3 0.315670 0.609040 0.302335
O O4 0.377666 0.427990 0.143311
O O5 0.866626 0.648980 0.525023
O O6 0.693351 0.764051 0.424638
O O7 0.803039 0.343170 0.618401
O O8 0.708141 0.543130 0.230730
O O9 0.000000 0.500000 0.500000
O O10 0.986648 0.177830 0.332385
O O11 0.119472 0.116738 0.726691
O O12 0.360570 0.800996 0.915666
O O13 0.413967 0.835586 0.691598
O O14 0.500000 0.500000 0.000000
O O15 0.500000 0.000000 0.000000
O O16 0.742764 0.990744 0.685810
O O17 0.138078 0.846679 0.022370
O O18 0.797970 0.312008 0.149287
#
# Coordination Sequence:
#
# PCOD8026695 Si02
#       8
#     2   2   2   2   2   2   2   2
#     4  10  24  43  66  97 135 177 235 289 343 405
#     4  11  23  42  70  98 133 180 227 279 353 415
#     4  11  23  41  72 100 131 167 228 286 338 428
#     4  12  26  43  69 101 139 185 244 295 346 416
#     4  11  24  44  65  94 139 184 224 285 352 418
#     4  10  24  43  64  96 137 177 220 278 350 419
#     4  10  24  43  66 102 131 171 225 281 354 412
#     4  11  22  44  70  99 135 181 233 285 349 416
#
# _framework density 21.900099000000001
#
# number of rings (size 3 to 8) (size 9 to 14) (size 15 to 20)
#    0.000    1.250    2.500    2.250    5.250    2.000 
#    2.250    1.250    0.000    0.000    0.000    0.000 
#    0.000    0.000    0.000    0.000    0.000    0.000 
#
# Total GULP energy -198306.667871 kJ/mol
# GULP energy per Si atom -12394.166742 kJ/mol
# Density = 2.185025 g / cm^3
# Si number density = 21.900099 Si / 1000 Ang^3
#
#
#
# Elastic Constant Matrix: (Units=GPa)
#
#
# Indices 1 2 3 4 5 6 
#
# 1 97.6127 35.9476 57.3235 -2.2623 -7.7510 44.5617
# 2 35.9476 108.4049 60.0825 -0.2224 -11.9384 22.2596
# 3 57.3235 60.0825 192.0002 -3.9708 -26.2451 20.8110
# 4 -2.2623 -0.2224 -3.9708 38.5997 2.3427 -3.7901
# 5 -7.7510 -11.9384 -26.2451 2.3427 37.2358 -1.9741
# 6 44.5617 22.2596 20.8110 -3.7901 -1.9741 43.4018
#
#
#
# Elastic Compliance Matrix: (Units=1/GPa)
#
#
# Indices 1 2 3 4 5 6 
#
# 1 0.022467 -0.000842 -0.004161 -0.001178 0.000449 -0.020723
# 2 -0.000842 0.012092 -0.002919 -0.000756 0.001483 -0.003936
# 3 -0.004161 -0.002919 0.007623 0.000530 0.003661 0.002327
# 4 -0.001178 -0.000756 0.000530 0.026335 -0.001582 0.003571
# 5 0.000449 0.001483 0.003661 -0.001582 0.030012 -0.001751
# 6 -0.020723 -0.003936 0.002327 0.003571 -0.001751 0.045453
#
#
# Mechanical properties :
#
#
# Convention : Reuss Voigt Hill
#
# Bulk Modulus (GPa) = 37.96696 78.30276 58.13486
# Shear Modulus (GPa) = 29.65536 40.15841 34.90688
#
# Velocity S-wave (km/s) = 3.68383 4.28683 3.99672
# Velocity P-wave (km/s) = 5.95552 7.76754 6.92109
#
# Compressibility (1/GPa) = 0.02633869
#
# Stress axis : x y z
#
# Youngs Moduli (GPa) = 44.51010 82.70253 131.17780
#
# Poissons Ratio (x) = 0.06960 0.54584
# Poissons Ratio (y) = 0.03746 0.38288
# Poissons Ratio (z) = 0.18521 0.24139
#
# Static dielectric constant tensor:
#      x y z
#    x 4.220140 0.400940 -0.035530 
#    y 0.400940 4.135140 -0.067670 
#    z -0.035530 -0.067670 4.443040 
# 
# 
# High freq. dielectric constant tensor:
#      x y z
#    x 1.865070 0.015990 -0.007520 
#    y 0.015990 1.860610 -0.000230 
#    z -0.007520 -0.000230 1.874730 
# 
# From -- ./inp_files/47818.got.cif
#   From: 2010.06.25/outbox.cif.g09.slc.cpg/sg2_24_cif.got.tgz:47818.got - 2010.06.27 13:26:56.
