data_PCOD8026360
_publ_section_title
;
Structure prediction by ZEFSAII (Michael W. Deem and Ramdas Pophale) SiO2 
 PCOD8026360
Probable space group: P -1
;
_chemical_formula_sum "Si O2"
_cell_formula_units_Z 16
_cell_length_a 10.844395
_cell_length_b 8.357213
_cell_length_c 11.886673
_cell_angle_alpha 53.007173
_cell_angle_beta 80.451390
_cell_angle_gamma 110.573693
_cell_volume 695.472386
_symmetry_space_group_name_H-M "P -1"
_symmetry_group_IT_number 2
_symmetry_cell_setting 'triclinic'
loop_
_space_group_symop_operation_xyz
x,y,z
-x,-y,-z
loop_
_atom_site_type_symbol
_atom_site_label
_atom_site_fract_x
_atom_site_fract_y
_atom_site_fract_z
Si Si1 0.757448 0.902359 0.798457
Si Si2 0.464780 0.155704 0.315562
Si Si3 0.215873 0.507967 0.956615
Si Si4 0.931271 0.327543 0.933044
Si Si5 0.731974 0.834331 0.307018
Si Si6 0.925179 0.848488 0.462410
Si Si7 0.434631 0.686175 0.527102
Si Si8 0.879998 0.376324 0.671590
O O1 0.638597 0.783789 0.764047
O O2 0.735650 0.095638 0.785450
O O3 0.739322 0.685261 0.965069
O O4 0.933442 0.078316 0.666828
O O5 0.623589 0.237686 0.197999
O O6 0.495220 0.297710 0.367700
O O7 0.375041 0.861680 0.465310
O O8 0.103432 0.452469 0.894932
O O9 0.138706 0.524568 0.074694
O O10 0.949152 0.350259 0.787240
O O11 0.825400 0.049805 0.111501
O O12 0.822635 0.911107 0.380603
O O13 0.565884 0.776695 0.375582
O O14 0.708696 0.589261 0.362937
O O15 0.825425 0.555746 0.625987
O O16 0.000000 0.000000 0.500000
O O17 0.000000 0.500000 0.500000
#
# Coordination Sequence:
#
# PCOD8026360 Si02
#       8
#     2   2   2   2   2   2   2   2
#     4  11  23  41  61  95 135 171 219 270 333 396
#     4  11  23  42  64  95 137 175 220 270 336 400
#     4  11  24  42  68 100 127 177 223 277 333 394
#     4  11  24  44  71  97 133 171 229 281 327 398
#     4  11  22  44  68  99 134 174 232 273 328 395
#     4  11  22  40  69  96 134 178 219 274 330 396
#     4  10  24  41  68  97 131 181 223 274 330 395
#     4  10  25  42  64 102 136 172 217 275 340 396
#
# _framework density 23.005949000000001
#
# number of rings (size 3 to 8) (size 9 to 14) (size 15 to 20)
#    0.000    1.250    2.500    2.625    3.500    6.500 
#    0.000    0.625    0.000    0.000    0.000    0.000 
#    0.000    0.000    0.000    0.000    0.000    0.000 
#
# Total GULP energy -198298.667089 kJ/mol
# GULP energy per Si atom -12393.666693 kJ/mol
# Density = 2.295359 g / cm^3
# Si number density = 23.005949 Si / 1000 Ang^3
#
#
#
# Elastic Constant Matrix: (Units=GPa)
#
#
# Indices 1 2 3 4 5 6 
#
# 1 63.6095 6.3416 28.7453 -0.1067 10.1934 14.0792
# 2 6.3416 120.2810 46.2149 -1.3684 19.4924 2.4128
# 3 28.7453 46.2149 109.4944 2.9340 23.4188 3.3067
# 4 -0.1067 -1.3684 2.9340 44.5645 3.9410 11.4296
# 5 10.1934 19.4924 23.4188 3.9410 28.8840 -2.1732
# 6 14.0792 2.4128 3.3067 11.4296 -2.1732 29.7738
#
#
#
# Elastic Compliance Matrix: (Units=1/GPa)
#
#
# Indices 1 2 3 4 5 6 
#
# 1 0.021339 0.002060 -0.004853 0.004008 -0.006415 -0.011725
# 2 0.002060 0.010598 -0.003887 0.001659 -0.005135 -0.002413
# 3 -0.004853 -0.003887 0.013400 -0.000686 -0.006365 0.000920
# 4 0.004008 0.001659 -0.000686 0.026337 -0.006515 -0.012540
# 5 -0.006415 -0.005135 -0.006365 -0.006515 0.047161 0.010100
# 6 -0.011725 -0.002413 0.000920 -0.012540 0.010100 0.044776
#
#
# Mechanical properties :
#
#
# Convention : Reuss Voigt Hill
#
# Bulk Modulus (GPa) = 31.27288 50.66539 40.96913
# Shear Modulus (GPa) = 26.64834 34.78332 30.71583
#
# Velocity S-wave (km/s) = 3.40711 3.89257 3.65790
# Velocity P-wave (km/s) = 5.39451 6.50180 5.97386
#
# Compressibility (1/GPa) = 0.03197659
#
# Stress axis : x y z
#
# Youngs Moduli (GPa) = 46.86358 94.35401 74.62908
#
# Poissons Ratio (x) = -0.19436 0.36214
# Poissons Ratio (y) = -0.09653 0.29011
# Poissons Ratio (z) = 0.22741 0.36678
#
# Static dielectric constant tensor:
#      x y z
#    x 3.970650 -0.193790 0.251700 
#    y -0.193790 4.493260 -0.327050 
#    z 0.251700 -0.327050 3.789910 
# 
# 
# High freq. dielectric constant tensor:
#      x y z
#    x 1.890620 0.000010 0.016300 
#    y 0.000010 1.919670 -0.014640 
#    z 0.016300 -0.014640 1.907450 
# 
# From -- ./inp_files/403328.got.cif
#   From: 2010.06.25/outbox.cif.g09.slc.cpg/sg2_202_cif.got.tgz:403328.got - 2010.06.27 13:26:56.
