data_PCOD8026591
_publ_section_title
;
Structure prediction by ZEFSAII (Michael W. Deem and Ramdas Pophale) SiO2 
 PCOD8026591
Probable space group: P -1
;
_chemical_formula_sum "Si O2"
_cell_formula_units_Z 12
_cell_length_a 5.017888
_cell_length_b 8.057845
_cell_length_c 12.688571
_cell_angle_alpha 91.898182
_cell_angle_beta 99.630019
_cell_angle_gamma 90.319523
_cell_volume 505.502360
_symmetry_space_group_name_H-M "P -1"
_symmetry_group_IT_number 2
_symmetry_cell_setting 'triclinic'
loop_
_space_group_symop_operation_xyz
x,y,z
-x,-y,-z
loop_
_atom_site_type_symbol
_atom_site_label
_atom_site_fract_x
_atom_site_fract_y
_atom_site_fract_z
Si Si1 0.219351 0.523196 0.926656
Si Si2 0.838642 0.189316 0.224710
Si Si3 0.370073 0.987169 0.273089
Si Si4 0.970515 0.314095 0.729209
Si Si5 0.088055 0.398003 0.404658
Si Si6 0.238233 0.125633 0.548092
O O1 0.207791 0.709584 0.882987
O O2 0.177391 0.385291 0.830812
O O3 0.500000 0.500000 0.000000
O O4 0.000000 0.500000 0.000000
O O5 0.620379 0.039826 0.215279
O O6 0.145797 0.126047 0.248025
O O7 0.826352 0.308632 0.329736
O O8 0.243277 0.808617 0.229520
O O9 0.483094 0.968660 0.402143
O O10 0.796809 0.467703 0.670002
O O11 0.143173 0.218782 0.650629
O O12 0.293856 0.257561 0.459309
O O13 0.000000 0.500000 0.500000
O O14 0.000000 0.000000 0.500000
#
# Coordination Sequence:
#
# PCOD8026591 Si02
#       6
#     2   2   2   2   2   2
#     4  11  26  50  77  99 131 178 232 288 349 404
#     4  11  24  45  69  99 134 180 222 284 343 406
#     4  12  23  43  68  98 145 175 222 275 340 400
#     4  10  24  42  70 102 140 176 233 285 334 405
#     4   9  20  42  60 100 134 185 227 271 329 398
#     4  11  21  41  69 102 143 188 224 270 337 409
#
# _framework density 23.738765000000001
#
# number of rings (size 3 to 8) (size 9 to 14) (size 15 to 20)
#    0.000    1.333    3.333    1.000    2.333    3.333 
#    9.000    5.000    0.000    0.000    0.000    0.000 
#    0.000    0.000    0.000    0.000    0.000    0.000 
#
# Total GULP energy -148701.492252 kJ/mol
# GULP energy per Si atom -12391.791021 kJ/mol
# Density = 2.368473 g / cm^3
# Si number density = 23.738765 Si / 1000 Ang^3
#
#
#
# Elastic Constant Matrix: (Units=GPa)
#
#
# Indices 1 2 3 4 5 6 
#
# 1 112.5566 50.8169 58.6466 -20.0119 34.3534 4.7215
# 2 50.8169 165.2017 83.1780 -35.2709 24.2199 10.7542
# 3 58.6466 83.1780 153.4614 -24.8710 28.2140 -0.7986
# 4 -20.0119 -35.2709 -24.8710 55.6607 -7.0741 3.8114
# 5 34.3534 24.2199 28.2140 -7.0741 38.9636 -10.8360
# 6 4.7215 10.7542 -0.7986 3.8114 -10.8360 39.2574
#
#
#
# Elastic Compliance Matrix: (Units=1/GPa)
#
#
# Indices 1 2 3 4 5 6 
#
# 1 0.014847 -0.000532 -0.002847 0.002601 -0.011664 -0.005170
# 2 -0.000532 0.009765 -0.003858 0.004143 -0.003157 -0.003963
# 3 -0.002847 -0.003858 0.010206 0.000762 -0.002077 0.000960
# 4 0.002601 0.004143 0.000762 0.021823 -0.002649 -0.004282
# 5 -0.011664 -0.003157 -0.002077 -0.002649 0.042919 0.014329
# 6 -0.005170 -0.003963 0.000960 -0.004282 0.014329 0.031571
#
#
# Mechanical properties :
#
#
# Convention : Reuss Voigt Hill
#
# Bulk Modulus (GPa) = 49.15462 90.72252 69.93857
# Shear Modulus (GPa) = 32.81159 42.68156 37.74658
#
# Velocity S-wave (km/s) = 3.72182 4.24485 3.99191
# Velocity P-wave (km/s) = 6.26264 7.89462 7.12551
#
# Compressibility (1/GPa) = 0.02034397
#
# Stress axis : x y z
#
# Youngs Moduli (GPa) = 67.35392 102.41030 97.98517
#
# Poissons Ratio (x) = 0.05448 0.27892
# Poissons Ratio (y) = 0.03583 0.37803
# Poissons Ratio (z) = 0.19173 0.39511
#
# Static dielectric constant tensor:
#      x y z
#    x 2.460520 -0.718990 1.293100 
#    y -0.718990 4.901030 0.123850 
#    z 1.293100 0.123850 3.697020 
# 
# 
# High freq. dielectric constant tensor:
#      x y z
#    x 1.913130 -0.001270 0.018080 
#    y -0.001270 1.971440 -0.014280 
#    z 0.018080 -0.014280 1.934160 
# 
# From -- ./inp_files/137373.got.cif
#   From: 2010.06.25/outbox.cif.g09.slc.cpg/sg2_69_cif.got.tgz:137373.got - 2010.06.27 13:26:56.
