data_PCOD8026541
_publ_section_title
;
Structure prediction by ZEFSAII (Michael W. Deem and Ramdas Pophale) SiO2 
 PCOD8026541
Probable space group: P -1
;
_chemical_formula_sum "Si O2"
_cell_formula_units_Z 16
_cell_length_a 16.323164
_cell_length_b 9.309292
_cell_length_c 11.633256
_cell_angle_alpha 54.741659
_cell_angle_beta 148.003439
_cell_angle_gamma 127.319081
_cell_volume 736.511005
_symmetry_space_group_name_H-M "P -1"
_symmetry_group_IT_number 2
_symmetry_cell_setting 'triclinic'
loop_
_space_group_symop_operation_xyz
x,y,z
-x,-y,-z
loop_
_atom_site_type_symbol
_atom_site_label
_atom_site_fract_x
_atom_site_fract_y
_atom_site_fract_z
Si Si1 0.207622 0.450181 0.186915
Si Si2 0.306392 0.119238 0.014723
Si Si3 0.178058 0.000025 0.678647
Si Si4 0.840986 0.239052 0.860565
Si Si5 0.676244 0.313553 0.994531
Si Si6 0.341977 0.510164 0.873594
Si Si7 0.322220 0.812582 0.555536
Si Si8 0.659713 0.851653 0.423305
O O1 0.237815 0.623960 0.227069
O O2 0.240629 0.517104 0.065225
O O3 0.331605 0.335463 0.420159
O O4 0.030472 0.318486 0.045018
O O5 0.488250 0.149340 0.260379
O O6 0.191123 0.952641 0.023030
O O7 0.242464 0.300191 0.876427
O O8 0.299308 0.085881 0.885503
O O9 0.226899 0.117682 0.567631
O O10 0.191927 0.794763 0.768778
O O11 0.000000 0.000000 0.500000
O O12 0.768718 0.209741 0.662019
O O13 0.524738 0.172685 0.819284
O O14 0.613724 0.386743 0.001141
O O15 0.252919 0.626055 0.633112
O O16 0.500000 0.500000 0.000000
O O17 0.284705 0.980559 0.500573
#
# Coordination Sequence:
#
# PCOD8026541 Si02
#       8
#     2   2   2   2   2   2   2   2
#     4  11  27  44  69 101 138 191 233 289 349 420
#     4  11  23  44  69 101 136 186 232 284 350 416
#     4  12  25  44  73 102 143 186 230 288 356 417
#     4  11  25  46  66  97 148 181 235 286 356 414
#     4  12  24  48  72 104 141 183 245 287 339 428
#     4  10  24  42  68 105 137 174 228 293 349 401
#     4  11  23  42  70 103 135 182 232 291 346 412
#     4  12  24  43  74 102 140 182 237 292 345 413
#
# _framework density 21.724046999999999
#
# number of rings (size 3 to 8) (size 9 to 14) (size 15 to 20)
#    0.000    0.750    3.750    3.375    8.750    0.500 
#    2.250    1.250    0.000    0.000    0.000    0.000 
#    0.000    0.000    0.000    0.000    0.000    0.000 
#
# Total GULP energy -198457.181945 kJ/mol
# GULP energy per Si atom -12403.573872 kJ/mol
# Density = 2.167460 g / cm^3
# Si number density = 21.724047 Si / 1000 Ang^3
#
#
#
# Elastic Constant Matrix: (Units=GPa)
#
#
# Indices 1 2 3 4 5 6 
#
# 1 107.2454 56.4156 44.6854 -9.2840 -13.5798 -9.2393
# 2 56.4156 150.9103 52.0449 -23.3700 -13.2128 -4.8311
# 3 44.6854 52.0449 77.8873 -13.5754 -11.5438 -9.3380
# 4 -9.2840 -23.3700 -13.5754 40.7903 -3.5622 -5.5453
# 5 -13.5798 -13.2128 -11.5438 -3.5622 42.8647 2.0509
# 6 -9.2393 -4.8311 -9.3380 -5.5453 2.0509 43.8873
#
#
#
# Elastic Compliance Matrix: (Units=1/GPa)
#
#
# Indices 1 2 3 4 5 6 
#
# 1 0.013451 -0.003016 -0.005293 -0.000094 0.001837 0.001276
# 2 -0.003016 0.009821 -0.003988 0.003729 0.001307 0.000008
# 3 -0.005293 -0.003988 0.019959 0.003798 0.002639 0.003050
# 4 -0.000094 0.003729 0.003798 0.028904 0.004322 0.004649
# 5 0.001837 0.001307 0.002639 0.004322 0.025363 0.000453
# 6 0.001276 0.000008 0.003050 0.004649 0.000453 0.024270
#
#
# Mechanical properties :
#
#
# Convention : Reuss Voigt Hill
#
# Bulk Modulus (GPa) = 53.65342 71.37052 62.51197
# Shear Modulus (GPa) = 32.77109 37.70159 35.23634
#
# Velocity S-wave (km/s) = 3.88818 4.17043 4.03177
# Velocity P-wave (km/s) = 6.70138 7.49096 7.10715
#
# Compressibility (1/GPa) = 0.01863814
#
# Stress axis : x y z
#
# Youngs Moduli (GPa) = 74.34619 101.81943 50.10232
#
# Poissons Ratio (x) = 0.30707 0.26518
# Poissons Ratio (y) = 0.22422 0.19980
# Poissons Ratio (z) = 0.39350 0.40604
#
# Static dielectric constant tensor:
#      x y z
#    x 3.892370 -0.022570 -0.167340 
#    y -0.022570 4.369360 -0.269960 
#    z -0.167340 -0.269960 3.824900 
# 
# 
# High freq. dielectric constant tensor:
#      x y z
#    x 1.857750 -0.002520 -0.012350 
#    y -0.002520 1.866530 -0.017110 
#    z -0.012350 -0.017110 1.848420 
# 
# From -- ./inp_files/279687.got.cif
#   From: 2010.06.25/outbox.cif.g09.slc.cpg/sg2_140_cif.got.tgz:279687.got - 2010.06.27 13:26:56.
