data_PCOD8026264
_publ_section_title
;
Structure prediction by ZEFSAII (Michael W. Deem and Ramdas Pophale) SiO2 
 PCOD8026264
Probable space group: P -1
;
_chemical_formula_sum "Si O2"
_cell_formula_units_Z 12
_cell_length_a 8.486839
_cell_length_b 17.963018
_cell_length_c 11.888130
_cell_angle_alpha 158.025046
_cell_angle_beta 52.417536
_cell_angle_gamma 130.015629
_cell_volume 518.808983
_symmetry_space_group_name_H-M "P -1"
_symmetry_group_IT_number 2
_symmetry_cell_setting 'triclinic'
loop_
_space_group_symop_operation_xyz
x,y,z
-x,-y,-z
loop_
_atom_site_type_symbol
_atom_site_label
_atom_site_fract_x
_atom_site_fract_y
_atom_site_fract_z
Si Si1 0.805436 0.725029 0.285032
Si Si2 0.807698 0.345686 0.617095
Si Si3 0.255122 0.945011 0.400004
Si Si4 0.847414 0.546798 0.540059
Si Si5 0.530260 0.227880 0.351802
Si Si6 0.309743 0.077115 0.804881
O O1 0.685804 0.722704 0.452267
O O2 0.048985 0.762098 0.253122
O O3 0.765357 0.915873 0.501619
O O4 0.720124 0.510218 0.955411
O O5 0.671316 0.267774 0.457375
O O6 0.043756 0.457933 0.634860
O O7 0.801347 0.153216 0.429914
O O8 0.450425 0.852417 0.163207
O O9 0.299365 0.091998 0.695573
O O10 0.630834 0.376653 0.412563
O O11 0.000000 0.500000 0.500000
O O12 0.816211 0.773780 0.881286
O O13 0.500000 0.000000 0.000000
#
# Coordination Sequence:
#
# PCOD8026264 Si02
#       6
#     2   2   2   2   2   2
#     4  11  24  45  72 101 138 184 234 271 342 417
#     4  11  24  43  73 101 137 183 228 281 345 403
#     4  10  24  40  72  99 142 177 231 280 341 399
#     4  10  24  43  68  95 138 179 225 277 344 401
#     4  11  25  43  71 102 137 183 233 277 340 410
#     4  11  23  44  69 105 140 176 230 289 344 396
#
# _framework density 23.129899000000002
#
# number of rings (size 3 to 8) (size 9 to 14) (size 15 to 20)
#    0.000    1.333    1.667    3.000   14.000    0.667 
#    0.000    1.667    0.000    0.000    0.000    0.000 
#    0.000    0.000    0.000    0.000    0.000    0.000 
#
# Total GULP energy -148798.544167 kJ/mol
# GULP energy per Si atom -12399.878681 kJ/mol
# Density = 2.307725 g / cm^3
# Si number density = 23.129899 Si / 1000 Ang^3
#
#
#
# Elastic Constant Matrix: (Units=GPa)
#
#
# Indices 1 2 3 4 5 6 
#
# 1 78.0280 27.5039 25.6768 -3.0763 -5.6703 19.0422
# 2 27.5039 165.1733 45.6961 -5.8261 -5.1617 37.2670
# 3 25.6768 45.6961 155.3872 -13.1174 -0.4497 20.2247
# 4 -3.0763 -5.8261 -13.1174 39.1070 3.4458 -1.9768
# 5 -5.6703 -5.1617 -0.4497 3.4458 32.3863 -2.9045
# 6 19.0422 37.2670 20.2247 -1.9768 -2.9045 25.7496
#
#
#
# Elastic Compliance Matrix: (Units=1/GPa)
#
#
# Indices 1 2 3 4 5 6 
#
# 1 0.015954 0.000214 -0.001262 0.000152 0.001816 -0.010900
# 2 0.000214 0.009160 -0.001069 0.000362 0.000322 -0.012512
# 3 -0.001262 -0.001069 0.007583 0.002186 -0.000824 -0.003400
# 4 0.000152 0.000362 0.002186 0.026582 -0.002770 -0.000625
# 5 0.001816 0.000322 -0.000824 -0.002770 0.031727 0.002204
# 6 -0.010900 -0.012512 -0.003400 -0.000625 0.002204 0.067876
#
#
# Mechanical properties :
#
#
# Convention : Reuss Voigt Hill
#
# Bulk Modulus (GPa) = 35.13418 66.26023 50.69721
# Shear Modulus (GPa) = 28.96781 39.42936 34.19858
#
# Velocity S-wave (km/s) = 3.54276 4.13327 3.84936
# Velocity P-wave (km/s) = 5.65312 7.17550 6.45932
#
# Compressibility (1/GPa) = 0.02846231
#
# Stress axis : x y z
#
# Youngs Moduli (GPa) = 62.68057 109.16792 131.86919
#
# Poissons Ratio (x) = -0.02337 0.16647
# Poissons Ratio (y) = -0.01342 0.14100
# Poissons Ratio (z) = 0.07913 0.11672
#
# Static dielectric constant tensor:
#      x y z
#    x 4.103140 0.387510 -0.099420 
#    y 0.387510 5.055610 -0.140760 
#    z -0.099420 -0.140760 3.877640 
# 
# 
# High freq. dielectric constant tensor:
#      x y z
#    x 1.895150 0.014640 -0.008750 
#    y 0.014640 1.938400 -0.005440 
#    z -0.008750 -0.005440 1.906270 
# 
# From -- ./inp_files/148834.got.cif
#   From: 2010.06.25/outbox.cif.g09.slc.cpg/sg2_75_cif.got.tgz:148834.got - 2010.06.27 13:26:56.
