data_PCOD8026190
_publ_section_title
;
Structure prediction by ZEFSAII (Michael W. Deem and Ramdas Pophale) SiO2 
 PCOD8026190
Probable space group: P -1
;
_chemical_formula_sum "Si O2"
_cell_formula_units_Z 14
_cell_length_a 18.050684
_cell_length_b 6.762993
_cell_length_c 8.874908
_cell_angle_alpha 129.840454
_cell_angle_beta 61.237091
_cell_angle_gamma 121.933531
_cell_volume 688.943106
_symmetry_space_group_name_H-M "P -1"
_symmetry_group_IT_number 2
_symmetry_cell_setting 'triclinic'
loop_
_space_group_symop_operation_xyz
x,y,z
-x,-y,-z
loop_
_atom_site_type_symbol
_atom_site_label
_atom_site_fract_x
_atom_site_fract_y
_atom_site_fract_z
Si Si1 0.306836 0.813396 0.774239
Si Si2 0.119800 0.835621 0.559590
Si Si3 0.694269 0.184965 0.576223
Si Si4 0.007601 0.506366 0.245089
Si Si5 0.877715 0.587035 0.172261
Si Si6 0.597380 0.612566 0.888498
Si Si7 0.595558 0.610510 0.534384
O O1 0.320075 0.881038 0.618276
O O2 0.202229 0.695168 0.861624
O O3 0.351461 0.589183 0.667523
O O4 0.351022 0.085971 0.957239
O O5 0.200597 0.712583 0.435452
O O6 0.064354 0.737947 0.414832
O O7 0.055203 0.750101 0.725330
O O8 0.160888 0.162476 0.669419
O O9 0.655386 0.420124 0.781476
O O10 0.644355 0.915393 0.583903
O O11 0.949140 0.634192 0.259611
O O12 0.075758 0.410594 0.031965
O O13 0.585154 0.615427 0.724751
O O14 0.500000 0.500000 0.000000
O O15 0.500000 0.500000 0.500000
#
# Coordination Sequence:
#
# PCOD8026190 Si02
#       7
#     2   2   2   2   2   2   2
#     4  11  24  42  66  95 134 166 210 270 314 381
#     4  11  22  43  64  94 130 168 215 260 316 376
#     4  11  24  42  66  95 132 168 211 264 320 378
#     4  10  24  40  63  94 128 170 210 264 316 376
#     4  11  22  42  64  95 128 168 215 260 318 371
#     4  11  26  45  66  98 129 168 215 261 322 385
#     4  11  24  44  69  93 125 168 211 264 328 382
#
# _framework density 20.320981
#
# number of rings (size 3 to 8) (size 9 to 14) (size 15 to 20)
#    0.000    1.143    2.857    2.571    2.000    6.857 
#   10.286    0.000    0.000    0.000    0.000    0.000 
#    0.000    0.000    0.000    0.000    0.000    0.000 
#
# Total GULP energy -173668.731720 kJ/mol
# GULP energy per Si atom -12404.909409 kJ/mol
# Density = 2.027473 g / cm^3
# Si number density = 20.320981 Si / 1000 Ang^3
#
#
#
# Elastic Constant Matrix: (Units=GPa)
#
#
# Indices 1 2 3 4 5 6 
#
# 1 84.4023 53.8149 57.5257 -10.6443 -20.6147 11.9266
# 2 53.8149 125.6803 71.9034 8.0107 -2.0702 4.6634
# 3 57.5257 71.9034 127.1796 1.9956 -7.8220 2.6137
# 4 -10.6443 8.0107 1.9956 32.1186 -0.4484 0.5734
# 5 -20.6147 -2.0702 -7.8220 -0.4484 25.9111 0.8210
# 6 11.9266 4.6634 2.6137 0.5734 0.8210 36.5969
#
#
#
# Elastic Compliance Matrix: (Units=1/GPa)
#
#
# Indices 1 2 3 4 5 6 
#
# 1 0.031536 -0.009285 -0.007652 0.013723 0.022569 -0.009269
# 2 -0.009285 0.014770 -0.004560 -0.006617 -0.007753 0.001747
# 3 -0.007652 -0.004560 0.013745 -0.002325 -0.002412 0.002184
# 4 0.013723 -0.006617 -0.002325 0.037700 0.010475 -0.004289
# 5 0.022569 -0.007753 -0.002412 0.010475 0.055624 -0.007607
# 6 -0.009269 0.001747 0.002184 -0.004289 -0.007607 0.030205
#
#
# Mechanical properties :
#
#
# Convention : Reuss Voigt Hill
#
# Bulk Modulus (GPa) = 58.62120 78.19445 68.40782
# Shear Modulus (GPa) = 21.52770 29.19320 25.36045
#
# Velocity S-wave (km/s) = 3.25835 3.79437 3.53653
# Velocity P-wave (km/s) = 6.56247 7.59997 7.10019
#
# Compressibility (1/GPa) = 0.01705868
#
# Stress axis : x y z
#
# Youngs Moduli (GPa) = 31.71007 67.70341 72.75224
#
# Poissons Ratio (x) = 0.62860 0.55668
# Poissons Ratio (y) = 0.29441 0.33175
# Poissons Ratio (z) = 0.24264 0.30873
#
# Static dielectric constant tensor:
#      x y z
#    x 3.155900 -0.257820 -0.026730 
#    y -0.257820 3.653970 -0.106690 
#    z -0.026730 -0.106690 3.718420 
# 
# 
# High freq. dielectric constant tensor:
#      x y z
#    x 1.809170 -0.000270 -0.002850 
#    y -0.000270 1.807950 -0.007910 
#    z -0.002850 -0.007910 1.795140 
# 
# From -- ./inp_files/10244.got.cif
#   From: 2010.06.25/outbox.cif.g09.slc.cpg/sg2_6_cif.got.tgz:10244.got - 2010.06.27 13:26:56.
