data_PCOD8026532
_publ_section_title
;
Structure prediction by ZEFSAII (Michael W. Deem and Ramdas Pophale) SiO2 
 PCOD8026532
Probable space group: P -1
;
_chemical_formula_sum "Si O2"
_cell_formula_units_Z 12
_cell_length_a 14.105639
_cell_length_b 4.918360
_cell_length_c 8.793528
_cell_angle_alpha 98.088902
_cell_angle_beta 84.502014
_cell_angle_gamma 57.621986
_cell_volume 499.292478
_symmetry_space_group_name_H-M "P -1"
_symmetry_group_IT_number 2
_symmetry_cell_setting 'triclinic'
loop_
_space_group_symop_operation_xyz
x,y,z
-x,-y,-z
loop_
_atom_site_type_symbol
_atom_site_label
_atom_site_fract_x
_atom_site_fract_y
_atom_site_fract_z
Si Si1 0.039577 0.133628 0.133655
Si Si2 0.715865 0.277212 0.899612
Si Si3 0.423608 0.885707 0.572239
Si Si4 0.991218 0.285433 0.666825
Si Si5 0.393883 0.018555 0.944661
Si Si6 0.201374 0.094845 0.439083
O O1 0.167997 0.015723 0.064172
O O2 0.036617 0.964932 0.277341
O O3 0.975277 0.527174 0.200208
O O4 0.000000 0.000000 0.000000
O O5 0.722042 0.211488 0.712470
O O6 0.709799 0.610929 0.965227
O O7 0.616595 0.260090 0.994371
O O8 0.500000 0.500000 0.500000
O O9 0.500000 0.000000 0.500000
O O10 0.406562 0.959957 0.759352
O O11 0.295838 0.082613 0.533951
O O12 0.109673 0.049925 0.537962
O O13 0.878950 0.552572 0.607572
O O14 0.500000 0.000000 0.000000
#
# Coordination Sequence:
#
# PCOD8026532 Si02
#       6
#     2   2   2   2   2   2
#     4  11  24  40  67 100 144 171 232 273 345 405
#     4  11  24  42  66  98 130 182 212 282 335 398
#     4  12  27  45  70 101 134 180 229 289 339 408
#     4  10  24  42  68 101 132 195 218 286 335 409
#     4  12  25  44  69  96 134 174 229 275 343 399
#     4  10  24  45  71  98 144 176 240 272 347 409
#
# _framework density 24.034009000000001
#
# number of rings (size 3 to 8) (size 9 to 14) (size 15 to 20)
#    0.000    1.000    0.000    6.000    4.667   11.333 
#    0.000    0.000    0.000    0.000    0.000    0.000 
#    0.000    0.000    0.000    0.000    0.000    0.000 
#
# Total GULP energy -148696.388435 kJ/mol
# GULP energy per Si atom -12391.365703 kJ/mol
# Density = 2.397931 g / cm^3
# Si number density = 24.034009 Si / 1000 Ang^3
#
#
#
# Elastic Constant Matrix: (Units=GPa)
#
#
# Indices 1 2 3 4 5 6 
#
# 1 112.5036 26.4901 38.6534 0.7245 9.9603 -18.6816
# 2 26.4901 65.8052 23.1641 25.2092 -1.0710 10.1637
# 3 38.6534 23.1641 141.8475 34.6184 25.4178 -16.6895
# 4 0.7245 25.2092 34.6184 27.6491 5.5497 11.8330
# 5 9.9603 -1.0710 25.4178 5.5497 55.0267 -0.9808
# 6 -18.6816 10.1637 -16.6895 11.8330 -0.9808 45.0701
#
#
#
# Elastic Compliance Matrix: (Units=1/GPa)
#
#
# Indices 1 2 3 4 5 6 
#
# 1 0.013076 -0.009028 -0.004782 0.013278 -0.001634 0.002163
# 2 -0.009028 0.030403 0.005776 -0.035785 0.003185 0.001006
# 3 -0.004782 0.005776 0.016490 -0.029593 -0.003467 0.010516
# 4 0.013278 -0.035785 -0.029593 0.118028 -0.001841 -0.028413
# 5 -0.001634 0.003185 -0.003467 -0.001841 0.020287 -0.001755
# 6 0.002163 0.001006 0.010516 -0.028413 -0.001755 0.034173
#
#
# Mechanical properties :
#
#
# Convention : Reuss Voigt Hill
#
# Bulk Modulus (GPa) = 22.77814 55.19683 38.98748
# Shear Modulus (GPa) = 19.00002 41.00576 30.00289
#
# Velocity S-wave (km/s) = 2.81472 4.13504 3.53703
# Velocity P-wave (km/s) = 4.47901 6.76861 5.73915
#
# Compressibility (1/GPa) = 0.04390175
#
# Stress axis : x y z
#
# Youngs Moduli (GPa) = 76.47802 32.89192 60.64123
#
# Poissons Ratio (x) = 0.29694 0.28999
# Poissons Ratio (y) = 0.69042 -0.35029
# Poissons Ratio (z) = 0.36572 -0.19000
#
# Static dielectric constant tensor:
#      x y z
#    x 4.041470 -0.670030 -0.308010 
#    y -0.670030 3.266590 -0.461170 
#    z -0.308010 -0.461170 4.319250 
# 
# 
# High freq. dielectric constant tensor:
#      x y z
#    x 1.972530 0.007630 0.001000 
#    y 0.007630 1.946680 0.015660 
#    z 0.001000 0.015660 1.969650 
# 
# From -- ./inp_files/58987.got.cif
#   From: 2010.06.25/outbox.cif.g09.slc.cpg/sg2_30_cif.got.tgz:58987.got - 2010.06.27 13:26:56.
