data_PCOD8026005
_publ_section_title
;
Structure prediction by ZEFSAII (Michael W. Deem and Ramdas Pophale) SiO2 
 PCOD8026005
Probable space group: P -1
;
_chemical_formula_sum "Si O2"
_cell_formula_units_Z 16
_cell_length_a 9.080536
_cell_length_b 22.020594
_cell_length_c 5.123257
_cell_angle_alpha 130.300793
_cell_angle_beta 105.416037
_cell_angle_gamma 60.669649
_cell_volume 679.137070
_symmetry_space_group_name_H-M "P -1"
_symmetry_group_IT_number 2
_symmetry_cell_setting 'triclinic'
loop_
_space_group_symop_operation_xyz
x,y,z
-x,-y,-z
loop_
_atom_site_type_symbol
_atom_site_label
_atom_site_fract_x
_atom_site_fract_y
_atom_site_fract_z
Si Si1 0.532584 0.591151 0.612023
Si Si2 0.733220 0.404945 0.124025
Si Si3 0.881075 0.685009 0.863994
Si Si4 0.692325 0.975475 0.972312
Si Si5 0.144985 0.908097 0.717661
Si Si6 0.303243 0.330595 0.763226
Si Si7 0.373547 0.734129 0.548160
Si Si8 0.131009 0.128363 0.738923
O O1 0.633009 0.504876 0.236171
O O2 0.358762 0.590667 0.630062
O O3 0.485130 0.687113 0.723061
O O4 0.666966 0.585151 0.888361
O O5 0.927201 0.385401 0.196016
O O6 0.715917 0.330269 0.733918
O O7 0.808020 0.646311 0.489373
O O8 0.779520 0.702614 0.137243
O O9 0.874958 0.776533 0.022442
O O10 0.742870 0.938383 0.600221
O O11 0.807976 0.902422 0.026840
O O12 0.500000 0.000000 0.000000
O O13 0.716378 0.065351 0.275204
O O14 0.230850 0.835407 0.788215
O O15 0.059243 0.864892 0.357404
O O16 0.000000 0.000000 0.000000
O O17 0.496791 0.259558 0.589584
#
# Coordination Sequence:
#
# PCOD8026005 Si02
#       8
#     2   2   2   2   2   2   2   2
#     4  10  23  47  71 108 140 189 239 290 358 429
#     4  10  24  42  74 106 141 187 239 297 349 426
#     4  12  25  45  69 106 141 193 234 293 350 424
#     4  11  25  44  69 102 136 182 226 295 348 414
#     4  10  24  45  69 104 137 187 233 292 349 423
#     4  11  26  45  68 104 145 189 237 290 359 423
#     4  11  22  48  72 102 143 191 235 296 358 423
#     4  11  24  46  66  98 141 177 239 279 350 417
#
# _framework density 23.559305999999999
#
# number of rings (size 3 to 8) (size 9 to 14) (size 15 to 20)
#    0.000    1.250    2.500    1.875    5.250    3.000 
#    9.000    0.000    0.000    0.000    0.000    0.000 
#    0.000    0.000    0.000    0.000    0.000    0.000 
#
# Total GULP energy -198231.319410 kJ/mol
# GULP energy per Si atom -12389.457463 kJ/mol
# Density = 2.350568 g / cm^3
# Si number density = 23.559306 Si / 1000 Ang^3
#
#
#
# Elastic Constant Matrix: (Units=GPa)
#
#
# Indices 1 2 3 4 5 6 
#
# 1 126.2515 38.6392 39.9914 2.5267 28.0016 -5.8279
# 2 38.6392 95.0356 18.2137 2.3776 -7.2925 -4.0632
# 3 39.9914 18.2137 66.9772 -9.9810 0.3816 -9.0875
# 4 2.5267 2.3776 -9.9810 38.0039 -7.2733 -0.0581
# 5 28.0016 -7.2925 0.3816 -7.2733 27.3458 -6.9174
# 6 -5.8279 -4.0632 -9.0875 -0.0581 -6.9174 32.1640
#
#
#
# Elastic Compliance Matrix: (Units=1/GPa)
#
#
# Indices 1 2 3 4 5 6 
#
# 1 0.019642 -0.007798 -0.011637 -0.008857 -0.025984 -0.006318
# 2 -0.007798 0.014531 0.001525 0.002595 0.013480 0.003757
# 3 -0.011637 0.001525 0.024050 0.010235 0.016865 0.008525
# 4 -0.008857 0.002595 0.010235 0.033260 0.019975 0.005971
# 5 -0.025984 0.013480 0.016865 0.019975 0.076463 0.018241
# 6 -0.006318 0.003757 0.008525 0.005971 0.018241 0.036763
#
#
# Mechanical properties :
#
#
# Convention : Reuss Voigt Hill
#
# Bulk Modulus (GPa) = 44.63862 53.55032 49.09447
# Shear Modulus (GPa) = 20.16163 32.26405 26.21284
#
# Velocity S-wave (km/s) = 2.92855 3.70467 3.33923
# Velocity P-wave (km/s) = 5.51577 6.40927 5.97923
#
# Compressibility (1/GPa) = 0.02240213
#
# Stress axis : x y z
#
# Youngs Moduli (GPa) = 50.91114 68.81907 41.58045
#
# Poissons Ratio (x) = 0.53667 0.48385
# Poissons Ratio (y) = 0.39702 -0.06339
# Poissons Ratio (z) = 0.59243 -0.10492
#
# Static dielectric constant tensor:
#      x y z
#    x 4.641040 0.134580 0.418200 
#    y 0.134580 4.365780 0.133890 
#    z 0.418200 0.133890 4.372410 
# 
# 
# High freq. dielectric constant tensor:
#      x y z
#    x 1.947570 -0.000050 0.018820 
#    y -0.000050 1.925450 0.002060 
#    z 0.018820 0.002060 1.924900 
# 
# From -- ./inp_files/53985.got.cif
#   From: 2010.06.25/outbox.cif.g09.slc.cpg/sg2_27_cif.got.tgz:53985.got - 2010.06.27 13:26:56.
