data_PCOD8026629
_publ_section_title
;
Structure prediction by ZEFSAII (Michael W. Deem and Ramdas Pophale) SiO2 
 PCOD8026629
Probable space group: P -1
;
_chemical_formula_sum "Si O2"
_cell_formula_units_Z 16
_cell_length_a 15.426857
_cell_length_b 8.743915
_cell_length_c 10.897487
_cell_angle_alpha 62.540540
_cell_angle_beta 74.769462
_cell_angle_gamma 125.937237
_cell_volume 707.594994
_symmetry_space_group_name_H-M "P -1"
_symmetry_group_IT_number 2
_symmetry_cell_setting 'triclinic'
loop_
_space_group_symop_operation_xyz
x,y,z
-x,-y,-z
loop_
_atom_site_type_symbol
_atom_site_label
_atom_site_fract_x
_atom_site_fract_y
_atom_site_fract_z
Si Si1 0.689612 0.607545 0.925430
Si Si2 0.684825 0.325519 0.831269
Si Si3 0.917671 0.739796 0.926881
Si Si4 0.156458 0.602950 0.691252
Si Si5 0.516085 0.671581 0.334727
Si Si6 0.148081 0.658892 0.086828
Si Si7 0.387834 0.266783 0.301633
Si Si8 0.226053 0.426825 0.548650
O O1 0.679734 0.414789 0.928103
O O2 0.833224 0.788009 0.899839
O O3 0.714052 0.800515 0.745045
O O4 0.531640 0.389394 0.142813
O O5 0.779274 0.571792 0.597744
O O6 0.786852 0.312703 0.818690
O O7 0.500000 0.000000 0.000000
O O8 0.829162 0.510847 0.160397
O O9 0.933121 0.619331 0.861260
O O10 0.096575 0.081652 0.770235
O O11 0.199699 0.572740 0.561705
O O12 0.275481 0.954384 0.531541
O O13 0.976622 0.386726 0.827714
O O14 0.500000 0.500000 0.500000
O O15 0.460842 0.524319 0.272682
O O16 0.404038 0.647777 0.433894
O O17 0.697426 0.016932 0.154855
#
# Coordination Sequence:
#
# PCOD8026629 Si02
#       8
#     2   2   2   2   2   2   2   2
#     4  10  24  42  71  98 133 183 226 280 338 402
#     4  11  21  44  68 100 134 178 230 280 337 405
#     4  11  26  46  70  96 142 180 229 275 346 403
#     4  12  27  44  69 106 138 175 230 284 340 407
#     4  12  25  44  72 100 139 184 225 277 344 404
#     4  11  25  43  72  98 137 179 229 279 337 405
#     4  11  24  45  71 100 141 175 233 277 342 402
#     4  12  26  44  71 100 141 177 226 283 342 403
#
# _framework density 22.611806000000001
#
# number of rings (size 3 to 8) (size 9 to 14) (size 15 to 20)
#    0.000    0.750    2.500    3.750    7.000    3.000 
#    0.000    0.000    0.000    0.000    0.000    0.000 
#    0.000    0.000    0.000    0.000    0.000    0.000 
#
# Total GULP energy -198328.313985 kJ/mol
# GULP energy per Si atom -12395.519624 kJ/mol
# Density = 2.256034 g / cm^3
# Si number density = 22.611806 Si / 1000 Ang^3
#
#
#
# Elastic Constant Matrix: (Units=GPa)
#
#
# Indices 1 2 3 4 5 6 
#
# 1 138.7069 20.6232 34.7243 17.9418 -15.6553 -5.8315
# 2 20.6232 61.4939 15.2423 -2.6907 -17.1194 -10.5604
# 3 34.7243 15.2423 103.0896 -3.9599 -0.4129 -7.6948
# 4 17.9418 -2.6907 -3.9599 36.5454 -2.5958 5.7750
# 5 -15.6553 -17.1194 -0.4129 -2.5958 48.5509 7.0649
# 6 -5.8315 -10.5604 -7.6948 5.7750 7.0649 28.3131
#
#
#
# Elastic Compliance Matrix: (Units=1/GPa)
#
#
# Indices 1 2 3 4 5 6 
#
# 1 0.009101 -0.001874 -0.002901 -0.004936 0.001849 0.000932
# 2 -0.001874 0.019851 -0.001860 0.001851 0.005796 0.004689
# 3 -0.002901 -0.001860 0.011155 0.002109 -0.001634 0.001718
# 4 -0.004936 0.001851 0.002109 0.031310 0.001708 -0.006566
# 5 0.001849 0.005796 -0.001634 0.001708 0.023929 -0.004220
# 6 0.000932 0.004689 0.001718 -0.006566 -0.004220 0.040120
#
#
# Mechanical properties :
#
#
# Convention : Reuss Voigt Hill
#
# Bulk Modulus (GPa) = 37.26095 49.38556 43.32326
# Shear Modulus (GPa) = 31.70970 38.19526 34.95248
#
# Velocity S-wave (km/s) = 3.74886 4.11441 3.93588
# Velocity P-wave (km/s) = 5.93742 6.66778 6.31317
#
# Compressibility (1/GPa) = 0.02683775
#
# Stress axis : x y z
#
# Youngs Moduli (GPa) = 109.88072 50.37528 89.64511
#
# Poissons Ratio (x) = 0.09441 0.26006
# Poissons Ratio (y) = 0.20592 0.16670
# Poissons Ratio (z) = 0.31876 0.09367
#
# Static dielectric constant tensor:
#      x y z
#    x 4.125390 0.706710 0.040720 
#    y 0.706710 3.761040 -0.063970 
#    z 0.040720 -0.063970 4.114440 
# 
# 
# High freq. dielectric constant tensor:
#      x y z
#    x 1.913650 -0.001900 0.001330 
#    y -0.001900 1.876840 0.003220 
#    z 0.001330 0.003220 1.895900 
# 
# From -- ./inp_files/189788.got.cif
#   From: 2010.06.25/outbox.cif.g09.slc.cpg/sg2_95_cif.got.tgz:189788.got - 2010.06.27 13:26:56.
