data_PCOD8026627
_publ_section_title
;
Structure prediction by ZEFSAII (Michael W. Deem and Ramdas Pophale) SiO2 
 PCOD8026627
Probable space group: P -1
;
_chemical_formula_sum "Si O2"
_cell_formula_units_Z 14
_cell_length_a 9.141204
_cell_length_b 6.380488
_cell_length_c 11.036568
_cell_angle_alpha 97.925769
_cell_angle_beta 91.649367
_cell_angle_gamma 103.496003
_cell_volume 618.713793
_symmetry_space_group_name_H-M "P -1"
_symmetry_group_IT_number 2
_symmetry_cell_setting 'triclinic'
loop_
_space_group_symop_operation_xyz
x,y,z
-x,-y,-z
loop_
_atom_site_type_symbol
_atom_site_label
_atom_site_fract_x
_atom_site_fract_y
_atom_site_fract_z
Si Si1 0.103243 0.969360 0.826398
Si Si2 0.091839 0.736443 0.057004
Si Si3 0.472253 0.606109 0.690407
Si Si4 0.683740 0.788420 0.495628
Si Si5 0.318188 0.642414 0.238163
Si Si6 0.075385 0.384412 0.388994
Si Si7 0.382204 0.007348 0.702249
O O1 0.037922 0.760945 0.721433
O O2 0.266517 0.100566 0.791299
O O3 0.131154 0.888385 0.953937
O O4 0.996640 0.140246 0.841499
O O5 0.243357 0.696076 0.117331
O O6 0.000000 0.500000 0.000000
O O7 0.553567 0.737523 0.586626
O O8 0.356922 0.386266 0.629453
O O9 0.594822 0.555763 0.785719
O O10 0.378475 0.774562 0.748443
O O11 0.843483 0.784883 0.556472
O O12 0.685885 0.012313 0.439858
O O13 0.194616 0.575967 0.336534
O O14 0.445119 0.856332 0.290636
O O15 0.000000 0.500000 0.500000
#
# Coordination Sequence:
#
# PCOD8026627 Si02
#       7
#     2   2   2   2   2   2   2
#     4  11  27  44  71 105 130 178 237 275 337 406
#     4  11  25  50  74  91 135 183 231 286 333 394
#     4   9  19  38  59  94 140 174 220 260 333 406
#     4   9  20  35  57  95 137 183 207 262 333 404
#     4  10  24  42  71  97 132 185 221 277 343 393
#     4  11  23  42  68 105 145 174 223 275 336 417
#     4  11  23  40  66 100 136 171 222 282 336 400
#
# _framework density 22.627585
#
# number of rings (size 3 to 8) (size 9 to 14) (size 15 to 20)
#    0.000    1.714    1.429    2.143    6.000    4.571 
#    0.000    1.429    0.000    0.000    0.000    0.000 
#    0.000    0.000    0.000    0.000    0.000    0.000 
#
# Total GULP energy -173451.651079 kJ/mol
# GULP energy per Si atom -12389.403648 kJ/mol
# Density = 2.257608 g / cm^3
# Si number density = 22.627585 Si / 1000 Ang^3
#
#
#
# Elastic Constant Matrix: (Units=GPa)
#
#
# Indices 1 2 3 4 5 6 
#
# 1 97.9325 31.4787 51.9007 -5.9812 13.5928 -2.9281
# 2 31.4787 83.5872 32.9456 -4.0129 8.7354 -15.7367
# 3 51.9007 32.9456 98.8790 -7.6601 20.5154 -15.2704
# 4 -5.9812 -4.0129 -7.6601 39.9532 -14.2434 9.2941
# 5 13.5928 8.7354 20.5154 -14.2434 38.5222 -13.6178
# 6 -2.9281 -15.7367 -15.2704 9.2941 -13.6178 39.6106
#
#
#
# Elastic Compliance Matrix: (Units=1/GPa)
#
#
# Indices 1 2 3 4 5 6 
#
# 1 0.015211 -0.003460 -0.006955 0.000790 -0.001922 -0.003777
# 2 -0.003460 0.015171 -0.002656 -0.000389 0.000867 0.005137
# 3 -0.006955 -0.002656 0.016045 -0.000608 -0.004589 0.003181
# 4 0.000790 -0.000389 -0.000608 0.029322 0.009591 -0.003913
# 5 -0.001922 0.000867 -0.004589 0.009591 0.035382 0.008347
# 6 -0.003777 0.005137 0.003181 -0.003913 0.008347 0.032022
#
#
# Mechanical properties :
#
#
# Convention : Reuss Voigt Hill
#
# Bulk Modulus (GPa) = 49.29237 57.00543 53.14890
# Shear Modulus (GPa) = 28.40040 34.55544 31.47792
#
# Velocity S-wave (km/s) = 3.54661 3.91210 3.73383
# Velocity P-wave (km/s) = 6.21311 6.75675 6.49062
#
# Compressibility (1/GPa) = 0.02028711
#
# Stress axis : x y z
#
# Youngs Moduli (GPa) = 65.74194 65.91530 62.32473
#
# Poissons Ratio (x) = 0.22804 0.43345
# Poissons Ratio (y) = 0.22744 0.16551
# Poissons Ratio (z) = 0.45722 0.17505
#
# Static dielectric constant tensor:
#      x y z
#    x 4.352500 -0.357780 0.432300 
#    y -0.357780 4.269650 -0.443990 
#    z 0.432300 -0.443990 4.534400 
# 
# 
# High freq. dielectric constant tensor:
#      x y z
#    x 1.900980 -0.013180 0.011210 
#    y -0.013180 1.895180 -0.024800 
#    z 0.011210 -0.024800 1.870830 
# 
# From -- ./inp_files/340366.got.cif
#   From: 2010.06.25/outbox.cif.g09.slc.cpg/sg2_171_cif.got.tgz:340366.got - 2010.06.27 13:26:56.
