data_PCOD8026740
_publ_section_title
;
Structure prediction by ZEFSAII (Michael W. Deem and Ramdas Pophale) SiO2 
 PCOD8026740
Probable space group: P -1
;
_chemical_formula_sum "Si O2"
_cell_formula_units_Z 14
_cell_length_a 24.502216
_cell_length_b 8.825456
_cell_length_c 4.873368
_cell_angle_alpha 91.408039
_cell_angle_beta 85.311547
_cell_angle_gamma 149.776722
_cell_volume 526.461508
_symmetry_space_group_name_H-M "P -1"
_symmetry_group_IT_number 2
_symmetry_cell_setting 'triclinic'
loop_
_space_group_symop_operation_xyz
x,y,z
-x,-y,-z
loop_
_atom_site_type_symbol
_atom_site_label
_atom_site_fract_x
_atom_site_fract_y
_atom_site_fract_z
Si Si1 0.711096 0.163871 0.026241
Si Si2 0.285959 0.312304 0.547050
Si Si3 0.572513 0.123315 0.729386
Si Si4 0.480103 0.278975 0.537781
Si Si5 0.821952 0.754648 0.971723
Si Si6 0.804476 0.217951 0.511196
Si Si7 0.030010 0.903142 0.565701
O O1 0.762171 0.450252 0.956723
O O2 0.779001 0.233598 0.230994
O O3 0.586570 0.897455 0.159295
O O4 0.713679 0.064208 0.752219
O O5 0.307346 0.503734 0.321810
O O6 0.401395 0.507656 0.501207
O O7 0.259797 0.318508 0.857737
O O8 0.198293 0.972517 0.497269
O O9 0.500000 0.000000 0.500000
O O10 0.588871 0.979104 0.684193
O O11 0.500000 0.000000 0.000000
O O12 0.500000 0.500000 0.500000
O O13 0.926810 0.991681 0.138096
O O14 0.873451 0.931394 0.664124
O O15 0.924722 0.545345 0.580925
O O16 0.000000 0.000000 0.500000
#
# Coordination Sequence:
#
# PCOD8026740 Si02
#       7
#     2   2   2   2   2   2   2
#     4  12  24  45  72 108 137 191 236 289 350 421
#     4  11  27  47  68 109 150 186 230 295 356 420
#     4  10  24  43  66  96 137 181 224 281 342 403
#     4  11  24  47  74 105 143 190 240 285 344 429
#     4  12  25  46  76 104 144 185 235 295 361 414
#     4  12  27  44  74 105 143 181 242 295 351 419
#     4  12  24  46  77 107 135 185 243 297 350 421
#
# _framework density 26.592637
#
# number of rings (size 3 to 8) (size 9 to 14) (size 15 to 20)
#    0.000    0.571    5.714    1.286    2.000    7.429 
#    0.000    0.000    0.000    0.000    0.000    0.000 
#    0.000    0.000    0.000    0.000    0.000    0.000 
#
# Total GULP energy -173563.027104 kJ/mol
# GULP energy per Si atom -12397.359079 kJ/mol
# Density = 2.653211 g / cm^3
# Si number density = 26.592637 Si / 1000 Ang^3
#
#
#
# Elastic Constant Matrix: (Units=GPa)
#
#
# Indices 1 2 3 4 5 6 
#
# 1 89.0104 43.7940 17.7739 1.1459 -19.4066 -33.7503
# 2 43.7940 182.6114 35.7501 1.3549 -24.7963 -44.1486
# 3 17.7739 35.7501 168.3453 -4.7179 -29.5807 -32.7900
# 4 1.1459 1.3549 -4.7179 43.3518 4.4095 -15.8263
# 5 -19.4066 -24.7963 -29.5807 4.4095 37.9588 -2.2403
# 6 -33.7503 -44.1486 -32.7900 -15.8263 -2.2403 59.0337
#
#
#
# Elastic Compliance Matrix: (Units=1/GPa)
#
#
# Indices 1 2 3 4 5 6 
#
# 1 0.018361 -0.000136 0.002896 0.003511 0.011938 0.013399
# 2 -0.000136 0.007798 0.000771 0.001761 0.005826 0.006875
# 3 0.002896 0.000771 0.008717 0.002934 0.008921 0.008199
# 4 0.003511 0.001761 0.002934 0.027494 0.002772 0.012430
# 5 0.011938 0.005826 0.008921 0.002772 0.043978 0.018549
# 6 0.013399 0.006875 0.008199 0.012430 0.018549 0.038332
#
#
# Mechanical properties :
#
#
# Convention : Reuss Voigt Hill
#
# Bulk Modulus (GPa) = 23.84448 70.51148 47.17798
# Shear Modulus (GPa) = 32.98157 50.91215 41.94686
#
# Velocity S-wave (km/s) = 3.52554 4.38027 3.97594
# Velocity P-wave (km/s) = 5.05555 7.22187 6.23354
#
# Compressibility (1/GPa) = 0.04193843
#
# Stress axis : x y z
#
# Youngs Moduli (GPa) = 54.46215 128.23576 114.71196
#
# Poissons Ratio (x) = 0.01745 -0.33223
# Poissons Ratio (y) = 0.00741 -0.08840
# Poissons Ratio (z) = -0.15773 -0.09882
#
# Static dielectric constant tensor:
#      x y z
#    x 4.938800 0.140330 -0.009410 
#    y 0.140330 6.169030 -0.031300 
#    z -0.009410 -0.031300 5.357260 
# 
# 
# High freq. dielectric constant tensor:
#      x y z
#    x 2.093090 0.008210 -0.005240 
#    y 0.008210 2.092720 0.002990 
#    z -0.005240 0.002990 2.083010 
# 
# From -- ./inp_files/126485.got.cif
#   From: 2010.06.25/outbox.cif.g09.slc.cpg/sg2_64_cif.got.tgz:126485.got - 2010.06.27 13:26:56.
