data_PCOD8026947
_publ_section_title
;
Structure prediction by ZEFSAII (Michael W. Deem and Ramdas Pophale) SiO2 
 PCOD8026947
Probable space group: P -1
;
_chemical_formula_sum "Si O2"
_cell_formula_units_Z 14
_cell_length_a 13.643785
_cell_length_b 7.954898
_cell_length_c 9.037262
_cell_angle_alpha 115.166866
_cell_angle_beta 91.394542
_cell_angle_gamma 45.035201
_cell_volume 566.700927
_symmetry_space_group_name_H-M "P -1"
_symmetry_group_IT_number 2
_symmetry_cell_setting 'triclinic'
loop_
_space_group_symop_operation_xyz
x,y,z
-x,-y,-z
loop_
_atom_site_type_symbol
_atom_site_label
_atom_site_fract_x
_atom_site_fract_y
_atom_site_fract_z
Si Si1 0.446439 0.501092 0.189287
Si Si2 0.000780 0.784472 0.144571
Si Si3 0.561932 0.785732 0.687942
Si Si4 0.757058 0.852636 0.625292
Si Si5 0.681260 0.573223 0.058044
Si Si6 0.315891 0.606397 0.710619
Si Si7 0.999662 0.454962 0.238876
O O1 0.377662 0.429379 0.255804
O O2 0.617628 0.297216 0.181212
O O3 0.351338 0.828022 0.320969
O O4 0.435335 0.426141 0.996067
O O5 0.002462 0.652579 0.238332
O O6 0.156800 0.678620 0.117485
O O7 0.001214 0.689763 0.947880
O O8 0.846037 0.130535 0.280377
O O9 0.669286 0.804151 0.668301
O O10 0.557487 0.659869 0.497182
O O11 0.393855 0.112731 0.846978
O O12 0.852792 0.645411 0.409667
O O13 0.854966 0.791212 0.742066
O O14 0.710976 0.506202 0.206901
#
# Coordination Sequence:
#
# PCOD8026947 Si02
#       7
#     2   2   2   2   2   2   2
#     4  12  27  45  75 106 146 185 240 294 357 421
#     4  11  25  43  73 102 148 184 240 288 360 418
#     4  12  27  45  75 106 146 185 240 294 357 421
#     4  11  24  48  72 105 144 188 240 291 356 420
#     4  12  26  46  72 107 147 187 238 293 357 424
#     4  12  26  46  72 107 147 187 238 293 357 424
#     4  10  24  43  72 105 143 190 238 292 351 428
#
# _framework density 24.704387000000001
#
# number of rings (size 3 to 8) (size 9 to 14) (size 15 to 20)
#    0.000    0.571    1.429    5.571    8.000    2.286 
#    0.000    5.000    0.000    0.000    0.000    0.000 
#    0.000    0.000    0.000    0.000    0.000    0.000 
#
# Total GULP energy -173598.533380 kJ/mol
# GULP energy per Si atom -12399.895241 kJ/mol
# Density = 2.464816 g / cm^3
# Si number density = 24.704387 Si / 1000 Ang^3
#
#
#
# Elastic Constant Matrix: (Units=GPa)
#
#
# Indices 1 2 3 4 5 6 
#
# 1 76.1257 36.1975 16.0273 17.1035 -2.0502 -12.1619
# 2 36.1975 104.7707 27.2733 16.1170 -8.1709 -3.3563
# 3 16.0273 27.2733 71.7220 9.5802 0.7535 -8.2591
# 4 17.1035 16.1170 9.5802 31.5183 4.8240 -2.2895
# 5 -2.0502 -8.1709 0.7535 4.8240 28.6342 0.5345
# 6 -12.1619 -3.3563 -8.2591 -2.2895 0.5345 38.9703
#
#
#
# Elastic Compliance Matrix: (Units=1/GPa)
#
#
# Indices 1 2 3 4 5 6 
#
# 1 0.017824 -0.004672 -0.000772 -0.006875 0.001036 0.004579
# 2 -0.004672 0.012939 -0.003581 -0.003721 0.004105 -0.001378
# 3 -0.000772 -0.003581 0.016109 -0.002268 -0.001170 0.002747
# 4 -0.006875 -0.003721 -0.002268 0.039251 -0.008097 -0.000529
# 5 0.001036 0.004105 -0.001170 -0.008097 0.037574 -0.000562
# 6 0.004579 -0.001378 0.002747 -0.000529 -0.000562 0.027530
#
#
# Mechanical properties :
#
#
# Convention : Reuss Voigt Hill
#
# Bulk Modulus (GPa) = 34.69564 45.73495 40.21530
# Shear Modulus (GPa) = 27.95101 31.36591 29.65846
#
# Velocity S-wave (km/s) = 3.36731 3.56708 3.46863
# Velocity P-wave (km/s) = 5.40307 5.95974 5.68822
#
# Compressibility (1/GPa) = 0.02882206
#
# Stress axis : x y z
#
# Youngs Moduli (GPa) = 56.10350 77.28292 62.07901
#
# Poissons Ratio (x) = 0.36108 0.04791
# Poissons Ratio (y) = 0.26213 0.22231
# Poissons Ratio (z) = 0.04330 0.27675
#
# Static dielectric constant tensor:
#      x y z
#    x 4.403000 -0.007330 -0.148760 
#    y -0.007330 4.598890 -0.097920 
#    z -0.148760 -0.097920 4.449530 
# 
# 
# High freq. dielectric constant tensor:
#      x y z
#    x 1.985540 0.004700 -0.008000 
#    y 0.004700 1.993740 -0.012400 
#    z -0.008000 -0.012400 1.984820 
# 
# From -- ./inp_files/174710.got.cif
#   From: 2010.06.25/outbox.cif.g09.slc.cpg/sg2_88_cif.got.tgz:174710.got - 2010.06.27 13:26:56.
