data_PCOD8026574
_publ_section_title
;
Structure prediction by ZEFSAII (Michael W. Deem and Ramdas Pophale) SiO2 
 PCOD8026574
Probable space group: P -1
;
_chemical_formula_sum "Si O2"
_cell_formula_units_Z 16
_cell_length_a 11.487951
_cell_length_b 8.753814
_cell_length_c 18.023538
_cell_angle_alpha 146.712546
_cell_angle_beta 47.159519
_cell_angle_gamma 121.906682
_cell_volume 725.832888
_symmetry_space_group_name_H-M "P -1"
_symmetry_group_IT_number 2
_symmetry_cell_setting 'triclinic'
loop_
_space_group_symop_operation_xyz
x,y,z
-x,-y,-z
loop_
_atom_site_type_symbol
_atom_site_label
_atom_site_fract_x
_atom_site_fract_y
_atom_site_fract_z
Si Si1 0.759255 0.048434 0.181735
Si Si2 0.761685 0.802628 0.689817
Si Si3 0.218866 0.212537 0.151282
Si Si4 0.070615 0.727835 0.932717
Si Si5 0.620665 0.256988 0.477677
Si Si6 0.516018 0.799998 0.082471
Si Si7 0.066634 0.823116 0.469675
Si Si8 0.272880 0.174286 0.621276
O O1 0.605096 0.973631 0.174358
O O2 0.865291 0.244670 0.167755
O O3 0.700539 0.225745 0.350281
O O4 0.876830 0.765189 0.033851
O O5 0.768885 0.850488 0.793272
O O6 0.681038 0.519705 0.598686
O O7 0.937772 0.791421 0.576449
O O8 0.660462 0.055470 0.795113
O O9 0.126901 0.511329 0.291211
O O10 0.394356 0.209362 0.038971
O O11 0.127876 0.967101 0.057130
O O12 0.136382 0.417347 0.803782
O O13 0.428503 0.301879 0.572027
O O14 0.676227 0.981828 0.388452
O O15 0.500000 0.500000 0.000000
O O16 0.210838 0.971110 0.503679
O O17 0.000000 0.000000 0.500000
#
# Coordination Sequence:
#
# PCOD8026574 Si02
#       8
#     2   2   2   2   2   2   2   2
#     4  10  24  42  69  95 138 177 228 276 349 408
#     4  12  26  46  74  99 139 191 230 282 355 415
#     4  11  24  48  71  99 142 183 233 279 350 423
#     4  10  24  44  69 100 134 181 225 286 341 412
#     4  11  25  46  71 101 139 183 227 288 341 421
#     4  11  26  42  67 105 137 181 232 286 343 407
#     4  12  28  45  72 104 142 181 234 294 343 413
#     4  11  27  45  68 106 139 176 237 283 349 401
#
# _framework density 22.043641999999998
#
# number of rings (size 3 to 8) (size 9 to 14) (size 15 to 20)
#    0.000    1.000    1.250    3.750   14.000    2.500 
#    0.000    0.000    0.000    0.000    0.000    0.000 
#    0.000    0.000    0.000    0.000    0.000    0.000 
#
# Total GULP energy -198489.595295 kJ/mol
# GULP energy per Si atom -12405.599706 kJ/mol
# Density = 2.199347 g / cm^3
# Si number density = 22.043642 Si / 1000 Ang^3
#
#
#
# Elastic Constant Matrix: (Units=GPa)
#
#
# Indices 1 2 3 4 5 6 
#
# 1 91.9303 20.7436 27.2151 -5.8739 2.2051 -5.9896
# 2 20.7436 63.7798 13.2057 -1.3202 17.3669 3.0040
# 3 27.2151 13.2057 104.9853 6.7415 3.9860 -10.6716
# 4 -5.8739 -1.3202 6.7415 41.2433 -12.6863 -7.8536
# 5 2.2051 17.3669 3.9860 -12.6863 41.3637 -1.7334
# 6 -5.9896 3.0040 -10.6716 -7.8536 -1.7334 29.3561
#
#
#
# Elastic Compliance Matrix: (Units=1/GPa)
#
#
# Indices 1 2 3 4 5 6 
#
# 1 0.013111 -0.004491 -0.002841 0.003638 0.002712 0.003235
# 2 -0.004491 0.020126 -0.001282 -0.003625 -0.009407 -0.004967
# 3 -0.002841 -0.001282 0.010877 -0.001916 -0.000823 0.002944
# 4 0.003638 -0.003625 -0.001916 0.030126 0.011135 0.009134
# 5 0.002712 -0.009407 -0.000823 0.011135 0.031730 0.006069
# 6 0.003235 -0.004967 0.002944 0.009134 0.006069 0.039105
#
#
# Mechanical properties :
#
#
# Convention : Reuss Voigt Hill
#
# Bulk Modulus (GPa) = 37.19847 42.55825 39.87836
# Shear Modulus (GPa) = 29.19466 35.69469 32.44468
#
# Velocity S-wave (km/s) = 3.64318 4.02839 3.84062
# Velocity P-wave (km/s) = 5.88291 6.40199 6.14793
#
# Compressibility (1/GPa) = 0.02688283
#
# Stress axis : x y z
#
# Youngs Moduli (GPa) = 76.27417 49.68814 91.94099
#
# Poissons Ratio (x) = 0.22316 0.26124
# Poissons Ratio (y) = 0.34257 0.11789
# Poissons Ratio (z) = 0.21673 0.06371
#
# Static dielectric constant tensor:
#      x y z
#    x 4.127910 0.027970 -0.244460 
#    y 0.027970 3.951930 -0.094260 
#    z -0.244460 -0.094260 4.077350 
# 
# 
# High freq. dielectric constant tensor:
#      x y z
#    x 1.882140 -0.001710 -0.006350 
#    y -0.001710 1.865780 -0.001960 
#    z -0.006350 -0.001960 1.878210 
# 
# From -- ./inp_files/401716.got.cif
#   From: 2010.06.25/outbox.cif.g09.slc.cpg/sg2_201_cif.got.tgz:401716.got - 2010.06.27 13:26:56.
