data_PCOD8026529
_publ_section_title
;
Structure prediction by ZEFSAII (Michael W. Deem and Ramdas Pophale) SiO2 
 PCOD8026529
Probable space group: P -1
;
_chemical_formula_sum "Si O2"
_cell_formula_units_Z 14
_cell_length_a 13.420118
_cell_length_b 4.993453
_cell_length_c 10.846838
_cell_angle_alpha 98.428123
_cell_angle_beta 116.601988
_cell_angle_gamma 76.220579
_cell_volume 630.556123
_symmetry_space_group_name_H-M "P -1"
_symmetry_group_IT_number 2
_symmetry_cell_setting 'triclinic'
loop_
_space_group_symop_operation_xyz
x,y,z
-x,-y,-z
loop_
_atom_site_type_symbol
_atom_site_label
_atom_site_fract_x
_atom_site_fract_y
_atom_site_fract_z
Si Si1 0.753123 0.363060 0.375422
Si Si2 0.366523 0.537446 0.937171
Si Si3 0.921753 0.905629 0.315215
Si Si4 0.073923 0.328975 0.389474
Si Si5 0.247434 0.112901 0.985345
Si Si6 0.365737 0.578075 0.436569
Si Si7 0.243986 0.112582 0.269005
O O1 0.680335 0.492644 0.227430
O O2 0.828849 0.588441 0.466218
O O3 0.672884 0.314631 0.440909
O O4 0.823090 0.057093 0.361802
O O5 0.313584 0.340342 0.985124
O O6 0.335176 0.833286 0.999695
O O7 0.500000 0.500000 0.000000
O O8 0.870672 0.904258 0.149689
O O9 0.967155 0.585155 0.350264
O O10 0.026758 0.066610 0.397292
O O11 0.123676 0.235220 0.276473
O O12 0.215765 0.154085 0.113002
O O13 0.500000 0.500000 0.500000
O O14 0.335330 0.286362 0.372104
O O15 0.300605 0.799254 0.316773
#
# Coordination Sequence:
#
# PCOD8026529 Si02
#       7
#     2   2   2   2   2   2   2
#     4  10  24  42  68 100 134 170 232 276 328 404
#     4  11  25  44  67  98 130 179 223 276 335 386
#     4  11  23  41  67  99 134 177 219 276 336 384
#     4  11  23  41  67  99 134 177 219 276 336 384
#     4  11  25  44  66  97 138 173 227 272 321 408
#     4  11  25  44  67  98 130 179 223 276 335 386
#     4  11  25  44  66  97 138 173 227 272 321 408
#
# _framework density 22.20262
#
# number of rings (size 3 to 8) (size 9 to 14) (size 15 to 20)
#    0.000    1.143    0.000    6.000    4.000   10.286 
#    0.000    0.000    0.000    0.000    0.000    0.000 
#    0.000    0.000    0.000    0.000    0.000    0.000 
#
# Total GULP energy -173578.974935 kJ/mol
# GULP energy per Si atom -12398.498210 kJ/mol
# Density = 2.215209 g / cm^3
# Si number density = 22.202620 Si / 1000 Ang^3
#
#
#
# Elastic Constant Matrix: (Units=GPa)
#
#
# Indices 1 2 3 4 5 6 
#
# 1 134.2039 47.7927 61.4638 0.3301 -8.9616 -9.3832
# 2 47.7927 118.1188 34.5834 -5.0803 -9.3680 4.4195
# 3 61.4638 34.5834 145.7807 -2.4228 -25.8902 -21.6185
# 4 0.3301 -5.0803 -2.4228 34.9336 -1.5469 -5.7011
# 5 -8.9616 -9.3680 -25.8902 -1.5469 35.4692 -8.4260
# 6 -9.3832 4.4195 -21.6185 -5.7011 -8.4260 28.9824
#
#
#
# Elastic Compliance Matrix: (Units=1/GPa)
#
#
# Indices 1 2 3 4 5 6 
#
# 1 0.010244 -0.003214 -0.003579 -0.000716 -0.000717 0.000788
# 2 -0.003214 0.010426 -0.001694 0.000805 -0.000158 -0.003781
# 3 -0.003579 -0.001694 0.012571 0.003141 0.010873 0.012255
# 4 -0.000716 0.000805 0.003141 0.030832 0.005996 0.009797
# 5 -0.000717 -0.000158 0.010873 0.005996 0.041169 0.021051
# 6 0.000788 -0.003781 0.012255 0.009797 0.021051 0.052524
#
#
# Mechanical properties :
#
#
# Convention : Reuss Voigt Hill
#
# Bulk Modulus (GPa) = 61.47247 76.19811 68.83529
# Shear Modulus (GPa) = 27.75281 36.82792 32.29037
#
# Velocity S-wave (km/s) = 3.53934 4.07716 3.81773
# Velocity P-wave (km/s) = 6.66706 7.52052 7.10661
#
# Compressibility (1/GPa) = 0.01626744
#
# Stress axis : x y z
#
# Youngs Moduli (GPa) = 97.61731 95.91412 79.54865
#
# Poissons Ratio (x) = 0.30828 0.28471
# Poissons Ratio (y) = 0.31376 0.13472
# Poissons Ratio (z) = 0.34938 0.16244
#
# Static dielectric constant tensor:
#      x y z
#    x 4.082700 -0.014470 -0.102730 
#    y -0.014470 4.221630 0.157600 
#    z -0.102730 0.157600 4.147860 
# 
# 
# High freq. dielectric constant tensor:
#      x y z
#    x 1.880270 0.001310 -0.005470 
#    y 0.001310 1.891880 0.002030 
#    z -0.005470 0.002030 1.883100 
# 
# From -- ./inp_files/287932.got.cif
#   From: 2010.06.25/outbox.cif.g09.slc.cpg/sg2_144_cif.got.tgz:287932.got - 2010.06.27 13:26:56.
