data_PCOD8026456
_publ_section_title
;
Structure prediction by ZEFSAII (Michael W. Deem and Ramdas Pophale) SiO2 
 PCOD8026456
Probable space group: P -1
;
_chemical_formula_sum "Si O2"
_cell_formula_units_Z 16
_cell_length_a 8.590727
_cell_length_b 13.557887
_cell_length_c 8.718491
_cell_angle_alpha 70.218484
_cell_angle_beta 88.360970
_cell_angle_gamma 127.223962
_cell_volume 723.040701
_symmetry_space_group_name_H-M "P -1"
_symmetry_group_IT_number 2
_symmetry_cell_setting 'triclinic'
loop_
_space_group_symop_operation_xyz
x,y,z
-x,-y,-z
loop_
_atom_site_type_symbol
_atom_site_label
_atom_site_fract_x
_atom_site_fract_y
_atom_site_fract_z
Si Si1 0.089661 0.775576 0.957160
Si Si2 0.878948 0.303804 0.503063
Si Si3 0.820203 0.675801 0.726994
Si Si4 0.100234 0.459496 0.722914
Si Si5 0.560719 0.555038 0.295429
Si Si6 0.446340 0.037302 0.635654
Si Si7 0.174143 0.119631 0.536642
Si Si8 0.080855 0.142251 0.853930
O O1 0.898182 0.716263 0.878415
O O2 0.312358 0.899022 0.815882
O O3 0.071290 0.646723 0.085472
O O4 0.063304 0.831470 0.084439
O O5 0.848979 0.395478 0.352083
O O6 0.660710 0.163645 0.643631
O O7 0.977285 0.261703 0.409996
O O8 0.028818 0.393543 0.590921
O O9 0.634813 0.513749 0.777664
O O10 0.720187 0.741717 0.637936
O O11 0.299769 0.479285 0.750840
O O12 0.500000 0.500000 0.500000
O O13 0.680590 0.719381 0.195995
O O14 0.328430 0.094811 0.587244
O O15 0.500000 0.000000 0.500000
O O16 0.060241 0.122256 0.683298
O O17 0.000000 0.000000 0.500000
O O18 0.000000 0.000000 0.000000
#
# Coordination Sequence:
#
# PCOD8026456 Si02
#       8
#     2   2   2   2   2   2   2   2
#     4  11  24  44  67 100 142 172 227 295 336 398
#     4  11  23  43  69  93 134 182 230 271 342 418
#     4  12  22  42  71  98 132 181 230 279 337 405
#     4  10  24  42  65  96 133 176 225 290 341 397
#     4  11  21  39  70  96 128 180 226 277 329 409
#     4  12  24  42  69 100 134 183 223 273 342 413
#     4  12  22  41  72  99 133 179 226 276 340 407
#     4  11  22  39  64 100 134 164 218 287 333 387
#
# _framework density 22.128771
#
# number of rings (size 3 to 8) (size 9 to 14) (size 15 to 20)
#    0.000    0.750    6.250    1.500    0.000    3.000 
#    0.000    1.250    0.000    0.000    0.000    0.000 
#    0.000    0.000    0.000    0.000    0.000    0.000 
#
# Total GULP energy -198263.389921 kJ/mol
# GULP energy per Si atom -12391.461870 kJ/mol
# Density = 2.207840 g / cm^3
# Si number density = 22.128771 Si / 1000 Ang^3
#
#
#
# Elastic Constant Matrix: (Units=GPa)
#
#
# Indices 1 2 3 4 5 6 
#
# 1 66.6306 24.0741 25.8033 -2.3427 -8.4450 5.8922
# 2 24.0741 120.2354 40.6712 -17.4700 -9.7823 13.4264
# 3 25.8033 40.6712 112.6025 -23.9695 -5.6089 -7.9323
# 4 -2.3427 -17.4700 -23.9695 55.3834 -5.8163 -3.5427
# 5 -8.4450 -9.7823 -5.6089 -5.8163 35.1273 -4.8424
# 6 5.8922 13.4264 -7.9323 -3.5427 -4.8424 32.9485
#
#
#
# Elastic Compliance Matrix: (Units=1/GPa)
#
#
# Indices 1 2 3 4 5 6 
#
# 1 0.017694 -0.001938 -0.003752 -0.001425 0.002456 -0.003070
# 2 -0.001938 0.010690 -0.003262 0.001777 0.001684 -0.004356
# 3 -0.003752 -0.003262 0.012421 0.004740 0.001751 0.005757
# 4 -0.001425 0.001777 0.004740 0.021365 0.004956 0.003698
# 5 0.002456 0.001684 0.001751 0.004956 0.031237 0.004420
# 6 -0.003070 -0.004356 0.005757 0.003698 0.004420 0.035108
#
#
# Mechanical properties :
#
#
# Convention : Reuss Voigt Hill
#
# Bulk Modulus (GPa) = 43.66664 53.39617 48.53141
# Shear Modulus (GPa) = 32.45675 38.61986 35.53830
#
# Velocity S-wave (km/s) = 3.83393 4.18213 4.01181
# Velocity P-wave (km/s) = 6.27491 6.89220 6.59079
#
# Compressibility (1/GPa) = 0.02290078
#
# Stress axis : x y z
#
# Youngs Moduli (GPa) = 56.51649 93.54510 80.51153
#
# Poissons Ratio (x) = 0.18130 0.30207
# Poissons Ratio (y) = 0.10953 0.26262
# Poissons Ratio (z) = 0.21205 0.30513
#
# Static dielectric constant tensor:
#      x y z
#    x 3.608030 -0.237470 -0.020970 
#    y -0.237470 4.342160 -0.328400 
#    z -0.020970 -0.328400 4.302360 
# 
# 
# High freq. dielectric constant tensor:
#      x y z
#    x 1.845960 -0.004350 -0.003850 
#    y -0.004350 1.888910 -0.011360 
#    z -0.003850 -0.011360 1.873480 
# 
# From -- ./inp_files/200865.got.cif
#   From: 2010.06.25/outbox.cif.g09.slc.cpg/sg2_101_cif.got.tgz:200865.got - 2010.06.27 13:26:56.
