data_PCOD8026464
_publ_section_title
;
Structure prediction by ZEFSAII (Michael W. Deem and Ramdas Pophale) SiO2 
 PCOD8026464
Probable space group: P -1
;
_chemical_formula_sum "Si O2"
_cell_formula_units_Z 16
_cell_length_a 11.838021
_cell_length_b 9.002642
_cell_length_c 21.007297
_cell_angle_alpha 139.961455
_cell_angle_beta 29.709042
_cell_angle_gamma 126.671024
_cell_volume 697.471612
_symmetry_space_group_name_H-M "P -1"
_symmetry_group_IT_number 2
_symmetry_cell_setting 'triclinic'
loop_
_space_group_symop_operation_xyz
x,y,z
-x,-y,-z
loop_
_atom_site_type_symbol
_atom_site_label
_atom_site_fract_x
_atom_site_fract_y
_atom_site_fract_z
Si Si1 0.485132 0.821806 0.697545
Si Si2 0.641939 0.917186 0.269346
Si Si3 0.776261 0.246687 0.542123
Si Si4 0.888530 0.869860 0.257323
Si Si5 0.897835 0.546901 0.477340
Si Si6 0.271313 0.093781 0.101844
Si Si7 0.970922 0.359921 0.100739
Si Si8 0.634280 0.714131 0.017634
O O1 0.715838 0.625498 0.535498
O O2 0.247458 0.754988 0.815015
O O3 0.481277 0.844749 0.630005
O O4 0.508665 0.076542 0.799030
O O5 0.467158 0.736116 0.296614
O O6 0.689518 0.980463 0.339586
O O7 0.874201 0.808019 0.081353
O O8 0.752151 0.478891 0.586141
O O9 0.981725 0.238913 0.490803
O O10 0.842952 0.008865 0.390871
O O11 0.878160 0.604275 0.190635
O O12 0.131855 0.883383 0.108306
O O13 0.104089 0.327826 0.287763
O O14 0.330958 0.151318 0.020052
O O15 0.500000 0.000000 0.000000
O O16 0.119094 0.391075 0.102160
O O17 0.500000 0.500000 0.000000
#
# Coordination Sequence:
#
# PCOD8026464 Si02
#       8
#     2   2   2   2   2   2   2   2
#     4  11  25  45  69  99 146 186 224 287 347 413
#     4  11  23  42  68  99 135 179 234 280 339 409
#     4  10  24  42  65  98 137 174 231 283 343 407
#     4  11  23  42  68 101 133 180 233 285 342 406
#     4  10  25  44  67  98 140 181 225 281 360 402
#     4  11  25  43  70 101 135 176 230 287 342 415
#     4  11  24  44  70 104 137 188 229 286 348 400
#     4  11  25  42  69 102 143 179 236 286 343 407
#
# _framework density 22.940003000000001
#
# number of rings (size 3 to 8) (size 9 to 14) (size 15 to 20)
#    0.000    1.250    0.000    5.250   12.250    2.500 
#    0.000    3.750    0.000    0.000    0.000    0.000 
#    0.000    0.000    0.000    0.000    0.000    0.000 
#
# Total GULP energy -198338.566263 kJ/mol
# GULP energy per Si atom -12396.160391 kJ/mol
# Density = 2.288779 g / cm^3
# Si number density = 22.940003 Si / 1000 Ang^3
#
#
#
# Elastic Constant Matrix: (Units=GPa)
#
#
# Indices 1 2 3 4 5 6 
#
# 1 147.1283 42.5796 48.1584 -1.5906 -27.7283 -15.1670
# 2 42.5796 111.6097 27.2710 -9.8217 -11.5393 6.0098
# 3 48.1584 27.2710 70.0688 -3.2078 -23.2790 -5.3144
# 4 -1.5906 -9.8217 -3.2078 32.5432 -0.5919 -1.8898
# 5 -27.7283 -11.5393 -23.2790 -0.5919 37.4149 -2.1037
# 6 -15.1670 6.0098 -5.3144 -1.8898 -2.1037 42.8137
#
#
#
# Elastic Compliance Matrix: (Units=1/GPa)
#
#
# Indices 1 2 3 4 5 6 
#
# 1 0.010116 -0.002609 -0.004280 -0.000428 0.004226 0.003607
# 2 -0.002609 0.010958 -0.002653 0.002757 -0.000312 -0.002685
# 3 -0.004280 -0.002653 0.021669 0.001422 0.009632 0.002082
# 4 -0.000428 0.002757 0.001422 0.031782 0.001984 0.001138
# 5 0.004226 -0.000312 0.009632 0.001984 0.036045 0.004595
# 6 0.003607 -0.002685 0.002082 0.001138 0.004595 0.025546
#
#
# Mechanical properties :
#
#
# Convention : Reuss Voigt Hill
#
# Bulk Modulus (GPa) = 42.26481 62.75830 52.51155
# Shear Modulus (GPa) = 30.65864 36.60755 33.63310
#
# Velocity S-wave (km/s) = 3.65974 3.99907 3.83317
# Velocity P-wave (km/s) = 6.02680 6.98143 6.52161
#
# Compressibility (1/GPa) = 0.02366035
#
# Stress axis : x y z
#
# Youngs Moduli (GPa) = 98.85062 91.25556 46.14986
#
# Poissons Ratio (x) = 0.23806 0.19750
# Poissons Ratio (y) = 0.25788 0.12244
# Poissons Ratio (z) = 0.42304 0.24210
#
# Static dielectric constant tensor:
#      x y z
#    x 4.519200 -0.076730 -0.046810 
#    y -0.076730 4.450090 -0.242070 
#    z -0.046810 -0.242070 3.849020 
# 
# 
# High freq. dielectric constant tensor:
#      x y z
#    x 1.923500 -0.001860 -0.004590 
#    y -0.001860 1.919380 -0.014000 
#    z -0.004590 -0.014000 1.884770 
# 
# From -- ./inp_files/594236.got.cif
#   From: 2010.06.25/outbox.cif.g09.slc.cpg/sg2_298_cif.got.tgz:594236.got - 2010.06.27 13:26:56.
