data_PCOD8026654
_publ_section_title
;
Structure prediction by ZEFSAII (Michael W. Deem and Ramdas Pophale) SiO2 
 PCOD8026654
Probable space group: P -1
;
_chemical_formula_sum "Si O2"
_cell_formula_units_Z 16
_cell_length_a 12.340123
_cell_length_b 5.070203
_cell_length_c 12.083309
_cell_angle_alpha 107.974255
_cell_angle_beta 102.585300
_cell_angle_gamma 72.043236
_cell_volume 677.765497
_symmetry_space_group_name_H-M "P -1"
_symmetry_group_IT_number 2
_symmetry_cell_setting 'triclinic'
loop_
_space_group_symop_operation_xyz
x,y,z
-x,-y,-z
loop_
_atom_site_type_symbol
_atom_site_label
_atom_site_fract_x
_atom_site_fract_y
_atom_site_fract_z
Si Si1 0.697003 0.780847 0.182486
Si Si2 0.100412 0.263577 0.048236
Si Si3 0.350321 0.148240 0.059174
Si Si4 0.914521 0.259427 0.164342
Si Si5 0.900229 0.365100 0.420384
Si Si6 0.766334 0.985567 0.436395
Si Si7 0.472482 0.629767 0.173883
Si Si8 0.559785 0.249489 0.562114
O O1 0.823652 0.566647 0.163273
O O2 0.605945 0.604230 0.176396
O O3 0.700201 0.022739 0.307453
O O4 0.659106 0.954789 0.082800
O O5 0.223670 0.337023 0.097374
O O6 0.045936 0.236646 0.152722
O O7 0.000000 0.500000 0.000000
O O8 0.130276 0.972513 0.945158
O O9 0.441105 0.339282 0.094689
O O10 0.392898 0.888900 0.119555
O O11 0.927361 0.193243 0.288923
O O12 0.872525 0.134682 0.470579
O O13 0.000000 0.500000 0.500000
O O14 0.794278 0.644836 0.419515
O O15 0.691948 0.143359 0.541605
O O16 0.444258 0.662089 0.300883
O O17 0.500000 0.500000 0.500000
O O18 0.500000 0.000000 0.500000
#
# Coordination Sequence:
#
# PCOD8026654 Si02
#       8
#     2   2   2   2   2   2   2   2
#     4  11  23  47  71 104 144 185 238 285 356 436
#     4  11  23  45  69  99 136 189 239 282 344 433
#     4  12  26  45  68 107 144 181 229 291 366 409
#     4  10  24  42  73  98 137 187 240 287 346 426
#     4  11  25  45  68 108 139 179 234 301 355 404
#     4  11  25  44  76  98 137 191 240 283 350 422
#     4  12  28  44  71 107 145 182 227 297 356 418
#     4  12  25  48  72 100 138 187 241 283 340 424
#
# _framework density 23.606984000000001
#
# number of rings (size 3 to 8) (size 9 to 14) (size 15 to 20)
#    0.000    0.750    2.500    4.125    5.250    4.000 
#    0.000    0.000    0.000    0.000    0.000    0.000 
#    0.000    0.000    0.000    0.000    0.000    0.000 
#
# Total GULP energy -198361.988205 kJ/mol
# GULP energy per Si atom -12397.624263 kJ/mol
# Density = 2.355325 g / cm^3
# Si number density = 23.606984 Si / 1000 Ang^3
#
#
#
# Elastic Constant Matrix: (Units=GPa)
#
#
# Indices 1 2 3 4 5 6 
#
# 1 124.1972 -13.9458 23.7494 4.5523 -19.8692 4.1446
# 2 -13.9458 64.1159 14.6170 -7.5501 -14.4908 6.3812
# 3 23.7494 14.6170 92.9832 -15.4441 -20.3490 -14.0413
# 4 4.5523 -7.5501 -15.4441 28.8145 -1.2161 -4.1392
# 5 -19.8692 -14.4908 -20.3490 -1.2161 37.5830 1.5342
# 6 4.1446 6.3812 -14.0413 -4.1392 1.5342 36.3521
#
#
#
# Elastic Compliance Matrix: (Units=1/GPa)
#
#
# Indices 1 2 3 4 5 6 
#
# 1 0.010175 0.004199 -0.003005 -0.002400 0.005439 -0.003561
# 2 0.004199 0.019918 -0.002562 0.002834 0.008809 -0.005014
# 3 -0.003005 -0.002562 0.016083 0.009812 0.006128 0.007863
# 4 -0.002400 0.002834 0.009812 0.042516 0.006180 0.008146
# 5 0.005439 0.008809 0.006128 0.006180 0.036423 -0.000633
# 6 -0.003561 -0.005014 0.007863 0.008146 -0.000633 0.032786
#
#
# Mechanical properties :
#
#
# Convention : Reuss Voigt Hill
#
# Bulk Modulus (GPa) = 23.02049 36.68194 29.85121
# Shear Modulus (GPa) = 28.55221 37.67495 33.11358
#
# Velocity S-wave (km/s) = 3.48153 3.99924 3.74933
# Velocity P-wave (km/s) = 5.09256 6.07433 5.60498
#
# Compressibility (1/GPa) = 0.04343956
#
# Stress axis : x y z
#
# Youngs Moduli (GPa) = 98.28245 50.20622 62.17691
#
# Poissons Ratio (x) = -0.21083 0.18683
# Poissons Ratio (y) = -0.41271 0.15932
# Poissons Ratio (z) = 0.29533 0.12865
#
# Static dielectric constant tensor:
#      x y z
#    x 4.943380 0.056680 -0.308090 
#    y 0.056680 4.359880 -0.131710 
#    z -0.308090 -0.131710 4.515700 
# 
# 
# High freq. dielectric constant tensor:
#      x y z
#    x 1.954010 0.005190 -0.013740 
#    y 0.005190 1.931040 -0.003160 
#    z -0.013740 -0.003160 1.933680 
# 
# From -- ./inp_files/411098.got.cif
#   From: 2010.06.25/outbox.cif.g09.slc.cpg/sg2_206_cif.got.tgz:411098.got - 2010.06.27 13:26:56.
