data_PCOD8026202
_publ_section_title
;
Structure prediction by ZEFSAII (Michael W. Deem and Ramdas Pophale) SiO2 
 PCOD8026202
Probable space group: P -1
;
_chemical_formula_sum "Si O2"
_cell_formula_units_Z 16
_cell_length_a 9.281570
_cell_length_b 15.369373
_cell_length_c 12.443285
_cell_angle_alpha 149.759483
_cell_angle_beta 61.193816
_cell_angle_gamma 104.643097
_cell_volume 727.617495
_symmetry_space_group_name_H-M "P -1"
_symmetry_group_IT_number 2
_symmetry_cell_setting 'triclinic'
loop_
_space_group_symop_operation_xyz
x,y,z
-x,-y,-z
loop_
_atom_site_type_symbol
_atom_site_label
_atom_site_fract_x
_atom_site_fract_y
_atom_site_fract_z
Si Si1 0.882070 0.863095 0.961499
Si Si2 0.394094 0.892540 0.226936
Si Si3 0.214913 0.308004 0.794247
Si Si4 0.262661 0.367379 0.083249
Si Si5 0.607871 0.852844 0.889889
Si Si6 0.252860 0.736816 0.594052
Si Si7 0.413361 0.431438 0.552235
Si Si8 0.823536 0.347978 0.955067
O O1 0.855746 0.709673 0.882648
O O2 0.788018 0.077258 0.267348
O O3 0.782891 0.875736 0.896225
O O4 0.091806 0.797236 0.801902
O O5 0.535232 0.770315 0.131653
O O6 0.226729 0.831277 0.244890
O O7 0.356684 0.106604 0.496762
O O8 0.478725 0.840866 0.021585
O O9 0.197629 0.366706 0.985997
O O10 0.030983 0.294435 0.808849
O O11 0.268915 0.464323 0.882001
O O12 0.247758 0.571144 0.343681
O O13 0.683804 0.678567 0.597495
O O14 0.500000 0.000000 0.000000
O O15 0.437321 0.682118 0.534503
O O16 0.500000 0.500000 0.500000
O O17 0.252196 0.597337 0.840041
#
# Coordination Sequence:
#
# PCOD8026202 Si02
#       8
#     2   2   2   2   2   2   2   2
#     4  10  24  40  64  98 136 169 216 271 327 398
#     4  11  23  45  66  97 130 172 227 266 319 397
#     4  11  27  44  67  95 133 177 220 275 316 388
#     4  11  24  42  67  93 129 180 213 271 326 383
#     4  11  21  38  66  97 130 169 208 272 329 388
#     4  11  23  43  62 100 137 166 218 270 326 400
#     4  12  22  40  70  96 128 171 215 267 339 387
#     4  11  25  46  65  97 132 169 224 275 324 388
#
# _framework density 21.989577000000001
#
# number of rings (size 3 to 8) (size 9 to 14) (size 15 to 20)
#    0.000    1.000    3.750    2.625    5.250    1.500 
#    0.000    0.000    0.000    0.000    0.000    0.000 
#    0.000    0.000    0.000    0.000    0.000    0.000 
#
# Total GULP energy -198220.870681 kJ/mol
# GULP energy per Si atom -12388.804418 kJ/mol
# Density = 2.193953 g / cm^3
# Si number density = 21.989577 Si / 1000 Ang^3
#
#
#
# Elastic Constant Matrix: (Units=GPa)
#
#
# Indices 1 2 3 4 5 6 
#
# 1 61.1787 20.1570 15.4117 3.1196 8.2587 7.4817
# 2 20.1570 54.9383 4.3872 5.2718 14.3095 -0.3999
# 3 15.4117 4.3872 116.0125 14.3133 15.7217 -6.9173
# 4 3.1196 5.2718 14.3133 30.7325 5.8004 -0.4130
# 5 8.2587 14.3095 15.7217 5.8004 36.3650 -1.4738
# 6 7.4817 -0.3999 -6.9173 -0.4130 -1.4738 26.9955
#
#
#
# Elastic Compliance Matrix: (Units=1/GPa)
#
#
# Indices 1 2 3 4 5 6 
#
# 1 0.020258 -0.007055 -0.002742 0.000530 -0.000986 -0.006467
# 2 -0.007055 0.022897 0.001537 -0.002465 -0.007589 0.002236
# 3 -0.002742 0.001537 0.010086 -0.003965 -0.003584 0.003111
# 4 0.000530 -0.002465 -0.003965 0.035329 -0.003105 -0.000828
# 5 -0.000986 -0.007589 -0.003584 -0.003105 0.032794 0.000985
# 6 -0.006467 0.002236 0.003111 -0.000828 0.000985 0.039707
#
#
# Mechanical properties :
#
#
# Convention : Reuss Voigt Hill
#
# Bulk Modulus (GPa) = 27.23127 34.67125 30.95126
# Shear Modulus (GPa) = 26.33929 31.63017 28.98473
#
# Velocity S-wave (km/s) = 3.46469 3.79676 3.63452
# Velocity P-wave (km/s) = 5.33067 5.91793 5.63196
#
# Compressibility (1/GPa) = 0.03672249
#
# Stress axis : x y z
#
# Youngs Moduli (GPa) = 49.36433 43.67330 99.14518
#
# Poissons Ratio (x) = 0.30810 0.27183
# Poissons Ratio (y) = 0.34825 -0.15240
# Poissons Ratio (z) = 0.13534 -0.06713
#
# Static dielectric constant tensor:
#      x y z
#    x 3.985030 0.042040 0.005710 
#    y 0.042040 4.000430 0.296690 
#    z 0.005710 0.296690 4.006670 
# 
# 
# High freq. dielectric constant tensor:
#      x y z
#    x 1.865590 0.011400 0.003480 
#    y 0.011400 1.861310 0.017720 
#    z 0.003480 0.017720 1.873500 
# 
# From -- ./inp_files/356596.got.cif
#   From: 2010.06.25/outbox.cif.g09.slc.cpg/sg2_179_cif.got.tgz:356596.got - 2010.06.27 13:26:56.
