data_PCOD8026256
_publ_section_title
;
Structure prediction by ZEFSAII (Michael W. Deem and Ramdas Pophale) SiO2 
 PCOD8026256
Probable space group: P -1
;
_chemical_formula_sum "Si O2"
_cell_formula_units_Z 16
_cell_length_a 11.529723
_cell_length_b 21.802149
_cell_length_c 5.215407
_cell_angle_alpha 68.509055
_cell_angle_beta 105.628750
_cell_angle_gamma 143.953534
_cell_volume 716.957050
_symmetry_space_group_name_H-M "P -1"
_symmetry_group_IT_number 2
_symmetry_cell_setting 'triclinic'
loop_
_space_group_symop_operation_xyz
x,y,z
-x,-y,-z
loop_
_atom_site_type_symbol
_atom_site_label
_atom_site_fract_x
_atom_site_fract_y
_atom_site_fract_z
Si Si1 0.578336 0.480949 0.381933
Si Si2 0.195294 0.356228 0.136033
Si Si3 0.093808 0.072704 0.697239
Si Si4 0.361207 0.998302 0.012817
Si Si5 0.752422 0.350317 0.224618
Si Si6 0.526088 0.210427 0.797879
Si Si7 0.109986 0.883103 0.549164
Si Si8 0.817731 0.510793 0.812735
O O1 0.500000 0.500000 0.500000
O O2 0.387060 0.390344 0.222974
O O3 0.646258 0.439221 0.599971
O O4 0.776140 0.598645 0.193444
O O5 0.178151 0.411139 0.228597
O O6 0.994971 0.229074 0.247145
O O7 0.326551 0.165005 0.719552
O O8 0.050975 0.131824 0.592688
O O9 0.000000 0.000000 0.500000
O O10 0.000000 0.000000 0.000000
O O11 0.228781 0.960930 0.747326
O O12 0.488327 0.117379 0.977025
O O13 0.241900 0.925533 0.309999
O O14 0.500000 0.000000 0.000000
O O15 0.632567 0.264324 0.508057
O O16 0.974110 0.420956 0.281117
O O17 0.664613 0.295391 0.978111
O O18 0.752300 0.430624 0.117582
#
# Coordination Sequence:
#
# PCOD8026256 Si02
#       8
#     2   2   2   2   2   2   2   2
#     4   9  21  43  65  95 141 172 232 285 337 406
#     4  10  24  40  71 102 139 182 229 286 352 413
#     4  12  23  47  70  98 142 178 234 295 335 406
#     4  12  28  47  71 105 148 180 239 289 346 421
#     4  11  28  43  73 101 137 187 230 280 355 411
#     4  12  26  47  72 102 139 186 237 287 348 408
#     4  12  26  45  74 108 138 193 229 287 359 411
#     4  10  25  45  66 100 142 176 230 289 340 423
#
# _framework density 22.316541000000001
#
# number of rings (size 3 to 8) (size 9 to 14) (size 15 to 20)
#    0.000    1.000    2.500    1.875   12.250    3.000 
#    0.000    0.000    0.000    0.000    0.000    0.000 
#    0.000    0.000    0.000    0.000    0.000    0.000 
#
# Total GULP energy -198279.607219 kJ/mol
# GULP energy per Si atom -12392.475451 kJ/mol
# Density = 2.226575 g / cm^3
# Si number density = 22.316541 Si / 1000 Ang^3
#
#
#
# Elastic Constant Matrix: (Units=GPa)
#
#
# Indices 1 2 3 4 5 6 
#
# 1 89.5727 19.2955 27.2000 -4.5661 11.4607 12.0958
# 2 19.2955 59.1982 17.7974 -3.7057 7.1180 5.5629
# 3 27.2000 17.7974 129.2209 -12.4746 -16.3451 10.4894
# 4 -4.5661 -3.7057 -12.4746 49.0642 3.4427 3.1442
# 5 11.4607 7.1180 -16.3451 3.4427 42.5051 0.5459
# 6 12.0958 5.5629 10.4894 3.1442 0.5459 31.8644
#
#
#
# Elastic Compliance Matrix: (Units=1/GPa)
#
#
# Indices 1 2 3 4 5 6 
#
# 1 0.013668 -0.002727 -0.002637 0.000943 -0.004270 -0.003864
# 2 -0.002727 0.019077 -0.002261 0.000951 -0.003386 -0.001587
# 3 -0.002637 -0.002261 0.009528 0.001809 0.004633 -0.001999
# 4 0.000943 0.000951 0.001809 0.021304 -0.001402 -0.003198
# 5 -0.004270 -0.003386 0.004633 -0.001402 0.027135 0.000360
# 6 -0.003864 -0.001587 -0.001999 -0.003198 0.000360 0.034094
#
#
# Mechanical properties :
#
#
# Convention : Reuss Voigt Hill
#
# Bulk Modulus (GPa) = 37.00456 45.17528 41.08992
# Shear Modulus (GPa) = 33.54253 38.93334 36.23793
#
# Velocity S-wave (km/s) = 3.88110 4.18137 4.03403
# Velocity P-wave (km/s) = 6.05819 6.60293 6.33641
#
# Compressibility (1/GPa) = 0.02702369
#
# Stress axis : x y z
#
# Youngs Moduli (GPa) = 73.16118 52.41984 104.95346
#
# Poissons Ratio (x) = 0.14294 0.27675
# Poissons Ratio (y) = 0.19950 0.23730
# Poissons Ratio (z) = 0.19292 0.11852
#
# Static dielectric constant tensor:
#      x y z
#    x 5.433990 0.207100 0.236500 
#    y 0.207100 4.272690 0.377190 
#    z 0.236500 0.377190 4.479570 
# 
# 
# High freq. dielectric constant tensor:
#      x y z
#    x 1.889800 0.011400 0.006090 
#    y 0.011400 1.871090 0.002210 
#    z 0.006090 0.002210 1.898760 
# 
# From -- ./inp_files/84230.got.cif
#   From: 2010.06.25/outbox.cif.g09.slc.cpg/sg2_43_cif.got.tgz:84230.got - 2010.06.27 13:26:56.
