data_PCOD8026610
_publ_section_title
;
Structure prediction by ZEFSAII (Michael W. Deem and Ramdas Pophale) SiO2 
 PCOD8026610
Probable space group: P -1
;
_chemical_formula_sum "Si O2"
_cell_formula_units_Z 14
_cell_length_a 10.986163
_cell_length_b 15.101315
_cell_length_c 8.641349
_cell_angle_alpha 30.750680
_cell_angle_beta 121.128533
_cell_angle_gamma 129.154366
_cell_volume 567.232177
_symmetry_space_group_name_H-M "P -1"
_symmetry_group_IT_number 2
_symmetry_cell_setting 'triclinic'
loop_
_space_group_symop_operation_xyz
x,y,z
-x,-y,-z
loop_
_atom_site_type_symbol
_atom_site_label
_atom_site_fract_x
_atom_site_fract_y
_atom_site_fract_z
Si Si1 0.492611 0.239582 0.000799
Si Si2 0.926300 0.308155 0.342046
Si Si3 0.412859 0.543125 0.733707
Si Si4 0.937900 0.649930 0.303287
Si Si5 0.585038 0.177172 0.462177
Si Si6 0.673930 0.639463 0.515069
Si Si7 0.025942 0.045282 0.628816
O O1 0.656631 0.425218 0.783977
O O2 0.335471 0.245567 0.816463
O O3 0.477028 0.235906 0.184441
O O4 0.503289 0.050014 0.233867
O O5 0.756867 0.261699 0.369918
O O6 0.052017 0.344684 0.510535
O O7 0.902297 0.115727 0.518558
O O8 0.000000 0.500000 0.000000
O O9 0.234824 0.391114 0.810856
O O10 0.401827 0.738423 0.485797
O O11 0.508512 0.585343 0.575784
O O12 0.500000 0.500000 0.000000
O O13 0.000000 0.500000 0.500000
O O14 0.042588 0.867918 0.988221
O O15 0.814098 0.760686 0.537263
O O16 0.000000 0.000000 0.500000
#
# Coordination Sequence:
#
# PCOD8026610 Si02
#       7
#     2   2   2   2   2   2   2
#     4  10  24  42  71 101 144 185 241 306 362 444
#     4  12  27  46  76 107 157 200 261 308 381 450
#     4  12  26  45  77 106 153 193 248 309 376 443
#     4  12  27  50  76 113 154 204 253 314 380 454
#     4  11  24  46  69 107 146 193 245 303 375 435
#     4  11  25  45  72 105 143 187 252 297 377 435
#     4  12  28  48  77 111 154 199 254 313 382 455
#
# _framework density 24.681253000000002
#
# number of rings (size 3 to 8) (size 9 to 14) (size 15 to 20)
#    0.000    0.571    2.857    3.857    8.000    2.857 
#    0.000    0.000    0.000    0.000    0.000    0.000 
#    0.000    0.000    0.000    0.000    0.000    0.000 
#
# Total GULP energy -173475.012352 kJ/mol
# GULP energy per Si atom -12391.072311 kJ/mol
# Density = 2.462508 g / cm^3
# Si number density = 24.681253 Si / 1000 Ang^3
#
#
#
# Elastic Constant Matrix: (Units=GPa)
#
#
# Indices 1 2 3 4 5 6 
#
# 1 75.1151 17.8561 10.1882 -3.8738 4.9805 8.7813
# 2 17.8561 166.2346 50.2245 1.1229 0.4187 7.5469
# 3 10.1882 50.2245 164.5039 -3.7947 -0.9657 -1.9275
# 4 -3.8738 1.1229 -3.7947 44.3633 3.7910 5.8765
# 5 4.9805 0.4187 -0.9657 3.7910 20.5765 -6.2060
# 6 8.7813 7.5469 -1.9275 5.8765 -6.2060 49.5821
#
#
#
# Elastic Compliance Matrix: (Units=1/GPa)
#
#
# Indices 1 2 3 4 5 6 
#
# 1 0.014495 -0.001249 -0.000535 0.002100 -0.004877 -0.003257
# 2 -0.001249 0.006801 -0.002018 -0.000327 -0.000133 -0.000870
# 3 -0.000535 -0.002018 0.006750 0.000438 0.000614 0.000689
# 4 0.002100 -0.000327 0.000438 0.023800 -0.006037 -0.003881
# 5 -0.004877 -0.000133 0.000614 -0.006037 0.053430 0.008311
# 6 -0.003257 -0.000870 0.000689 -0.003881 0.008311 0.022405
#
#
# Mechanical properties :
#
#
# Convention : Reuss Voigt Hill
#
# Bulk Modulus (GPa) = 48.91742 62.48790 55.70266
# Shear Modulus (GPa) = 35.18668 44.74336 39.96502
#
# Velocity S-wave (km/s) = 3.77987 4.26237 4.02835
# Velocity P-wave (km/s) = 6.23799 7.04249 6.65241
#
# Compressibility (1/GPa) = 0.02044262
#
# Stress axis : x y z
#
# Youngs Moduli (GPa) = 68.98988 147.02714 148.15268
#
# Poissons Ratio (x) = 0.18371 0.07920
# Poissons Ratio (y) = 0.08620 0.29893
# Poissons Ratio (z) = 0.03688 0.29665
#
# Static dielectric constant tensor:
#      x y z
#    x 4.471070 -0.199190 0.252630 
#    y -0.199190 4.989430 -0.056990 
#    z 0.252630 -0.056990 4.725620 
# 
# 
# High freq. dielectric constant tensor:
#      x y z
#    x 1.964860 -0.005840 0.013860 
#    y -0.005840 2.013760 -0.005630 
#    z 0.013860 -0.005630 1.994940 
# 
# From -- ./inp_files/246203.got.cif
#   From: 2010.06.25/outbox.cif.g09.slc.cpg/sg2_124_cif.got.tgz:246203.got - 2010.06.27 13:26:56.
