data_PCOD8026712
_publ_section_title
;
Structure prediction by ZEFSAII (Michael W. Deem and Ramdas Pophale) SiO2 
 PCOD8026712
Probable space group: P -1
;
_chemical_formula_sum "Si O2"
_cell_formula_units_Z 16
_cell_length_a 19.902284
_cell_length_b 17.317967
_cell_length_c 8.710778
_cell_angle_alpha 120.307632
_cell_angle_beta 132.813260
_cell_angle_gamma 21.586038
_cell_volume 714.454994
_symmetry_space_group_name_H-M "P -1"
_symmetry_group_IT_number 2
_symmetry_cell_setting 'triclinic'
loop_
_space_group_symop_operation_xyz
x,y,z
-x,-y,-z
loop_
_atom_site_type_symbol
_atom_site_label
_atom_site_fract_x
_atom_site_fract_y
_atom_site_fract_z
Si Si1 0.577682 0.104722 0.993423
Si Si2 0.498874 0.412720 0.006928
Si Si3 0.066937 0.835805 0.960084
Si Si4 0.029137 0.568502 0.537503
Si Si5 0.720534 0.019259 0.473143
Si Si6 0.941149 0.641877 0.137020
Si Si7 0.073697 0.085491 0.834507
Si Si8 0.697260 0.522729 0.506534
O O1 0.629101 0.098795 0.236260
O O2 0.730957 0.013009 0.002724
O O3 0.661902 0.924148 0.950591
O O4 0.292712 0.372321 0.785337
O O5 0.395741 0.425584 0.751606
O O6 0.500000 0.500000 0.000000
O O7 0.779616 0.136806 0.210279
O O8 0.351158 0.561010 0.085137
O O9 0.929147 0.905645 0.683299
O O10 0.994449 0.859981 0.036184
O O11 0.000000 0.000000 0.000000
O O12 0.000000 0.500000 0.500000
O O13 0.996454 0.562528 0.312110
O O14 0.825082 0.830073 0.512280
O O15 0.514635 0.240525 0.488397
O O16 0.098405 0.587371 0.295897
O O17 0.000000 0.500000 0.000000
O O18 0.821148 0.326570 0.591812
#
# Coordination Sequence:
#
# PCOD8026712 Si02
#       8
#     2   2   2   2   2   2   2   2
#     4  10  24  45  67  99 142 184 234 286 350 417
#     4  12  24  47  70  99 147 178 226 298 342 413
#     4  12  24  46  73 107 140 185 236 289 354 415
#     4  11  26  43  71 104 136 185 236 290 355 420
#     4  11  25  44  71 100 145 182 231 297 351 413
#     4  10  24  43  65  95 139 179 231 293 347 412
#     4  11  24  44  70 101 134 187 233 277 353 413
#     4  11  25  45  68 102 138 186 230 287 353 414
#
# _framework density 22.394693
#
# number of rings (size 3 to 8) (size 9 to 14) (size 15 to 20)
#    0.000    1.000    2.500    3.750    7.000    3.000 
#    2.250    1.250    0.000    0.000    0.000    0.000 
#    0.000    0.000    0.000    0.000    0.000    0.000 
#
# Total GULP energy -198209.720637 kJ/mol
# GULP energy per Si atom -12388.107540 kJ/mol
# Density = 2.234372 g / cm^3
# Si number density = 22.394693 Si / 1000 Ang^3
#
#
#
# Elastic Constant Matrix: (Units=GPa)
#
#
# Indices 1 2 3 4 5 6 
#
# 1 139.0186 66.8461 21.7725 -1.3496 -21.0196 5.3859
# 2 66.8461 206.4795 39.7923 -1.8571 -23.8913 7.8396
# 3 21.7725 39.7923 46.3765 -8.6231 -4.7784 10.2041
# 4 -1.3496 -1.8571 -8.6231 40.6720 5.7221 0.3317
# 5 -21.0196 -23.8913 -4.7784 5.7221 32.2259 0.8458
# 6 5.3859 7.8396 10.2041 0.3317 0.8458 52.7262
#
#
#
# Elastic Compliance Matrix: (Units=1/GPa)
#
#
# Indices 1 2 3 4 5 6 
#
# 1 0.009175 -0.002044 -0.002211 -0.000861 0.004301 -0.000269
# 2 -0.002044 0.006781 -0.004774 -0.001221 0.003201 0.000081
# 3 -0.002211 -0.004774 0.028667 0.006061 -0.001686 -0.004623
# 4 -0.000861 -0.001221 0.006061 0.026535 -0.005254 -0.000986
# 5 0.004301 0.003201 -0.001686 -0.005254 0.036923 -0.001148
# 6 -0.000269 0.000081 -0.004623 -0.000986 -0.001148 0.019901
#
#
# Mechanical properties :
#
#
# Convention : Reuss Voigt Hill
#
# Bulk Modulus (GPa) = 37.64306 72.07736 54.86021
# Shear Modulus (GPa) = 32.27994 42.68906 37.48450
#
# Velocity S-wave (km/s) = 3.80071 4.37076 4.09566
# Velocity P-wave (km/s) = 6.00882 7.59778 6.84953
#
# Compressibility (1/GPa) = 0.02656532
#
# Stress axis : x y z
#
# Youngs Moduli (GPa) = 108.99412 147.46719 34.88271
#
# Poissons Ratio (x) = 0.30142 0.07713
# Poissons Ratio (y) = 0.22278 0.16653
# Poissons Ratio (z) = 0.24101 0.70399
#
# Static dielectric constant tensor:
#      x y z
#    x 4.033060 -0.088140 0.117030 
#    y -0.088140 4.552430 -0.193240 
#    z 0.117030 -0.193240 3.934440 
# 
# 
# High freq. dielectric constant tensor:
#      x y z
#    x 1.890390 0.007980 -0.010230 
#    y 0.007980 1.909410 -0.011700 
#    z -0.010230 -0.011700 1.871530 
# 
# From -- ./inp_files/348525.got.cif
#   From: 2010.06.25/outbox.cif.g09.slc.cpg/sg2_175_cif.got.tgz:348525.got - 2010.06.27 13:26:56.
