data_PCOD8026879
_publ_section_title
;
Structure prediction by ZEFSAII (Michael W. Deem and Ramdas Pophale) SiO2 
 PCOD8026879
Probable space group: P -1
;
_chemical_formula_sum "Si O2"
_cell_formula_units_Z 14
_cell_length_a 6.965385
_cell_length_b 13.963528
_cell_length_c 19.409787
_cell_angle_alpha 20.405570
_cell_angle_beta 77.316928
_cell_angle_gamma 76.237857
_cell_volume 639.285460
_symmetry_space_group_name_H-M "P -1"
_symmetry_group_IT_number 2
_symmetry_cell_setting 'triclinic'
loop_
_space_group_symop_operation_xyz
x,y,z
-x,-y,-z
loop_
_atom_site_type_symbol
_atom_site_label
_atom_site_fract_x
_atom_site_fract_y
_atom_site_fract_z
Si Si1 0.936156 0.370565 0.376473
Si Si2 0.967949 0.782834 0.207550
Si Si3 0.170175 0.427598 0.982468
Si Si4 0.443094 0.195811 0.703593
Si Si5 0.321477 0.988613 0.574302
Si Si6 0.569339 0.017153 0.670666
Si Si7 0.811042 0.877118 0.946018
O O1 0.993459 0.479010 0.375471
O O2 0.764370 0.167906 0.533858
O O3 0.843891 0.630413 0.164393
O O4 0.136219 0.225573 0.422794
O O5 0.758252 0.845578 0.216102
O O6 0.114055 0.838297 0.222123
O O7 0.000000 0.000000 0.000000
O O8 0.234474 0.702345 0.757059
O O9 0.092036 0.228048 0.063792
O O10 0.000000 0.500000 0.000000
O O11 0.354692 0.288751 0.104679
O O12 0.500000 0.500000 0.500000
O O13 0.439996 0.156811 0.648290
O O14 0.583259 0.959888 0.890881
O O15 0.500000 0.000000 0.500000
O O16 0.413635 0.003724 0.631714
#
# Coordination Sequence:
#
# PCOD8026879 Si02
#       7
#     2   2   2   2   2   2   2
#     4  11  24  45  68 106 136 181 231 282 349 405
#     4  10  24  43  70 103 139 179 223 277 346 410
#     4  11  24  45  68  98 137 179 230 281 345 396
#     4  11  24  44  70 104 136 180 230 276 346 409
#     4  12  28  45  73 101 136 185 236 282 342 415
#     4  11  25  44  71 102 138 179 229 291 339 407
#     4  10  26  43  70  97 145 180 223 287 342 405
#
# _framework density 21.899450999999999
#
# number of rings (size 3 to 8) (size 9 to 14) (size 15 to 20)
#    0.000    1.143    2.857    1.286    6.000   10.857 
#    0.000    0.000    0.000    0.000    0.000    0.000 
#    0.000    0.000    0.000    0.000    0.000    0.000 
#
# Total GULP energy -173490.519325 kJ/mol
# GULP energy per Si atom -12392.179952 kJ/mol
# Density = 2.184961 g / cm^3
# Si number density = 21.899451 Si / 1000 Ang^3
#
#
#
# Elastic Constant Matrix: (Units=GPa)
#
#
# Indices 1 2 3 4 5 6 
#
# 1 63.1188 41.4260 10.8061 9.3786 -5.2841 -6.2350
# 2 41.4260 132.3070 15.7551 3.4153 0.7266 -11.4124
# 3 10.8061 15.7551 67.7663 -0.0314 7.7110 -3.2031
# 4 9.3786 3.4153 -0.0314 31.9821 -1.7207 -6.8706
# 5 -5.2841 0.7266 7.7110 -1.7207 36.8875 5.5257
# 6 -6.2350 -11.4124 -3.2031 -6.8706 5.5257 54.8316
#
#
#
# Elastic Compliance Matrix: (Units=1/GPa)
#
#
# Indices 1 2 3 4 5 6 
#
# 1 0.021497 -0.006332 -0.002352 -0.005453 0.003448 -0.000042
# 2 -0.006332 0.009775 -0.001073 0.001076 -0.001049 0.001492
# 3 -0.002352 -0.001073 0.015849 0.000816 -0.003728 0.000913
# 4 -0.005453 0.001076 0.000816 0.033582 0.000016 0.003858
# 5 0.003448 -0.001049 -0.003728 0.000016 0.028846 -0.002949
# 6 -0.000042 0.001492 0.000913 0.003858 -0.002949 0.019377
#
#
# Mechanical properties :
#
#
# Convention : Reuss Voigt Hill
#
# Bulk Modulus (GPa) = 36.22396 44.35183 40.28789
# Shear Modulus (GPa) = 31.71723 37.75390 34.73556
#
# Velocity S-wave (km/s) = 3.80980 4.15657 3.98696
# Velocity P-wave (km/s) = 5.99414 6.58275 6.29533
#
# Compressibility (1/GPa) = 0.02760604
#
# Stress axis : x y z
#
# Youngs Moduli (GPa) = 46.51863 102.29850 63.09640
#
# Poissons Ratio (x) = 0.64779 0.14843
# Poissons Ratio (y) = 0.29457 0.06767
# Poissons Ratio (z) = 0.10943 0.10972
#
# Static dielectric constant tensor:
#      x y z
#    x 3.662000 0.250220 0.243200 
#    y 0.250220 4.372830 -0.279070 
#    z 0.243200 -0.279070 3.804630 
# 
# 
# High freq. dielectric constant tensor:
#      x y z
#    x 1.858510 0.002690 0.000740 
#    y 0.002690 1.886480 -0.008150 
#    z 0.000740 -0.008150 1.862820 
# 
# From -- ./inp_files/27034.got.cif
#   From: 2010.06.25/outbox.cif.g09.slc.cpg/sg2_14_cif.got.tgz:27034.got - 2010.06.27 13:26:56.
