data_PCOD8026870
_publ_section_title
;
Structure prediction by ZEFSAII (Michael W. Deem and Ramdas Pophale) SiO2 
 PCOD8026870
Probable space group: P -1
;
_chemical_formula_sum "Si O2"
_cell_formula_units_Z 12
_cell_length_a 7.349988
_cell_length_b 8.882374
_cell_length_c 12.761869
_cell_angle_alpha 84.860396
_cell_angle_beta 50.837493
_cell_angle_gamma 52.772979
_cell_volume 452.992095
_symmetry_space_group_name_H-M "P -1"
_symmetry_group_IT_number 2
_symmetry_cell_setting 'triclinic'
loop_
_space_group_symop_operation_xyz
x,y,z
-x,-y,-z
loop_
_atom_site_type_symbol
_atom_site_label
_atom_site_fract_x
_atom_site_fract_y
_atom_site_fract_z
Si Si1 0.630252 0.993444 0.307602
Si Si2 0.475365 0.278534 0.737699
Si Si3 0.650832 0.089928 0.903667
Si Si4 0.563261 0.726708 0.817144
Si Si5 0.968593 0.265151 0.633803
Si Si6 0.162427 0.642051 0.679479
O O1 0.549801 0.858253 0.314252
O O2 0.954149 0.851133 0.274217
O O3 0.694820 0.073972 0.181347
O O4 0.299789 0.198735 0.478219
O O5 0.836710 0.198409 0.604491
O O6 0.203261 0.520930 0.776853
O O7 0.429728 0.262246 0.878973
O O8 0.031014 0.871259 0.743486
O O9 0.500000 0.000000 0.000000
O O10 0.621184 0.212422 0.008125
O O11 0.665913 0.518870 0.746164
O O12 0.886707 0.687292 0.704726
O O13 0.500000 0.500000 0.500000
#
# Coordination Sequence:
#
# PCOD8026870 Si02
#       6
#     2   2   2   2   2   2
#     4  11  23  44  69  97 145 180 224 288 341 404
#     4  12  24  43  73  99 137 182 230 285 340 412
#     4  10  24  43  70 101 135 188 228 272 354 412
#     4  11  23  47  67  99 144 180 226 285 343 407
#     4  11  26  40  67 107 132 181 235 280 345 403
#     4  11  24  40  72 104 132 178 233 279 341 408
#
# _framework density 26.490528000000001
#
# number of rings (size 3 to 8) (size 9 to 14) (size 15 to 20)
#    0.000    1.000    5.000    2.000    2.333    6.000 
#    0.000    1.667    0.000    0.000    0.000    0.000 
#    0.000    0.000    0.000    0.000    0.000    0.000 
#
# Total GULP energy -148782.690297 kJ/mol
# GULP energy per Si atom -12398.557525 kJ/mol
# Density = 2.643023 g / cm^3
# Si number density = 26.490528 Si / 1000 Ang^3
#
#
#
# Elastic Constant Matrix: (Units=GPa)
#
#
# Indices 1 2 3 4 5 6 
#
# 1 76.0285 29.5216 -8.8309 20.9564 19.2900 -9.1849
# 2 29.5216 152.4718 8.7147 -21.3825 28.3119 2.0913
# 3 -8.8309 8.7147 88.4090 3.6428 19.1707 12.9428
# 4 20.9564 -21.3825 3.6428 46.8255 1.1253 12.4620
# 5 19.2900 28.3119 19.1707 1.1253 37.4504 -0.1915
# 6 -9.1849 2.0913 12.9428 12.4620 -0.1915 37.1632
#
#
#
# Elastic Compliance Matrix: (Units=1/GPa)
#
#
# Indices 1 2 3 4 5 6 
#
# 1 0.023811 -0.005389 0.004233 -0.015868 -0.009830 0.009984
# 2 -0.005389 0.009707 -0.000124 0.008195 -0.004769 -0.004608
# 3 0.004233 -0.000124 0.014352 -0.001954 -0.009392 -0.003338
# 4 -0.015868 0.008195 -0.001954 0.036553 0.001798 -0.015951
# 5 -0.009830 -0.004769 -0.009392 0.001798 0.040127 0.000714
# 6 0.009984 -0.004608 -0.003338 -0.015951 0.000714 0.036150
#
#
# Mechanical properties :
#
#
# Convention : Reuss Voigt Hill
#
# Bulk Modulus (GPa) = 22.07032 41.74668 31.90850
# Shear Modulus (GPa) = 28.03240 43.45474 35.74357
#
# Velocity S-wave (km/s) = 3.25653 4.05456 3.67726
# Velocity P-wave (km/s) = 4.74231 6.14106 5.48644
#
# Compressibility (1/GPa) = 0.04530972
#
# Stress axis : x y z
#
# Youngs Moduli (GPa) = 41.99699 103.01710 69.67738
#
# Poissons Ratio (x) = 0.55519 -0.29496
# Poissons Ratio (y) = 0.22633 0.00866
# Poissons Ratio (z) = -0.17779 0.01280
#
# Static dielectric constant tensor:
#      x y z
#    x 4.750010 -0.039440 0.180690 
#    y -0.039440 5.238430 0.030410 
#    z 0.180690 0.030410 5.015420 
# 
# 
# High freq. dielectric constant tensor:
#      x y z
#    x 2.067040 -0.003580 0.004990 
#    y -0.003580 2.077670 -0.013110 
#    z 0.004990 -0.013110 2.049970 
# 
# From -- ./inp_files/194982.got.cif
#   From: 2010.06.25/outbox.cif.g09.slc.cpg/sg2_98_cif.got.tgz:194982.got - 2010.06.27 13:26:56.
