data_PCOD8026958
_publ_section_title
;
Structure prediction by ZEFSAII (Michael W. Deem and Ramdas Pophale) SiO2 
 PCOD8026958
Probable space group: P -1
;
_chemical_formula_sum "Si O2"
_cell_formula_units_Z 16
_cell_length_a 11.684279
_cell_length_b 10.747860
_cell_length_c 7.024640
_cell_angle_alpha 123.904351
_cell_angle_beta 94.791139
_cell_angle_gamma 77.798475
_cell_volume 714.985302
_symmetry_space_group_name_H-M "P -1"
_symmetry_group_IT_number 2
_symmetry_cell_setting 'triclinic'
loop_
_space_group_symop_operation_xyz
x,y,z
-x,-y,-z
loop_
_atom_site_type_symbol
_atom_site_label
_atom_site_fract_x
_atom_site_fract_y
_atom_site_fract_z
Si Si1 0.393669 0.594196 0.681483
Si Si2 0.336656 0.108231 0.217665
Si Si3 0.123208 0.550402 0.021937
Si Si4 0.824338 0.249887 0.463142
Si Si5 0.334030 0.346149 0.734894
Si Si6 0.525149 0.830408 0.065006
Si Si7 0.882317 0.956217 0.029726
Si Si8 0.021436 0.654002 0.726740
O O1 0.500000 0.500000 0.500000
O O2 0.286850 0.644115 0.561926
O O3 0.371791 0.494477 0.775744
O O4 0.429088 0.746556 0.890520
O O5 0.296308 0.249876 0.474205
O O6 0.452889 0.002660 0.233604
O O7 0.367355 0.169285 0.065654
O O8 0.227420 0.020880 0.112643
O O9 0.155357 0.684126 0.271653
O O10 0.226071 0.400882 0.912399
O O11 0.000000 0.500000 0.000000
O O12 0.123069 0.615300 0.864165
O O13 0.938965 0.255151 0.362798
O O14 0.830680 0.064385 0.298587
O O15 0.434235 0.244170 0.789855
O O16 0.912305 0.770823 0.914151
O O17 0.000000 0.000000 0.000000
O O18 0.000000 0.500000 0.500000
#
# Coordination Sequence:
#
# PCOD8026958 Si02
#       8
#     2   2   2   2   2   2   2   2
#     4  12  23  45  70  98 141 183 236 296 356 413
#     4  11  24  47  71 103 146 181 240 291 354 431
#     4  12  26  40  69 105 135 181 237 284 347 420
#     4  11  24  45  63  99 142 177 230 290 352 422
#     4  12  26  43  72 105 140 185 239 298 352 425
#     4  11  25  45  71 106 138 191 234 290 364 422
#     4  10  24  43  72  97 139 191 225 289 363 414
#     4  11  22  43  70  97 134 179 230 286 345 411
#
# _framework density 22.378084000000001
#
# number of rings (size 3 to 8) (size 9 to 14) (size 15 to 20)
#    0.000    0.750    5.000    2.250    3.500    0.500 
#    0.000    3.750    0.000    0.000    0.000    0.000 
#    0.000    0.000    0.000    0.000    0.000    0.000 
#
# Total GULP energy -198221.240479 kJ/mol
# GULP energy per Si atom -12388.827530 kJ/mol
# Density = 2.232715 g / cm^3
# Si number density = 22.378084 Si / 1000 Ang^3
#
#
#
# Elastic Constant Matrix: (Units=GPa)
#
#
# Indices 1 2 3 4 5 6 
#
# 1 103.1882 32.3105 41.6808 8.7444 2.5095 -4.4435
# 2 32.3105 98.6257 51.8128 12.9732 -1.1924 -15.6173
# 3 41.6808 51.8128 156.5841 26.9761 7.9669 -12.5434
# 4 8.7444 12.9732 26.9761 48.0133 -7.6262 -4.1996
# 5 2.5095 -1.1924 7.9669 -7.6262 35.4251 3.4051
# 6 -4.4435 -15.6173 -12.5434 -4.1996 3.4051 34.0807
#
#
#
# Elastic Compliance Matrix: (Units=1/GPa)
#
#
# Indices 1 2 3 4 5 6 
#
# 1 0.011395 -0.002668 -0.002122 -0.000275 -0.000430 -0.000509
# 2 -0.002668 0.013586 -0.003330 -0.000797 0.000794 0.004475
# 3 -0.002122 -0.003330 0.009026 -0.004149 -0.003011 0.001309
# 4 -0.000275 -0.000797 -0.004149 0.024440 0.006142 0.000470
# 5 -0.000430 0.000794 -0.003011 0.006142 0.030583 -0.003099
# 6 -0.000509 0.004475 0.001309 0.000470 -0.003099 0.032176
#
#
# Mechanical properties :
#
#
# Convention : Reuss Voigt Hill
#
# Bulk Modulus (GPa) = 56.28387 67.77848 62.03117
# Shear Modulus (GPa) = 34.87523 39.01007 36.94265
#
# Velocity S-wave (km/s) = 3.95201 4.17973 4.06746
# Velocity P-wave (km/s) = 6.78457 7.32442 7.05966
#
# Compressibility (1/GPa) = 0.01776708
#
# Stress axis : x y z
#
# Youngs Moduli (GPa) = 87.75437 73.60663 110.79372
#
# Poissons Ratio (x) = 0.19639 0.23510
# Poissons Ratio (y) = 0.23413 0.36894
# Poissons Ratio (z) = 0.18621 0.24511
#
# Static dielectric constant tensor:
#      x y z
#    x 2.879740 -1.127410 -1.160370 
#    y -1.127410 3.188400 -0.757710 
#    z -1.160370 -0.757710 2.999000 
# 
# 
# High freq. dielectric constant tensor:
#      x y z
#    x 1.887080 -0.017810 0.000780 
#    y -0.017810 1.879120 0.026620 
#    z 0.000780 0.026620 1.887220 
# 
# From -- ./inp_files/72365.got.cif
#   From: 2010.06.25/outbox.cif.g09.slc.cpg/sg2_37_cif.got.tgz:72365.got - 2010.06.27 13:26:56.
