data_PCOD8026084
_publ_section_title
;
Structure prediction by ZEFSAII (Michael W. Deem and Ramdas Pophale) SiO2 
 PCOD8026084
Probable space group: P -1
;
_chemical_formula_sum "Si O2"
_cell_formula_units_Z 12
_cell_length_a 5.117481
_cell_length_b 16.614496
_cell_length_c 8.222612
_cell_angle_alpha 57.735993
_cell_angle_beta 129.068742
_cell_angle_gamma 116.304110
_cell_volume 452.881671
_symmetry_space_group_name_H-M "P -1"
_symmetry_group_IT_number 2
_symmetry_cell_setting 'triclinic'
loop_
_space_group_symop_operation_xyz
x,y,z
-x,-y,-z
loop_
_atom_site_type_symbol
_atom_site_label
_atom_site_fract_x
_atom_site_fract_y
_atom_site_fract_z
Si Si1 0.857021 0.204047 0.747185
Si Si2 0.653826 0.091743 0.086129
Si Si3 0.371829 0.733853 0.935939
Si Si4 0.191973 0.976760 0.279233
Si Si5 0.287148 0.631067 0.692866
Si Si6 0.983408 0.558825 0.092146
O O1 0.739986 0.305470 0.546043
O O2 0.225552 0.227343 0.953702
O O3 0.870399 0.136793 0.665367
O O4 0.590351 0.149833 0.833446
O O5 0.292154 0.037800 0.081808
O O6 0.878783 0.010302 0.219070
O O7 0.815541 0.174726 0.187722
O O8 0.304958 0.645769 0.139087
O O9 0.192775 0.693464 0.742592
O O10 0.500000 0.000000 0.500000
O O11 0.046755 0.525124 0.690558
O O12 0.662797 0.613729 0.901165
O O13 0.000000 0.500000 0.000000
#
# Coordination Sequence:
#
# PCOD8026084 Si02
#       6
#     2   2   2   2   2   2
#     4  12  27  43  75 109 146 196 246 308 363 441
#     4  12  26  49  70 108 153 190 247 305 361 436
#     4  11  24  44  74 106 149 192 244 307 362 438
#     4  12  28  49  75 107 150 200 247 302 369 434
#     4  10  23  48  72 108 144 197 246 297 379 431
#     4   9  21  44  74 102 150 189 243 308 360 449
#
# _framework density 26.496987000000001
#
# number of rings (size 3 to 8) (size 9 to 14) (size 15 to 20)
#    0.000    1.000    1.667    3.500    4.667    3.333 
#    0.000   11.667    0.000    0.000    0.000    0.000 
#    0.000    0.000    0.000    0.000    0.000    0.000 
#
# Total GULP energy -148665.765601 kJ/mol
# GULP energy per Si atom -12388.813800 kJ/mol
# Density = 2.643668 g / cm^3
# Si number density = 26.496987 Si / 1000 Ang^3
#
#
#
# Elastic Constant Matrix: (Units=GPa)
#
#
# Indices 1 2 3 4 5 6 
#
# 1 136.6924 40.1975 20.3057 -19.6955 -8.5657 11.7921
# 2 40.1975 110.5804 -10.4076 -24.8761 -2.9906 13.0858
# 3 20.3057 -10.4076 72.5949 -32.7020 -13.2498 11.1337
# 4 -19.6955 -24.8761 -32.7020 45.7429 3.2193 -2.0937
# 5 -8.5657 -2.9906 -13.2498 3.2193 19.1556 -6.5629
# 6 11.7921 13.0858 11.1337 -2.0937 -6.5629 51.2062
#
#
#
# Elastic Compliance Matrix: (Units=1/GPa)
#
#
# Indices 1 2 3 4 5 6 
#
# 1 0.008822 -0.003381 -0.002649 -0.000055 0.001454 -0.000407
# 2 -0.003381 0.015094 0.010932 0.014049 0.004573 -0.004295
# 3 -0.002649 0.010932 0.031638 0.026025 0.015994 -0.005949
# 4 -0.000055 0.014049 0.026025 0.047091 0.010199 -0.006004
# 5 0.001454 0.004573 0.015994 0.010199 0.064172 0.003660
# 6 -0.000407 -0.004295 -0.005949 -0.006004 0.003660 0.022237
#
#
# Mechanical properties :
#
#
# Convention : Reuss Voigt Hill
#
# Bulk Modulus (GPa) = 15.30064 46.67320 30.98692
# Shear Modulus (GPa) = 24.87112 41.20576 33.03844
#
# Velocity S-wave (km/s) = 3.06705 3.94777 3.53494
# Velocity P-wave (km/s) = 4.28128 6.19940 5.32738
#
# Compressibility (1/GPa) = 0.06535676
#
# Stress axis : x y z
#
# Youngs Moduli (GPa) = 113.35497 66.25299 31.60708
#
# Poissons Ratio (x) = 0.22401 0.08374
# Poissons Ratio (y) = 0.38327 -0.34553
# Poissons Ratio (z) = 0.30032 -0.72427
#
# Static dielectric constant tensor:
#      x y z
#    x 4.894540 0.358290 -0.405190 
#    y 0.358290 5.687720 -0.532430 
#    z -0.405190 -0.532430 4.540190 
# 
# 
# High freq. dielectric constant tensor:
#      x y z
#    x 2.073060 0.001160 -0.014430 
#    y 0.001160 2.103360 -0.023090 
#    z -0.014430 -0.023090 2.019080 
# 
# From -- ./inp_files/30700.got.cif
#   From: 2010.06.25/outbox.cif.g09.slc.cpg/sg2_16_cif.got.tgz:30700.got - 2010.06.27 13:26:56.
