data_PCOD8026136
_publ_section_title
;
Structure prediction by ZEFSAII (Michael W. Deem and Ramdas Pophale) SiO2 
 PCOD8026136
Probable space group: P -1
;
_chemical_formula_sum "Si O2"
_cell_formula_units_Z 14
_cell_length_a 9.362875
_cell_length_b 8.854472
_cell_length_c 9.194832
_cell_angle_alpha 91.948065
_cell_angle_beta 123.118147
_cell_angle_gamma 90.457138
_cell_volume 637.755990
_symmetry_space_group_name_H-M "P -1"
_symmetry_group_IT_number 2
_symmetry_cell_setting 'triclinic'
loop_
_space_group_symop_operation_xyz
x,y,z
-x,-y,-z
loop_
_atom_site_type_symbol
_atom_site_label
_atom_site_fract_x
_atom_site_fract_y
_atom_site_fract_z
Si Si1 0.016747 0.961645 0.839650
Si Si2 0.667078 0.034067 0.496679
Si Si3 0.160993 0.098336 0.659649
Si Si4 0.843258 0.545616 0.321886
Si Si5 0.623630 0.372790 0.403555
Si Si6 0.265006 0.473841 0.242045
Si Si7 0.901031 0.362223 0.073836
O O1 0.105347 0.800774 0.860331
O O2 0.151206 0.068889 0.827353
O O3 0.826521 0.970290 0.670964
O O4 0.000000 0.000000 0.000000
O O5 0.690742 0.210117 0.477812
O O6 0.500000 0.000000 0.500000
O O7 0.669396 0.952813 0.335654
O O8 0.167342 0.277230 0.651557
O O9 0.000000 0.000000 0.500000
O O10 0.683117 0.442571 0.285257
O O11 0.869235 0.502149 0.167884
O O12 0.000000 0.500000 0.500000
O O13 0.419612 0.370334 0.277258
O O14 0.702046 0.485484 0.571626
O O15 0.092871 0.375083 0.117617
O O16 0.240701 0.624448 0.133362
#
# Coordination Sequence:
#
# PCOD8026136 Si02
#       7
#     2   2   2   2   2   2   2
#     4  11  23  41  67  94 128 166 211 264 324 378
#     4  11  23  41  67  94 128 166 211 264 324 378
#     4  10  24  40  59  96 128 164 217 262 315 387
#     4  12  22  39  66  92 128 172 212 264 319 382
#     4  11  23  41  66  93 126 168 213 263 319 381
#     4  10  24  38  66  94 126 156 222 260 312 380
#     4  11  23  41  66  93 126 168 213 263 319 381
#
# _framework density 21.951967
#
# number of rings (size 3 to 8) (size 9 to 14) (size 15 to 20)
#    0.000    1.143    1.429    6.000    8.000    0.571 
#    0.000    0.714    0.000    0.000    0.000    0.000 
#    0.000    0.000    0.000    0.000    0.000    0.000 
#
# Total GULP energy -173460.964141 kJ/mol
# GULP energy per Si atom -12390.068867 kJ/mol
# Density = 2.190200 g / cm^3
# Si number density = 21.951967 Si / 1000 Ang^3
#
#
#
# Elastic Constant Matrix: (Units=GPa)
#
#
# Indices 1 2 3 4 5 6 
#
# 1 132.5703 32.1114 37.4517 -0.5205 -35.3267 -5.3418
# 2 32.1114 124.9129 4.0510 -14.7913 -12.6261 -0.6707
# 3 37.4517 4.0510 79.7381 -15.8962 -10.4237 -4.3963
# 4 -0.5205 -14.7913 -15.8962 33.1913 -3.1366 -3.6931
# 5 -35.3267 -12.6261 -10.4237 -3.1366 35.3756 -7.7626
# 6 -5.3418 -0.6707 -4.3963 -3.6931 -7.7626 34.7555
#
#
#
# Elastic Compliance Matrix: (Units=1/GPa)
#
#
# Indices 1 2 3 4 5 6 
#
# 1 0.012328 -0.002061 -0.004322 -0.001355 0.010976 0.003616
# 2 -0.002061 0.009399 0.002010 0.005515 0.002663 0.001300
# 3 -0.004322 0.002010 0.016938 0.009573 0.002941 0.003191
# 4 -0.001355 0.005515 0.009573 0.038737 0.008430 0.007108
# 5 0.010976 0.002663 0.002941 0.008430 0.044641 0.012976
# 6 0.003616 0.001300 0.003191 0.007108 0.012976 0.033410
#
#
# Mechanical properties :
#
#
# Convention : Reuss Voigt Hill
#
# Bulk Modulus (GPa) = 33.42287 53.82774 43.62531
# Shear Modulus (GPa) = 28.70717 38.23830 33.47274
#
# Velocity S-wave (km/s) = 3.62017 4.17814 3.90913
# Velocity P-wave (km/s) = 5.72125 6.91735 6.34754
#
# Compressibility (1/GPa) = 0.02991963
#
# Stress axis : x y z
#
# Youngs Moduli (GPa) = 81.11391 106.38960 59.04000
#
# Poissons Ratio (x) = 0.21924 0.25516
# Poissons Ratio (y) = 0.16716 -0.11865
# Poissons Ratio (z) = 0.35056 -0.21381
#
# Static dielectric constant tensor:
#      x y z
#    x 4.161160 0.053520 -0.110760 
#    y 0.053520 3.820520 -0.431110 
#    z -0.110760 -0.431110 3.798490 
# 
# 
# High freq. dielectric constant tensor:
#      x y z
#    x 1.874340 -0.008030 -0.023630 
#    y -0.008030 1.867990 -0.020670 
#    z -0.023630 -0.020670 1.847440 
# 
# From -- ./inp_files/158410.got.cif
#   From: 2010.06.25/outbox.cif.g09.slc.cpg/sg2_80_cif.got.tgz:158410.got - 2010.06.27 13:26:56.
