data_PCOD8026275
_publ_section_title
;
Structure prediction by ZEFSAII (Michael W. Deem and Ramdas Pophale) SiO2 
 PCOD8026275
Probable space group: P -1
;
_chemical_formula_sum "Si O2"
_cell_formula_units_Z 12
_cell_length_a 20.969859
_cell_length_b 12.185718
_cell_length_c 9.438302
_cell_angle_alpha 46.805878
_cell_angle_beta 133.890355
_cell_angle_gamma 159.238785
_cell_volume 609.892049
_symmetry_space_group_name_H-M "P -1"
_symmetry_group_IT_number 2
_symmetry_cell_setting 'triclinic'
loop_
_space_group_symop_operation_xyz
x,y,z
-x,-y,-z
loop_
_atom_site_type_symbol
_atom_site_label
_atom_site_fract_x
_atom_site_fract_y
_atom_site_fract_z
Si Si1 0.801736 0.271606 0.395590
Si Si2 0.670327 0.655676 0.566239
Si Si3 0.549058 0.713201 0.706321
Si Si4 0.386368 0.527683 0.916163
Si Si5 0.054757 0.198977 0.787959
Si Si6 0.486918 0.149927 0.893186
O O1 0.815363 0.473482 0.242245
O O2 0.000000 0.500000 0.500000
O O3 0.689488 0.038426 0.562547
O O4 0.702083 0.069632 0.275187
O O5 0.500000 0.500000 0.500000
O O6 0.637321 0.583755 0.411598
O O7 0.661593 0.486741 0.788543
O O8 0.880261 0.019386 0.599701
O O9 0.494766 0.702226 0.782430
O O10 0.641795 0.687555 0.889258
O O11 0.184143 0.299249 0.789488
O O12 0.509549 0.804345 0.975712
O O13 0.000000 0.000000 0.000000
O O14 0.500000 0.000000 0.000000
#
# Coordination Sequence:
#
# PCOD8026275 Si02
#       6
#     2   2   2   2   2   2
#     4  11  23  37  63  92 116 156 211 246 295 357
#     4  11  20  38  64  87 118 158 206 240 299 359
#     4  10  24  41  62  87 123 165 195 253 303 357
#     4  11  22  41  63  86 126 159 203 244 315 346
#     4  12  21  37  65  92 121 156 206 251 291 364
#     4  11  20  38  60  88 115 160 197 249 296 360
#
# _framework density 19.675613999999999
#
# number of rings (size 3 to 8) (size 9 to 14) (size 15 to 20)
#    0.000    1.000    5.000    3.000    0.000    1.333 
#    0.000    0.833    3.667    0.000    0.000    0.000 
#    0.000    0.000    0.000    0.000    0.000    0.000 
#
# Total GULP energy -148704.865075 kJ/mol
# GULP energy per Si atom -12392.072090 kJ/mol
# Density = 1.963083 g / cm^3
# Si number density = 19.675614 Si / 1000 Ang^3
#
#
#
# Elastic Constant Matrix: (Units=GPa)
#
#
# Indices 1 2 3 4 5 6 
#
# 1 135.4847 54.1880 55.7881 10.2103 -10.0851 -1.7176
# 2 54.1880 121.6649 50.5140 14.9148 -6.3333 4.2031
# 3 55.7881 50.5140 91.3617 1.7471 -14.0692 0.2254
# 4 10.2103 14.9148 1.7471 44.9186 -6.5698 9.4264
# 5 -10.0851 -6.3333 -14.0692 -6.5698 35.3452 7.2285
# 6 -1.7176 4.2031 0.2254 9.4264 7.2285 31.9420
#
#
#
# Elastic Compliance Matrix: (Units=1/GPa)
#
#
# Indices 1 2 3 4 5 6 
#
# 1 0.010603 -0.002448 -0.005101 -0.001711 -0.000057 0.001446
# 2 -0.002448 0.011796 -0.005140 -0.003237 -0.001144 -0.000433
# 3 -0.005101 -0.005140 0.017725 0.003443 0.005735 -0.002037
# 4 -0.001711 -0.003237 0.003443 0.026548 0.007105 -0.009133
# 5 -0.000057 -0.001144 0.005735 0.007105 0.033638 -0.009602
# 6 0.001446 -0.000433 -0.002037 -0.009133 -0.009602 0.036324
#
#
# Mechanical properties :
#
#
# Convention : Reuss Voigt Hill
#
# Bulk Modulus (GPa) = 67.81684 74.38794 71.10239
# Shear Modulus (GPa) = 29.95292 34.97590 32.46441
#
# Velocity S-wave (km/s) = 3.90595 4.22077 4.06640
# Velocity P-wave (km/s) = 7.40839 7.85127 7.63304
#
# Compressibility (1/GPa) = 0.01474560
#
# Stress axis : x y z
#
# Youngs Moduli (GPa) = 94.30960 84.77400 56.41798
#
# Poissons Ratio (x) = 0.20752 0.28778
# Poissons Ratio (y) = 0.23087 0.29001
# Poissons Ratio (z) = 0.48107 0.43578
#
# Static dielectric constant tensor:
#      x y z
#    x 4.053260 0.281010 0.048980 
#    y 0.281010 4.622160 -0.050410 
#    z 0.048980 -0.050410 4.064590 
# 
# 
# High freq. dielectric constant tensor:
#      x y z
#    x 1.755750 -0.012980 0.022630 
#    y -0.012980 1.771470 0.010020 
#    z 0.022630 0.010020 1.776360 
# 
# From -- ./inp_files/144739.got.cif
#   From: 2010.06.25/outbox.cif.g09.slc.cpg/sg2_73_cif.got.tgz:144739.got - 2010.06.27 13:26:56.
