data_PCOD8026777
_publ_section_title
;
Structure prediction by ZEFSAII (Michael W. Deem and Ramdas Pophale) SiO2 
 PCOD8026777
Probable space group: P -1
;
_chemical_formula_sum "Si O2"
_cell_formula_units_Z 12
_cell_length_a 10.004781
_cell_length_b 10.600419
_cell_length_c 8.493552
_cell_angle_alpha 54.865824
_cell_angle_beta 47.117576
_cell_angle_gamma 66.875763
_cell_volume 539.792268
_symmetry_space_group_name_H-M "P -1"
_symmetry_group_IT_number 2
_symmetry_cell_setting 'triclinic'
loop_
_space_group_symop_operation_xyz
x,y,z
-x,-y,-z
loop_
_atom_site_type_symbol
_atom_site_label
_atom_site_fract_x
_atom_site_fract_y
_atom_site_fract_z
Si Si1 0.595511 0.460744 0.613557
Si Si2 0.378089 0.969877 0.467344
Si Si3 0.021280 0.116856 0.541872
Si Si4 0.358653 0.838620 0.045792
Si Si5 0.999674 0.464745 0.209015
Si Si6 0.663979 0.337649 0.134770
O O1 0.500000 0.500000 0.500000
O O2 0.580674 0.275831 0.780728
O O3 0.806158 0.511013 0.405838
O O4 0.501150 0.547662 0.772466
O O5 0.323040 0.789425 0.642457
O O6 0.500000 0.000000 0.500000
O O7 0.195359 0.073002 0.540264
O O8 0.500906 0.016864 0.182492
O O9 0.845403 0.100628 0.806634
O O10 0.047723 0.287037 0.329133
O O11 0.000000 0.000000 0.500000
O O12 0.373460 0.742142 0.942695
O O13 0.000000 0.500000 0.000000
O O14 0.148165 0.570701 0.098137
#
# Coordination Sequence:
#
# PCOD8026777 Si02
#       6
#     2   2   2   2   2   2
#     4  11  23  40  67  97 130 170 220 274 333 389
#     4  10  24  43  67  97 136 177 222 270 336 398
#     4  11  25  43  68  98 136 176 226 274 337 399
#     4  10  25  45  67  96 134 177 224 273 336 397
#     4  11  23  41  68  99 133 173 220 279 333 392
#     4  11  23  42  68  97 133 171 225 271 335 392
#
# _framework density 22.230774
#
# number of rings (size 3 to 8) (size 9 to 14) (size 15 to 20)
#    0.000    1.333    1.667    2.500    2.333   12.667 
#    0.000    0.000    0.000    0.000    0.000    0.000 
#    0.000    0.000    0.000    0.000    0.000    0.000 
#
# Total GULP energy -148814.194720 kJ/mol
# GULP energy per Si atom -12401.182893 kJ/mol
# Density = 2.218018 g / cm^3
# Si number density = 22.230774 Si / 1000 Ang^3
#
#
#
# Elastic Constant Matrix: (Units=GPa)
#
#
# Indices 1 2 3 4 5 6 
#
# 1 89.3384 50.0218 37.8870 0.3770 -9.4079 -26.7563
# 2 50.0218 106.3387 61.3306 4.6703 -20.7601 -27.3140
# 3 37.8870 61.3306 164.1996 -10.2215 -28.3811 -23.4798
# 4 0.3770 4.6703 -10.2215 53.1719 0.4989 -0.5270
# 5 -9.4079 -20.7601 -28.3811 0.4989 38.6205 4.0101
# 6 -26.7563 -27.3140 -23.4798 -0.5270 4.0101 45.4304
#
#
#
# Elastic Compliance Matrix: (Units=1/GPa)
#
#
# Indices 1 2 3 4 5 6 
#
# 1 0.016547 -0.005897 -0.000827 0.000303 -0.000354 0.005807
# 2 -0.005897 0.016150 -0.003479 -0.002046 0.004295 0.004035
# 3 -0.000827 -0.003479 0.008628 0.001947 0.004084 0.001542
# 4 0.000303 -0.002046 0.001947 0.019359 0.000137 0.000167
# 5 -0.000354 0.004295 0.004084 0.000137 0.030932 0.001755
# 6 0.005807 0.004035 0.001542 0.000167 0.001755 0.028502
#
#
# Mechanical properties :
#
#
# Convention : Reuss Voigt Hill
#
# Bulk Modulus (GPa) = 47.80872 73.15062 60.47967
# Shear Modulus (GPa) = 33.89881 41.48703 37.69292
#
# Velocity S-wave (km/s) = 3.90918 4.32464 4.12215
# Velocity P-wave (km/s) = 6.47518 7.61007 7.06545
#
# Compressibility (1/GPa) = 0.02091668
#
# Stress axis : x y z
#
# Youngs Moduli (GPa) = 60.43470 61.92126 115.89977
#
# Poissons Ratio (x) = 0.36517 0.09588
# Poissons Ratio (y) = 0.35641 0.40324
# Poissons Ratio (z) = 0.04999 0.21544
#
# Static dielectric constant tensor:
#      x y z
#    x 3.919970 -0.314350 -0.212130 
#    y -0.314350 4.311900 -0.326050 
#    z -0.212130 -0.326050 5.381950 
# 
# 
# High freq. dielectric constant tensor:
#      x y z
#    x 1.869560 -0.016470 -0.003320 
#    y -0.016470 1.876630 -0.008430 
#    z -0.003320 -0.008430 1.902450 
# 
# From -- ./inp_files/173707.got.cif
#   From: 2010.06.25/outbox.cif.g09.slc.cpg/sg2_87_cif.got.tgz:173707.got - 2010.06.27 13:26:56.
