data_PCOD8026510
_publ_section_title
;
Structure prediction by ZEFSAII (Michael W. Deem and Ramdas Pophale) SiO2 
 PCOD8026510
Probable space group: P -1
;
_chemical_formula_sum "Si O2"
_cell_formula_units_Z 16
_cell_length_a 6.279310
_cell_length_b 22.510950
_cell_length_c 14.765052
_cell_angle_alpha 159.185692
_cell_angle_beta 83.298488
_cell_angle_gamma 96.438824
_cell_volume 736.531799
_symmetry_space_group_name_H-M "P -1"
_symmetry_group_IT_number 2
_symmetry_cell_setting 'triclinic'
loop_
_space_group_symop_operation_xyz
x,y,z
-x,-y,-z
loop_
_atom_site_type_symbol
_atom_site_label
_atom_site_fract_x
_atom_site_fract_y
_atom_site_fract_z
Si Si1 0.910599 0.916919 0.975407
Si Si2 0.393310 0.448305 0.295519
Si Si3 0.411319 0.710717 0.425046
Si Si4 0.505572 0.774748 0.867928
Si Si5 0.095478 0.684010 0.237549
Si Si6 0.207837 0.058605 0.306808
Si Si7 0.927463 0.374722 0.543042
Si Si8 0.700237 0.452686 0.129340
O O1 0.656103 0.907190 0.994517
O O2 0.982700 0.724036 0.688967
O O3 0.000000 0.000000 0.000000
O O4 0.010219 0.023080 0.201412
O O5 0.428077 0.632750 0.599533
O O6 0.362269 0.309985 0.177359
O O7 0.182989 0.460027 0.258877
O O8 0.591819 0.391630 0.141300
O O9 0.289861 0.718077 0.345947
O O10 0.599228 0.845914 0.615622
O O11 0.243595 0.742080 0.559938
O O12 0.524257 0.533788 0.186830
O O13 0.308489 0.877703 0.070363
O O14 0.904271 0.822343 0.442944
O O15 0.193350 0.693642 0.144572
O O16 0.000000 0.500000 0.000000
O O17 0.110381 0.418852 0.669323
#
# Coordination Sequence:
#
# PCOD8026510 Si02
#       8
#     2   2   2   2   2   2   2   2
#     4  12  24  38  62  98 138 163 206 265 330 392
#     4  10  24  42  67  91 127 175 220 267 312 377
#     4  11  22  39  63  96 132 168 208 261 328 382
#     4  11  24  44  63  94 131 172 219 263 320 379
#     4  12  23  40  64  97 131 171 214 261 323 387
#     4  12  25  39  62  95 132 173 208 261 327 383
#     4  11  21  38  63  99 128 168 211 264 317 382
#     4  11  22  40  66  96 127 167 218 260 319 381
#
# _framework density 21.723436
#
# number of rings (size 3 to 8) (size 9 to 14) (size 15 to 20)
#    0.000    0.750    5.000    3.375    1.750    2.500 
#    0.000    0.625    0.000    3.750    0.000    0.000 
#    0.000    0.000    0.000    0.000    0.000    0.000 
#
# Total GULP energy -198236.237268 kJ/mol
# GULP energy per Si atom -12389.764829 kJ/mol
# Density = 2.167399 g / cm^3
# Si number density = 21.723436 Si / 1000 Ang^3
#
#
#
# Elastic Constant Matrix: (Units=GPa)
#
#
# Indices 1 2 3 4 5 6 
#
# 1 101.1025 28.0586 43.1865 -6.8060 -14.6146 5.0009
# 2 28.0586 77.4342 30.8362 -8.7334 -15.8209 3.0401
# 3 43.1865 30.8362 107.2515 -23.8464 -28.9198 8.9776
# 4 -6.8060 -8.7334 -23.8464 29.8085 10.6236 -4.8029
# 5 -14.6146 -15.8209 -28.9198 10.6236 40.7551 -8.8369
# 6 5.0009 3.0401 8.9776 -4.8029 -8.8369 25.9245
#
#
#
# Elastic Compliance Matrix: (Units=1/GPa)
#
#
# Indices 1 2 3 4 5 6 
#
# 1 0.012571 -0.002850 -0.004435 -0.001832 0.000581 -0.000696
# 2 -0.002850 0.015622 -0.002283 0.001048 0.003331 0.000838
# 3 -0.004435 -0.002283 0.015302 0.008296 0.006097 -0.000560
# 4 -0.001832 0.001048 0.008296 0.042298 -0.004603 0.003625
# 5 0.000581 0.003331 0.006097 -0.004603 0.033272 0.007874
# 6 -0.000696 0.000838 -0.000560 0.003625 0.007874 0.042159
#
#
# Mechanical properties :
#
#
# Convention : Reuss Voigt Hill
#
# Bulk Modulus (GPa) = 41.05174 54.43898 47.74536
# Shear Modulus (GPa) = 26.52810 31.54475 29.03643
#
# Velocity S-wave (km/s) = 3.49832 3.81479 3.65998
# Velocity P-wave (km/s) = 5.93769 6.67217 6.31562
#
# Compressibility (1/GPa) = 0.02435951
#
# Stress axis : x y z
#
# Youngs Moduli (GPa) = 79.54556 64.01318 65.35206
#
# Poissons Ratio (x) = 0.18242 0.28984
# Poissons Ratio (y) = 0.22668 0.14920
# Poissons Ratio (z) = 0.35279 0.14614
#
# Static dielectric constant tensor:
#      x y z
#    x 4.189130 -0.000380 -0.284210 
#    y -0.000380 3.397280 -0.032480 
#    z -0.284210 -0.032480 3.938470 
# 
# 
# High freq. dielectric constant tensor:
#      x y z
#    x 1.872960 0.004280 -0.018110 
#    y 0.004280 1.819300 -0.018150 
#    z -0.018110 -0.018150 1.847960 
# 
# From -- ./inp_files/68552.got.cif
#   From: 2010.06.25/outbox.cif.g09.slc.cpg/sg2_35_cif.got.tgz:68552.got - 2010.06.27 13:26:56.
