data_PCOD8026817
_publ_section_title
;
Structure prediction by ZEFSAII (Michael W. Deem and Ramdas Pophale) SiO2 
 PCOD8026817
Probable space group: P -1
;
_chemical_formula_sum "Si O2"
_cell_formula_units_Z 16
_cell_length_a 24.683575
_cell_length_b 8.465359
_cell_length_c 7.066444
_cell_angle_alpha 55.221525
_cell_angle_beta 100.951893
_cell_angle_gamma 137.403737
_cell_volume 747.367667
_symmetry_space_group_name_H-M "P -1"
_symmetry_group_IT_number 2
_symmetry_cell_setting 'triclinic'
loop_
_space_group_symop_operation_xyz
x,y,z
-x,-y,-z
loop_
_atom_site_type_symbol
_atom_site_label
_atom_site_fract_x
_atom_site_fract_y
_atom_site_fract_z
Si Si1 0.994595 0.220576 0.537452
Si Si2 0.392344 0.357403 0.520929
Si Si3 0.712556 0.684511 0.824438
Si Si4 0.473790 0.138434 0.975810
Si Si5 0.116383 0.449953 0.134434
Si Si6 0.430594 0.646483 0.746755
Si Si7 0.110362 0.694490 0.605336
Si Si8 0.707284 0.257444 0.989075
O O1 0.924188 0.187125 0.445570
O O2 0.074551 0.440832 0.291874
O O3 0.034140 0.374834 0.663275
O O4 0.949280 0.891682 0.750075
O O5 0.346262 0.398655 0.333558
O O6 0.490700 0.606905 0.326344
O O7 0.401886 0.444855 0.686208
O O8 0.335719 0.009028 0.707368
O O9 0.802124 0.051372 0.639600
O O10 0.661282 0.542052 0.087393
O O11 0.741336 0.540493 0.920695
O O12 0.369526 0.883095 0.109766
O O13 0.516645 0.320721 0.076889
O O14 0.500000 0.000000 0.000000
O O15 0.133688 0.649463 0.844456
O O16 0.210395 0.617476 0.146870
O O17 0.500000 0.000000 0.500000
#
# Coordination Sequence:
#
# PCOD8026817 Si02
#       8
#     2   2   2   2   2   2   2   2
#     4  10  24  43  68  95 127 166 205 260 322 386
#     4  11  23  41  64  90 126 167 211 260 315 371
#     4  11  23  41  63  94 131 165 210 262 311 372
#     4  11  21  41  64  87 128 167 210 258 314 368
#     4  11  23  42  66  96 131 160 210 262 318 377
#     4  11  21  40  66  89 126 171 211 257 309 372
#     4  11  22  43  69  93 128 167 209 255 321 380
#     4  12  22  40  65  91 128 169 205 263 315 364
#
# _framework density 21.408473000000001
#
# number of rings (size 3 to 8) (size 9 to 14) (size 15 to 20)
#    0.000    1.000    6.250    1.125    1.750    0.500 
#    0.000    7.500    0.000    0.000    0.000    0.000 
#    0.000    0.000    0.000    0.000    0.000    0.000 
#
# Total GULP energy -198269.328923 kJ/mol
# GULP energy per Si atom -12391.833058 kJ/mol
# Density = 2.135975 g / cm^3
# Si number density = 21.408473 Si / 1000 Ang^3
#
#
#
# Elastic Constant Matrix: (Units=GPa)
#
#
# Indices 1 2 3 4 5 6 
#
# 1 74.5316 22.4473 31.6366 6.2621 -11.4273 21.3444
# 2 22.4473 65.7488 25.6602 -1.4161 -1.1119 7.2734
# 3 31.6366 25.6602 112.5606 -8.7101 -8.5251 1.0226
# 4 6.2621 -1.4161 -8.7101 42.5338 2.1270 -4.7411
# 5 -11.4273 -1.1119 -8.5251 2.1270 36.1952 -14.3599
# 6 21.3444 7.2734 1.0226 -4.7411 -14.3599 35.0535
#
#
#
# Elastic Compliance Matrix: (Units=1/GPa)
#
#
# Indices 1 2 3 4 5 6 
#
# 1 0.020911 -0.003833 -0.005278 -0.005689 0.000710 -0.012262
# 2 -0.003833 0.017954 -0.003139 0.000390 -0.002287 -0.002184
# 3 -0.005278 -0.003139 0.011516 0.003464 0.002784 0.005139
# 4 -0.005689 0.000390 0.003464 0.025825 0.000241 0.006874
# 5 0.000710 -0.002287 0.002784 0.000241 0.033937 0.013896
# 6 -0.012262 -0.002184 0.005139 0.006874 0.013896 0.042920
#
#
# Mechanical properties :
#
#
# Convention : Reuss Voigt Hill
#
# Bulk Modulus (GPa) = 38.64030 45.81436 42.22733
# Shear Modulus (GPa) = 26.85440 34.29629 30.57535
#
# Velocity S-wave (km/s) = 3.54557 4.00684 3.78324
# Velocity P-wave (km/s) = 5.90336 6.54621 6.23308
#
# Compressibility (1/GPa) = 0.02587971
#
# Stress axis : x y z
#
# Youngs Moduli (GPa) = 47.82255 55.69659 86.83927
#
# Poissons Ratio (x) = 0.21349 0.45838
# Poissons Ratio (y) = 0.18331 0.27258
# Poissons Ratio (z) = 0.25243 0.17482
#
# Static dielectric constant tensor:
#      x y z
#    x 3.980900 0.115300 -0.045850 
#    y 0.115300 3.869050 -0.176810 
#    z -0.045850 -0.176810 4.138670 
# 
# 
# High freq. dielectric constant tensor:
#      x y z
#    x 1.843460 0.011540 0.005070 
#    y 0.011540 1.836800 -0.025590 
#    z 0.005070 -0.025590 1.843990 
# 
# From -- ./inp_files/126377.got.cif
#   From: 2010.06.25/outbox.cif.g09.slc.cpg/sg2_64_cif.got.tgz:126377.got - 2010.06.27 13:26:56.
