data_PCOD8026269
_publ_section_title
;
Structure prediction by ZEFSAII (Michael W. Deem and Ramdas Pophale) SiO2 
 PCOD8026269
Probable space group: P -1
;
_chemical_formula_sum "Si O2"
_cell_formula_units_Z 14
_cell_length_a 7.078712
_cell_length_b 10.195137
_cell_length_c 11.957292
_cell_angle_alpha 78.808447
_cell_angle_beta 99.768293
_cell_angle_gamma 55.983718
_cell_volume 659.309750
_symmetry_space_group_name_H-M "P -1"
_symmetry_group_IT_number 2
_symmetry_cell_setting 'triclinic'
loop_
_space_group_symop_operation_xyz
x,y,z
-x,-y,-z
loop_
_atom_site_type_symbol
_atom_site_label
_atom_site_fract_x
_atom_site_fract_y
_atom_site_fract_z
Si Si1 0.328045 0.265999 0.859780
Si Si2 0.061939 0.176797 0.473927
Si Si3 0.329975 0.830380 0.652109
Si Si4 0.836358 0.189169 0.908154
Si Si5 0.127358 0.124012 0.733089
Si Si6 0.140360 0.351771 0.273885
Si Si7 0.080890 0.312573 0.037653
O O1 0.557976 0.262765 0.869091
O O2 0.332187 0.140184 0.795133
O O3 0.085725 0.453152 0.778376
O O4 0.311356 0.209021 0.992905
O O5 0.008503 0.236066 0.588793
O O6 0.816129 0.242776 0.372893
O O7 0.166193 0.258316 0.405800
O O8 0.255369 0.970761 0.524611
O O9 0.611376 0.669346 0.704891
O O10 0.259810 0.926429 0.749754
O O11 0.913850 0.193343 0.789526
O O12 0.871042 0.302988 0.973079
O O13 0.000000 0.000000 0.000000
O O14 0.138827 0.251449 0.182595
O O15 0.000000 0.500000 0.000000
#
# Coordination Sequence:
#
# PCOD8026269 Si02
#       7
#     2   2   2   2   2   2   2
#     4  10  24  41  58  89 125 153 198 249 300 351
#     4   9  21  37  62  89 116 154 201 244 292 353
#     4   9  21  38  60  88 119 150 201 247 292 346
#     4  11  25  38  65  90 119 163 204 241 303 361
#     4   9  22  41  59  87 124 152 197 254 291 350
#     4  11  22  37  64  86 115 160 197 241 303 354
#     4   9  23  41  59  88 123 156 195 252 299 353
#
# _framework density 21.234328999999999
#
# number of rings (size 3 to 8) (size 9 to 14) (size 15 to 20)
#    0.857    1.429    0.000    0.429    6.000    8.571 
#    0.000    1.429    0.000    0.000    0.000    0.000 
#    0.000    0.000    0.000    0.000    0.000    0.000 
#
# Total GULP energy -173480.270294 kJ/mol
# GULP energy per Si atom -12391.447878 kJ/mol
# Density = 2.118600 g / cm^3
# Si number density = 21.234329 Si / 1000 Ang^3
#
#
#
# Elastic Constant Matrix: (Units=GPa)
#
#
# Indices 1 2 3 4 5 6 
#
# 1 134.6254 26.8324 52.0459 15.7689 25.2606 -11.4182
# 2 26.8324 59.1066 27.1283 7.9534 13.7910 -4.8042
# 3 52.0459 27.1283 118.7737 23.7796 -4.5762 -1.4733
# 4 15.7689 7.9534 23.7796 32.0836 2.4936 11.5290
# 5 25.2606 13.7910 -4.5762 2.4936 43.4623 -2.1961
# 6 -11.4182 -4.8042 -1.4733 11.5290 -2.1961 33.0740
#
#
#
# Elastic Compliance Matrix: (Units=1/GPa)
#
#
# Indices 1 2 3 4 5 6 
#
# 1 0.011141 -0.000890 -0.004238 -0.003140 -0.006246 0.004208
# 2 -0.000890 0.021307 -0.004231 -0.002277 -0.006408 0.002967
# 3 -0.004238 -0.004231 0.012972 -0.007454 0.005674 0.001475
# 4 -0.003140 -0.002277 -0.007454 0.045275 -0.001726 -0.017644
# 5 -0.006246 -0.006408 0.005674 -0.001726 0.029354 -0.000283
# 6 0.004208 0.002967 0.001475 -0.017644 -0.000283 0.038316
#
#
# Mechanical properties :
#
#
# Convention : Reuss Voigt Hill
#
# Bulk Modulus (GPa) = 37.45111 58.27989 47.86550
# Shear Modulus (GPa) = 26.88396 35.49062 31.18729
#
# Velocity S-wave (km/s) = 3.56204 4.09269 3.83655
# Velocity P-wave (km/s) = 5.88157 7.05968 6.49738
#
# Compressibility (1/GPa) = 0.02670148
#
# Stress axis : x y z
#
# Youngs Moduli (GPa) = 89.76180 46.93206 77.08891
#
# Poissons Ratio (x) = 0.04179 0.32671
# Poissons Ratio (y) = 0.07992 0.32615
# Poissons Ratio (z) = 0.38042 0.19856
#
# Static dielectric constant tensor:
#      x y z
#    x 3.916090 0.062780 -0.072160 
#    y 0.062780 3.523660 0.228520 
#    z -0.072160 0.228520 4.224390 
# 
# 
# High freq. dielectric constant tensor:
#      x y z
#    x 1.829450 0.005580 0.002540 
#    y 0.005580 1.807000 0.010110 
#    z 0.002540 0.010110 1.840460 
# 
# From -- ./inp_files/364597.got.cif
#   From: 2010.06.25/outbox.cif.g09.slc.cpg/sg2_183_cif.got.tgz:364597.got - 2010.06.27 13:26:56.
