data_PCOD8026783
_publ_section_title
;
Structure prediction by ZEFSAII (Michael W. Deem and Ramdas Pophale) SiO2 
 PCOD8026783
Probable space group: P -1
;
_chemical_formula_sum "Si O2"
_cell_formula_units_Z 14
_cell_length_a 17.295921
_cell_length_b 8.548746
_cell_length_c 9.745423
_cell_angle_alpha 118.439664
_cell_angle_beta 147.313569
_cell_angle_gamma 71.645938
_cell_volume 672.962585
_symmetry_space_group_name_H-M "P -1"
_symmetry_group_IT_number 2
_symmetry_cell_setting 'triclinic'
loop_
_space_group_symop_operation_xyz
x,y,z
-x,-y,-z
loop_
_atom_site_type_symbol
_atom_site_label
_atom_site_fract_x
_atom_site_fract_y
_atom_site_fract_z
Si Si1 0.389876 0.285531 0.189881
Si Si2 0.820041 0.778262 0.564297
Si Si3 0.294386 0.632927 0.794658
Si Si4 0.845172 0.039325 0.247496
Si Si5 0.141459 0.921125 0.026435
Si Si6 0.469150 0.192993 0.995553
Si Si7 0.648472 0.347376 0.788968
O O1 0.483456 0.268468 0.459846
O O2 0.307819 0.457799 0.140185
O O3 0.494328 0.312916 0.222041
O O4 0.276423 0.103356 0.918245
O O5 0.779516 0.565297 0.449839
O O6 0.699809 0.834146 0.309387
O O7 0.975348 0.816770 0.736827
O O8 0.829974 0.899036 0.765421
O O9 0.173146 0.759785 0.650172
O O10 0.433852 0.707169 0.940670
O O11 0.346662 0.633349 0.030926
O O12 0.817052 0.007769 0.032493
O O13 0.000000 0.000000 0.500000
O O14 0.244495 0.779504 0.163291
O O15 0.500000 0.000000 0.000000
#
# Coordination Sequence:
#
# PCOD8026783 Si02
#       7
#     2   2   2   2   2   2   2
#     4  11  23  41  68  97 137 163 222 270 325 383
#     4  11  24  44  65  97 130 174 219 269 330 387
#     4  11  25  41  73  94 130 176 219 266 329 386
#     4  11  25  42  66  98 129 177 214 272 323 389
#     4  10  25  43  67  91 134 176 217 268 328 391
#     4  12  23  41  67  98 132 169 214 277 318 393
#     4  10  24  43  67  99 126 178 215 271 325 385
#
# _framework density 20.803535
#
# number of rings (size 3 to 8) (size 9 to 14) (size 15 to 20)
#    0.000    1.143    2.857    2.143    4.000    3.429 
#    0.000    0.714    0.000    0.000    0.000    0.000 
#    0.000    0.000    0.000    0.000    0.000    0.000 
#
# Total GULP energy -173581.302048 kJ/mol
# GULP energy per Si atom -12398.664432 kJ/mol
# Density = 2.075619 g / cm^3
# Si number density = 20.803535 Si / 1000 Ang^3
#
#
#
# Elastic Constant Matrix: (Units=GPa)
#
#
# Indices 1 2 3 4 5 6 
#
# 1 98.3167 47.4668 44.3837 2.7871 6.0377 -4.3667
# 2 47.4668 172.6968 79.0962 -4.0965 17.4798 -14.4807
# 3 44.3837 79.0962 111.6945 0.2266 10.6287 -3.4143
# 4 2.7871 -4.0965 0.2266 41.1743 -3.2162 2.9843
# 5 6.0377 17.4798 10.6287 -3.2162 24.4234 3.0438
# 6 -4.3667 -14.4807 -3.4143 2.9843 3.0438 28.1391
#
#
#
# Elastic Compliance Matrix: (Units=1/GPa)
#
#
# Indices 1 2 3 4 5 6 
#
# 1 0.012807 -0.001666 -0.003828 -0.001117 -0.000560 0.000845
# 2 -0.001666 0.009668 -0.005613 0.000424 -0.004568 0.004485
# 3 -0.003828 -0.005613 0.014517 -0.000361 -0.001208 -0.001552
# 4 -0.001117 0.000424 -0.000361 0.024924 0.003793 -0.003053
# 5 -0.000560 -0.004568 -0.001208 0.003793 0.046374 -0.008003
# 6 0.000845 0.004485 -0.001552 -0.003053 -0.008003 0.038978
#
#
# Mechanical properties :
#
#
# Convention : Reuss Voigt Hill
#
# Bulk Modulus (GPa) = 67.66888 80.51127 74.09007
# Shear Modulus (GPa) = 28.66820 32.86477 30.76649
#
# Velocity S-wave (km/s) = 3.71623 3.97894 3.84983
# Velocity P-wave (km/s) = 7.14227 7.73913 7.44668
#
# Compressibility (1/GPa) = 0.01477784
#
# Stress axis : x y z
#
# Youngs Moduli (GPa) = 78.08123 103.43713 68.88240
#
# Poissons Ratio (x) = 0.17230 0.26369
# Poissons Ratio (y) = 0.13007 0.38666
# Poissons Ratio (z) = 0.29891 0.58063
#
# Static dielectric constant tensor:
#      x y z
#    x 3.880080 -0.138240 -0.051330 
#    y -0.138240 4.143470 -0.114810 
#    z -0.051330 -0.114810 3.808300 
# 
# 
# High freq. dielectric constant tensor:
#      x y z
#    x 1.815290 -0.009180 -0.007710 
#    y -0.009180 1.836790 -0.004240 
#    z -0.007710 -0.004240 1.810170 
# 
# From -- ./inp_files/185154.got.cif
#   From: 2010.06.25/outbox.cif.g09.slc.cpg/sg2_93_cif.got.tgz:185154.got - 2010.06.27 13:26:56.
