data_PCOD8026129
_publ_section_title
;
Structure prediction by ZEFSAII (Michael W. Deem and Ramdas Pophale) SiO2 
 PCOD8026129
Probable space group: P -1
;
_chemical_formula_sum "Si O2"
_cell_formula_units_Z 14
_cell_length_a 8.893257
_cell_length_b 11.454099
_cell_length_c 9.467197
_cell_angle_alpha 96.637901
_cell_angle_beta 55.700886
_cell_angle_gamma 126.655380
_cell_volume 602.600918
_symmetry_space_group_name_H-M "P -1"
_symmetry_group_IT_number 2
_symmetry_cell_setting 'triclinic'
loop_
_space_group_symop_operation_xyz
x,y,z
-x,-y,-z
loop_
_atom_site_type_symbol
_atom_site_label
_atom_site_fract_x
_atom_site_fract_y
_atom_site_fract_z
Si Si1 0.375224 0.033884 0.868916
Si Si2 0.960506 0.183790 0.230507
Si Si3 0.592880 0.425451 0.516217
Si Si4 0.975193 0.531072 0.677044
Si Si5 0.232565 0.963476 0.258591
Si Si6 0.235181 0.114389 0.525257
Si Si7 0.462268 0.328151 0.872846
O O1 0.647743 0.098945 0.736336
O O2 0.371311 0.165587 0.838860
O O3 0.197055 0.888755 0.839741
O O4 0.288646 0.992923 0.069206
O O5 0.912967 0.291679 0.338005
O O6 0.245057 0.300054 0.063284
O O7 0.893223 0.051428 0.355050
O O8 0.500000 0.500000 0.500000
O O9 0.861830 0.500449 0.336057
O O10 0.442843 0.246825 0.532254
O O11 0.556782 0.439901 0.702998
O O12 0.000000 0.500000 0.500000
O O13 0.698011 0.410198 0.859724
O O14 0.945157 0.851226 0.404048
O O15 0.332175 0.115934 0.319536
#
# Coordination Sequence:
#
# PCOD8026129 Si02
#       7
#     2   2   2   2   2   2   2
#     4  11  22  42  68 100 140 176 228 277 344 402
#     4  12  23  45  75 101 134 180 237 278 341 410
#     4  11  25  45  68  97 140 181 230 279 342 406
#     4  10  26  44  66 101 134 184 223 279 345 403
#     4  10  24  37  64 104 140 171 218 292 336 396
#     4  11  23  42  70 104 134 180 230 287 338 398
#     4  11  23  44  70 101 137 181 226 282 341 409
#
# _framework density 23.232623
#
# number of rings (size 3 to 8) (size 9 to 14) (size 15 to 20)
#    0.000    1.143    2.857    2.571    6.000    4.571 
#    2.571    0.714    0.000    0.000    0.000    0.000 
#    0.000    0.000    0.000    0.000    0.000    0.000 
#
# Total GULP energy -173434.854618 kJ/mol
# GULP energy per Si atom -12388.203901 kJ/mol
# Density = 2.317974 g / cm^3
# Si number density = 23.232623 Si / 1000 Ang^3
#
#
#
# Elastic Constant Matrix: (Units=GPa)
#
#
# Indices 1 2 3 4 5 6 
#
# 1 154.6014 35.7776 42.0126 6.2640 -22.2498 1.7857
# 2 35.7776 85.8620 35.4276 12.3234 -8.1196 2.4069
# 3 42.0126 35.4276 67.7503 22.2423 -0.2522 8.7011
# 4 6.2640 12.3234 22.2423 31.7373 -3.3719 -4.7246
# 5 -22.2498 -8.1196 -0.2522 -3.3719 28.0575 3.3370
# 6 1.7857 2.4069 8.7011 -4.7246 3.3370 33.3235
#
#
#
# Elastic Compliance Matrix: (Units=1/GPa)
#
#
# Indices 1 2 3 4 5 6 
#
# 1 0.009474 -0.001056 -0.006878 0.004342 0.007521 0.001227
# 2 -0.001056 0.015501 -0.007460 -0.000133 0.003504 0.000515
# 3 -0.006878 -0.007460 0.030358 -0.019258 -0.008597 -0.008889
# 4 0.004342 -0.000133 -0.019258 0.046589 0.007563 0.010653
# 5 0.007521 0.003504 -0.008597 0.007563 0.043655 -0.001711
# 6 0.001227 0.000515 -0.008889 0.010653 -0.001711 0.033909
#
#
# Mechanical properties :
#
#
# Convention : Reuss Voigt Hill
#
# Bulk Modulus (GPa) = 40.74145 59.40547 50.07346
# Shear Modulus (GPa) = 22.88805 31.62339 27.25572
#
# Velocity S-wave (km/s) = 3.14214 3.69340 3.42887
# Velocity P-wave (km/s) = 5.54423 6.61918 6.10541
#
# Compressibility (1/GPa) = 0.02454503
#
# Stress axis : x y z
#
# Youngs Moduli (GPa) = 105.55199 64.51277 32.94048
#
# Poissons Ratio (x) = 0.06814 0.22655
# Poissons Ratio (y) = 0.11149 0.24573
# Poissons Ratio (z) = 0.72595 0.48126
#
# Static dielectric constant tensor:
#      x y z
#    x 4.753510 0.306130 -0.446310 
#    y 0.306130 4.198100 0.225250 
#    z -0.446310 0.225250 4.205670 
# 
# 
# High freq. dielectric constant tensor:
#      x y z
#    x 1.939600 0.012590 -0.019600 
#    y 0.012590 1.907160 0.024500 
#    z -0.019600 0.024500 1.906410 
# 
# From -- ./inp_files/159736.got.cif
#   From: 2010.06.25/outbox.cif.g09.slc.cpg/sg2_80_cif.got.tgz:159736.got - 2010.06.27 13:26:56.
