data_PCOD8026548
_publ_section_title
;
Structure prediction by ZEFSAII (Michael W. Deem and Ramdas Pophale) SiO2 
 PCOD8026548
Probable space group: P -1
;
_chemical_formula_sum "Si O2"
_cell_formula_units_Z 16
_cell_length_a 9.367312
_cell_length_b 11.724125
_cell_length_c 9.269873
_cell_angle_alpha 103.426751
_cell_angle_beta 130.660678
_cell_angle_gamma 80.686456
_cell_volume 751.089506
_symmetry_space_group_name_H-M "P -1"
_symmetry_group_IT_number 2
_symmetry_cell_setting 'triclinic'
loop_
_space_group_symop_operation_xyz
x,y,z
-x,-y,-z
loop_
_atom_site_type_symbol
_atom_site_label
_atom_site_fract_x
_atom_site_fract_y
_atom_site_fract_z
Si Si1 0.875411 0.582617 0.038478
Si Si2 0.459329 0.506798 0.760733
Si Si3 0.019850 0.789717 0.817108
Si Si4 0.575943 0.308278 0.975818
Si Si5 0.123996 0.024543 0.449413
Si Si6 0.963648 0.844719 0.114654
Si Si7 0.923731 0.529262 0.613188
Si Si8 0.639025 0.906425 0.129336
O O1 0.955707 0.709576 0.103534
O O2 0.927516 0.550011 0.225098
O O3 0.654584 0.564273 0.852295
O O4 0.000000 0.500000 0.000000
O O5 0.368144 0.585840 0.851038
O O6 0.298006 0.506128 0.530246
O O7 0.491793 0.371903 0.796146
O O8 0.961430 0.865639 0.663020
O O9 0.925566 0.663632 0.704850
O O10 0.244505 0.771865 0.969797
O O11 0.953290 0.858823 0.938703
O O12 0.430130 0.227183 0.942261
O O13 0.319025 0.057669 0.665342
O O14 0.000000 0.000000 0.500000
O O15 0.145948 0.910668 0.323756
O O16 0.800066 0.911737 0.115128
O O17 0.000000 0.500000 0.500000
O O18 0.500000 0.000000 0.000000
#
# Coordination Sequence:
#
# PCOD8026548 Si02
#       8
#     2   2   2   2   2   2   2   2
#     4  12  24  46  64  99 144 177 220 281 350 398
#     4  11  22  38  64  99 132 181 226 270 331 404
#     4  12  23  44  68  99 135 180 222 285 350 395
#     4  11  20  39  65  95 136 171 222 277 331 398
#     4  10  24  42  68  97 124 177 233 272 338 415
#     4  11  24  45  67  94 139 177 220 286 346 401
#     4  12  24  38  69 101 135 182 230 276 335 409
#     4  11  24  43  68  98 130 173 230 285 336 402
#
# _framework density 21.302387
#
# number of rings (size 3 to 8) (size 9 to 14) (size 15 to 20)
#    0.000    0.750    5.000    3.375    3.500    1.500 
#    0.000    3.750    0.000    0.000    0.000    0.000 
#    0.000    0.000    0.000    0.000    0.000    0.000 
#
# Total GULP energy -198240.387470 kJ/mol
# GULP energy per Si atom -12390.024217 kJ/mol
# Density = 2.125390 g / cm^3
# Si number density = 21.302387 Si / 1000 Ang^3
#
#
#
# Elastic Constant Matrix: (Units=GPa)
#
#
# Indices 1 2 3 4 5 6 
#
# 1 71.4503 9.6254 41.1823 0.0264 -5.5839 -11.9882
# 2 9.6254 109.7534 43.2066 -5.5991 -4.3698 2.0387
# 3 41.1823 43.2066 133.4021 5.5136 -2.5514 -4.9598
# 4 0.0264 -5.5991 5.5136 30.9846 2.1158 -7.1174
# 5 -5.5839 -4.3698 -2.5514 2.1158 39.1457 4.2723
# 6 -11.9882 2.0387 -4.9598 -7.1174 4.2723 33.0028
#
#
#
# Elastic Compliance Matrix: (Units=1/GPa)
#
#
# Indices 1 2 3 4 5 6 
#
# 1 0.018348 0.000724 -0.005744 0.002430 0.001528 0.006083
# 2 0.000724 0.010715 -0.003796 0.002411 0.000985 -0.000577
# 3 -0.005744 -0.003796 0.010575 -0.002727 -0.000318 -0.000810
# 4 0.002430 0.002411 -0.002727 0.035245 -0.002365 0.008231
# 5 0.001528 0.000985 -0.000318 -0.002365 0.026360 -0.003476
# 6 0.006083 -0.000577 -0.000810 0.008231 -0.003476 0.034649
#
#
# Mechanical properties :
#
#
# Convention : Reuss Voigt Hill
#
# Bulk Modulus (GPa) = 45.44129 55.84826 50.64478
# Shear Modulus (GPa) = 31.08280 35.33272 33.20776
#
# Velocity S-wave (km/s) = 3.82399 4.07704 3.95254
# Velocity P-wave (km/s) = 6.39336 6.95966 6.68251
#
# Compressibility (1/GPa) = 0.02200642
#
# Stress axis : x y z
#
# Youngs Moduli (GPa) = 54.50206 93.32494 94.56008
#
# Poissons Ratio (x) = -0.06755 0.54312
# Poissons Ratio (y) = -0.03945 0.35897
# Poissons Ratio (z) = 0.31304 0.35428
#
# Static dielectric constant tensor:
#      x y z
#    x 3.777810 0.143390 0.328230 
#    y 0.143390 3.864900 0.157240 
#    z 0.328230 0.157240 6.234760 
# 
# 
# High freq. dielectric constant tensor:
#      x y z
#    x 1.824900 0.007730 -0.000720 
#    y 0.007730 1.846150 0.010170 
#    z -0.000720 0.010170 1.839980 
# 
# From -- ./inp_files/188876.got.cif
#   From: 2010.06.25/outbox.cif.g09.slc.cpg/sg2_95_cif.got.tgz:188876.got - 2010.06.27 13:26:56.
