data_PCOD8026742
_publ_section_title
;
Structure prediction by ZEFSAII (Michael W. Deem and Ramdas Pophale) SiO2 
 PCOD8026742
Probable space group: P -1
;
_chemical_formula_sum "Si O2"
_cell_formula_units_Z 16
_cell_length_a 7.458591
_cell_length_b 19.585980
_cell_length_c 19.795004
_cell_angle_alpha 20.388892
_cell_angle_beta 52.641393
_cell_angle_gamma 46.525573
_cell_volume 722.728605
_symmetry_space_group_name_H-M "P -1"
_symmetry_group_IT_number 2
_symmetry_cell_setting 'triclinic'
loop_
_space_group_symop_operation_xyz
x,y,z
-x,-y,-z
loop_
_atom_site_type_symbol
_atom_site_label
_atom_site_fract_x
_atom_site_fract_y
_atom_site_fract_z
Si Si1 0.246530 0.501965 0.323747
Si Si2 0.416197 0.297305 0.977429
Si Si3 0.292641 0.717638 0.377395
Si Si4 0.157407 0.469366 0.133755
Si Si5 0.377709 0.146103 0.728743
Si Si6 0.557936 0.266870 0.121775
Si Si7 0.777709 0.935058 0.025446
Si Si8 0.171973 0.240423 0.477790
O O1 0.455901 0.592009 0.205243
O O2 0.220319 0.376589 0.513331
O O3 0.338083 0.330158 0.400114
O O4 0.982487 0.695289 0.181049
O O5 0.122599 0.393907 0.951202
O O6 0.479738 0.354998 0.983100
O O7 0.515189 0.041480 0.177802
O O8 0.500000 0.500000 0.500000
O O9 0.404400 0.833729 0.296202
O O10 0.096527 0.659717 0.516258
O O11 0.149293 0.883794 0.193558
O O12 0.314691 0.323656 0.170721
O O13 0.155379 0.311146 0.339309
O O14 0.265440 0.635511 0.977968
O O15 0.218015 0.072480 0.886394
O O16 0.714969 0.013886 0.314228
O O17 0.500000 0.000000 0.000000
#
# Coordination Sequence:
#
# PCOD8026742 Si02
#       8
#     2   2   2   2   2   2   2   2
#     4  12  25  43  68 101 141 188 231 294 348 418
#     4  12  25  45  72 103 140 183 238 287 359 424
#     4  11  25  44  71 104 139 188 238 288 348 422
#     4  11  26  44  77  99 143 187 229 299 357 425
#     4  11  25  44  67  98 141 183 236 290 351 409
#     4  11  24  49  69 109 138 182 239 291 362 421
#     4  10  24  43  66  97 138 185 235 283 343 414
#     4  12  23  44  71 100 144 183 234 289 356 417
#
# _framework density 22.138324999999998
#
# number of rings (size 3 to 8) (size 9 to 14) (size 15 to 20)
#    0.000    0.750    2.500    4.875    7.000    0.500 
#    0.000    0.625    0.000    0.000    0.000    0.000 
#    0.000    0.000    0.000    0.000    0.000    0.000 
#
# Total GULP energy -198370.090216 kJ/mol
# GULP energy per Si atom -12398.130638 kJ/mol
# Density = 2.208794 g / cm^3
# Si number density = 22.138325 Si / 1000 Ang^3
#
#
#
# Elastic Constant Matrix: (Units=GPa)
#
#
# Indices 1 2 3 4 5 6 
#
# 1 72.8230 36.4691 30.1846 -4.5030 -1.9561 -0.8598
# 2 36.4691 132.8212 60.3332 -6.0280 -5.7735 -7.4166
# 3 30.1846 60.3332 127.7771 3.3939 10.7707 -6.9421
# 4 -4.5030 -6.0280 3.3939 48.3138 7.5991 6.3458
# 5 -1.9561 -5.7735 10.7707 7.5991 36.6412 4.1376
# 6 -0.8598 -7.4166 -6.9421 6.3458 4.1376 40.4699
#
#
#
# Elastic Compliance Matrix: (Units=1/GPa)
#
#
# Indices 1 2 3 4 5 6 
#
# 1 0.016541 -0.003371 -0.002481 0.001279 0.000927 -0.000987
# 2 -0.003371 0.010657 -0.004433 0.000830 0.002548 0.000730
# 3 -0.002481 -0.004433 0.010960 -0.001136 -0.003998 0.001602
# 4 0.001279 0.000830 -0.001136 0.021985 -0.003678 -0.003087
# 5 0.000927 0.002548 -0.003998 -0.003678 0.029984 -0.002688
# 6 -0.000987 0.000730 0.001602 -0.003087 -0.002688 0.025856
#
#
# Mechanical properties :
#
#
# Convention : Reuss Voigt Hill
#
# Bulk Modulus (GPa) = 56.86071 65.26613 61.06342
# Shear Modulus (GPa) = 35.10827 38.84726 36.97776
#
# Velocity S-wave (km/s) = 3.98661 4.19352 4.09137
# Velocity P-wave (km/s) = 6.85060 7.27960 7.06835
#
# Compressibility (1/GPa) = 0.01758684
#
# Stress axis : x y z
#
# Youngs Moduli (GPa) = 60.45531 93.83133 91.24417
#
# Poissons Ratio (x) = 0.31634 0.22642
# Poissons Ratio (y) = 0.20382 0.40448
# Poissons Ratio (z) = 0.15002 0.41594
#
# Static dielectric constant tensor:
#      x y z
#    x 3.869160 0.011000 -0.044500 
#    y 0.011000 4.120140 0.215480 
#    z -0.044500 0.215480 4.224730 
# 
# 
# High freq. dielectric constant tensor:
#      x y z
#    x 1.869630 0.006710 -0.003050 
#    y 0.006710 1.873990 0.008000 
#    z -0.003050 0.008000 1.888050 
# 
# From -- ./inp_files/591601.got.cif
#   From: 2010.06.25/outbox.cif.g09.slc.cpg/sg2_296_cif.got.tgz:591601.got - 2010.06.27 13:26:56.
