data_PCOD8026121
_publ_section_title
;
Structure prediction by ZEFSAII (Michael W. Deem and Ramdas Pophale) SiO2 
 PCOD8026121
Probable space group: P -1
;
_chemical_formula_sum "Si O2"
_cell_formula_units_Z 16
_cell_length_a 14.021951
_cell_length_b 9.543159
_cell_length_c 9.034349
_cell_angle_alpha 121.698848
_cell_angle_beta 97.985808
_cell_angle_gamma 118.213892
_cell_volume 776.034699
_symmetry_space_group_name_H-M "P -1"
_symmetry_group_IT_number 2
_symmetry_cell_setting 'triclinic'
loop_
_space_group_symop_operation_xyz
x,y,z
-x,-y,-z
loop_
_atom_site_type_symbol
_atom_site_label
_atom_site_fract_x
_atom_site_fract_y
_atom_site_fract_z
Si Si1 0.625986 0.537513 0.569338
Si Si2 0.333723 0.270097 0.024136
Si Si3 0.082589 0.374395 0.948341
Si Si4 0.129041 0.131023 0.373572
Si Si5 0.275303 0.397653 0.828043
Si Si6 0.071724 0.814301 0.691979
Si Si7 0.536889 0.228463 0.134811
Si Si8 0.980118 0.478219 0.731765
O O1 0.500000 0.500000 0.500000
O O2 0.648624 0.557317 0.761269
O O3 0.747983 0.757123 0.640646
O O4 0.596979 0.331909 0.367529
O O5 0.417374 0.207981 0.056634
O O6 0.364890 0.364527 0.915051
O O7 0.187621 0.060662 0.883103
O O8 0.203134 0.398350 0.951449
O O9 0.071231 0.487885 0.872349
O O10 0.110368 0.503243 0.179147
O O11 0.956319 0.125352 0.803236
O O12 0.174168 0.194360 0.588807
O O13 0.055157 0.216130 0.361212
O O14 0.355567 0.619533 0.879142
O O15 0.095803 0.739796 0.503158
O O16 0.064345 0.679455 0.750941
O O17 0.500000 0.000000 0.000000
#
# Coordination Sequence:
#
# PCOD8026121 Si02
#       8
#     2   2   2   2   2   2   2   2
#     4   9  22  42  63  90 120 161 207 254 295 367
#     4  11  22  40  66  90 121 157 215 250 304 363
#     4  11  21  39  58  91 127 162 202 254 307 357
#     4  11  21  39  65  89 123 169 206 244 305 366
#     4  11  22  39  65  89 124 162 210 251 301 370
#     4  11  22  38  61  93 125 166 203 249 306 373
#     4  10  24  44  66  87 121 165 204 255 315 363
#     4  10  24  36  54  91 133 161 195 250 316 357
#
# _framework density 20.617636000000001
#
# number of rings (size 3 to 8) (size 9 to 14) (size 15 to 20)
#    0.000    1.500    2.500    2.250    3.500    2.000 
#    2.250    0.625    0.000    0.000    0.000    0.000 
#    0.000    0.000    0.000    0.000    0.000    0.000 
#
# Total GULP energy -198310.680871 kJ/mol
# GULP energy per Si atom -12394.417554 kJ/mol
# Density = 2.057071 g / cm^3
# Si number density = 20.617636 Si / 1000 Ang^3
#
#
#
# Elastic Constant Matrix: (Units=GPa)
#
#
# Indices 1 2 3 4 5 6 
#
# 1 89.4181 30.4736 44.3890 5.0070 -2.6511 10.5664
# 2 30.4736 88.9473 54.6480 8.2878 -2.5907 -13.5120
# 3 44.3890 54.6480 135.6295 -2.9928 -8.1408 -3.1737
# 4 5.0070 8.2878 -2.9928 28.9646 1.2102 2.2675
# 5 -2.6511 -2.5907 -8.1408 1.2102 29.6405 0.8735
# 6 10.5664 -13.5120 -3.1737 2.2675 0.8735 32.6766
#
#
#
# Elastic Compliance Matrix: (Units=1/GPa)
#
#
# Indices 1 2 3 4 5 6 
#
# 1 0.015167 -0.003902 -0.003563 -0.001355 0.000292 -0.006778
# 2 -0.003902 0.018062 -0.005953 -0.005761 -0.000422 0.008564
# 3 -0.003563 -0.005953 0.011126 0.003422 0.002093 -0.000522
# 4 -0.001355 -0.005761 0.003422 0.037132 -0.001078 -0.004160
# 5 0.000292 -0.000422 0.002093 -0.001078 0.034372 -0.000910
# 6 -0.006778 0.008564 -0.000522 -0.004160 -0.000910 0.036598
#
#
# Mechanical properties :
#
#
# Convention : Reuss Voigt Hill
#
# Bulk Modulus (GPa) = 57.07533 63.66847 60.37190
# Shear Modulus (GPa) = 27.00749 30.55530 28.78139
#
# Velocity S-wave (km/s) = 3.62321 3.85385 3.74031
# Velocity P-wave (km/s) = 6.72655 7.12394 6.92809
#
# Compressibility (1/GPa) = 0.01752070
#
# Stress axis : x y z
#
# Youngs Moduli (GPa) = 65.93082 55.36424 89.87709
#
# Poissons Ratio (x) = 0.21606 0.32020
# Poissons Ratio (y) = 0.25729 0.53500
# Poissons Ratio (z) = 0.23489 0.32956
#
# Static dielectric constant tensor:
#      x y z
#    x 3.771030 0.001750 -0.133450 
#    y 0.001750 3.710920 -0.264050 
#    z -0.133450 -0.264050 4.170360 
# 
# 
# High freq. dielectric constant tensor:
#      x y z
#    x 1.802820 0.000640 -0.004570 
#    y 0.000640 1.802790 -0.015360 
#    z -0.004570 -0.015360 1.817000 
# 
# From -- ./inp_files/178688.got.cif
#   From: 2010.06.25/outbox.cif.g09.slc.cpg/sg2_90_cif.got.tgz:178688.got - 2010.06.27 13:26:56.
