data_PCOD8026303
_publ_section_title
;
Structure prediction by ZEFSAII (Michael W. Deem and Ramdas Pophale) SiO2 
 PCOD8026303
Probable space group: P -1
;
_chemical_formula_sum "Si O2"
_cell_formula_units_Z 16
_cell_length_a 7.892816
_cell_length_b 5.518124
_cell_length_c 17.991142
_cell_angle_alpha 68.588265
_cell_angle_beta 86.173886
_cell_angle_gamma 65.744756
_cell_volume 661.893370
_symmetry_space_group_name_H-M "P -1"
_symmetry_group_IT_number 2
_symmetry_cell_setting 'triclinic'
loop_
_space_group_symop_operation_xyz
x,y,z
-x,-y,-z
loop_
_atom_site_type_symbol
_atom_site_label
_atom_site_fract_x
_atom_site_fract_y
_atom_site_fract_z
Si Si1 0.395317 0.189888 0.194433
Si Si2 0.109593 0.765751 0.171468
Si Si3 0.684942 0.272589 0.687617
Si Si4 0.221889 0.614215 0.491638
Si Si5 0.198247 0.048960 0.558412
Si Si6 0.109917 0.171148 0.016169
Si Si7 0.721051 0.803964 0.136692
Si Si8 0.672841 0.319068 0.270774
O O1 0.232223 0.498028 0.143750
O O2 0.568282 0.191344 0.234775
O O3 0.289446 0.050215 0.265062
O O4 0.506095 0.011066 0.139248
O O5 0.175284 0.674764 0.264084
O O6 0.886889 0.870924 0.161193
O O7 0.171776 0.015473 0.112323
O O8 0.728199 0.327248 0.598025
O O9 0.470728 0.469040 0.689773
O O10 0.301079 0.267133 0.539608
O O11 0.000058 0.757498 0.493589
O O12 0.304071 0.774723 0.530378
O O13 0.177590 0.932033 0.654239
O O14 0.272844 0.160889 0.956527
O O15 0.000000 0.500000 0.000000
O O16 0.000000 0.000000 0.000000
O O17 0.768020 0.480637 0.199145
#
# Coordination Sequence:
#
# PCOD8026303 Si02
#       8
#     2   2   2   2   2   2   2   2
#     4  10  24  43  62 106 134 176 240 266 340 413
#     4  10  24  42  72  98 136 182 223 286 338 403
#     4  10  24  42  64  97 132 175 226 275 338 406
#     4  10  24  41  64  96 129 170 224 277 335 402
#     4  10  24  41  64  96 129 170 224 277 335 402
#     4  10  24  43  69 107 136 175 237 275 339 412
#     4  10  24  42  72  98 136 182 223 286 338 403
#     4  10  24  42  64  97 132 175 226 275 338 406
#
# _framework density 24.173078
#
# number of rings (size 3 to 8) (size 9 to 14) (size 15 to 20)
#    0.000    2.000    0.000    0.000   17.500    2.500 
#    0.000    5.625    0.000    0.000    0.000    0.000 
#    0.000    0.000    0.000    0.000    0.000    0.000 
#
# Total GULP energy -198229.877743 kJ/mol
# GULP energy per Si atom -12389.367359 kJ/mol
# Density = 2.411806 g / cm^3
# Si number density = 24.173078 Si / 1000 Ang^3
#
#
#
# Elastic Constant Matrix: (Units=GPa)
#
#
# Indices 1 2 3 4 5 6 
#
# 1 57.1870 14.1247 3.7110 -3.4700 -17.5881 3.2847
# 2 14.1247 112.9339 14.8010 -14.7532 -24.7604 21.0463
# 3 3.7110 14.8010 99.3637 -4.5168 -42.3389 3.7691
# 4 -3.4700 -14.7532 -4.5168 36.1207 -2.1756 -3.1226
# 5 -17.5881 -24.7604 -42.3389 -2.1756 37.3621 -5.4987
# 6 3.2847 21.0463 3.7691 -3.1226 -5.4987 31.2498
#
#
#
# Elastic Compliance Matrix: (Units=1/GPa)
#
#
# Indices 1 2 3 4 5 6 
#
# 1 0.023702 0.001474 0.008574 0.005277 0.022144 -0.000094
# 2 0.001474 0.013161 0.004412 0.006341 0.013830 -0.006484
# 3 0.008574 0.004412 0.024372 0.007796 0.035052 0.000135
# 4 0.005277 0.006341 0.007796 0.032864 0.017524 0.000602
# 5 0.022144 0.013830 0.035052 0.017524 0.087279 0.001239
# 6 -0.000094 -0.006484 0.000135 0.000602 0.001239 0.036639
#
#
# Mechanical properties :
#
#
# Convention : Reuss Voigt Hill
#
# Bulk Modulus (GPa) = 11.09197 37.19533 24.14365
# Shear Modulus (GPa) = 22.81560 36.73639 29.77599
#
# Velocity S-wave (km/s) = 3.07554 3.90259 3.51348
# Velocity P-wave (km/s) = 4.14855 5.97725 5.14480
#
# Compressibility (1/GPa) = 0.09015527
#
# Stress axis : x y z
#
# Youngs Moduli (GPa) = 42.19006 75.98102 41.03148
#
# Poissons Ratio (x) = -0.11198 -0.35182
# Poissons Ratio (y) = -0.06218 -0.18103
# Poissons Ratio (z) = -0.36176 -0.33522
#
# Static dielectric constant tensor:
#      x y z
#    x 4.239370 0.172600 -0.075380 
#    y 0.172600 4.631140 -0.194620 
#    z -0.075380 -0.194620 4.608670 
# 
# 
# High freq. dielectric constant tensor:
#      x y z
#    x 1.944530 0.010630 -0.005830 
#    y 0.010630 1.967040 -0.005720 
#    z -0.005830 -0.005720 1.965210 
# 
# From -- ./inp_files/39209.got.cif
#   From: 2010.06.25/outbox.cif.g09.slc.cpg/sg2_20_cif.got.tgz:39209.got - 2010.06.27 13:26:56.
