data_PCOD8026678
_publ_section_title
;
Structure prediction by ZEFSAII (Michael W. Deem and Ramdas Pophale) SiO2 
 PCOD8026678
Probable space group: P -1
;
_chemical_formula_sum "Si O2"
_cell_formula_units_Z 16
_cell_length_a 9.255397
_cell_length_b 6.640929
_cell_length_c 23.321702
_cell_angle_alpha 82.052021
_cell_angle_beta 130.645072
_cell_angle_gamma 129.269721
_cell_volume 744.794157
_symmetry_space_group_name_H-M "P -1"
_symmetry_group_IT_number 2
_symmetry_cell_setting 'triclinic'
loop_
_space_group_symop_operation_xyz
x,y,z
-x,-y,-z
loop_
_atom_site_type_symbol
_atom_site_label
_atom_site_fract_x
_atom_site_fract_y
_atom_site_fract_z
Si Si1 0.744617 0.554607 0.225980
Si Si2 0.207479 0.202709 0.291301
Si Si3 0.199911 0.762076 0.834608
Si Si4 0.664300 0.666444 0.477685
Si Si5 0.681774 0.446761 0.914974
Si Si6 0.842460 0.192032 0.443097
Si Si7 0.548709 0.877168 0.736162
Si Si8 0.016141 0.560426 0.096980
O O1 0.826657 0.446404 0.206611
O O2 0.472623 0.459731 0.136393
O O3 0.694659 0.424808 0.281012
O O4 0.996473 0.903766 0.285273
O O5 0.491247 0.443930 0.388835
O O6 0.264433 0.142800 0.247326
O O7 0.076448 0.320893 0.242064
O O8 0.205075 0.685807 0.904021
O O9 0.474076 0.097928 0.880667
O O10 0.500000 0.500000 0.500000
O O11 0.953792 0.770329 0.548962
O O12 0.726754 0.953563 0.472451
O O13 0.874358 0.549817 0.906011
O O14 0.865893 0.603143 0.013782
O O15 0.582098 0.065645 0.344367
O O16 0.000000 0.500000 0.500000
O O17 0.729587 0.133210 0.819306
#
# Coordination Sequence:
#
# PCOD8026678 Si02
#       8
#     2   2   2   2   2   2   2   2
#     4  11  25  41  68  98 131 173 223 275 328 396
#     4  11  25  43  65  96 132 173 224 267 332 400
#     4  11  22  43  63  96 129 173 223 274 327 389
#     4  11  27  44  71 101 133 177 218 276 338 400
#     4  10  24  43  62  98 133 171 225 271 333 391
#     4  11  26  47  68 103 137 170 223 278 333 399
#     4  12  24  44  69  94 135 178 218 274 334 396
#     4  11  22  42  68  92 132 178 216 276 332 394
#
# _framework density 21.482445999999999
#
# number of rings (size 3 to 8) (size 9 to 14) (size 15 to 20)
#    0.000    1.000    3.750    1.875    3.500    1.500 
#    2.250    0.000    0.000    0.000    0.000    0.000 
#    0.000    0.000    0.000    0.000    0.000    0.000 
#
# Total GULP energy -198499.888463 kJ/mol
# GULP energy per Si atom -12406.243029 kJ/mol
# Density = 2.143355 g / cm^3
# Si number density = 21.482446 Si / 1000 Ang^3
#
#
#
# Elastic Constant Matrix: (Units=GPa)
#
#
# Indices 1 2 3 4 5 6 
#
# 1 113.9206 41.9619 14.7097 -25.3926 5.5150 -0.5403
# 2 41.9619 114.2381 24.3628 -12.0279 -6.6072 2.9519
# 3 14.7097 24.3628 91.0250 0.1819 4.7613 -16.9851
# 4 -25.3926 -12.0279 0.1819 28.3450 -1.1255 1.3521
# 5 5.5150 -6.6072 4.7613 -1.1255 32.3215 -8.9828
# 6 -0.5403 2.9519 -16.9851 1.3521 -8.9828 44.6376
#
#
#
# Elastic Compliance Matrix: (Units=1/GPa)
#
#
# Indices 1 2 3 4 5 6 
#
# 1 0.012466 -0.003446 -0.001138 0.009652 -0.002568 -0.000863
# 2 -0.003446 0.011005 -0.002787 0.001779 0.002952 -0.001290
# 3 -0.001138 -0.002787 0.012898 -0.002561 -0.000987 0.004957
# 4 0.009652 0.001779 -0.002561 0.044809 0.000007 -0.002331
# 5 -0.002568 0.002952 -0.000987 0.000007 0.033852 0.006210
# 6 -0.000863 -0.001290 0.004957 -0.002331 0.006210 0.025684
#
#
# Mechanical properties :
#
#
# Convention : Reuss Voigt Hill
#
# Bulk Modulus (GPa) = 46.24181 53.47249 49.85715
# Shear Modulus (GPa) = 30.73777 36.93745 33.83761
#
# Velocity S-wave (km/s) = 3.78674 4.15109 3.97309
# Velocity P-wave (km/s) = 6.37897 6.92248 6.65628
#
# Compressibility (1/GPa) = 0.02162545
#
# Stress axis : x y z
#
# Youngs Moduli (GPa) = 80.21858 90.86487 77.53311
#
# Poissons Ratio (x) = 0.31314 0.08825
# Poissons Ratio (y) = 0.27645 0.21611
# Poissons Ratio (z) = 0.09131 0.25327
#
# Static dielectric constant tensor:
#      x y z
#    x 3.934810 0.097380 0.117240 
#    y 0.097380 4.018330 -0.100850 
#    z 0.117240 -0.100850 3.832160 
# 
# 
# High freq. dielectric constant tensor:
#      x y z
#    x 1.853700 0.005320 0.007240 
#    y 0.005320 1.852630 0.000490 
#    z 0.007240 0.000490 1.841470 
# 
# From -- ./inp_files/46990.got.cif
#   From: 2010.06.25/outbox.cif.g09.slc.cpg/sg2_24_cif.got.tgz:46990.got - 2010.06.27 13:26:56.
