data_PCOD8026059
_publ_section_title
;
Structure prediction by ZEFSAII (Michael W. Deem and Ramdas Pophale) SiO2 
 PCOD8026059
Probable space group: P -1
;
_chemical_formula_sum "Si O2"
_cell_formula_units_Z 14
_cell_length_a 4.833497
_cell_length_b 8.349022
_cell_length_c 15.969570
_cell_angle_alpha 66.299096
_cell_angle_beta 96.022683
_cell_angle_gamma 69.827299
_cell_volume 531.196791
_symmetry_space_group_name_H-M "P -1"
_symmetry_group_IT_number 2
_symmetry_cell_setting 'triclinic'
loop_
_space_group_symop_operation_xyz
x,y,z
-x,-y,-z
loop_
_atom_site_type_symbol
_atom_site_label
_atom_site_fract_x
_atom_site_fract_y
_atom_site_fract_z
Si Si1 0.275420 0.247370 0.634191
Si Si2 0.489233 0.722877 0.674383
Si Si3 0.593892 0.010782 0.837982
Si Si4 0.683325 0.344206 0.862875
Si Si5 0.771411 0.655641 0.023142
Si Si6 0.119688 0.075130 0.300674
Si Si7 0.758528 0.364895 0.475430
O O1 0.284949 0.139026 0.746262
O O2 0.149162 0.476111 0.601595
O O3 0.051395 0.211369 0.567936
O O4 0.625245 0.147791 0.625878
O O5 0.581858 0.506400 0.754127
O O6 0.777949 0.776473 0.676893
O O7 0.362076 0.745549 0.571052
O O8 0.225358 0.878611 0.692560
O O9 0.688185 0.148569 0.868529
O O10 0.870938 0.892942 0.805839
O O11 0.549364 0.851931 0.926791
O O12 0.449165 0.420525 0.918609
O O13 0.028317 0.293825 0.912724
O O14 0.000000 0.500000 0.000000
O O15 0.500000 0.500000 0.500000
#
# Coordination Sequence:
#
# PCOD8026059 Si02
#       7
#     2   2   2   2   2   2   2
#     4   9  24  47  67  99 139 179 230 283 348 402
#     4  12  24  45  69 103 141 181 232 286 348 407
#     4  10  23  48  67 102 137 185 230 286 337 419
#     4  12  25  44  72 102 135 190 226 282 342 414
#     4  12  26  45  70 105 140 179 232 285 344 404
#     4  10  26  43  71  99 143 182 224 290 349 398
#     4  11  25  44  72 101 136 187 231 285 346 418
#
# _framework density 26.355584
#
# number of rings (size 3 to 8) (size 9 to 14) (size 15 to 20)
#    0.857    0.286    1.429    3.857    6.000    4.571 
#    2.571    0.000    0.000    0.000    0.000    0.000 
#    0.000    0.000    0.000    0.000    0.000    0.000 
#
# Total GULP energy -173586.465486 kJ/mol
# GULP energy per Si atom -12399.033249 kJ/mol
# Density = 2.629560 g / cm^3
# Si number density = 26.355584 Si / 1000 Ang^3
#
#
#
# Elastic Constant Matrix: (Units=GPa)
#
#
# Indices 1 2 3 4 5 6 
#
# 1 59.7943 -24.6365 15.2374 -5.7649 6.8921 -1.9511
# 2 -24.6365 71.0767 5.6385 2.4196 3.9390 13.3998
# 3 15.2374 5.6385 135.2244 -7.1779 30.0037 4.9729
# 4 -5.7649 2.4196 -7.1779 47.3498 -1.4857 -1.6630
# 5 6.8921 3.9390 30.0037 -1.4857 24.2743 -1.3518
# 6 -1.9511 13.3998 4.9729 -1.6630 -1.3518 30.6709
#
#
#
# Elastic Compliance Matrix: (Units=1/GPa)
#
#
# Indices 1 2 3 4 5 6 
#
# 1 0.021142 0.008095 -0.001272 0.001711 -0.005758 -0.002146
# 2 0.008095 0.018702 -0.000191 -0.000451 -0.005564 -0.007895
# 3 -0.001272 -0.000191 0.010480 0.000970 -0.012624 -0.002201
# 4 0.001711 -0.000451 0.000970 0.021537 -0.000221 0.001307
# 5 -0.005758 -0.005564 -0.012624 -0.000221 0.059699 0.006731
# 6 -0.002146 -0.007895 -0.002201 0.001307 0.006731 0.036641
#
#
# Mechanical properties :
#
#
# Convention : Reuss Voigt Hill
#
# Bulk Modulus (GPa) = 15.72649 28.73047 22.22848
# Shear Modulus (GPa) = 28.38738 38.44939 33.41839
#
# Velocity S-wave (km/s) = 3.28547 3.82366 3.56474
# Velocity P-wave (km/s) = 4.51358 5.51531 5.03939
#
# Compressibility (1/GPa) = 0.06358696
#
# Stress axis : x y z
#
# Youngs Moduli (GPa) = 47.29896 53.46945 95.41981
#
# Poissons Ratio (x) = -0.43282 0.12141
# Poissons Ratio (y) = -0.38287 0.01822
# Poissons Ratio (z) = 0.06018 0.01021
#
# Static dielectric constant tensor:
#      x y z
#    x 4.652150 0.327880 -0.068560 
#    y 0.327880 4.875730 -0.185300 
#    z -0.068560 -0.185300 5.091210 
# 
# 
# High freq. dielectric constant tensor:
#      x y z
#    x 2.043590 0.011140 0.003160 
#    y 0.011140 2.060460 -0.005220 
#    z 0.003160 -0.005220 2.067820 
# 
# From -- ./inp_files/547003.got.cif
#   From: 2010.06.25/outbox.cif.g09.slc.cpg/sg2_274_cif.got.tgz:547003.got - 2010.06.27 13:26:56.
