data_PCOD8026865
_publ_section_title
;
Structure prediction by ZEFSAII (Michael W. Deem and Ramdas Pophale) SiO2 
 PCOD8026865
Probable space group: P -1
;
_chemical_formula_sum "Si O2"
_cell_formula_units_Z 14
_cell_length_a 11.646702
_cell_length_b 8.486952
_cell_length_c 11.719772
_cell_angle_alpha 34.294083
_cell_angle_beta 93.190013
_cell_angle_gamma 93.656370
_cell_volume 651.375124
_symmetry_space_group_name_H-M "P -1"
_symmetry_group_IT_number 2
_symmetry_cell_setting 'triclinic'
loop_
_space_group_symop_operation_xyz
x,y,z
-x,-y,-z
loop_
_atom_site_type_symbol
_atom_site_label
_atom_site_fract_x
_atom_site_fract_y
_atom_site_fract_z
Si Si1 0.495851 0.811677 0.358862
Si Si2 0.321984 0.058820 0.046278
Si Si3 0.731320 0.010833 0.358772
Si Si4 0.867049 0.157533 0.686030
Si Si5 0.174486 0.577354 0.251366
Si Si6 0.063594 0.751614 0.916028
Si Si7 0.693940 0.331180 0.393425
O O1 0.500000 0.500000 0.500000
O O2 0.620930 0.928104 0.327586
O O3 0.411747 0.823344 0.455869
O O4 0.446232 0.007471 0.139474
O O5 0.223793 0.078844 0.127846
O O6 0.285461 0.793280 0.122492
O O7 0.328599 0.338993 0.805596
O O8 0.786759 0.736771 0.579658
O O9 0.816435 0.179190 0.179355
O O10 0.697845 0.214642 0.336355
O O11 0.885040 0.397692 0.641210
O O12 0.814625 0.290071 0.489555
O O13 0.987452 0.024855 0.743059
O O14 0.082543 0.658838 0.102633
O O15 0.000000 0.500000 0.000000
#
# Coordination Sequence:
#
# PCOD8026865 Si02
#       7
#     2   2   2   2   2   2   2
#     4  11  23  45  69 101 135 171 226 274 329 398
#     4   9  22  41  71  98 129 174 221 275 323 392
#     4  12  26  43  67 101 138 178 215 275 343 390
#     4   9  22  43  65  97 133 173 228 271 324 388
#     4  10  24  43  69  99 130 177 227 269 331 393
#     4  12  26  43  68 100 137 176 225 276 330 397
#     4  11  23  42  70  96 139 173 218 275 338 390
#
# _framework density 21.492989999999999
#
# number of rings (size 3 to 8) (size 9 to 14) (size 15 to 20)
#    0.857    0.571    1.429    2.571    4.000    7.429 
#    0.000    0.000    0.000    0.000    0.000    0.000 
#    0.000    0.000    0.000    0.000    0.000    0.000 
#
# Total GULP energy -173618.304082 kJ/mol
# GULP energy per Si atom -12401.307434 kJ/mol
# Density = 2.144407 g / cm^3
# Si number density = 21.492990 Si / 1000 Ang^3
#
#
#
# Elastic Constant Matrix: (Units=GPa)
#
#
# Indices 1 2 3 4 5 6 
#
# 1 88.9417 39.9698 17.1442 14.9011 8.7667 5.5036
# 2 39.9698 110.6693 22.8345 5.7174 0.9738 19.0097
# 3 17.1442 22.8345 89.1060 4.0590 16.8136 17.2926
# 4 14.9011 5.7174 4.0590 32.3233 6.7994 9.9191
# 5 8.7667 0.9738 16.8136 6.7994 34.8391 2.0576
# 6 5.5036 19.0097 17.2926 9.9191 2.0576 31.4370
#
#
#
# Elastic Compliance Matrix: (Units=1/GPa)
#
#
# Indices 1 2 3 4 5 6 
#
# 1 0.015004 -0.005369 -0.001585 -0.006513 -0.001806 0.003665
# 2 -0.005369 0.012230 -0.001220 0.002150 0.001566 -0.006565
# 3 -0.001585 -0.001220 0.014388 0.002786 -0.006621 -0.007345
# 4 -0.006513 0.002150 0.002786 0.038720 -0.006526 -0.013483
# 5 -0.001806 0.001566 -0.006621 -0.006526 0.033413 0.002883
# 6 0.003665 -0.006565 -0.007345 -0.013483 0.002883 0.043243
#
#
# Mechanical properties :
#
#
# Convention : Reuss Voigt Hill
#
# Bulk Modulus (GPa) = 39.56745 49.84599 44.70672
# Shear Modulus (GPa) = 27.50717 33.63776 30.57246
#
# Velocity S-wave (km/s) = 3.58134 3.96037 3.77561
# Velocity P-wave (km/s) = 5.96245 6.64491 6.31291
#
# Compressibility (1/GPa) = 0.02527330
#
# Stress axis : x y z
#
# Youngs Moduli (GPa) = 66.64881 81.76846 69.50222
#
# Poissons Ratio (x) = 0.43902 0.11014
# Poissons Ratio (y) = 0.35784 0.08482
# Poissons Ratio (z) = 0.10562 0.09979
#
# Static dielectric constant tensor:
#      x y z
#    x 3.917990 0.043950 0.035120 
#    y 0.043950 3.802430 0.011850 
#    z 0.035120 0.011850 3.811730 
# 
# 
# High freq. dielectric constant tensor:
#      x y z
#    x 1.844110 0.003450 0.009780 
#    y 0.003450 1.843700 0.005440 
#    z 0.009780 0.005440 1.843720 
# 
# From -- ./inp_files/418736.got.cif
#   From: 2010.06.25/outbox.cif.g09.slc.cpg/sg2_210_cif.got.tgz:418736.got - 2010.06.27 13:26:56.
