data_PCOD8026057
_publ_section_title
;
Structure prediction by ZEFSAII (Michael W. Deem and Ramdas Pophale) SiO2 
 PCOD8026057
Probable space group: P -1
;
_chemical_formula_sum "Si O2"
_cell_formula_units_Z 14
_cell_length_a 11.935379
_cell_length_b 8.936894
_cell_length_c 10.883529
_cell_angle_alpha 42.474435
_cell_angle_beta 59.916473
_cell_angle_gamma 51.301192
_cell_volume 610.020383
_symmetry_space_group_name_H-M "P -1"
_symmetry_group_IT_number 2
_symmetry_cell_setting 'triclinic'
loop_
_space_group_symop_operation_xyz
x,y,z
-x,-y,-z
loop_
_atom_site_type_symbol
_atom_site_label
_atom_site_fract_x
_atom_site_fract_y
_atom_site_fract_z
Si Si1 0.759706 0.541185 0.127288
Si Si2 0.839082 0.673269 0.440055
Si Si3 0.694290 0.240977 0.140505
Si Si4 0.374474 0.498967 0.231032
Si Si5 0.085820 0.689641 0.582460
Si Si6 0.460613 0.701916 0.295571
Si Si7 0.173894 0.094890 0.261012
O O1 0.744582 0.411581 0.090057
O O2 0.848140 0.333266 0.303361
O O3 0.602220 0.722933 0.157856
O O4 0.848887 0.698776 0.954231
O O5 0.723401 0.643784 0.609258
O O6 0.832408 0.572553 0.368637
O O7 0.000000 0.500000 0.500000
O O8 0.804967 0.957857 0.275831
O O9 0.532697 0.291031 0.235298
O O10 0.696708 0.303598 0.958135
O O11 0.380034 0.643712 0.262122
O O12 0.913275 0.777607 0.642472
O O13 0.113573 0.899813 0.367890
O O14 0.500000 0.500000 0.500000
O O15 0.347245 0.954476 0.270269
#
# Coordination Sequence:
#
# PCOD8026057 Si02
#       7
#     2   2   2   2   2   2   2
#     4  11  24  44  72 101 127 178 227 276 338 393
#     4  12  27  44  70  99 139 183 223 278 341 402
#     4  10  26  45  71  99 137 177 227 280 337 405
#     4  10  23  48  67 100 136 179 226 278 342 395
#     4  11  26  44  67 100 134 179 222 275 335 397
#     4  11  21  43  71 104 132 171 227 284 334 397
#     4  11  24  43  68  96 142 169 224 277 336 397
#
# _framework density 22.950054999999999
#
# number of rings (size 3 to 8) (size 9 to 14) (size 15 to 20)
#    0.000    1.143    2.857    1.286    8.000    0.571 
#   10.286    0.000    0.000    0.000    0.000    0.000 
#    0.000    0.000    0.000    0.000    0.000    0.000 
#
# Total GULP energy -173551.939101 kJ/mol
# GULP energy per Si atom -12396.567079 kJ/mol
# Density = 2.289782 g / cm^3
# Si number density = 22.950055 Si / 1000 Ang^3
#
#
#
# Elastic Constant Matrix: (Units=GPa)
#
#
# Indices 1 2 3 4 5 6 
#
# 1 89.2334 31.6284 61.8946 4.8250 11.5501 0.7698
# 2 31.6284 132.6142 64.6070 -0.7829 -2.3773 -21.5519
# 3 61.8946 64.6070 145.6411 4.9461 -6.1793 -7.6414
# 4 4.8250 -0.7829 4.9461 37.0520 -5.7378 6.8449
# 5 11.5501 -2.3773 -6.1793 -5.7378 40.5960 4.8131
# 6 0.7698 -21.5519 -7.6414 6.8449 4.8131 30.7513
#
#
#
# Elastic Compliance Matrix: (Units=1/GPa)
#
#
# Indices 1 2 3 4 5 6 
#
# 1 0.017555 -0.001007 -0.007291 -0.002023 -0.006268 -0.001526
# 2 -0.001007 0.010838 -0.004032 -0.000446 -0.000563 0.006807
# 3 -0.007291 -0.004032 0.011900 -0.000114 0.003661 -0.000234
# 4 -0.002023 -0.000446 -0.000114 0.029562 0.005629 -0.007752
# 5 -0.006268 -0.000563 0.003661 0.005629 0.028331 -0.005015
# 6 -0.001526 0.006807 -0.000234 -0.007752 -0.005015 0.039780
#
#
# Mechanical properties :
#
#
# Convention : Reuss Voigt Hill
#
# Bulk Modulus (GPa) = 63.96296 75.97208 69.96752
# Shear Modulus (GPa) = 29.79088 35.63711 32.71400
#
# Velocity S-wave (km/s) = 3.60679 3.94485 3.77960
# Velocity P-wave (km/s) = 6.72876 7.34331 7.04274
#
# Compressibility (1/GPa) = 0.01563405
#
# Stress axis : x y z
#
# Youngs Moduli (GPa) = 56.96530 92.26401 84.03298
#
# Poissons Ratio (x) = 0.09291 0.61268
# Poissons Ratio (y) = 0.05736 0.33879
# Poissons Ratio (z) = 0.41533 0.37197
#
# Static dielectric constant tensor:
#      x y z
#    x 4.029050 -0.235500 -0.042200 
#    y -0.235500 4.531130 0.265370 
#    z -0.042200 0.265370 4.090500 
# 
# 
# High freq. dielectric constant tensor:
#      x y z
#    x 1.889590 -0.023260 -0.002250 
#    y -0.023260 1.919260 0.010420 
#    z -0.002250 0.010420 1.912820 
# 
# From -- ./inp_files/258735.got.cif
#   From: 2010.06.25/outbox.cif.g09.slc.cpg/sg2_130_cif.got.tgz:258735.got - 2010.06.27 13:26:56.
