data_PCOD8026315
_publ_section_title
;
Structure prediction by ZEFSAII (Michael W. Deem and Ramdas Pophale) SiO2 
 PCOD8026315
Probable space group: P -1
;
_chemical_formula_sum "Si O2"
_cell_formula_units_Z 12
_cell_length_a 5.133335
_cell_length_b 15.413721
_cell_length_c 6.228179
_cell_angle_alpha 93.920772
_cell_angle_beta 87.797561
_cell_angle_gamma 94.552262
_cell_volume 489.822884
_symmetry_space_group_name_H-M "P -1"
_symmetry_group_IT_number 2
_symmetry_cell_setting 'triclinic'
loop_
_space_group_symop_operation_xyz
x,y,z
-x,-y,-z
loop_
_atom_site_type_symbol
_atom_site_label
_atom_site_fract_x
_atom_site_fract_y
_atom_site_fract_z
Si Si1 0.708745 0.031759 0.325909
Si Si2 0.672795 0.178584 0.048799
Si Si3 0.670206 0.705974 0.177308
Si Si4 0.971941 0.871957 0.327099
Si Si5 0.483665 0.601515 0.545349
Si Si6 0.990302 0.667769 0.792797
O O1 0.571431 0.091806 0.167707
O O2 0.951206 0.089684 0.436227
O O3 0.500000 0.000000 0.500000
O O4 0.817890 0.943698 0.209512
O O5 0.902752 0.230097 0.191463
O O6 0.459615 0.246941 0.013896
O O7 0.768203 0.145330 0.812553
O O8 0.799253 0.780689 0.343383
O O9 0.463350 0.645477 0.315784
O O10 0.883828 0.648824 0.039555
O O11 0.500000 0.500000 0.500000
O O12 0.755581 0.645664 0.633090
O O13 0.234143 0.613131 0.706518
#
# Coordination Sequence:
#
# PCOD8026315 Si02
#       6
#     2   2   2   2   2   2
#     4  11  24  40  65  98 141 185 241 295 348 417
#     4  11  24  44  68 102 140 189 238 293 352 423
#     4  11  26  46  75 103 146 190 242 295 361 426
#     4  10  24  41  65  97 139 192 235 293 353 418
#     4  12  28  49  77 110 145 187 237 296 365 436
#     4  11  26  48  75 108 146 189 237 294 360 432
#
# _framework density 24.498653000000001
#
# number of rings (size 3 to 8) (size 9 to 14) (size 15 to 20)
#    0.000    1.000    1.667    3.000    9.333    9.333 
#    0.000    0.000    0.000    0.000    0.000    0.000 
#    0.000    0.000    0.000    0.000    0.000    0.000 
#
# Total GULP energy -148704.080133 kJ/mol
# GULP energy per Si atom -12392.006678 kJ/mol
# Density = 2.444289 g / cm^3
# Si number density = 24.498653 Si / 1000 Ang^3
#
#
#
# Elastic Constant Matrix: (Units=GPa)
#
#
# Indices 1 2 3 4 5 6 
#
# 1 109.2751 32.3233 27.3386 4.5151 -15.5335 -7.7999
# 2 32.3233 129.4500 66.2844 -11.1292 -17.8560 -13.9221
# 3 27.3386 66.2844 66.5206 8.0183 -18.3167 -7.1255
# 4 4.5151 -11.1292 8.0183 37.5894 -8.9825 -7.7408
# 5 -15.5335 -17.8560 -18.3167 -8.9825 38.3957 7.8329
# 6 -7.7999 -13.9221 -7.1255 -7.7408 7.8329 31.9114
#
#
#
# Elastic Compliance Matrix: (Units=1/GPa)
#
#
# Indices 1 2 3 4 5 6 
#
# 1 0.010482 -0.000791 -0.002756 -0.000146 0.002320 0.000996
# 2 -0.000791 0.020176 -0.020273 0.011985 0.000810 0.006790
# 3 -0.002756 -0.020273 0.039082 -0.013719 0.006034 -0.005601
# 4 -0.000146 0.011985 -0.013719 0.036393 0.005525 0.009601
# 5 0.002320 0.000810 0.006034 0.005525 0.032418 -0.004349
# 6 0.000996 0.006790 -0.005601 0.009601 -0.004349 0.036689
#
#
# Mechanical properties :
#
#
# Convention : Reuss Voigt Hill
#
# Bulk Modulus (GPa) = 45.25186 61.90426 53.57806
# Shear Modulus (GPa) = 21.71582 33.53260 27.62421
#
# Velocity S-wave (km/s) = 2.98049 3.70368 3.36159
# Velocity P-wave (km/s) = 5.50960 6.60401 6.08147
#
# Compressibility (1/GPa) = 0.02209854
#
# Stress axis : x y z
#
# Youngs Moduli (GPa) = 95.40347 49.56448 25.58723
#
# Poissons Ratio (x) = 0.03922 0.07052
# Poissons Ratio (y) = 0.07550 0.51873
# Poissons Ratio (z) = 0.26293 1.00483
#
# Static dielectric constant tensor:
#      x y z
#    x 4.660570 -0.130450 -0.138140 
#    y -0.130450 4.584040 0.360770 
#    z -0.138140 0.360770 4.358250 
# 
# 
# High freq. dielectric constant tensor:
#      x y z
#    x 1.975070 0.006020 -0.008520 
#    y 0.006020 1.966760 0.020300 
#    z -0.008520 0.020300 1.969520 
# 
# From -- ./inp_files/3170.got.cif
#   From: 2010.06.25/outbox.cif.g09.slc.cpg/sg2_2_cif.got.tgz:3170.got - 2010.06.27 13:26:56.
