data_PCOD8026274
_publ_section_title
;
Structure prediction by ZEFSAII (Michael W. Deem and Ramdas Pophale) SiO2 
 PCOD8026274
Probable space group: P -1
;
_chemical_formula_sum "Si O2"
_cell_formula_units_Z 16
_cell_length_a 14.361779
_cell_length_b 9.628367
_cell_length_c 13.469248
_cell_angle_alpha 33.897204
_cell_angle_beta 130.389563
_cell_angle_gamma 130.473140
_cell_volume 763.554325
_symmetry_space_group_name_H-M "P -1"
_symmetry_group_IT_number 2
_symmetry_cell_setting 'triclinic'
loop_
_space_group_symop_operation_xyz
x,y,z
-x,-y,-z
loop_
_atom_site_type_symbol
_atom_site_label
_atom_site_fract_x
_atom_site_fract_y
_atom_site_fract_z
Si Si1 0.742387 0.938323 0.450376
Si Si2 0.745361 0.036670 0.783169
Si Si3 0.876926 0.903118 0.767654
Si Si4 0.522873 0.119550 0.256874
Si Si5 0.860155 0.901802 0.250275
Si Si6 0.338724 0.351772 0.890166
Si Si7 0.859752 0.579019 0.628482
Si Si8 0.871795 0.334894 0.147066
O O1 0.821951 0.956741 0.593792
O O2 0.752251 0.690517 0.540678
O O3 0.595235 0.914210 0.388378
O O4 0.794857 0.201302 0.268758
O O5 0.806295 0.278151 0.751733
O O6 0.820536 0.055335 0.721881
O O7 0.595865 0.024211 0.669525
O O8 0.753363 0.782982 0.002344
O O9 0.028377 0.018718 0.801298
O O10 0.837098 0.600981 0.944851
O O11 0.624076 0.338843 0.258807
O O12 0.467246 0.251883 0.046764
O O13 0.834299 0.158729 0.127634
O O14 0.731262 0.732112 0.212415
O O15 0.902350 0.730351 0.465816
O O16 0.978860 0.625719 0.756255
#
# Coordination Sequence:
#
# PCOD8026274 Si02
#       8
#     2   2   2   2   2   2   2   2
#     4  11  23  43  69  93 134 174 214 260 332 377
#     4  10  24  41  61  99 126 167 224 258 320 382
#     4  12  24  38  72 100 123 180 211 263 336 382
#     4   9  22  45  65  87 137 172 213 275 308 379
#     4  11  22  41  66  99 128 168 217 265 332 383
#     4   9  21  43  68  87 132 171 212 272 322 367
#     4  11  23  43  63  98 138 166 209 277 322 387
#     4  11  23  43  66  98 135 165 214 273 321 395
#
# _framework density 20.954630999999999
#
# number of rings (size 3 to 8) (size 9 to 14) (size 15 to 20)
#    0.750    0.750    2.500    2.625    3.500    4.500 
#    0.000    2.500    0.000    0.000    0.000    0.000 
#    0.000    0.000    0.000    0.000    0.000    0.000 
#
# Total GULP energy -198376.007081 kJ/mol
# GULP energy per Si atom -12398.500443 kJ/mol
# Density = 2.090694 g / cm^3
# Si number density = 20.954631 Si / 1000 Ang^3
#
#
#
# Elastic Constant Matrix: (Units=GPa)
#
#
# Indices 1 2 3 4 5 6 
#
# 1 105.6363 52.0321 29.8886 8.0781 14.4156 -14.6774
# 2 52.0321 115.9181 13.0930 12.3500 -2.5523 -6.1186
# 3 29.8886 13.0930 40.7898 11.5803 5.1672 -5.7663
# 4 8.0781 12.3500 11.5803 24.9982 -2.2139 -0.8697
# 5 14.4156 -2.5523 5.1672 -2.2139 23.5027 0.8378
# 6 -14.6774 -6.1186 -5.7663 -0.8697 0.8378 22.4892
#
#
#
# Elastic Compliance Matrix: (Units=1/GPa)
#
#
# Indices 1 2 3 4 5 6 
#
# 1 0.017653 -0.006864 -0.008695 0.001116 -0.009835 0.007834
# 2 -0.006864 0.012009 0.001547 -0.004044 0.004834 -0.001152
# 3 -0.008695 0.001547 0.035508 -0.014621 -0.003805 0.003427
# 4 0.001116 -0.004044 -0.014621 0.048928 0.006788 -0.002481
# 5 -0.009835 0.004834 -0.003805 0.006788 0.050857 -0.007711
# 6 0.007834 -0.001152 0.003427 -0.002481 -0.007711 0.050335
#
#
# Mechanical properties :
#
#
# Convention : Reuss Voigt Hill
#
# Bulk Modulus (GPa) = 26.92017 50.26351 38.59184
# Shear Modulus (GPa) = 19.55452 25.35337 22.45395
#
# Velocity S-wave (km/s) = 3.05812 3.48216 3.27701
# Velocity P-wave (km/s) = 5.03431 6.34083 5.72496
#
# Compressibility (1/GPa) = 0.03714686
#
# Stress axis : x y z
#
# Youngs Moduli (GPa) = 56.64878 83.26870 28.16251
#
# Poissons Ratio (x) = 0.57152 0.24488
# Poissons Ratio (y) = 0.38881 -0.04358
# Poissons Ratio (z) = 0.49258 -0.12884
#
# Static dielectric constant tensor:
#      x y z
#    x 3.716030 0.034800 -0.003260 
#    y 0.034800 3.692210 -0.060550 
#    z -0.003260 -0.060550 3.661810 
# 
# 
# High freq. dielectric constant tensor:
#      x y z
#    x 1.809710 -0.001250 -0.001810 
#    y -0.001250 1.817000 -0.003640 
#    z -0.001810 -0.003640 1.816880 
# 
# From -- ./inp_files/402317.got.cif
#   From: 2010.06.25/outbox.cif.g09.slc.cpg/sg2_202_cif.got.tgz:402317.got - 2010.06.27 13:26:56.
