data_PCOD8026148
_publ_section_title
;
Structure prediction by ZEFSAII (Michael W. Deem and Ramdas Pophale) SiO2 
 PCOD8026148
Probable space group: P -1
;
_chemical_formula_sum "Si O2"
_cell_formula_units_Z 16
_cell_length_a 19.049993
_cell_length_b 9.435724
_cell_length_c 8.078526
_cell_angle_alpha 122.842940
_cell_angle_beta 77.219121
_cell_angle_gamma 142.527081
_cell_volume 677.226625
_symmetry_space_group_name_H-M "P -1"
_symmetry_group_IT_number 2
_symmetry_cell_setting 'triclinic'
loop_
_space_group_symop_operation_xyz
x,y,z
-x,-y,-z
loop_
_atom_site_type_symbol
_atom_site_label
_atom_site_fract_x
_atom_site_fract_y
_atom_site_fract_z
Si Si1 0.622550 0.212517 0.857308
Si Si2 0.218007 0.766173 0.374015
Si Si3 0.465214 0.414037 0.774876
Si Si4 0.115047 0.079791 0.172602
Si Si5 0.141758 0.943418 0.387739
Si Si6 0.396938 0.647925 0.342874
Si Si7 0.984560 0.170716 0.281919
Si Si8 0.597927 0.395191 0.272968
O O1 0.733466 0.303625 0.795061
O O2 0.628377 0.400969 0.874450
O O3 0.488183 0.845770 0.682376
O O4 0.638445 0.303523 0.094620
O O5 0.151267 0.759132 0.269473
O O6 0.117543 0.520772 0.409817
O O7 0.322732 0.073093 0.613546
O O8 0.557579 0.446951 0.676055
O O9 0.485840 0.629087 0.800639
O O10 0.500000 0.500000 0.000000
O O11 0.258640 0.423847 0.349887
O O12 0.011018 0.025088 0.204670
O O13 0.072922 0.868945 0.207648
O O14 0.102265 0.970003 0.926888
O O15 0.080762 0.886506 0.555483
O O16 0.281798 0.286999 0.512721
O O17 0.500000 0.000000 0.500000
#
# Coordination Sequence:
#
# PCOD8026148 Si02
#       8
#     2   2   2   2   2   2   2   2
#     4  11  21  41  61  94 136 179 220 274 348 401
#     4  11  25  43  68  96 139 183 221 289 342 408
#     4  11  23  39  65  99 136 174 226 280 345 407
#     4  11  25  42  74 100 129 190 225 286 342 402
#     4  11  25  44  68 104 135 176 237 281 339 409
#     4  12  21  39  66  97 132 174 227 273 344 411
#     4  11  24  48  69  97 140 180 235 280 340 402
#     4  10  24  39  64  99 139 176 220 291 338 407
#
# _framework density 23.625769999999999
#
# number of rings (size 3 to 8) (size 9 to 14) (size 15 to 20)
#    0.000    1.000    3.750    2.250    5.250    1.500 
#    0.000    0.000    0.000    0.000    0.000    0.000 
#    0.000    0.000    0.000    0.000    0.000    0.000 
#
# Total GULP energy -198246.029544 kJ/mol
# GULP energy per Si atom -12390.376847 kJ/mol
# Density = 2.357200 g / cm^3
# Si number density = 23.625770 Si / 1000 Ang^3
#
#
#
# Elastic Constant Matrix: (Units=GPa)
#
#
# Indices 1 2 3 4 5 6 
#
# 1 141.8134 63.0432 38.6510 -20.0844 2.4097 -18.3064
# 2 63.0432 126.3126 28.0534 -20.9152 10.6024 -15.9694
# 3 38.6510 28.0534 69.8415 -17.7003 2.3452 -3.0378
# 4 -20.0844 -20.9152 -17.7003 38.6362 -4.7674 7.8051
# 5 2.4097 10.6024 2.3452 -4.7674 24.2025 -1.1024
# 6 -18.3064 -15.9694 -3.0378 7.8051 -1.1024 36.0675
#
#
#
# Elastic Compliance Matrix: (Units=1/GPa)
#
#
# Indices 1 2 3 4 5 6 
#
# 1 0.010326 -0.003863 -0.003800 0.001097 0.001386 0.003015
# 2 -0.003863 0.011183 -0.001513 0.002437 -0.003787 0.002220
# 3 -0.003800 -0.001513 0.018484 0.006198 0.000363 -0.002372
# 4 0.001097 0.002437 0.006198 0.032086 0.004331 -0.004653
# 5 0.001386 -0.003787 0.000363 0.004331 0.043632 -0.000546
# 6 0.003015 0.002220 -0.002372 -0.004653 -0.000546 0.031030
#
#
# Mechanical properties :
#
#
# Convention : Reuss Voigt Hill
#
# Bulk Modulus (GPa) = 46.20797 66.38476 56.29637
# Shear Modulus (GPa) = 29.01831 33.66259 31.34045
#
# Velocity S-wave (km/s) = 3.50844 3.77878 3.64612
# Velocity P-wave (km/s) = 6.00108 6.87011 6.45024
#
# Compressibility (1/GPa) = 0.02164129
#
# Stress axis : x y z
#
# Youngs Moduli (GPa) = 96.84681 89.42214 54.10078
#
# Poissons Ratio (x) = 0.34544 0.20558
# Poissons Ratio (y) = 0.37412 0.08184
# Poissons Ratio (z) = 0.36801 0.13527
#
# Static dielectric constant tensor:
#      x y z
#    x 4.791800 -0.499470 0.203010 
#    y -0.499470 4.677850 -0.100010 
#    z 0.203010 -0.100010 4.236490 
# 
# 
# High freq. dielectric constant tensor:
#      x y z
#    x 1.940440 -0.014310 0.005740 
#    y -0.014310 1.950170 -0.008470 
#    z 0.005740 -0.008470 1.931970 
# 
# From -- ./inp_files/329433.got.cif
#   From: 2010.06.25/outbox.cif.g09.slc.cpg/sg2_165_cif.got.tgz:329433.got - 2010.06.27 13:26:56.
