data_PCOD8026332
_publ_section_title
;
Structure prediction by ZEFSAII (Michael W. Deem and Ramdas Pophale) SiO2 
 PCOD8026332
Probable space group: P -1
;
_chemical_formula_sum "Si O2"
_cell_formula_units_Z 16
_cell_length_a 12.638690
_cell_length_b 8.992502
_cell_length_c 8.988896
_cell_angle_alpha 107.634007
_cell_angle_beta 130.890783
_cell_angle_gamma 77.635093
_cell_volume 735.834503
_symmetry_space_group_name_H-M "P -1"
_symmetry_group_IT_number 2
_symmetry_cell_setting 'triclinic'
loop_
_space_group_symop_operation_xyz
x,y,z
-x,-y,-z
loop_
_atom_site_type_symbol
_atom_site_label
_atom_site_fract_x
_atom_site_fract_y
_atom_site_fract_z
Si Si1 0.005746 0.163343 0.974940
Si Si2 0.322974 0.206205 0.242629
Si Si3 0.745579 0.220838 0.556580
Si Si4 0.399391 0.308945 0.653495
Si Si5 0.476970 0.016784 0.809108
Si Si6 0.098163 0.578427 0.820536
Si Si7 0.641917 0.471844 0.769828
Si Si8 0.176100 0.569471 0.569956
O O1 0.157226 0.203398 0.061923
O O2 0.965378 0.281123 0.102703
O O3 0.899424 0.172600 0.741553
O O4 0.000000 0.000000 0.000000
O O5 0.356990 0.194260 0.445181
O O6 0.388670 0.058061 0.173198
O O7 0.391613 0.368720 0.301734
O O8 0.661876 0.065304 0.401739
O O9 0.665894 0.327779 0.636498
O O10 0.748518 0.310205 0.430202
O O11 0.516329 0.432533 0.752930
O O12 0.262729 0.405919 0.610928
O O13 0.460170 0.199970 0.808938
O O14 0.500000 0.000000 0.000000
O O15 0.160711 0.642196 0.742229
O O16 0.978180 0.454932 0.644917
O O17 0.220347 0.491930 0.998295
#
# Coordination Sequence:
#
# PCOD8026332 Si02
#       8
#     2   2   2   2   2   2   2   2
#     4  11  24  42  72 101 134 182 223 268 334 405
#     4  12  23  45  70 101 135 173 229 274 329 399
#     4  11  23  45  68  99 132 173 228 274 331 399
#     4  12  24  43  69  98 132 181 222 270 338 398
#     4  12  30  45  65  99 141 175 220 279 342 401
#     4  10  24  41  67 100 137 170 227 270 338 382
#     4  11  23  41  72  99 128 178 227 276 324 398
#     4  11  23  43  70  98 136 174 221 288 329 387
#
# _framework density 21.744021
#
# number of rings (size 3 to 8) (size 9 to 14) (size 15 to 20)
#    0.000    0.750    3.750    3.000    7.000    2.500 
#    0.000    1.250    0.000    0.000    0.000    0.000 
#    0.000    0.000    0.000    0.000    0.000    0.000 
#
# Total GULP energy -198489.494629 kJ/mol
# GULP energy per Si atom -12405.593414 kJ/mol
# Density = 2.169453 g / cm^3
# Si number density = 21.744021 Si / 1000 Ang^3
#
#
#
# Elastic Constant Matrix: (Units=GPa)
#
#
# Indices 1 2 3 4 5 6 
#
# 1 115.0797 21.5431 52.0938 -5.4083 4.1312 -2.1240
# 2 21.5431 77.8088 32.9773 -19.3206 2.9938 14.2950
# 3 52.0938 32.9773 103.2416 -15.5429 3.3391 -2.9936
# 4 -5.4083 -19.3206 -15.5429 32.6527 2.1199 0.6420
# 5 4.1312 2.9938 3.3391 2.1199 32.3491 -4.6804
# 6 -2.1240 14.2950 -2.9936 0.6420 -4.6804 36.5431
#
#
#
# Elastic Compliance Matrix: (Units=1/GPa)
#
#
# Indices 1 2 3 4 5 6 
#
# 1 0.011393 -0.001279 -0.005525 -0.001475 -0.000574 0.000662
# 2 -0.001279 0.018944 -0.004139 0.009386 -0.002989 -0.008372
# 3 -0.005525 -0.004139 0.014395 0.003459 -0.000280 0.002381
# 4 -0.001475 0.009386 0.003459 0.037946 -0.004201 -0.004679
# 5 -0.000574 -0.002989 -0.000280 -0.004201 0.032338 0.005329
# 6 0.000662 -0.008372 0.002381 -0.004679 0.005329 0.031638
#
#
# Mechanical properties :
#
#
# Convention : Reuss Voigt Hill
#
# Bulk Modulus (GPa) = 43.76934 56.59539 50.18237
# Shear Modulus (GPa) = 28.38423 32.94337 30.66380
#
# Velocity S-wave (km/s) = 3.61693 3.89659 3.75936
# Velocity P-wave (km/s) = 6.13318 6.80655 6.47862
#
# Compressibility (1/GPa) = 0.02284704
#
# Stress axis : x y z
#
# Youngs Moduli (GPa) = 87.76964 52.78753 69.47076
#
# Poissons Ratio (x) = 0.06751 0.38381
# Poissons Ratio (y) = 0.11225 0.28752
# Poissons Ratio (z) = 0.48490 0.21847
#
# Static dielectric constant tensor:
#      x y z
#    x 4.056080 -0.022240 0.097630 
#    y -0.022240 3.677780 -0.146580 
#    z 0.097630 -0.146580 4.105750 
# 
# 
# High freq. dielectric constant tensor:
#      x y z
#    x 1.863430 0.002220 0.009270 
#    y 0.002220 1.843130 -0.010530 
#    z 0.009270 -0.010530 1.869980 
# 
# From -- ./inp_files/188657.got.cif
#   From: 2010.06.25/outbox.cif.g09.slc.cpg/sg2_95_cif.got.tgz:188657.got - 2010.06.27 13:26:56.
