data_PCOD8026607
_publ_section_title
;
Structure prediction by ZEFSAII (Michael W. Deem and Ramdas Pophale) SiO2 
 PCOD8026607
Probable space group: P -1
;
_chemical_formula_sum "Si O2"
_cell_formula_units_Z 12
_cell_length_a 5.119849
_cell_length_b 11.250623
_cell_length_c 9.244743
_cell_angle_alpha 80.728423
_cell_angle_beta 93.953862
_cell_angle_gamma 88.669614
_cell_volume 523.984512
_symmetry_space_group_name_H-M "P -1"
_symmetry_group_IT_number 2
_symmetry_cell_setting 'triclinic'
loop_
_space_group_symop_operation_xyz
x,y,z
-x,-y,-z
loop_
_atom_site_type_symbol
_atom_site_label
_atom_site_fract_x
_atom_site_fract_y
_atom_site_fract_z
Si Si1 0.861989 0.258101 0.374842
Si Si2 0.742798 0.942096 0.939642
Si Si3 0.347406 0.273145 0.842463
Si Si4 0.622693 0.897690 0.628189
Si Si5 0.836524 0.311688 0.685901
Si Si6 0.069822 0.503263 0.835494
O O1 0.616234 0.185795 0.323585
O O2 0.778201 0.319834 0.511969
O O3 0.893771 0.360436 0.236406
O O4 0.128424 0.175962 0.417351
O O5 0.728820 0.961270 0.763700
O O6 0.715319 0.799543 0.999494
O O7 0.500000 0.000000 0.000000
O O8 0.000000 0.000000 0.000000
O O9 0.617502 0.237845 0.778433
O O10 0.333233 0.417083 0.847121
O O11 0.112999 0.239200 0.730261
O O12 0.500000 0.000000 0.500000
O O13 0.850340 0.444947 0.733512
O O14 0.000000 0.500000 0.000000
#
# Coordination Sequence:
#
# PCOD8026607 Si02
#       6
#     2   2   2   2   2   2
#     4  12  26  47  72 103 146 186 236 290 358 424
#     4  12  27  47  76 102 141 187 242 291 355 421
#     4  10  24  42  71 103 140 180 241 281 360 408
#     4  12  30  47  73 105 144 187 241 295 355 417
#     4  10  24  42  71 100 143 184 231 279 361 413
#     4  10  25  42  74 103 145 181 235 292 352 421
#
# _framework density 22.901440999999998
#
# number of rings (size 3 to 8) (size 9 to 14) (size 15 to 20)
#    1.000    0.000    0.000    5.000   11.667    1.333 
#    0.000    0.000    0.000    0.000    0.000    0.000 
#    0.000    0.000    0.000    0.000    0.000    0.000 
#
# Total GULP energy -148704.781524 kJ/mol
# GULP energy per Si atom -12392.065127 kJ/mol
# Density = 2.284932 g / cm^3
# Si number density = 22.901441 Si / 1000 Ang^3
#
#
#
# Elastic Constant Matrix: (Units=GPa)
#
#
# Indices 1 2 3 4 5 6 
#
# 1 162.8603 49.7246 38.5689 7.4656 -2.7424 14.6117
# 2 49.7246 106.3668 64.9513 -0.0267 2.6126 5.8943
# 3 38.5689 64.9513 164.9566 14.5686 -7.4874 12.4346
# 4 7.4656 -0.0267 14.5686 40.8921 -0.0319 -3.1003
# 5 -2.7424 2.6126 -7.4874 -0.0319 35.8060 0.7095
# 6 14.6117 5.8943 12.4346 -3.1003 0.7095 37.2246
#
#
#
# Elastic Compliance Matrix: (Units=1/GPa)
#
#
# Indices 1 2 3 4 5 6 
#
# 1 0.007488 -0.003338 -0.000072 -0.001535 0.000851 -0.002531
# 2 -0.003338 0.014138 -0.005201 0.002550 -0.002394 0.001067
# 3 -0.000072 -0.005201 0.008695 -0.003266 0.002236 -0.002368
# 4 -0.001535 0.002550 -0.003266 0.026164 -0.001032 0.003488
# 5 0.000851 -0.002394 0.002236 -0.001032 0.028661 -0.001334
# 6 -0.002531 0.001067 -0.002368 0.003488 -0.001334 0.028795
#
#
# Mechanical properties :
#
#
# Convention : Reuss Voigt Hill
#
# Bulk Modulus (GPa) = 76.33083 82.29703 79.31393
# Shear Modulus (GPa) = 36.89265 41.51379 39.20322
#
# Velocity S-wave (km/s) = 4.01800 4.26222 4.14191
# Velocity P-wave (km/s) = 7.41136 7.76114 7.58827
#
# Compressibility (1/GPa) = 0.01310087
#
# Stress axis : x y z
#
# Youngs Moduli (GPa) = 133.54583 70.73218 115.00763
#
# Poissons Ratio (x) = 0.23610 0.00823
# Poissons Ratio (y) = 0.44576 0.59811
# Poissons Ratio (z) = 0.00955 0.36785
#
# Static dielectric constant tensor:
#      x y z
#    x 4.221620 0.198430 -0.236290 
#    y 0.198430 4.676970 -0.982700 
#    z -0.236290 -0.982700 5.649410 
# 
# 
# High freq. dielectric constant tensor:
#      x y z
#    x 1.911960 0.002690 -0.002950 
#    y 0.002690 1.900500 -0.000460 
#    z -0.002950 -0.000460 1.907850 
# 
# From -- ./inp_files/44281.got.cif
#   From: 2010.06.25/outbox.cif.g09.slc.cpg/sg2_23_cif.got.tgz:44281.got - 2010.06.27 13:26:56.
