data_PCOD8026806
_publ_section_title
;
Structure prediction by ZEFSAII (Michael W. Deem and Ramdas Pophale) SiO2 
 PCOD8026806
Probable space group: P -1
;
_chemical_formula_sum "Si O2"
_cell_formula_units_Z 16
_cell_length_a 9.701074
_cell_length_b 9.740926
_cell_length_c 11.087012
_cell_angle_alpha 83.415317
_cell_angle_beta 96.778178
_cell_angle_gamma 46.362177
_cell_volume 724.354669
_symmetry_space_group_name_H-M "P -1"
_symmetry_group_IT_number 2
_symmetry_cell_setting 'triclinic'
loop_
_space_group_symop_operation_xyz
x,y,z
-x,-y,-z
loop_
_atom_site_type_symbol
_atom_site_label
_atom_site_fract_x
_atom_site_fract_y
_atom_site_fract_z
Si Si1 0.246513 0.373690 0.854375
Si Si2 0.606515 0.221823 0.773159
Si Si3 0.232016 0.588986 0.232608
Si Si4 0.812793 0.862623 0.245970
Si Si5 0.633195 0.535715 0.486040
Si Si6 0.629998 0.755715 0.864056
Si Si7 0.033484 0.141072 0.488177
Si Si8 0.138581 0.181142 0.245898
O O1 0.458943 0.291380 0.859513
O O2 0.191297 0.301489 0.752328
O O3 0.081515 0.609498 0.823915
O O4 0.265432 0.282381 0.994160
O O5 0.659328 0.343639 0.776912
O O6 0.494353 0.268218 0.628443
O O7 0.802199 0.986929 0.821004
O O8 0.293213 0.463564 0.375564
O O9 0.299165 0.447975 0.142722
O O10 0.996010 0.785357 0.190642
O O11 0.842147 0.893513 0.381855
O O12 0.605953 0.073087 0.159349
O O13 0.500000 0.500000 0.500000
O O14 0.819247 0.363101 0.439922
O O15 0.701979 0.810779 0.762737
O O16 0.155359 0.107233 0.389258
O O17 0.000000 0.000000 0.500000
#
# Coordination Sequence:
#
# PCOD8026806 Si02
#       8
#     2   2   2   2   2   2   2   2
#     4  12  26  48  68 100 142 184 243 286 334 412
#     4  11  24  43  70 103 139 184 229 293 350 404
#     4  10  24  43  68 104 139 178 232 292 348 404
#     4  11  25  44  71 100 140 182 229 287 350 412
#     4   9  19  39  63  94 142 170 213 280 346 404
#     4  12  27  44  74  97 138 192 238 283 338 414
#     4  11  24  42  71 108 142 175 224 292 354 417
#     4  12  25  43  73 101 137 185 233 282 352 411
#
# _framework density 22.088626999999999
#
# number of rings (size 3 to 8) (size 9 to 14) (size 15 to 20)
#    0.000    1.000    3.750    3.000    5.250    3.500 
#    0.000    1.250    0.000    0.000    0.000    0.000 
#    0.000    0.000    0.000    0.000    0.000    0.000 
#
# Total GULP energy -198344.348288 kJ/mol
# GULP energy per Si atom -12396.521768 kJ/mol
# Density = 2.203835 g / cm^3
# Si number density = 22.088627 Si / 1000 Ang^3
#
#
#
# Elastic Constant Matrix: (Units=GPa)
#
#
# Indices 1 2 3 4 5 6 
#
# 1 115.2443 44.1492 48.3850 9.6205 -10.6342 4.3580
# 2 44.1492 134.0556 46.9846 6.9779 -0.2440 -5.3340
# 3 48.3850 46.9846 85.5901 -1.4540 0.4558 6.0068
# 4 9.6205 6.9779 -1.4540 22.3795 -1.1555 0.5503
# 5 -10.6342 -0.2440 0.4558 -1.1555 26.8052 1.5190
# 6 4.3580 -5.3340 6.0068 0.5503 1.5190 42.8995
#
#
#
# Elastic Compliance Matrix: (Units=1/GPa)
#
#
# Indices 1 2 3 4 5 6 
#
# 1 0.012982 -0.001775 -0.006426 -0.005165 0.005063 -0.000753
# 2 -0.001775 0.009885 -0.004614 -0.002711 -0.000773 0.002118
# 3 -0.006426 -0.004614 0.018124 0.005308 -0.002533 -0.002437
# 4 -0.005165 -0.002711 0.005308 0.048122 -0.000023 -0.001172
# 5 0.005063 -0.000773 -0.002533 -0.000023 0.039444 -0.001652
# 6 -0.000753 0.002118 -0.002437 -0.001172 -0.001652 0.024065
#
#
# Mechanical properties :
#
#
# Convention : Reuss Voigt Hill
#
# Bulk Modulus (GPa) = 65.09944 68.21417 66.65680
# Shear Modulus (GPa) = 27.26701 31.44156 29.35429
#
# Velocity S-wave (km/s) = 3.51727 3.77693 3.64941
# Velocity P-wave (km/s) = 6.78460 7.06890 6.92821
#
# Compressibility (1/GPa) = 0.01536112
#
# Stress axis : x y z
#
# Youngs Moduli (GPa) = 77.02850 101.16239 55.17601
#
# Poissons Ratio (x) = 0.17956 0.35459
# Poissons Ratio (y) = 0.13673 0.25456
# Poissons Ratio (z) = 0.49502 0.46672
#
# Static dielectric constant tensor:
#      x y z
#    x 3.947740 -0.234990 -0.025570 
#    y -0.234990 4.123460 0.033920 
#    z -0.025570 0.033920 4.127560 
# 
# 
# High freq. dielectric constant tensor:
#      x y z
#    x 1.868620 -0.018660 -0.007150 
#    y -0.018660 1.881930 0.005150 
#    z -0.007150 0.005150 1.856670 
# 
# From -- ./inp_files/381989.got.cif
#   From: 2010.06.25/outbox.cif.g09.slc.cpg/sg2_191_cif.got.tgz:381989.got - 2010.06.27 13:26:56.
