data_PCOD8026012
_publ_section_title
;
Structure prediction by ZEFSAII (Michael W. Deem and Ramdas Pophale) SiO2 
 PCOD8026012
Probable space group: P -1
;
_chemical_formula_sum "Si O2"
_cell_formula_units_Z 14
_cell_length_a 19.988313
_cell_length_b 11.466682
_cell_length_c 8.083041
_cell_angle_alpha 122.580715
_cell_angle_beta 141.453121
_cell_angle_gamma 31.947109
_cell_volume 565.162184
_symmetry_space_group_name_H-M "P -1"
_symmetry_group_IT_number 2
_symmetry_cell_setting 'triclinic'
loop_
_space_group_symop_operation_xyz
x,y,z
-x,-y,-z
loop_
_atom_site_type_symbol
_atom_site_label
_atom_site_fract_x
_atom_site_fract_y
_atom_site_fract_z
Si Si1 0.656409 0.317127 0.795510
Si Si2 0.531834 0.314404 0.863134
Si Si3 0.257522 0.496034 0.696301
Si Si4 0.121363 0.176094 0.666271
Si Si5 0.906674 0.843364 0.780733
Si Si6 0.236929 0.332852 0.132014
Si Si7 0.356586 0.105148 0.540094
O O1 0.500000 0.500000 0.500000
O O2 0.591861 0.258350 0.746570
O O3 0.845271 0.063098 0.884505
O O4 0.683264 0.436444 0.026275
O O5 0.341567 0.428009 0.618149
O O6 0.500000 0.500000 0.000000
O O7 0.685050 0.087187 0.102392
O O8 0.349795 0.253957 0.752372
O O9 0.036854 0.714601 0.431311
O O10 0.066502 0.183023 0.384070
O O11 0.134843 0.327486 0.813129
O O12 0.743463 0.908548 0.561452
O O13 0.101079 0.607575 0.066473
O O14 0.243787 0.258622 0.271119
O O15 0.438316 0.158825 0.315675
#
# Coordination Sequence:
#
# PCOD8026012 Si02
#       7
#     2   2   2   2   2   2   2
#     4  11  27  50  73 108 146 187 237 301 363 426
#     4  10  23  47  71  98 141 189 234 291 352 423
#     4  11  25  47  75 104 142 194 236 289 360 427
#     4  12  25  46  71 109 146 186 242 295 357 424
#     4  12  26  45  72 108 150 187 239 302 352 428
#     4  11  25  44  71 107 145 187 241 298 357 417
#     4  11  25  46  76 106 143 193 242 294 359 425
#
# _framework density 24.771652
#
# number of rings (size 3 to 8) (size 9 to 14) (size 15 to 20)
#    0.000    0.857    2.857    3.429    4.000    5.714 
#    0.000    0.000    0.000    0.000    0.000    0.000 
#    0.000    0.000    0.000    0.000    0.000    0.000 
#
# Total GULP energy -173580.755076 kJ/mol
# GULP energy per Si atom -12398.625363 kJ/mol
# Density = 2.471527 g / cm^3
# Si number density = 24.771652 Si / 1000 Ang^3
#
#
#
# Elastic Constant Matrix: (Units=GPa)
#
#
# Indices 1 2 3 4 5 6 
#
# 1 89.1070 13.4946 37.5875 -22.3922 12.7468 -16.9357
# 2 13.4946 156.1412 34.5542 -21.5211 -0.0880 -9.9712
# 3 37.5875 34.5542 93.2404 -28.0902 0.4084 -9.2699
# 4 -22.3922 -21.5211 -28.0902 42.3360 -1.5530 3.8077
# 5 12.7468 -0.0880 0.4084 -1.5530 40.8304 -2.2986
# 6 -16.9357 -9.9712 -9.2699 3.8077 -2.2986 33.9619
#
#
#
# Elastic Compliance Matrix: (Units=1/GPa)
#
#
# Indices 1 2 3 4 5 6 
#
# 1 0.016147 0.000720 -0.004598 0.005141 -0.004453 0.006131
# 2 0.000720 0.007253 -0.002042 0.002565 0.000001 0.001643
# 3 -0.004598 -0.002042 0.015434 0.006768 0.001572 0.000668
# 4 0.005141 0.002565 0.006768 0.031981 -0.000363 0.001554
# 5 -0.004453 0.000001 0.001572 -0.000363 0.025852 -0.000001
# 6 0.006131 0.001643 0.000668 0.001554 -0.000001 0.032992
#
#
# Mechanical properties :
#
#
# Convention : Reuss Voigt Hill
#
# Bulk Modulus (GPa) = 37.04721 56.64012 46.84366
# Shear Modulus (GPa) = 33.22321 40.28249 36.75285
#
# Velocity S-wave (km/s) = 3.66618 4.03693 3.85602
# Velocity P-wave (km/s) = 5.73665 6.68159 6.22707
#
# Compressibility (1/GPa) = 0.02699259
#
# Stress axis : x y z
#
# Youngs Moduli (GPa) = 61.93066 137.88194 64.79300
#
# Poissons Ratio (x) = -0.09922 0.29794
# Poissons Ratio (y) = -0.04456 0.13229
# Poissons Ratio (z) = 0.28478 0.28152
#
# Static dielectric constant tensor:
#      x y z
#    x 5.422190 -0.287780 0.443440 
#    y -0.287780 5.064380 0.135040 
#    z 0.443440 0.135040 4.273410 
# 
# 
# High freq. dielectric constant tensor:
#      x y z
#    x 1.983830 -0.010580 0.014890 
#    y -0.010580 2.019380 0.005380 
#    z 0.014890 0.005380 1.972020 
# 
# From -- ./inp_files/346304.got.cif
#   From: 2010.06.25/outbox.cif.g09.slc.cpg/sg2_174_cif.got.tgz:346304.got - 2010.06.27 13:26:56.
