data_PCOD8026802
_publ_section_title
;
Structure prediction by ZEFSAII (Michael W. Deem and Ramdas Pophale) SiO2 
 PCOD8026802
Probable space group: P -1
;
_chemical_formula_sum "Si O2"
_cell_formula_units_Z 16
_cell_length_a 8.750556
_cell_length_b 9.061402
_cell_length_c 14.209444
_cell_angle_alpha 57.650363
_cell_angle_beta 96.506131
_cell_angle_gamma 59.934774
_cell_volume 702.819804
_symmetry_space_group_name_H-M "P -1"
_symmetry_group_IT_number 2
_symmetry_cell_setting 'triclinic'
loop_
_space_group_symop_operation_xyz
x,y,z
-x,-y,-z
loop_
_atom_site_type_symbol
_atom_site_label
_atom_site_fract_x
_atom_site_fract_y
_atom_site_fract_z
Si Si1 0.783479 0.584473 0.922419
Si Si2 0.553270 0.777518 0.030464
Si Si3 0.148121 0.869183 0.966707
Si Si4 0.947405 0.326246 0.698660
Si Si5 0.706784 0.374462 0.502461
Si Si6 0.843413 0.496585 0.305214
Si Si7 0.183229 0.985186 0.490161
Si Si8 0.597389 0.764810 0.648838
O O1 0.694302 0.739641 0.766300
O O2 0.611193 0.750862 0.933654
O O3 0.821615 0.351104 0.988860
O O4 0.000000 0.500000 0.000000
O O5 0.753050 0.552483 0.175505
O O6 0.370601 0.780751 0.034447
O O7 0.500000 0.000000 0.000000
O O8 0.036149 0.066718 0.811607
O O9 0.000000 0.000000 0.000000
O O10 0.867674 0.370833 0.571977
O O11 0.761902 0.519410 0.689816
O O12 0.138176 0.318147 0.719774
O O13 0.500000 0.500000 0.500000
O O14 0.696486 0.490808 0.364084
O O15 0.765373 0.126961 0.571996
O O16 0.086336 0.253479 0.393968
O O17 0.385175 0.813551 0.630553
O O18 0.000000 0.000000 0.500000
O O19 0.500000 0.000000 0.500000
#
# Coordination Sequence:
#
# PCOD8026802 Si02
#       8
#     2   2   2   2   2   2   2   2
#     4  12  29  52  79 114 154 209 261 319 398 465
#     4  12  27  50  75 109 150 203 259 319 385 463
#     4  12  27  48  78 106 154 204 261 319 380 472
#     4  12  24  46  72 111 149 200 253 312 393 454
#     4  11  25  42  70 109 143 192 247 312 382 445
#     4  11  25  47  71 101 155 195 252 312 386 454
#     4  10  24  43  68 103 145 190 242 313 378 445
#     4  12  25  46  78 111 152 194 253 316 389 458
#
# _framework density 22.765438
#
# number of rings (size 3 to 8) (size 9 to 14) (size 15 to 20)
#    0.000    0.500    5.000    2.250    7.000    3.000 
#    0.000    0.000    0.000    0.000    0.000    0.000 
#    0.000    0.000    0.000    0.000    0.000    0.000 
#
# Total GULP energy -198232.551853 kJ/mol
# GULP energy per Si atom -12389.534491 kJ/mol
# Density = 2.271362 g / cm^3
# Si number density = 22.765438 Si / 1000 Ang^3
#
#
#
# Elastic Constant Matrix: (Units=GPa)
#
#
# Indices 1 2 3 4 5 6 
#
# 1 136.9832 47.7010 47.5072 -0.0435 18.9763 10.6479
# 2 47.7010 148.7573 49.2626 4.3048 -3.7334 2.8064
# 3 47.5072 49.2626 138.6021 11.5831 10.1058 5.1242
# 4 -0.0435 4.3048 11.5831 42.1499 6.2958 1.1751
# 5 18.9763 -3.7334 10.1058 6.2958 45.5292 -0.4738
# 6 10.6479 2.8064 5.1242 1.1751 -0.4738 44.5529
#
#
#
# Elastic Compliance Matrix: (Units=1/GPa)
#
#
# Indices 1 2 3 4 5 6 
#
# 1 0.009619 -0.002466 -0.002185 0.001508 -0.003955 -0.001974
# 2 -0.002466 0.008324 -0.002245 -0.000589 0.002294 0.000363
# 3 -0.002185 -0.002245 0.009021 -0.002095 -0.000989 -0.000329
# 4 0.001508 -0.000589 -0.002095 0.024932 -0.003668 -0.000779
# 5 -0.003955 0.002294 -0.000989 -0.003668 0.024541 0.001272
# 6 -0.001974 0.000363 -0.000329 -0.000779 0.001272 0.022966
#
#
# Mechanical properties :
#
#
# Convention : Reuss Voigt Hill
#
# Bulk Modulus (GPa) = 75.91982 79.25381 77.58682
# Shear Modulus (GPa) = 42.52224 45.10451 43.81337
#
# Velocity S-wave (km/s) = 4.32654 4.45598 4.39174
# Velocity P-wave (km/s) = 7.64066 7.83346 7.73766
#
# Compressibility (1/GPa) = 0.01317179
#
# Stress axis : x y z
#
# Youngs Moduli (GPa) = 103.96460 120.12866 110.85184
#
# Poissons Ratio (x) = 0.29629 0.24220
# Poissons Ratio (y) = 0.25643 0.24884
# Poissons Ratio (z) = 0.22715 0.26966
#
# Static dielectric constant tensor:
#      x y z
#    x 4.491310 0.145960 0.120980 
#    y 0.145960 4.402870 -0.543680 
#    z 0.120980 -0.543680 5.053540 
# 
# 
# High freq. dielectric constant tensor:
#      x y z
#    x 1.921220 0.004470 0.011950 
#    y 0.004470 1.909250 -0.006740 
#    z 0.011950 -0.006740 1.893240 
# 
# From -- ./inp_files/494511.got.cif
#   From: 2010.06.25/outbox.cif.g09.slc.cpg/sg2_248_cif.got.tgz:494511.got - 2010.06.27 13:26:56.
