data_PCOD8026249
_publ_section_title
;
Structure prediction by ZEFSAII (Michael W. Deem and Ramdas Pophale) SiO2 
 PCOD8026249
Probable space group: P -1
;
_chemical_formula_sum "Si O2"
_cell_formula_units_Z 16
_cell_length_a 10.793557
_cell_length_b 17.619694
_cell_length_c 8.934107
_cell_angle_alpha 150.809886
_cell_angle_beta 55.071393
_cell_angle_gamma 120.150743
_cell_volume 679.375374
_symmetry_space_group_name_H-M "P -1"
_symmetry_group_IT_number 2
_symmetry_cell_setting 'triclinic'
loop_
_space_group_symop_operation_xyz
x,y,z
-x,-y,-z
loop_
_atom_site_type_symbol
_atom_site_label
_atom_site_fract_x
_atom_site_fract_y
_atom_site_fract_z
Si Si1 0.671554 0.793236 0.387262
Si Si2 0.431847 0.144470 0.880647
Si Si3 0.620262 0.570530 0.779435
Si Si4 0.915106 0.840299 0.814979
Si Si5 0.045300 0.444589 0.537840
Si Si6 0.948835 0.717828 0.266475
Si Si7 0.434294 0.776841 0.760471
Si Si8 0.842955 0.070887 0.676329
O O1 0.802169 0.790226 0.415428
O O2 0.518114 0.840129 0.661682
O O3 0.726706 0.930451 0.470071
O O4 0.651630 0.635897 0.037201
O O5 0.500000 0.000000 0.500000
O O6 0.473862 0.304975 0.039024
O O7 0.253986 0.115501 0.954050
O O8 0.497117 0.149782 0.010939
O O9 0.776343 0.533407 0.524397
O O10 0.532214 0.408255 0.578302
O O11 0.990242 0.740284 0.727725
O O12 0.920000 0.719970 0.465935
O O13 0.000000 0.000000 0.000000
O O14 0.000000 0.500000 0.500000
O O15 0.962982 0.544509 0.893883
O O16 0.104552 0.816930 0.301658
O O17 0.255185 0.822784 0.954747
O O18 0.000000 0.000000 0.500000
#
# Coordination Sequence:
#
# PCOD8026249 Si02
#       8
#     2   2   2   2   2   2   2   2
#     4  11  23  42  68 104 144 180 239 297 353 427
#     4  11  26  47  69  99 142 187 236 296 364 426
#     4  11  24  43  70  99 141 188 236 290 360 433
#     4  11  27  46  72 108 142 186 245 296 356 429
#     4  11  23  44  73 104 143 187 234 295 359 426
#     4  11  22  45  68 103 140 184 238 292 356 425
#     4  12  23  46  69 101 138 186 244 289 361 422
#     4  10  24  40  70 100 140 188 232 288 363 421
#
# _framework density 23.551044999999998
#
# number of rings (size 3 to 8) (size 9 to 14) (size 15 to 20)
#    0.000    1.000    3.750    2.250    5.250    1.000 
#    2.250    0.000    0.000    0.000    0.000    0.000 
#    0.000    0.000    0.000    0.000    0.000    0.000 
#
# Total GULP energy -198287.815749 kJ/mol
# GULP energy per Si atom -12392.988484 kJ/mol
# Density = 2.349744 g / cm^3
# Si number density = 23.551045 Si / 1000 Ang^3
#
#
#
# Elastic Constant Matrix: (Units=GPa)
#
#
# Indices 1 2 3 4 5 6 
#
# 1 70.0045 41.9809 47.3642 1.1203 -7.2370 -6.4230
# 2 41.9809 115.2341 55.5032 5.1183 -10.6631 6.4225
# 3 47.3642 55.5032 170.5407 -5.3186 -8.3638 4.4159
# 4 1.1203 5.1183 -5.3186 48.7153 2.0263 -2.1360
# 5 -7.2370 -10.6631 -8.3638 2.0263 43.8280 -3.1792
# 6 -6.4230 6.4225 4.4159 -2.1360 -3.1792 30.2002
#
#
#
# Elastic Compliance Matrix: (Units=1/GPa)
#
#
# Indices 1 2 3 4 5 6 
#
# 1 0.021472 -0.006059 -0.004079 -0.000086 0.001778 0.006633
# 2 -0.006059 0.012358 -0.002229 -0.001617 0.001398 -0.003558
# 3 -0.004079 -0.002229 0.007800 0.001111 0.000117 -0.001443
# 4 -0.000086 -0.001617 0.001111 0.020932 -0.001052 0.001533
# 5 0.001778 0.001398 0.000117 -0.001052 0.023701 0.002485
# 6 0.006633 -0.003558 -0.001443 0.001533 0.002485 0.035861
#
#
# Mechanical properties :
#
#
# Convention : Reuss Voigt Hill
#
# Bulk Modulus (GPa) = 59.18498 71.71955 65.45226
# Shear Modulus (GPa) = 32.78931 38.61079 35.70005
#
# Velocity S-wave (km/s) = 3.73536 4.05341 3.89763
# Velocity P-wave (km/s) = 6.61732 7.24056 6.93594
#
# Compressibility (1/GPa) = 0.01689618
#
# Stress axis : x y z
#
# Youngs Moduli (GPa) = 46.57302 80.91612 128.21129
#
# Poissons Ratio (x) = 0.49029 0.52291
# Poissons Ratio (y) = 0.28220 0.28579
# Poissons Ratio (z) = 0.18995 0.18036
#
# Static dielectric constant tensor:
#      x y z
#    x 4.023400 0.030870 -0.252410 
#    y 0.030870 4.679090 0.055770 
#    z -0.252410 0.055770 4.527450 
# 
# 
# High freq. dielectric constant tensor:
#      x y z
#    x 1.905410 0.000980 -0.012620 
#    y 0.000980 1.938930 0.002410 
#    z -0.012620 0.002410 1.954980 
# 
# From -- ./inp_files/206923.got.cif
#   From: 2010.06.25/outbox.cif.g09.slc.cpg/sg2_104_cif.got.tgz:206923.got - 2010.06.27 13:26:56.
