data_PCOD8026073
_publ_section_title
;
Structure prediction by ZEFSAII (Michael W. Deem and Ramdas Pophale) SiO2 
 PCOD8026073
Probable space group: P -1
;
_chemical_formula_sum "Si O2"
_cell_formula_units_Z 16
_cell_length_a 11.850012
_cell_length_b 14.212253
_cell_length_c 11.467156
_cell_angle_alpha 117.246569
_cell_angle_beta 90.230977
_cell_angle_gamma 143.172409
_cell_volume 739.746770
_symmetry_space_group_name_H-M "P -1"
_symmetry_group_IT_number 2
_symmetry_cell_setting 'triclinic'
loop_
_space_group_symop_operation_xyz
x,y,z
-x,-y,-z
loop_
_atom_site_type_symbol
_atom_site_label
_atom_site_fract_x
_atom_site_fract_y
_atom_site_fract_z
Si Si1 0.188427 0.813297 0.172053
Si Si2 0.660915 0.679831 0.282592
Si Si3 0.145530 0.949809 0.802210
Si Si4 0.612178 0.248782 0.834619
Si Si5 0.848862 0.804318 0.108903
Si Si6 0.771870 0.588448 0.396805
Si Si7 0.264353 0.017720 0.501530
Si Si8 0.259425 0.028706 0.103817
O O1 0.349409 0.844326 0.214857
O O2 0.288455 0.991404 0.358024
O O3 0.252054 0.907389 0.095093
O O4 0.879017 0.534926 0.030032
O O5 0.840029 0.782429 0.236714
O O6 0.652749 0.595169 0.345379
O O7 0.778527 0.891520 0.444179
O O8 0.371966 0.454923 0.101017
O O9 0.390627 0.089976 0.836980
O O10 0.220167 0.134742 0.890493
O O11 0.099860 0.885566 0.901063
O O12 0.875491 0.697211 0.590057
O O13 0.525702 0.208088 0.681262
O O14 0.128454 0.004661 0.175124
O O15 0.556498 0.314649 0.242629
O O16 0.014804 0.753062 0.413966
#
# Coordination Sequence:
#
# PCOD8026073 Si02
#       8
#     2   2   2   2   2   2   2   2
#     4  11  25  42  73  96 121 167 216 275 314 378
#     4  11  22  40  67  95 126 175 214 258 315 379
#     4  11  24  44  62  90 136 174 205 263 314 380
#     4  10  23  48  70  94 121 164 225 269 318 362
#     4  11  23  41  65  93 132 171 212 264 313 373
#     4  11  24  39  62  94 133 175 204 251 324 386
#     4  11  22  43  66  97 126 164 219 268 314 371
#     4  12  26  41  59  99 136 167 210 256 323 386
#
# _framework density 21.629024000000001
#
# number of rings (size 3 to 8) (size 9 to 14) (size 15 to 20)
#    0.000    1.000    3.750    3.375    3.500    3.000 
#    0.000    2.500    0.000    0.000    0.000    0.000 
#    0.000    0.000    0.000    0.000    0.000    0.000 
#
# Total GULP energy -198474.950722 kJ/mol
# GULP energy per Si atom -12404.684420 kJ/mol
# Density = 2.157980 g / cm^3
# Si number density = 21.629024 Si / 1000 Ang^3
#
#
#
# Elastic Constant Matrix: (Units=GPa)
#
#
# Indices 1 2 3 4 5 6 
#
# 1 82.4871 28.6000 35.9707 -9.1319 7.9493 -0.5017
# 2 28.6000 72.3552 31.2594 -15.1667 0.0023 -13.1379
# 3 35.9707 31.2594 117.6447 -19.8921 0.5946 -9.4727
# 4 -9.1319 -15.1667 -19.8921 35.1965 -0.1706 8.3546
# 5 7.9493 0.0023 0.5946 -0.1706 27.0117 0.3412
# 6 -0.5017 -13.1379 -9.4727 8.3546 0.3412 27.5028
#
#
#
# Elastic Compliance Matrix: (Units=1/GPa)
#
#
# Indices 1 2 3 4 5 6 
#
# 1 0.016044 -0.005282 -0.003660 0.000658 -0.004590 -0.003634
# 2 -0.005282 0.018948 -0.002206 0.003895 0.001538 0.006993
# 3 -0.003660 -0.002206 0.010989 0.003971 0.000842 0.001448
# 4 0.000658 0.003895 0.003971 0.034203 0.000025 -0.007150
# 5 -0.004590 0.001538 0.000842 0.000025 0.038348 0.000458
# 6 -0.003634 0.006993 0.001448 -0.007150 0.000458 0.042299
#
#
# Mechanical properties :
#
#
# Convention : Reuss Voigt Hill
#
# Bulk Modulus (GPa) = 42.22106 51.57190 46.89648
# Shear Modulus (GPa) = 26.17518 29.71932 27.94725
#
# Velocity S-wave (km/s) = 3.48255 3.71084 3.59850
# Velocity P-wave (km/s) = 5.97778 6.50046 6.24459
#
# Compressibility (1/GPa) = 0.02368486
#
# Stress axis : x y z
#
# Youngs Moduli (GPa) = 62.32952 52.77696 90.99932
#
# Poissons Ratio (x) = 0.27878 0.33307
# Poissons Ratio (y) = 0.32923 0.20071
# Poissons Ratio (z) = 0.22813 0.11640
#
# Static dielectric constant tensor:
#      x y z
#    x 3.688270 -0.077260 0.140500 
#    y -0.077260 3.768300 -0.117280 
#    z 0.140500 -0.117280 4.121450 
# 
# 
# High freq. dielectric constant tensor:
#      x y z
#    x 1.834800 -0.003960 0.014670 
#    y -0.003960 1.838080 -0.005640 
#    z 0.014670 -0.005640 1.871050 
# 
# From -- ./inp_files/418612.got.cif
#   From: 2010.06.25/outbox.cif.g09.slc.cpg/sg2_210_cif.got.tgz:418612.got - 2010.06.27 13:26:56.
