data_PCOD8026374
_publ_section_title
;
Structure prediction by ZEFSAII (Michael W. Deem and Ramdas Pophale) SiO2 
 PCOD8026374
Probable space group: P -1
;
_chemical_formula_sum "Si O2"
_cell_formula_units_Z 16
_cell_length_a 9.079111
_cell_length_b 8.824854
_cell_length_c 14.624090
_cell_angle_alpha 64.659600
_cell_angle_beta 60.936184
_cell_angle_gamma 103.440606
_cell_volume 768.478403
_symmetry_space_group_name_H-M "P -1"
_symmetry_group_IT_number 2
_symmetry_cell_setting 'triclinic'
loop_
_space_group_symop_operation_xyz
x,y,z
-x,-y,-z
loop_
_atom_site_type_symbol
_atom_site_label
_atom_site_fract_x
_atom_site_fract_y
_atom_site_fract_z
Si Si1 0.064859 0.834666 0.791041
Si Si2 0.348150 0.273444 0.136512
Si Si3 0.931017 0.149318 0.002517
Si Si4 0.213681 0.208392 0.394404
Si Si5 0.117648 0.537290 0.725765
Si Si6 0.867964 0.459411 0.637885
Si Si7 0.560518 0.847220 0.499937
Si Si8 0.510705 0.012353 0.886017
O O1 0.034180 0.779277 0.921121
O O2 0.084752 0.676219 0.767303
O O3 0.871384 0.833258 0.816517
O O4 0.268306 0.061023 0.655403
O O5 0.335490 0.285970 0.244575
O O6 0.442355 0.146394 0.121461
O O7 0.500000 0.500000 0.000000
O O8 0.696462 0.038464 0.080665
O O9 0.061877 0.340360 0.848425
O O10 0.000000 0.000000 0.000000
O O11 0.191658 0.381460 0.394360
O O12 0.348966 0.178023 0.429435
O O13 0.000000 0.000000 0.500000
O O14 0.348346 0.638734 0.593044
O O15 0.977704 0.482870 0.694136
O O16 0.675116 0.234437 0.744590
O O17 0.000000 0.500000 0.500000
O O18 0.500000 0.000000 0.500000
O O19 0.500000 0.000000 0.000000
#
# Coordination Sequence:
#
# PCOD8026374 Si02
#       8
#     2   2   2   2   2   2   2   2
#     4  11  24  46  70 104 136 179 235 289 348 409
#     4  12  25  42  75 103 136 181 244 286 341 418
#     4  12  28  45  70  99 145 185 228 284 354 420
#     4  12  23  46  71 102 136 185 235 287 339 418
#     4  11  24  48  68 104 138 182 234 288 343 417
#     4  12  27  45  73 104 143 185 233 288 353 417
#     4  10  24  41  70 100 138 172 228 289 344 400
#     4  12  26  47  68 100 145 183 228 291 355 412
#
# _framework density 20.820364000000001
#
# number of rings (size 3 to 8) (size 9 to 14) (size 15 to 20)
#    0.000    0.500    3.750    4.125    8.750    0.000 
#    0.000    1.250    0.000    0.000    0.000    0.000 
#    0.000    0.000    0.000    0.000    0.000    0.000 
#
# Total GULP energy -198437.775997 kJ/mol
# GULP energy per Si atom -12402.361000 kJ/mol
# Density = 2.077298 g / cm^3
# Si number density = 20.820364 Si / 1000 Ang^3
#
#
#
# Elastic Constant Matrix: (Units=GPa)
#
#
# Indices 1 2 3 4 5 6 
#
# 1 155.7875 51.8690 46.2153 -8.4260 -2.0417 -21.0299
# 2 51.8690 133.5295 61.4530 -1.0380 -0.2032 -24.3343
# 3 46.2153 61.4530 158.1690 -16.6284 -2.1595 -17.3542
# 4 -8.4260 -1.0380 -16.6284 48.8264 10.1168 0.7232
# 5 -2.0417 -0.2032 -2.1595 10.1168 47.5719 1.4849
# 6 -21.0299 -24.3343 -17.3542 0.7232 1.4849 30.6759
#
#
#
# Elastic Compliance Matrix: (Units=1/GPa)
#
#
# Indices 1 2 3 4 5 6 
#
# 1 0.007879 -0.001967 -0.001092 0.000901 -0.000011 0.003202
# 2 -0.001967 0.010652 -0.003104 -0.001232 -0.000086 0.005378
# 3 -0.001092 -0.003104 0.008273 0.002600 -0.000282 0.001421
# 4 0.000901 -0.001232 0.002600 0.022447 -0.004647 0.000807
# 5 -0.000011 -0.000086 -0.000282 -0.004647 0.022033 -0.001192
# 6 0.003202 0.005378 0.001421 0.000807 -0.001192 0.039904
#
#
# Mechanical properties :
#
#
# Convention : Reuss Voigt Hill
#
# Bulk Modulus (GPa) = 69.07615 85.17340 77.12478
# Shear Modulus (GPa) = 38.95898 44.61143 41.78520
#
# Velocity S-wave (km/s) = 4.33042 4.63393 4.48475
# Velocity P-wave (km/s) = 7.63234 8.34438 7.99629
#
# Compressibility (1/GPa) = 0.01447678
#
# Stress axis : x y z
#
# Youngs Moduli (GPa) = 126.92294 93.87535 120.87459
#
# Poissons Ratio (x) = 0.18470 0.13197
# Poissons Ratio (y) = 0.24972 0.37525
# Poissons Ratio (z) = 0.13857 0.29144
#
# Static dielectric constant tensor:
#      x y z
#    x 4.000120 -0.036190 -0.173830 
#    y -0.036190 3.714340 -0.069660 
#    z -0.173830 -0.069660 4.396660 
# 
# 
# High freq. dielectric constant tensor:
#      x y z
#    x 1.834500 -0.004000 -0.000420 
#    y -0.004000 1.812580 -0.003960 
#    z -0.000420 -0.003960 1.842360 
# 
# From -- ./inp_files/184188.got.cif
#   From: 2010.06.25/outbox.cif.g09.slc.cpg/sg2_93_cif.got.tgz:184188.got - 2010.06.27 13:26:56.
