data_PCOD8026233
_publ_section_title
;
Structure prediction by ZEFSAII (Michael W. Deem and Ramdas Pophale) SiO2 
 PCOD8026233
Probable space group: P -1
;
_chemical_formula_sum "Si O2"
_cell_formula_units_Z 16
_cell_length_a 8.878744
_cell_length_b 8.396791
_cell_length_c 12.398073
_cell_angle_alpha 77.183078
_cell_angle_beta 71.765509
_cell_angle_gamma 56.014655
_cell_volume 726.642144
_symmetry_space_group_name_H-M "P -1"
_symmetry_group_IT_number 2
_symmetry_cell_setting 'triclinic'
loop_
_space_group_symop_operation_xyz
x,y,z
-x,-y,-z
loop_
_atom_site_type_symbol
_atom_site_label
_atom_site_fract_x
_atom_site_fract_y
_atom_site_fract_z
Si Si1 0.392247 0.666684 0.413148
Si Si2 0.276651 0.370718 0.248458
Si Si3 0.649481 0.699090 0.992515
Si Si4 0.081519 0.959838 0.817715
Si Si5 0.964528 0.275848 0.621163
Si Si6 0.402450 0.549148 0.799740
Si Si7 0.336551 0.061684 0.443490
Si Si8 0.240985 0.029478 0.979547
O O1 0.500000 0.500000 0.500000
O O2 0.202540 0.674253 0.429926
O O3 0.525762 0.609339 0.287163
O O4 0.338856 0.873833 0.435228
O O5 0.088545 0.535685 0.324534
O O6 0.425697 0.434727 0.203358
O O7 0.361434 0.164595 0.318680
O O8 0.230387 0.356210 0.136387
O O9 0.676613 0.511200 0.072990
O O10 0.727077 0.795126 0.040768
O O11 0.431649 0.833118 0.993321
O O12 0.234421 0.753869 0.764860
O O13 0.179218 0.027237 0.871599
O O14 0.999212 0.103578 0.715738
O O15 0.914421 0.948364 0.907268
O O16 0.145411 0.217927 0.519862
O O17 0.500000 0.000000 0.500000
#
# Coordination Sequence:
#
# PCOD8026233 Si02
#       8
#     2   2   2   2   2   2   2   2
#     4  11  25  47  74 101 133 181 234 282 350 414
#     4  11  24  42  69  99 134 182 231 282 345 403
#     4  11  24  43  67  99 139 184 233 279 342 407
#     4  11  23  43  67 100 139 180 224 282 349 406
#     4  11  25  46  71  96 138 181 229 285 352 407
#     4  11  24  42  69  98 140 181 226 284 346 405
#     4  12  26  45  71 102 137 177 232 291 346 409
#     4  10  24  40  67  95 141 177 232 275 341 404
#
# _framework density 22.019089000000001
#
# number of rings (size 3 to 8) (size 9 to 14) (size 15 to 20)
#    0.000    1.000    1.250    5.625    8.750    0.500 
#    2.250    0.000    0.000    0.000    0.000    0.000 
#    0.000    0.000    0.000    0.000    0.000    0.000 
#
# Total GULP energy -198488.973828 kJ/mol
# GULP energy per Si atom -12405.560864 kJ/mol
# Density = 2.196897 g / cm^3
# Si number density = 22.019089 Si / 1000 Ang^3
#
#
#
# Elastic Constant Matrix: (Units=GPa)
#
#
# Indices 1 2 3 4 5 6 
#
# 1 91.5356 32.1161 35.3872 4.7946 2.4085 -12.5160
# 2 32.1161 124.4267 42.9179 4.5781 0.4761 0.8578
# 3 35.3872 42.9179 109.7729 -5.5043 -5.9106 -6.1177
# 4 4.7946 4.5781 -5.5043 53.5135 0.0073 -2.5600
# 5 2.4085 0.4761 -5.9106 0.0073 24.8905 -7.7949
# 6 -12.5160 0.8578 -6.1177 -2.5600 -7.7949 28.4637
#
#
#
# Elastic Compliance Matrix: (Units=1/GPa)
#
#
# Indices 1 2 3 4 5 6 
#
# 1 0.013837 -0.002426 -0.003301 -0.001122 -0.000439 0.005227
# 2 -0.002426 0.009890 -0.003371 -0.001101 -0.001575 -0.002620
# 3 -0.003301 -0.003371 0.011942 0.001931 0.003997 0.002485
# 4 -0.001122 -0.001101 0.001931 0.019176 0.001212 0.002012
# 5 -0.000439 -0.001575 0.003997 0.001212 0.045344 0.013240
# 6 0.005227 -0.002620 0.002485 0.002012 0.013240 0.041851
#
#
# Mechanical properties :
#
#
# Convention : Reuss Voigt Hill
#
# Bulk Modulus (GPa) = 57.22616 60.73085 58.97850
# Shear Modulus (GPa) = 30.10960 35.72780 32.91870
#
# Velocity S-wave (km/s) = 3.70189 4.03250 3.87073
# Velocity P-wave (km/s) = 6.65716 7.02298 6.84252
#
# Compressibility (1/GPa) = 0.01747453
#
# Stress axis : x y z
#
# Youngs Moduli (GPa) = 72.27027 101.10934 83.73718
#
# Poissons Ratio (x) = 0.24530 0.27639
# Poissons Ratio (y) = 0.17534 0.28225
# Poissons Ratio (z) = 0.23854 0.34081
#
# Static dielectric constant tensor:
#      x y z
#    x 3.926850 -0.051700 0.052520 
#    y -0.051700 4.182780 0.232460 
#    z 0.052520 0.232460 4.170650 
# 
# 
# High freq. dielectric constant tensor:
#      x y z
#    x 1.862020 -0.002280 -0.001210 
#    y -0.002280 1.881480 0.004490 
#    z -0.001210 0.004490 1.874420 
# 
# From -- ./inp_files/241987.got.cif
#   From: 2010.06.25/outbox.cif.g09.slc.cpg/sg2_121_cif.got.tgz:241987.got - 2010.06.27 13:26:56.
