data_PCOD8026368
_publ_section_title
;
Structure prediction by ZEFSAII (Michael W. Deem and Ramdas Pophale) SiO2 
 PCOD8026368
Probable space group: P -1
;
_chemical_formula_sum "Si O2"
_cell_formula_units_Z 16
_cell_length_a 9.590451
_cell_length_b 11.273662
_cell_length_c 9.989774
_cell_angle_alpha 71.834294
_cell_angle_beta 107.992255
_cell_angle_gamma 96.221676
_cell_volume 975.983641
_symmetry_space_group_name_H-M "P -1"
_symmetry_group_IT_number 2
_symmetry_cell_setting 'triclinic'
loop_
_space_group_symop_operation_xyz
x,y,z
-x,-y,-z
loop_
_atom_site_type_symbol
_atom_site_label
_atom_site_fract_x
_atom_site_fract_y
_atom_site_fract_z
Si Si1 0.913510 0.817268 0.574283
Si Si2 0.656820 0.408010 0.455870
Si Si3 0.765786 0.161067 0.643050
Si Si4 0.527822 0.123466 0.789286
Si Si5 0.321517 0.900516 0.890122
Si Si6 0.968808 0.978892 0.281472
Si Si7 0.638696 0.666187 0.478899
Si Si8 0.231612 0.750544 0.665831
O O1 0.770840 0.729031 0.579612
O O2 0.928321 0.907470 0.674937
O O3 0.056890 0.730880 0.637524
O O4 0.895355 0.901773 0.407661
O O5 0.750742 0.311447 0.611014
O O6 0.700895 0.548943 0.455335
O O7 0.483414 0.381732 0.435508
O O8 0.696131 0.378255 0.321637
O O9 0.640481 0.090272 0.714928
O O10 0.742997 0.142380 0.480890
O O11 0.927016 0.108929 0.747880
O O12 0.425436 0.238144 0.681357
O O13 0.435490 0.999375 0.829663
O O14 0.617350 0.162423 0.935498
O O15 0.167609 0.965766 0.860421
O O16 0.302436 0.792925 0.811156
#
# Coordination Sequence:
#
# PCOD8026368 Si02
#       8
#     2   2   2   2   2   2   2   2
#     4   9  16  26  47  70  92 118 145 190 235 260
#     4   8  18  30  45  69  92 115 157 193 221 263
#     4   8  17  31  46  68  90 115 155 186 226 259
#     4  10  20  29  45  70  92 127 149 178 233 273
#     4  10  19  31  45  67  99 119 150 184 223 284
#     4   9  16  29  45  68  94 119 148 184 225 278
#     4  10  17  30  47  68  94 120 150 191 229 263
#     4   8  17  32  46  67  92 115 152 195 220 263
#
# _framework density 16.393716000000001
#
# number of rings (size 3 to 8) (size 9 to 14) (size 15 to 20)
#    0.750    2.250    1.250    0.750    0.000    2.500 
#    0.000    0.625    0.000    0.000    0.000   31.500 
#    0.000    0.000    0.000    0.000    0.000    0.000 
#
# Total GULP energy -198218.573445 kJ/mol
# GULP energy per Si atom -12388.660840 kJ/mol
# Density = 1.635640 g / cm^3
# Si number density = 16.393716 Si / 1000 Ang^3
#
#
#
# Elastic Constant Matrix: (Units=GPa)
#
#
# Indices 1 2 3 4 5 6 
#
# 1 83.0567 32.1850 24.5802 1.4884 8.2107 -8.3215
# 2 32.1850 50.4640 6.7865 1.8550 8.9828 -3.4005
# 3 24.5802 6.7865 45.3119 8.3863 9.8251 3.3279
# 4 1.4884 1.8550 8.3863 14.8737 2.5273 2.7354
# 5 8.2107 8.9828 9.8251 2.5273 17.1799 0.3075
# 6 -8.3215 -3.4005 3.3279 2.7354 0.3075 31.1126
#
#
#
# Elastic Compliance Matrix: (Units=1/GPa)
#
#
# Indices 1 2 3 4 5 6 
#
# 1 0.019791 -0.011357 -0.010558 0.004199 0.001814 0.004794
# 2 -0.011357 0.028622 0.005073 -0.003252 -0.011960 -0.000048
# 3 -0.010558 0.005073 0.033257 -0.015091 -0.014328 -0.004358
# 4 0.004199 -0.003252 -0.015091 0.077027 -0.002928 -0.004361
# 5 0.001814 -0.011960 -0.014328 -0.002928 0.072215 0.000254
# 6 0.004794 -0.000048 -0.004358 -0.004361 0.000254 0.034266
#
#
# Mechanical properties :
#
#
# Convention : Reuss Voigt Hill
#
# Bulk Modulus (GPa) = 20.83919 33.99287 27.41603
# Shear Modulus (GPa) = 15.88027 20.31863 18.09945
#
# Velocity S-wave (km/s) = 3.11574 3.52435 3.32633
# Velocity P-wave (km/s) = 5.06785 6.11079 5.61359
#
# Compressibility (1/GPa) = 0.04798650
#
# Stress axis : x y z
#
# Youngs Moduli (GPa) = 50.52795 34.93777 30.06920
#
# Poissons Ratio (x) = 0.39678 0.31746
# Poissons Ratio (y) = 0.57383 -0.15253
# Poissons Ratio (z) = 0.53345 -0.17722
#
# Static dielectric constant tensor:
#      x y z
#    x 3.200140 -0.157870 0.108440 
#    y -0.157870 2.918000 -0.004740 
#    z 0.108440 -0.004740 2.848090 
# 
# 
# High freq. dielectric constant tensor:
#      x y z
#    x 1.642180 -0.012130 0.010570 
#    y -0.012130 1.608730 0.000550 
#    z 0.010570 0.000550 1.592340 
# 
# From -- ./inp_files/247175.got.cif
#   From: 2010.06.25/outbox.cif.g09.slc.cpg/sg2_124_cif.got.tgz:247175.got - 2010.06.27 13:26:56.
