data_PCOD8026491
_publ_section_title
;
Structure prediction by ZEFSAII (Michael W. Deem and Ramdas Pophale) SiO2 
 PCOD8026491
Probable space group: P -1
;
_chemical_formula_sum "Si O2"
_cell_formula_units_Z 14
_cell_length_a 9.165861
_cell_length_b 20.742575
_cell_length_c 8.924163
_cell_angle_alpha 101.865823
_cell_angle_beta 55.414596
_cell_angle_gamma 54.859729
_cell_volume 699.274803
_symmetry_space_group_name_H-M "P -1"
_symmetry_group_IT_number 2
_symmetry_cell_setting 'triclinic'
loop_
_space_group_symop_operation_xyz
x,y,z
-x,-y,-z
loop_
_atom_site_type_symbol
_atom_site_label
_atom_site_fract_x
_atom_site_fract_y
_atom_site_fract_z
Si Si1 0.660034 0.138141 0.694178
Si Si2 0.970243 0.965362 0.856330
Si Si3 0.292886 0.515806 0.232099
Si Si4 0.428107 0.451836 0.456483
Si Si5 0.740560 0.789829 0.789547
Si Si6 0.221744 0.743075 0.607012
Si Si7 0.700686 0.620080 0.013624
O O1 0.602048 0.235088 0.807995
O O2 0.710460 0.113593 0.474410
O O3 0.346020 0.197555 0.978973
O O4 0.000000 0.000000 0.500000
O O5 0.016154 0.874725 0.829750
O O6 0.597596 0.089908 0.054849
O O7 0.000000 0.000000 0.000000
O O8 0.487074 0.436271 0.235924
O O9 0.924869 0.666801 0.553763
O O10 0.500000 0.500000 0.000000
O O11 0.233689 0.465856 0.161457
O O12 0.500000 0.500000 0.500000
O O13 0.704527 0.314138 0.303795
O O14 0.047356 0.551995 0.778124
O O15 0.992864 0.771978 0.639266
O O16 0.586528 0.638307 0.258240
#
# Coordination Sequence:
#
# PCOD8026491 Si02
#       7
#     2   2   2   2   2   2   2
#     4   9  20  39  66  87 126 168 214 259 319 378
#     4  10  24  42  66  95 123 166 223 271 318 381
#     4  12  24  41  65  98 133 168 218 265 320 388
#     4  12  23  40  63  94 133 167 215 264 322 386
#     4  11  21  44  64  89 135 172 213 261 326 383
#     4  11  23  42  64  94 129 173 212 263 331 385
#     4  11  22  40  63  97 127 176 212 264 327 378
#
# _framework density 20.020744000000001
#
# number of rings (size 3 to 8) (size 9 to 14) (size 15 to 20)
#    0.000    1.143    4.286    1.286    2.000    1.143 
#    5.143    0.714    0.000    0.000    0.000    0.000 
#    0.000    0.000    0.000    0.000    0.000    0.000 
#
# Total GULP energy -173509.992119 kJ/mol
# GULP energy per Si atom -12393.570866 kJ/mol
# Density = 1.997518 g / cm^3
# Si number density = 20.020744 Si / 1000 Ang^3
#
#
#
# Elastic Constant Matrix: (Units=GPa)
#
#
# Indices 1 2 3 4 5 6 
#
# 1 128.1012 67.6099 58.5323 3.9208 11.0886 14.9322
# 2 67.6099 162.2320 62.7523 8.6595 11.5664 -0.8037
# 3 58.5323 62.7523 121.7321 -4.3140 7.4481 6.6685
# 4 3.9208 8.6595 -4.3140 45.0132 8.9126 6.4144
# 5 11.0886 11.5664 7.4481 8.9126 34.3748 2.5948
# 6 14.9322 -0.8037 6.6685 6.4144 2.5948 35.3449
#
#
#
# Elastic Compliance Matrix: (Units=1/GPa)
#
#
# Indices 1 2 3 4 5 6 
#
# 1 0.011938 -0.003507 -0.003585 0.000236 -0.001625 -0.004370
# 2 -0.003507 0.009015 -0.003120 -0.001927 -0.000930 0.002693
# 3 -0.003585 -0.003120 0.011747 0.002372 -0.000868 -0.001139
# 4 0.000236 -0.001927 0.002372 0.024636 -0.005980 -0.004623
# 5 -0.001625 -0.000930 -0.000868 -0.005980 0.031698 -0.000412
# 6 -0.004370 0.002693 -0.001139 -0.004623 -0.000412 0.031284
#
#
# Mechanical properties :
#
#
# Convention : Reuss Voigt Hill
#
# Bulk Modulus (GPa) = 81.46207 87.76159 84.61183
# Shear Modulus (GPa) = 34.52230 37.82464 36.17347
#
# Velocity S-wave (km/s) = 4.15701 4.35129 4.25526
# Velocity P-wave (km/s) = 7.98862 8.31718 8.15456
#
# Compressibility (1/GPa) = 0.01227565
#
# Stress axis : x y z
#
# Youngs Moduli (GPa) = 83.76407 110.92951 85.13134
#
# Poissons Ratio (x) = 0.38901 0.30522
# Poissons Ratio (y) = 0.29374 0.26560
# Poissons Ratio (z) = 0.30032 0.34608
#
# Static dielectric constant tensor:
#      x y z
#    x 2.605530 0.717620 -0.088390 
#    y 0.717620 3.684010 -0.140070 
#    z -0.088390 -0.140070 4.156200 
# 
# 
# High freq. dielectric constant tensor:
#      x y z
#    x 1.755690 0.010830 0.002110 
#    y 0.010830 1.809570 -0.001650 
#    z 0.002110 -0.001650 1.791170 
# 
# From -- ./inp_files/175931.got.cif
#   From: 2010.06.25/outbox.cif.g09.slc.cpg/sg2_88_cif.got.tgz:175931.got - 2010.06.27 13:26:56.
