data_PCOD8026356
_publ_section_title
;
Structure prediction by ZEFSAII (Michael W. Deem and Ramdas Pophale) SiO2 
 PCOD8026356
Probable space group: P -1
;
_chemical_formula_sum "Si O2"
_cell_formula_units_Z 12
_cell_length_a 5.144555
_cell_length_b 5.167568
_cell_length_c 26.928123
_cell_angle_alpha 123.225517
_cell_angle_beta 67.537837
_cell_angle_gamma 90.000894
_cell_volume 532.738140
_symmetry_space_group_name_H-M "P -1"
_symmetry_group_IT_number 2
_symmetry_cell_setting 'triclinic'
loop_
_space_group_symop_operation_xyz
x,y,z
-x,-y,-z
loop_
_atom_site_type_symbol
_atom_site_label
_atom_site_fract_x
_atom_site_fract_y
_atom_site_fract_z
Si Si1 0.505412 0.351284 0.930314
Si Si2 0.009547 0.681667 0.178473
Si Si3 0.392584 0.687968 0.877584
Si Si4 0.902891 0.311939 0.622392
Si Si5 0.226635 0.648679 0.569675
Si Si6 0.723471 0.318423 0.321541
O O1 0.323712 0.622070 0.933533
O O2 0.842126 0.231625 0.873971
O O3 0.351615 0.063501 0.911856
O O4 0.500000 0.500000 0.000000
O O5 0.822487 0.429733 0.155497
O O6 0.270689 0.513204 0.179844
O O7 0.797358 0.000078 0.250003
O O8 0.057835 0.377852 0.566446
O O9 0.009901 0.513106 0.679825
O O10 0.555511 0.429609 0.655463
O O11 0.999009 0.936406 0.588118
O O12 0.500000 0.500000 0.500000
O O13 0.337915 0.768390 0.626032
#
# Coordination Sequence:
#
# PCOD8026356 Si02
#       6
#     2   2   2   2   2   2
#     4  10  24  44  66  97 130 171 218 269 325 389
#     4  10  24  44  64  98 131 173 217 272 327 390
#     4  10  24  41  68  93 128 171 218 265 328 388
#     4  10  24  41  68  93 128 171 218 265 328 388
#     4  10  24  44  66  97 130 171 218 269 325 389
#     4  10  24  44  64  98 131 173 217 272 327 390
#
# _framework density 22.525137999999998
#
# number of rings (size 3 to 8) (size 9 to 14) (size 15 to 20)
#    2.000    0.000    0.000    2.000    4.667    4.000 
#    0.000    0.000    0.000    0.000    0.000    0.000 
#    0.000    0.000    0.000    0.000    0.000    0.000 
#
# Total GULP energy -148699.635416 kJ/mol
# GULP energy per Si atom -12391.636285 kJ/mol
# Density = 2.247387 g / cm^3
# Si number density = 22.525138 Si / 1000 Ang^3
#
#
#
# Elastic Constant Matrix: (Units=GPa)
#
#
# Indices 1 2 3 4 5 6 
#
# 1 115.3157 33.1546 18.2416 -9.3516 -5.0720 0.0705
# 2 33.1546 135.8835 30.9417 12.6716 -0.1854 0.7985
# 3 18.2416 30.9417 117.6208 -13.1782 5.2250 -1.6996
# 4 -9.3516 12.6716 -13.1782 14.4367 -0.6291 -0.4549
# 5 -5.0720 -0.1854 5.2250 -0.6291 15.0387 4.5747
# 6 0.0705 0.7985 -1.6996 -0.4549 4.5747 20.1140
#
#
#
# Elastic Compliance Matrix: (Units=1/GPa)
#
#
# Indices 1 2 3 4 5 6 
#
# 1 0.010715 -0.003661 0.000298 0.010587 0.004077 -0.000555
# 2 -0.003661 0.010583 -0.003944 -0.015296 -0.000047 -0.001076
# 3 0.000298 -0.003944 0.011253 0.013826 -0.003987 0.002326
# 4 0.010587 -0.015296 0.013826 0.102363 0.001748 0.003656
# 5 0.004077 -0.000047 -0.003987 0.001748 0.074582 -0.017273
# 6 -0.000555 -0.001076 0.002326 0.003656 -0.017273 0.053969
#
#
# Mechanical properties :
#
#
# Convention : Reuss Voigt Hill
#
# Bulk Modulus (GPa) = 55.74437 59.27733 57.51085
# Shear Modulus (GPa) = 17.60206 29.01670 23.30938
#
# Velocity S-wave (km/s) = 2.79846 3.59303 3.22035
# Velocity P-wave (km/s) = 5.93660 6.60200 6.27812
#
# Compressibility (1/GPa) = 0.01793903
#
# Stress axis : x y z
#
# Youngs Moduli (GPa) = 93.32386 94.49023 88.86661
#
# Poissons Ratio (x) = 0.34591 -0.02650
# Poissons Ratio (y) = 0.34164 0.35045
# Poissons Ratio (z) = -0.02783 0.37263
#
# Static dielectric constant tensor:
#      x y z
#    x 3.959680 0.001500 -0.007340 
#    y 0.001500 4.038020 0.022190 
#    z -0.007340 0.022190 3.860250 
# 
# 
# High freq. dielectric constant tensor:
#      x y z
#    x 1.888660 0.000220 -0.001650 
#    y 0.000220 1.888350 0.002980 
#    z -0.001650 0.002980 1.866430 
# 
# From -- ./inp_files/101914.got.cif
#   From: 2010.06.25/outbox.cif.g09.slc.cpg/sg2_51_cif.got.tgz:101914.got - 2010.06.27 13:26:56.
