data_PCOD8026776
_publ_section_title
;
Structure prediction by ZEFSAII (Michael W. Deem and Ramdas Pophale) SiO2 
 PCOD8026776
Probable space group: P -1
;
_chemical_formula_sum "Si O2"
_cell_formula_units_Z 16
_cell_length_a 7.188183
_cell_length_b 13.285440
_cell_length_c 10.330599
_cell_angle_alpha 90.378922
_cell_angle_beta 133.427583
_cell_angle_gamma 87.055904
_cell_volume 714.972391
_symmetry_space_group_name_H-M "P -1"
_symmetry_group_IT_number 2
_symmetry_cell_setting 'triclinic'
loop_
_space_group_symop_operation_xyz
x,y,z
-x,-y,-z
loop_
_atom_site_type_symbol
_atom_site_label
_atom_site_fract_x
_atom_site_fract_y
_atom_site_fract_z
Si Si1 0.895841 0.927857 0.662983
Si Si2 0.114481 0.438145 0.733395
Si Si3 0.344823 0.581713 0.664246
Si Si4 0.104198 0.424981 0.156459
Si Si5 0.619693 0.081078 0.707527
Si Si6 0.465094 0.277968 0.037773
Si Si7 0.454140 0.938750 0.849662
Si Si8 0.134500 0.779300 0.981213
O O1 0.665092 0.878468 0.474884
O O2 0.143993 0.933511 0.687655
O O3 0.967205 0.861097 0.820735
O O4 0.789041 0.037466 0.666800
O O5 0.325786 0.477111 0.735085
O O6 0.221358 0.353890 0.886032
O O7 0.894471 0.391457 0.543391
O O8 0.009095 0.539535 0.759160
O O9 0.590566 0.571775 0.689559
O O10 0.355794 0.672539 0.771464
O O11 0.037436 0.314146 0.077057
O O12 0.000000 0.500000 0.000000
O O13 0.580809 0.991865 0.790795
O O14 0.769399 0.172347 0.839198
O O15 0.394466 0.171329 0.064699
O O16 0.612036 0.258502 0.974446
O O17 0.500000 0.000000 0.000000
#
# Coordination Sequence:
#
# PCOD8026776 Si02
#       8
#     2   2   2   2   2   2   2   2
#     4  10  24  43  67  97 130 172 217 265 321 382
#     4  11  24  46  66  95 132 171 215 266 323 382
#     4  11  24  43  69  94 132 171 214 268 320 381
#     4  12  24  44  68  96 133 169 215 270 319 384
#     4  11  23  46  68  93 131 175 212 270 323 378
#     4  11  22  42  65  97 128 172 214 262 323 382
#     4  11  23  42  67  97 132 167 215 267 321 382
#     4  11  24  43  67  94 134 168 216 269 319 385
#
# _framework density 22.378485999999999
#
# number of rings (size 3 to 8) (size 9 to 14) (size 15 to 20)
#    0.000    1.000    5.000    2.250    1.750    2.000 
#    6.750    0.000    0.000    0.000    0.000    0.000 
#    0.000    0.000    0.000    0.000    0.000    0.000 
#
# Total GULP energy -198414.928260 kJ/mol
# GULP energy per Si atom -12400.933016 kJ/mol
# Density = 2.232755 g / cm^3
# Si number density = 22.378486 Si / 1000 Ang^3
#
#
#
# Elastic Constant Matrix: (Units=GPa)
#
#
# Indices 1 2 3 4 5 6 
#
# 1 76.8361 22.0495 15.6442 2.5159 13.9440 0.9147
# 2 22.0495 102.1927 61.0934 17.8590 16.6533 -9.7078
# 3 15.6442 61.0934 135.5471 24.7610 5.2114 0.8221
# 4 2.5159 17.8590 24.7610 25.2254 -4.4138 4.1869
# 5 13.9440 16.6533 5.2114 -4.4138 28.4454 6.6140
# 6 0.9147 -9.7078 0.8221 4.1869 6.6140 24.2453
#
#
#
# Elastic Compliance Matrix: (Units=1/GPa)
#
#
# Indices 1 2 3 4 5 6 
#
# 1 0.014794 -0.001462 -0.000579 -0.001192 -0.006686 0.000906
# 2 -0.001462 0.019764 -0.005828 -0.013215 -0.015233 0.014604
# 3 -0.000579 -0.005828 0.011188 -0.006286 0.001115 -0.001910
# 4 -0.001192 -0.013215 -0.006286 0.063352 0.024576 -0.022678
# 5 -0.006686 -0.015233 0.001115 0.024576 0.056926 -0.025658
# 6 0.000906 0.014604 -0.001910 -0.022678 -0.025658 0.058039
#
#
# Mechanical properties :
#
#
# Convention : Reuss Voigt Hill
#
# Bulk Modulus (GPa) = 33.32463 56.90554 45.11509
# Shear Modulus (GPa) = 20.01572 29.96915 24.99244
#
# Velocity S-wave (km/s) = 2.99393 3.66347 3.34549
# Velocity P-wave (km/s) = 5.18413 6.58624 5.92679
#
# Compressibility (1/GPa) = 0.03000783
#
# Stress axis : x y z
#
# Youngs Moduli (GPa) = 67.59645 50.59666 89.37926
#
# Poissons Ratio (x) = 0.07396 0.05177
# Poissons Ratio (y) = 0.09881 0.52092
# Poissons Ratio (z) = 0.03915 0.29488
#
# Static dielectric constant tensor:
#      x y z
#    x 4.229310 -0.137360 -0.113060 
#    y -0.137360 4.185570 0.098590 
#    z -0.113060 0.098590 4.049330 
# 
# 
# High freq. dielectric constant tensor:
#      x y z
#    x 1.887480 -0.006210 0.003030 
#    y -0.006210 1.874860 0.007510 
#    z 0.003030 0.007510 1.885570 
# 
# From -- ./inp_files/390553.got.cif
#   From: 2010.06.25/outbox.cif.g09.slc.cpg/sg2_196_cif.got.tgz:390553.got - 2010.06.27 13:26:56.
