data_PCOD8026729
_publ_section_title
;
Structure prediction by ZEFSAII (Michael W. Deem and Ramdas Pophale) SiO2 
 PCOD8026729
Probable space group: P -1
;
_chemical_formula_sum "Si O2"
_cell_formula_units_Z 16
_cell_length_a 11.763413
_cell_length_b 14.202238
_cell_length_c 11.100774
_cell_angle_alpha 102.511669
_cell_angle_beta 58.117830
_cell_angle_gamma 149.108122
_cell_volume 679.088616
_symmetry_space_group_name_H-M "P -1"
_symmetry_group_IT_number 2
_symmetry_cell_setting 'triclinic'
loop_
_space_group_symop_operation_xyz
x,y,z
-x,-y,-z
loop_
_atom_site_type_symbol
_atom_site_label
_atom_site_fract_x
_atom_site_fract_y
_atom_site_fract_z
Si Si1 0.535591 0.912409 0.496156
Si Si2 0.849118 0.664637 0.604435
Si Si3 0.321389 0.699629 0.807382
Si Si4 0.162038 0.859163 0.037867
Si Si5 0.539549 0.403494 0.189180
Si Si6 0.733168 0.130087 0.770951
Si Si7 0.834703 0.933082 0.895369
Si Si8 0.407419 0.212622 0.749804
O O1 0.318430 0.737932 0.680984
O O2 0.450231 0.789011 0.396010
O O3 0.500000 0.000000 0.500000
O O4 0.887541 0.129188 0.396901
O O5 0.659289 0.635884 0.661278
O O6 0.633339 0.445296 0.723765
O O7 0.978963 0.688899 0.425757
O O8 0.458495 0.679707 0.734549
O O9 0.557078 0.915279 0.809202
O O10 0.000000 0.500000 0.000000
O O11 0.150297 0.773555 0.131573
O O12 0.887937 0.661825 0.043718
O O13 0.116442 0.930941 0.153491
O O14 0.491404 0.057065 0.844399
O O15 0.416460 0.290439 0.096753
O O16 0.737001 0.907622 0.075580
O O17 0.148500 0.079225 0.764439
#
# Coordination Sequence:
#
# PCOD8026729 Si02
#       8
#     2   2   2   2   2   2   2   2
#     4  11  28  50  73 106 159 195 242 305 376 449
#     4  11  26  46  70 111 143 193 242 312 371 434
#     4  11  24  44  74 114 144 194 246 303 370 444
#     4  11  23  43  71 102 144 191 234 309 369 437
#     4  12  24  44  76 109 143 186 249 316 371 425
#     4  10  24  43  66 105 151 179 243 300 377 438
#     4  11  25  45  71 105 142 194 254 302 363 446
#     4  11  26  47  72 102 147 198 249 295 370 453
#
# _framework density 23.560991000000001
#
# number of rings (size 3 to 8) (size 9 to 14) (size 15 to 20)
#    0.000    1.000    5.000    0.000    5.250    6.500 
#    0.000    0.000    0.000    0.000    0.000    0.000 
#    0.000    0.000    0.000    0.000    0.000    0.000 
#
# Total GULP energy -198258.795474 kJ/mol
# GULP energy per Si atom -12391.174717 kJ/mol
# Density = 2.350736 g / cm^3
# Si number density = 23.560991 Si / 1000 Ang^3
#
#
#
# Elastic Constant Matrix: (Units=GPa)
#
#
# Indices 1 2 3 4 5 6 
#
# 1 106.0965 7.0011 33.1387 1.5712 -21.3970 -9.6503
# 2 7.0011 100.2337 17.0077 -0.9942 -11.6496 5.5920
# 3 33.1387 17.0077 91.4761 3.9584 -7.0849 3.9303
# 4 1.5712 -0.9942 3.9584 36.2778 -1.2106 -7.5663
# 5 -21.3970 -11.6496 -7.0849 -1.2106 36.3152 -0.9205
# 6 -9.6503 5.5920 3.9303 -7.5663 -0.9205 38.2780
#
#
#
# Elastic Compliance Matrix: (Units=1/GPa)
#
#
# Indices 1 2 3 4 5 6 
#
# 1 0.012430 0.000436 -0.004268 0.000971 0.006761 0.003863
# 2 0.000436 0.010713 -0.001861 0.000356 0.003314 -0.001114
# 3 -0.004268 -0.001861 0.012956 -0.001828 -0.000709 -0.002513
# 4 0.000971 0.000356 -0.001828 0.029066 0.001455 0.006161
# 5 0.006761 0.003314 -0.000709 0.001455 0.032554 0.002364
# 6 0.003863 -0.001114 -0.002513 0.006161 0.002364 0.028794
#
#
# Mechanical properties :
#
#
# Convention : Reuss Voigt Hill
#
# Bulk Modulus (GPa) = 40.46403 45.78905 43.12654
# Shear Modulus (GPa) = 34.21454 38.21811 36.21633
#
# Velocity S-wave (km/s) = 3.81487 4.03189 3.92488
# Velocity P-wave (km/s) = 6.05109 6.41493 6.23567
#
# Compressibility (1/GPa) = 0.02471331
#
# Stress axis : x y z
#
# Youngs Moduli (GPa) = 80.44768 93.34639 77.18292
#
# Poissons Ratio (x) = -0.04070 0.32945
# Poissons Ratio (y) = -0.03507 0.14360
# Poissons Ratio (z) = 0.34339 0.17368
#
# Static dielectric constant tensor:
#      x y z
#    x 4.324330 -0.034540 -0.223150 
#    y -0.034540 4.195640 -0.040330 
#    z -0.223150 -0.040330 4.101810 
# 
# 
# High freq. dielectric constant tensor:
#      x y z
#    x 1.940710 -0.006810 -0.017870 
#    y -0.006810 1.943230 0.002610 
#    z -0.017870 0.002610 1.914140 
# 
# From -- ./inp_files/434125.got.cif
#   From: 2010.06.25/outbox.cif.g09.slc.cpg/sg2_218_cif.got.tgz:434125.got - 2010.06.27 13:26:56.
