data_PCOD8026048
_publ_section_title
;
Structure prediction by ZEFSAII (Michael W. Deem and Ramdas Pophale) SiO2 
 PCOD8026048
Probable space group: P -1
;
_chemical_formula_sum "Si O2"
_cell_formula_units_Z 16
_cell_length_a 11.458249
_cell_length_b 11.280396
_cell_length_c 7.868023
_cell_angle_alpha 92.075923
_cell_angle_beta 137.679688
_cell_angle_gamma 96.129667
_cell_volume 670.633859
_symmetry_space_group_name_H-M "P -1"
_symmetry_group_IT_number 2
_symmetry_cell_setting 'triclinic'
loop_
_space_group_symop_operation_xyz
x,y,z
-x,-y,-z
loop_
_atom_site_type_symbol
_atom_site_label
_atom_site_fract_x
_atom_site_fract_y
_atom_site_fract_z
Si Si1 0.656388 0.076368 0.275082
Si Si2 0.204479 0.671492 0.666463
Si Si3 0.539891 0.322566 0.775439
Si Si4 0.220267 0.157626 0.560768
Si Si5 0.866182 0.727460 0.197849
Si Si6 0.998212 0.859485 0.993569
Si Si7 0.602971 0.133589 0.574394
Si Si8 0.508717 0.438478 0.187731
O O1 0.771100 0.181863 0.294431
O O2 0.576357 0.144002 0.345539
O O3 0.776397 0.984636 0.469429
O O4 0.500000 0.000000 0.000000
O O5 0.316954 0.621271 0.634648
O O6 0.994796 0.634197 0.392342
O O7 0.266568 0.639066 0.920945
O O8 0.416445 0.242785 0.781725
O O9 0.526922 0.239708 0.589691
O O10 0.472092 0.445503 0.657234
O O11 0.128572 0.173593 0.641776
O O12 0.123754 0.202704 0.296287
O O13 0.933721 0.796218 0.099822
O O14 0.668034 0.654746 0.955435
O O15 0.192680 0.842374 0.155770
O O16 0.000000 0.000000 0.000000
O O17 0.500000 0.000000 0.500000
O O18 0.500000 0.500000 0.000000
#
# Coordination Sequence:
#
# PCOD8026048 Si02
#       8
#     2   2   2   2   2   2   2   2
#     4  12  22  41  69 105 143 185 241 287 365 451
#     4  11  22  43  71 105 141 189 248 292 366 438
#     4  11  23  45  70 108 140 194 243 305 366 430
#     4  12  24  44  72 109 150 191 239 303 374 431
#     4  12  25  47  78 106 149 196 244 311 364 438
#     4  12  26  46  67 112 150 190 242 298 372 443
#     4  12  23  44  68 100 149 185 234 300 363 433
#     4  10  23  47  75 106 143 191 259 296 364 440
#
# _framework density 23.858025999999999
#
# number of rings (size 3 to 8) (size 9 to 14) (size 15 to 20)
#    0.000    0.500    7.500    0.750    0.000    9.000 
#    2.250    3.125    0.000    0.000    0.000    0.000 
#    0.000    0.000    0.000    0.000    0.000    0.000 
#
# Total GULP energy -198280.833271 kJ/mol
# GULP energy per Si atom -12392.552079 kJ/mol
# Density = 2.380372 g / cm^3
# Si number density = 23.858026 Si / 1000 Ang^3
#
#
#
# Elastic Constant Matrix: (Units=GPa)
#
#
# Indices 1 2 3 4 5 6 
#
# 1 115.5143 41.4640 37.4632 3.8525 5.6705 -21.5059
# 2 41.4640 107.1952 9.0490 6.0075 -0.3003 -32.7318
# 3 37.4632 9.0490 86.5292 -3.7067 -5.8899 -18.3647
# 4 3.8525 6.0075 -3.7067 26.6601 -1.3333 -3.4283
# 5 5.6705 -0.3003 -5.8899 -1.3333 41.9074 2.8811
# 6 -21.5059 -32.7318 -18.3647 -3.4283 2.8811 42.9397
#
#
#
# Elastic Compliance Matrix: (Units=1/GPa)
#
#
# Indices 1 2 3 4 5 6 
#
# 1 0.011944 -0.003810 -0.004775 -0.001515 -0.002437 0.001079
# 2 -0.003810 0.013486 0.002167 -0.000991 0.000252 0.009202
# 3 -0.004775 0.002167 0.014914 0.003135 0.002464 0.005724
# 4 -0.001515 -0.000991 0.003135 0.038833 0.001680 0.002814
# 5 -0.002437 0.000252 0.002464 0.001680 0.024696 -0.001497
# 6 0.001079 0.009202 0.005724 0.002814 -0.001497 0.033617
#
#
# Mechanical properties :
#
#
# Convention : Reuss Voigt Hill
#
# Bulk Modulus (GPa) = 36.35145 53.91012 45.13078
# Shear Modulus (GPa) = 31.34917 37.05227 34.20072
#
# Velocity S-wave (km/s) = 3.62883 3.94513 3.79028
# Velocity P-wave (km/s) = 5.72953 6.58766 6.17353
#
# Compressibility (1/GPa) = 0.02750922
#
# Stress axis : x y z
#
# Youngs Moduli (GPa) = 83.72568 74.15319 67.05020
#
# Poissons Ratio (x) = 0.28249 0.32013
# Poissons Ratio (y) = 0.31895 -0.14529
# Poissons Ratio (z) = 0.39975 -0.16068
#
# Static dielectric constant tensor:
#      x y z
#    x 4.259060 -0.153540 -0.096000 
#    y -0.153540 4.660240 0.156460 
#    z -0.096000 0.156460 3.892850 
# 
# 
# High freq. dielectric constant tensor:
#      x y z
#    x 1.941950 -0.009740 0.006400 
#    y -0.009740 1.946910 0.000590 
#    z 0.006400 0.000590 1.943730 
# 
# From -- ./inp_files/258702.got.cif
#   From: 2010.06.25/outbox.cif.g09.slc.cpg/sg2_130_cif.got.tgz:258702.got - 2010.06.27 13:26:56.
