data_PCOD8026083
_publ_section_title
;
Structure prediction by ZEFSAII (Michael W. Deem and Ramdas Pophale) SiO2 
 PCOD8026083
Probable space group: P -1
;
_chemical_formula_sum "Si O2"
_cell_formula_units_Z 12
_cell_length_a 11.153953
_cell_length_b 9.692871
_cell_length_c 7.820322
_cell_angle_alpha 103.147694
_cell_angle_beta 142.089913
_cell_angle_gamma 57.603391
_cell_volume 406.382337
_symmetry_space_group_name_H-M "P -1"
_symmetry_group_IT_number 2
_symmetry_cell_setting 'triclinic'
loop_
_space_group_symop_operation_xyz
x,y,z
-x,-y,-z
loop_
_atom_site_type_symbol
_atom_site_label
_atom_site_fract_x
_atom_site_fract_y
_atom_site_fract_z
Si Si1 0.739367 0.815107 0.772300
Si Si2 0.787028 0.353602 0.935334
Si Si3 0.055888 0.737182 0.435705
Si Si4 0.673834 0.918104 0.328342
Si Si5 0.590351 0.266775 0.379256
Si Si6 0.595022 0.661019 0.348462
O O1 0.686004 0.667417 0.649299
O O2 0.500000 0.000000 0.500000
O O3 0.917355 0.774351 0.789169
O O4 0.846605 0.811487 0.074000
O O5 0.709088 0.333461 0.654274
O O6 0.683146 0.556659 0.917447
O O7 0.672974 0.293285 0.927901
O O8 0.236817 0.790473 0.612192
O O9 0.211290 0.527390 0.566994
O O10 0.947377 0.800639 0.523700
O O11 0.579001 0.813722 0.274190
O O12 0.603425 0.096133 0.405362
O O13 0.500000 0.000000 0.000000
#
# Coordination Sequence:
#
# PCOD8026083 Si02
#       6
#     2   2   2   2   2   2
#     4  11  24  44  75 108 139 188 241 306 353 423
#     4   9  22  45  74 105 142 185 246 296 359 427
#     4  10  23  48  72 101 147 194 241 291 360 436
#     4  12  26  42  69 109 152 188 237 296 366 432
#     4   9  21  45  73 105 142 194 237 298 359 428
#     4  11  25  45  73 106 143 192 241 296 359 429
#
# _framework density 29.528842000000001
#
# number of rings (size 3 to 8) (size 9 to 14) (size 15 to 20)
#    0.000    1.667    0.000    3.500    7.000    0.667 
#    9.000    1.667    0.000    0.000    0.000    0.000 
#    0.000    0.000    0.000    0.000    0.000    0.000 
#
# Total GULP energy -148679.662096 kJ/mol
# GULP energy per Si atom -12389.971841 kJ/mol
# Density = 2.946163 g / cm^3
# Si number density = 29.528842 Si / 1000 Ang^3
#
#
#
# Elastic Constant Matrix: (Units=GPa)
#
#
# Indices 1 2 3 4 5 6 
#
# 1 193.0895 87.4969 46.0374 -33.4125 22.5885 7.2483
# 2 87.4969 204.0736 42.0172 -24.2286 26.2461 11.1039
# 3 46.0374 42.0172 89.2825 -19.9118 41.8818 3.4328
# 4 -33.4125 -24.2286 -19.9118 37.1460 -11.0077 2.7775
# 5 22.5885 26.2461 41.8818 -11.0077 52.9581 -6.1985
# 6 7.2483 11.1039 3.4328 2.7775 -6.1985 60.8738
#
#
#
# Elastic Compliance Matrix: (Units=1/GPa)
#
#
# Indices 1 2 3 4 5 6 
#
# 1 0.007389 -0.002280 -0.001916 0.004266 0.000319 -0.000518
# 2 -0.002280 0.006454 -0.000870 0.001363 -0.001378 -0.001059
# 3 -0.001916 -0.000870 0.020375 0.004607 -0.014190 -0.002417
# 4 0.004266 0.001363 0.004607 0.034524 0.000744 -0.002516
# 5 0.000319 -0.001378 -0.014190 0.000744 0.031294 0.004166
# 6 -0.000518 -0.001059 -0.002417 -0.002516 0.004166 0.017358
#
#
# Mechanical properties :
#
#
# Convention : Reuss Voigt Hill
#
# Bulk Modulus (GPa) = 41.51860 93.06094 67.28977
# Shear Modulus (GPa) = 36.88566 50.92186 43.90376
#
# Velocity S-wave (km/s) = 3.53815 4.15719 3.86010
# Velocity P-wave (km/s) = 5.54817 7.39098 6.53486
#
# Compressibility (1/GPa) = 0.02408559
#
# Stress axis : x y z
#
# Youngs Moduli (GPa) = 135.33400 154.95073 49.08094
#
# Poissons Ratio (x) = 0.35331 0.09402
# Poissons Ratio (y) = 0.30858 0.04271
# Poissons Ratio (z) = 0.25924 0.13484
#
# Static dielectric constant tensor:
#      x y z
#    x 9.439470 -2.252080 0.871240 
#    y -2.252080 6.273720 0.596360 
#    z 0.871240 0.596360 4.880480 
# 
# 
# High freq. dielectric constant tensor:
#      x y z
#    x 2.262770 -0.011820 0.008300 
#    y -0.011820 2.201350 -0.002920 
#    z 0.008300 -0.002920 2.209990 
# 
# From -- ./inp_files/244809.got.cif
#   From: 2010.06.25/outbox.cif.g09.slc.cpg/sg2_123_cif.got.tgz:244809.got - 2010.06.27 13:26:56.
