data_PCOD8026679
_publ_section_title
;
Structure prediction by ZEFSAII (Michael W. Deem and Ramdas Pophale) SiO2 
 PCOD8026679
Probable space group: P -1
;
_chemical_formula_sum "Si O2"
_cell_formula_units_Z 14
_cell_length_a 12.151598
_cell_length_b 8.302314
_cell_length_c 7.752436
_cell_angle_alpha 122.600961
_cell_angle_beta 60.358600
_cell_angle_gamma 99.946249
_cell_volume 567.951497
_symmetry_space_group_name_H-M "P -1"
_symmetry_group_IT_number 2
_symmetry_cell_setting 'triclinic'
loop_
_space_group_symop_operation_xyz
x,y,z
-x,-y,-z
loop_
_atom_site_type_symbol
_atom_site_label
_atom_site_fract_x
_atom_site_fract_y
_atom_site_fract_z
Si Si1 0.438555 0.224340 0.331849
Si Si2 0.098290 0.214606 0.944009
Si Si3 0.623990 0.848891 0.308431
Si Si4 0.379166 0.427956 0.143588
Si Si5 0.840592 0.375434 0.773939
Si Si6 0.304852 0.910357 0.084946
Si Si7 0.959610 0.920341 0.729592
O O1 0.394118 0.299024 0.601608
O O2 0.398286 0.384138 0.307035
O O3 0.375036 0.027250 0.240720
O O4 0.591720 0.166647 0.185046
O O5 0.236242 0.081767 0.738330
O O6 0.114357 0.441684 0.052759
O O7 0.023820 0.183172 0.159405
O O8 0.011875 0.131269 0.813586
O O9 0.500000 0.000000 0.500000
O O10 0.632719 0.766335 0.062204
O O11 0.243645 0.561955 0.296836
O O12 0.500000 0.500000 0.000000
O O13 0.743649 0.279776 0.913312
O O14 0.962081 0.220440 0.549212
O O15 0.188922 0.057411 0.186696
#
# Coordination Sequence:
#
# PCOD8026679 Si02
#       7
#     2   2   2   2   2   2   2
#     4  11  23  43  73 100 142 187 229 288 362 409
#     4  10  24  43  63 101 138 177 242 286 335 442
#     4  11  23  41  71 101 137 181 233 288 347 412
#     4  11  24  44  66 101 142 176 232 289 339 424
#     4  11  23  43  69  98 138 184 229 292 357 406
#     4  11  22  41  68 103 134 180 236 287 347 428
#     4  11  23  43  70  95 138 192 228 286 366 407
#
# _framework density 24.649992999999998
#
# number of rings (size 3 to 8) (size 9 to 14) (size 15 to 20)
#    0.000    1.143    1.429    6.000    2.000    1.143 
#    0.000    1.429    0.000    0.000    0.000    0.000 
#    0.000    0.000    0.000    0.000    0.000    0.000 
#
# Total GULP energy -173457.332893 kJ/mol
# GULP energy per Si atom -12389.809492 kJ/mol
# Density = 2.459389 g / cm^3
# Si number density = 24.649993 Si / 1000 Ang^3
#
#
#
# Elastic Constant Matrix: (Units=GPa)
#
#
# Indices 1 2 3 4 5 6 
#
# 1 108.7439 15.7740 43.0663 6.5031 -28.1375 9.0747
# 2 15.7740 110.7326 22.8122 6.8283 3.8490 22.6363
# 3 43.0663 22.8122 86.4250 2.7132 -15.4684 10.6514
# 4 6.5031 6.8283 2.7132 37.2982 -2.6575 0.9530
# 5 -28.1375 3.8490 -15.4684 -2.6575 27.0278 -11.7367
# 6 9.0747 22.6363 10.6514 0.9530 -11.7367 41.3266
#
#
#
# Elastic Compliance Matrix: (Units=1/GPa)
#
#
# Indices 1 2 3 4 5 6 
#
# 1 0.014892 -0.002310 -0.004587 -0.000887 0.014568 0.003335
# 2 -0.002310 0.011977 -0.002624 -0.002056 -0.009272 -0.007963
# 3 -0.004587 -0.002624 0.015340 0.000478 0.004294 -0.000301
# 4 -0.000887 -0.002056 0.000478 0.027482 0.002954 0.001403
# 5 0.014568 -0.009272 0.004294 0.002954 0.064493 0.019021
# 6 0.003335 -0.007963 -0.000301 0.001403 0.019021 0.033274
#
#
# Mechanical properties :
#
#
# Convention : Reuss Voigt Hill
#
# Bulk Modulus (GPa) = 43.16436 52.13405 47.64921
# Shear Modulus (GPa) = 25.74383 36.08045 30.91214
#
# Velocity S-wave (km/s) = 3.23518 3.83000 3.54509
# Velocity P-wave (km/s) = 5.61286 6.38390 6.01075
#
# Compressibility (1/GPa) = 0.02316726
#
# Stress axis : x y z
#
# Youngs Moduli (GPa) = 67.15140 83.49164 65.19088
#
# Poissons Ratio (x) = 0.19285 0.29901
# Poissons Ratio (y) = 0.15511 0.17106
# Poissons Ratio (z) = 0.30801 0.21908
#
# Static dielectric constant tensor:
#      x y z
#    x 9.008690 0.810720 -0.898850 
#    y 0.810720 4.591040 -0.311060 
#    z -0.898850 -0.311060 4.572840 
# 
# 
# High freq. dielectric constant tensor:
#      x y z
#    x 1.989010 0.011080 -0.014460 
#    y 0.011080 1.982010 -0.019690 
#    z -0.014460 -0.019690 1.967880 
# 
# From -- ./inp_files/296571.got.cif
#   From: 2010.06.25/outbox.cif.g09.slc.cpg/sg2_149_cif.got.tgz:296571.got - 2010.06.27 13:26:56.
