data_PCOD8026727
_publ_section_title
;
Structure prediction by ZEFSAII (Michael W. Deem and Ramdas Pophale) SiO2 
 PCOD8026727
Probable space group: P -1
;
_chemical_formula_sum "Si O2"
_cell_formula_units_Z 16
_cell_length_a 12.772026
_cell_length_b 13.506346
_cell_length_c 10.625711
_cell_angle_alpha 102.569578
_cell_angle_beta 145.594378
_cell_angle_gamma 54.278483
_cell_volume 687.560255
_symmetry_space_group_name_H-M "P -1"
_symmetry_group_IT_number 2
_symmetry_cell_setting 'triclinic'
loop_
_space_group_symop_operation_xyz
x,y,z
-x,-y,-z
loop_
_atom_site_type_symbol
_atom_site_label
_atom_site_fract_x
_atom_site_fract_y
_atom_site_fract_z
Si Si1 0.609067 0.014657 0.234366
Si Si2 0.424499 0.392563 0.874727
Si Si3 0.467684 0.720970 0.782923
Si Si4 0.322723 0.055199 0.212782
Si Si5 0.073097 0.700394 0.702598
Si Si6 0.766848 0.346343 0.656764
Si Si7 0.046164 0.518410 0.190123
Si Si8 0.649910 0.745779 0.419123
O O1 0.431831 0.070707 0.201477
O O2 0.907241 0.849020 0.500235
O O3 0.646858 0.119218 0.277897
O O4 0.500000 0.000000 0.000000
O O5 0.565212 0.324093 0.131243
O O6 0.647140 0.356411 0.992400
O O7 0.157840 0.570402 0.663687
O O8 0.340691 0.316916 0.720430
O O9 0.306881 0.721347 0.518627
O O10 0.788996 0.594802 0.040612
O O11 0.359048 0.919426 0.189140
O O12 0.500000 0.000000 0.500000
O O13 0.003499 0.214318 0.953895
O O14 0.892166 0.733230 0.649950
O O15 0.500000 0.500000 0.500000
O O16 0.891812 0.387447 0.709343
O O17 0.304968 0.349452 0.447938
O O18 0.000000 0.500000 0.000000
#
# Coordination Sequence:
#
# PCOD8026727 Si02
#       8
#     2   2   2   2   2   2   2   2
#     4  11  26  46  74 105 149 197 240 298 372 441
#     4  11  25  42  71 106 141 184 239 299 362 432
#     4  12  26  44  76 105 147 188 244 304 366 436
#     4  11  26  49  75 105 151 195 244 305 372 443
#     4  10  24  43  66 104 145 175 240 293 357 427
#     4  12  28  47  76 110 143 192 254 305 368 440
#     4  12  25  47  72 103 143 193 247 303 366 440
#     4  11  25  44  74  99 145 192 235 294 373 433
#
# _framework density 23.270686999999999
#
# number of rings (size 3 to 8) (size 9 to 14) (size 15 to 20)
#    0.000    0.750    3.750    2.625    8.750    0.500 
#    0.000    1.250    0.000    0.000    0.000    0.000 
#    0.000    0.000    0.000    0.000    0.000    0.000 
#
# Total GULP energy -198298.071926 kJ/mol
# GULP energy per Si atom -12393.629495 kJ/mol
# Density = 2.321772 g / cm^3
# Si number density = 23.270687 Si / 1000 Ang^3
#
#
#
# Elastic Constant Matrix: (Units=GPa)
#
#
# Indices 1 2 3 4 5 6 
#
# 1 72.7868 38.1617 44.2793 4.2966 -9.3314 3.0989
# 2 38.1617 178.7113 68.2073 -17.9798 -6.2184 21.9687
# 3 44.2793 68.2073 121.9832 -15.1344 -6.5138 1.1805
# 4 4.2966 -17.9798 -15.1344 58.5527 1.9508 -3.0146
# 5 -9.3314 -6.2184 -6.5138 1.9508 30.8882 -0.0376
# 6 3.0989 21.9687 1.1805 -3.0146 -0.0376 40.6153
#
#
#
# Elastic Compliance Matrix: (Units=1/GPa)
#
#
# Indices 1 2 3 4 5 6 
#
# 1 0.019305 -0.001937 -0.006154 -0.003775 0.004382 -0.000523
# 2 -0.001937 0.008003 -0.003541 0.001474 0.000181 -0.003969
# 3 -0.006154 -0.003541 0.012731 0.002771 -0.000060 0.002220
# 4 -0.003775 0.001474 0.002771 0.018613 -0.001434 0.000790
# 5 0.004382 0.000181 -0.000060 -0.001434 0.033813 -0.000506
# 6 -0.000523 -0.003969 0.002220 0.000790 -0.000506 0.026801
#
#
# Mechanical properties :
#
#
# Convention : Reuss Voigt Hill
#
# Bulk Modulus (GPa) = 59.61075 74.97534 67.29304
# Shear Modulus (GPa) = 33.75633 40.86676 37.31155
#
# Velocity S-wave (km/s) = 3.81280 4.19519 4.00856
# Velocity P-wave (km/s) = 6.71231 7.46692 7.09965
#
# Compressibility (1/GPa) = 0.01677550
#
# Stress axis : x y z
#
# Youngs Moduli (GPa) = 51.80096 124.95172 78.54980
#
# Poissons Ratio (x) = 0.24198 0.48339
# Poissons Ratio (y) = 0.10032 0.27814
# Poissons Ratio (z) = 0.31878 0.44245
#
# Static dielectric constant tensor:
#      x y z
#    x 4.123460 0.111930 0.105480 
#    y 0.111930 4.624410 -0.284940 
#    z 0.105480 -0.284940 4.348250 
# 
# 
# High freq. dielectric constant tensor:
#      x y z
#    x 1.910280 0.011890 0.000200 
#    y 0.011890 1.942880 -0.014200 
#    z 0.000200 -0.014200 1.916510 
# 
# From -- ./inp_files/454894.got.cif
#   From: 2010.06.25/outbox.cif.g09.slc.cpg/sg2_228_cif.got.tgz:454894.got - 2010.06.27 13:26:56.
