data_PCOD8026400
_publ_section_title
;
Structure prediction by ZEFSAII (Michael W. Deem and Ramdas Pophale) SiO2 
 PCOD8026400
Probable space group: P -1
;
_chemical_formula_sum "Si O2"
_cell_formula_units_Z 16
_cell_length_a 5.364555
_cell_length_b 9.424692
_cell_length_c 19.729048
_cell_angle_alpha 129.419183
_cell_angle_beta 110.483743
_cell_angle_gamma 54.792923
_cell_volume 629.413881
_symmetry_space_group_name_H-M "P -1"
_symmetry_group_IT_number 2
_symmetry_cell_setting 'triclinic'
loop_
_space_group_symop_operation_xyz
x,y,z
-x,-y,-z
loop_
_atom_site_type_symbol
_atom_site_label
_atom_site_fract_x
_atom_site_fract_y
_atom_site_fract_z
Si Si1 0.506217 0.492297 0.394727
Si Si2 0.572068 0.779990 0.583660
Si Si3 0.142281 0.059970 0.247665
Si Si4 0.271958 0.582552 0.756840
Si Si5 0.272756 0.045488 0.054226
Si Si6 0.911100 0.753226 0.345553
Si Si7 0.283065 0.151884 0.842572
Si Si8 0.844350 0.515618 0.839004
O O1 0.676325 0.610118 0.481069
O O2 0.532400 0.305259 0.387810
O O3 0.636758 0.388418 0.303106
O O4 0.153580 0.674655 0.406210
O O5 0.856370 0.813635 0.645136
O O6 0.291659 0.997153 0.595578
O O7 0.056948 0.203328 0.212831
O O8 0.504877 0.900874 0.221104
O O9 0.928025 0.956891 0.205764
O O10 0.295760 0.358095 0.698617
O O11 0.479249 0.611650 0.842923
O O12 0.497695 0.892922 0.086725
O O13 0.099624 0.299629 0.129697
O O14 0.500000 0.000000 0.000000
O O15 0.000000 0.000000 0.000000
O O16 0.082359 0.670315 0.264891
O O17 0.044712 0.404639 0.891159
#
# Coordination Sequence:
#
# PCOD8026400 Si02
#       8
#     2   2   2   2   2   2   2   2
#     4  10  24  42  60  97 147 195 241 311 364 427
#     4  11  22  42  66  98 143 191 252 301 368 417
#     4  12  23  44  74 107 141 192 246 299 358 421
#     4  11  23  42  69 101 144 195 247 304 362 423
#     4  12  29  50  77 111 150 184 224 293 370 439
#     4  11  22  42  67 101 136 192 248 303 355 423
#     4  12  26  48  78 109 142 189 239 298 352 440
#     4  11  26  44  77 105 143 188 245 289 354 438
#
# _framework density 25.420476000000001
#
# number of rings (size 3 to 8) (size 9 to 14) (size 15 to 20)
#    0.000    0.750    3.750    3.375    1.750    2.000 
#    2.250    0.000    0.000    0.000    0.000    0.000 
#    0.000    0.000    0.000    0.000    0.000    0.000 
#
# Total GULP energy -198295.907570 kJ/mol
# GULP energy per Si atom -12393.494223 kJ/mol
# Density = 2.536262 g / cm^3
# Si number density = 25.420476 Si / 1000 Ang^3
#
#
#
# Elastic Constant Matrix: (Units=GPa)
#
#
# Indices 1 2 3 4 5 6 
#
# 1 111.4941 23.2774 21.1533 -9.7820 40.5710 -3.5284
# 2 23.2774 189.3810 17.1508 -2.6635 27.7091 -18.1112
# 3 21.1533 17.1508 46.1462 -9.9470 35.6603 -13.3605
# 4 -9.7820 -2.6635 -9.9470 32.9251 -4.4507 5.1899
# 5 40.5710 27.7091 35.6603 -4.4507 49.9176 -7.6157
# 6 -3.5284 -18.1112 -13.3605 5.1899 -7.6157 38.8337
#
#
#
# Elastic Compliance Matrix: (Units=1/GPa)
#
#
# Indices 1 2 3 4 5 6 
#
# 1 0.013691 0.000037 0.006457 0.003948 -0.015420 -0.000069
# 2 0.000037 0.005979 0.001782 0.000057 -0.004225 0.002569
# 3 0.006457 0.001782 0.059284 0.012011 -0.045805 0.011226
# 4 0.003948 0.000057 0.012011 0.034244 -0.009048 -0.001833
# 5 -0.015420 -0.004225 -0.045805 -0.009048 0.066069 -0.004964
# 6 -0.000069 0.002569 0.011226 -0.001833 -0.004964 0.030076
#
#
# Mechanical properties :
#
#
# Convention : Reuss Voigt Hill
#
# Bulk Modulus (GPa) = 10.47040 52.24270 31.35655
# Shear Modulus (GPa) = 22.25912 43.36460 32.81186
#
# Velocity S-wave (km/s) = 2.96233 4.13473 3.59662
# Velocity P-wave (km/s) = 3.97848 6.58716 5.44146
#
# Compressibility (1/GPa) = 0.09550733
#
# Stress axis : x y z
#
# Youngs Moduli (GPa) = 73.03805 167.25002 16.86800
#
# Poissons Ratio (x) = -0.00627 -0.10892
# Poissons Ratio (y) = -0.00274 -0.03006
# Poissons Ratio (z) = -0.47161 -0.29802
#
# Static dielectric constant tensor:
#      x y z
#    x 4.669040 -0.455740 0.016160 
#    y -0.455740 5.034120 -0.024220 
#    z 0.016160 -0.024220 4.496530 
# 
# 
# High freq. dielectric constant tensor:
#      x y z
#    x 2.019480 -0.018330 0.011180 
#    y -0.018330 2.042720 -0.003950 
#    z 0.011180 -0.003950 1.997470 
# 
# From -- ./inp_files/582618.got.cif
#   From: 2010.06.25/outbox.cif.g09.slc.cpg/sg2_292_cif.got.tgz:582618.got - 2010.06.27 13:26:56.
