data_PCOD8026172
_publ_section_title
;
Structure prediction by ZEFSAII (Michael W. Deem and Ramdas Pophale) SiO2 
 PCOD8026172
Probable space group: P -1
;
_chemical_formula_sum "Si O2"
_cell_formula_units_Z 14
_cell_length_a 8.901910
_cell_length_b 8.536923
_cell_length_c 13.675933
_cell_angle_alpha 35.610632
_cell_angle_beta 88.259638
_cell_angle_gamma 75.820292
_cell_volume 559.883418
_symmetry_space_group_name_H-M "P -1"
_symmetry_group_IT_number 2
_symmetry_cell_setting 'triclinic'
loop_
_space_group_symop_operation_xyz
x,y,z
-x,-y,-z
loop_
_atom_site_type_symbol
_atom_site_label
_atom_site_fract_x
_atom_site_fract_y
_atom_site_fract_z
Si Si1 0.734879 0.544487 0.454176
Si Si2 0.681618 0.789983 0.106299
Si Si3 0.066321 0.132828 0.626806
Si Si4 0.617689 0.071294 0.772344
Si Si5 0.349752 0.265328 0.256535
Si Si6 0.692001 0.188353 0.366367
Si Si7 0.884397 0.074031 0.057925
O O1 0.808119 0.703849 0.450071
O O2 0.669152 0.343810 0.621523
O O3 0.580327 0.778691 0.278581
O O4 0.887939 0.344838 0.484578
O O5 0.731990 0.860782 0.960618
O O6 0.779368 0.872909 0.148766
O O7 0.694332 0.461588 0.288938
O O8 0.500000 0.000000 0.000000
O O9 0.151380 0.888536 0.668604
O O10 0.033809 0.008792 0.795008
O O11 0.651391 0.862760 0.784785
O O12 0.526224 0.274069 0.265175
O O13 0.221477 0.587189 0.109523
O O14 0.295844 0.070866 0.430585
O O15 0.000000 0.000000 0.000000
#
# Coordination Sequence:
#
# PCOD8026172 Si02
#       7
#     2   2   2   2   2   2   2
#     4  10  24  39  75 104 134 182 237 283 355 403
#     4  12  26  43  73 106 139 180 242 286 342 421
#     4  11  24  45  72  99 147 182 234 287 352 414
#     4  11  24  44  73 100 146 181 233 289 352 414
#     4  11  26  45  70 103 146 185 232 288 360 415
#     4  11  26  45  71 105 142 186 235 290 351 419
#     4  12  28  46  72 105 145 185 230 292 356 415
#
# _framework density 25.005206000000001
#
# number of rings (size 3 to 8) (size 9 to 14) (size 15 to 20)
#    0.000    0.857    2.857    2.571   12.000    2.286 
#    0.000    4.286    0.000    0.000    0.000    0.000 
#    0.000    0.000    0.000    0.000    0.000    0.000 
#
# Total GULP energy -173553.657938 kJ/mol
# GULP energy per Si atom -12396.689853 kJ/mol
# Density = 2.494829 g / cm^3
# Si number density = 25.005206 Si / 1000 Ang^3
#
#
#
# Elastic Constant Matrix: (Units=GPa)
#
#
# Indices 1 2 3 4 5 6 
#
# 1 78.7676 24.2614 27.5107 -7.5550 0.4855 -17.0970
# 2 24.2614 146.6257 45.1630 -10.6156 10.6663 -28.3715
# 3 27.5107 45.1630 126.9251 -9.1040 4.4456 -0.8207
# 4 -7.5550 -10.6156 -9.1040 47.6160 4.9900 6.8098
# 5 0.4855 10.6663 4.4456 4.9900 42.1267 -4.6469
# 6 -17.0970 -28.3715 -0.8207 6.8098 -4.6469 44.7495
#
#
#
# Elastic Compliance Matrix: (Units=1/GPa)
#
#
# Indices 1 2 3 4 5 6 
#
# 1 0.015155 -0.000535 -0.003025 0.000862 0.000767 0.005344
# 2 -0.000535 0.008975 -0.002937 0.000771 -0.001478 0.005161
# 3 -0.003025 -0.002937 0.009674 0.001235 -0.000731 -0.003104
# 4 0.000862 0.000771 0.001235 0.022306 -0.003297 -0.002896
# 5 0.000767 -0.001478 -0.000731 -0.003297 0.024838 0.002424
# 6 0.005344 0.005161 -0.003104 -0.002896 0.002424 0.028296
#
#
# Mechanical properties :
#
#
# Convention : Reuss Voigt Hill
#
# Bulk Modulus (GPa) = 48.05572 60.68763 54.37168
# Shear Modulus (GPa) = 38.70725 43.92399 41.31562
#
# Velocity S-wave (km/s) = 3.93869 4.19572 4.06924
# Velocity P-wave (km/s) = 6.32016 6.91338 6.62341
#
# Compressibility (1/GPa) = 0.02080918
#
# Stress axis : x y z
#
# Youngs Moduli (GPa) = 65.98600 111.41553 103.37498
#
# Poissons Ratio (x) = 0.05965 0.31268
# Poissons Ratio (y) = 0.03533 0.30363
# Poissons Ratio (z) = 0.19959 0.32724
#
# Static dielectric constant tensor:
#      x y z
#    x 4.033420 -1.512940 -2.823150 
#    y -1.512940 1.457740 -6.039520 
#    z -2.823150 -6.039520 -7.293380 
# 
# 
# High freq. dielectric constant tensor:
#      x y z
#    x 2.006120 -0.006380 -0.003770 
#    y -0.006380 2.006930 0.005880 
#    z -0.003770 0.005880 2.017130 
# 
# From -- ./inp_files/494238.got.cif
#   From: 2010.06.25/outbox.cif.g09.slc.cpg/sg2_248_cif.got.tgz:494238.got - 2010.06.27 13:26:56.
