data_PCOD8026107
_publ_section_title
;
Structure prediction by ZEFSAII (Michael W. Deem and Ramdas Pophale) SiO2 
 PCOD8026107
Probable space group: P -1
;
_chemical_formula_sum "Si O2"
_cell_formula_units_Z 16
_cell_length_a 24.096062
_cell_length_b 6.898927
_cell_length_c 8.270321
_cell_angle_alpha 54.025823
_cell_angle_beta 135.416241
_cell_angle_gamma 98.208372
_cell_volume 682.939581
_symmetry_space_group_name_H-M "P -1"
_symmetry_group_IT_number 2
_symmetry_cell_setting 'triclinic'
loop_
_space_group_symop_operation_xyz
x,y,z
-x,-y,-z
loop_
_atom_site_type_symbol
_atom_site_label
_atom_site_fract_x
_atom_site_fract_y
_atom_site_fract_z
Si Si1 0.064965 0.958929 0.305919
Si Si2 0.140163 0.221856 0.524890
Si Si3 0.330370 0.696575 0.169376
Si Si4 0.542613 0.167120 0.426617
Si Si5 0.813065 0.306097 0.574495
Si Si6 0.633436 0.344640 0.097500
Si Si7 0.947366 0.800955 0.310570
Si Si8 0.597389 0.902476 0.326421
O O1 0.161357 0.728703 0.547438
O O2 0.027474 0.885152 0.427525
O O3 0.074090 0.227204 0.239677
O O4 0.000000 0.000000 0.000000
O O5 0.164455 0.462026 0.424732
O O6 0.090986 0.230732 0.584535
O O7 0.226493 0.922424 0.837595
O O8 0.381095 0.833382 0.300795
O O9 0.342303 0.422988 0.415870
O O10 0.374745 0.577393 0.145491
O O11 0.500000 0.000000 0.500000
O O12 0.589380 0.012964 0.436798
O O13 0.460357 0.477795 0.086494
O O14 0.707727 0.395415 0.320535
O O15 0.865516 0.022978 0.921840
O O16 0.653244 0.030847 0.290106
O O17 0.000000 0.500000 0.500000
O O18 0.500000 0.000000 0.000000
#
# Coordination Sequence:
#
# PCOD8026107 Si02
#       8
#     2   2   2   2   2   2   2   2
#     4  10  23  49  72 105 141 187 240 295 364 438
#     4  12  26  46  76 108 148 191 242 301 370 428
#     4  12  27  46  71 110 146 194 244 300 362 429
#     4  12  24  45  75 102 147 198 241 295 363 425
#     4  11  26  47  72 108 149 190 237 305 362 436
#     4  12  25  47  72 105 152 193 245 298 364 427
#     4  11  25  47  78 105 144 185 243 296 367 441
#     4  12  27  46  73 105 147 194 252 302 352 431
#
# _framework density 23.428134
#
# number of rings (size 3 to 8) (size 9 to 14) (size 15 to 20)
#    0.000    0.500    5.000    2.625    1.750    4.000 
#    4.500    0.000    0.000    0.000    0.000    0.000 
#    0.000    0.000    0.000    0.000    0.000    0.000 
#
# Total GULP energy -198244.322030 kJ/mol
# GULP energy per Si atom -12390.270127 kJ/mol
# Density = 2.337481 g / cm^3
# Si number density = 23.428134 Si / 1000 Ang^3
#
#
#
# Elastic Constant Matrix: (Units=GPa)
#
#
# Indices 1 2 3 4 5 6 
#
# 1 67.4205 28.5059 15.8551 4.3679 7.2481 8.1886
# 2 28.5059 177.4335 56.2030 13.6848 -3.0645 24.4185
# 3 15.8551 56.2030 78.7568 -1.1582 -5.2293 0.1940
# 4 4.3679 13.6848 -1.1582 48.6700 4.6611 2.6897
# 5 7.2481 -3.0645 -5.2293 4.6611 26.6642 -8.8461
# 6 8.1886 24.4185 0.1940 2.6897 -8.8461 49.5312
#
#
#
# Elastic Compliance Matrix: (Units=1/GPa)
#
#
# Indices 1 2 3 4 5 6 
#
# 1 0.017240 -0.001517 -0.002812 -0.000396 -0.006409 -0.003214
# 2 -0.001517 0.008378 -0.005739 -0.002079 -0.000669 -0.003864
# 3 -0.002812 -0.005739 0.017678 0.001627 0.004600 0.003958
# 4 -0.000396 -0.002079 0.001627 0.021617 -0.003849 -0.000777
# 5 -0.006409 -0.000669 0.004600 -0.003849 0.043867 0.009415
# 6 -0.003214 -0.003864 0.003958 -0.000777 0.009415 0.024334
#
#
# Mechanical properties :
#
#
# Convention : Reuss Voigt Hill
#
# Bulk Modulus (GPa) = 43.17502 58.30429 50.73965
# Shear Modulus (GPa) = 31.06192 39.84286 35.45239
#
# Velocity S-wave (km/s) = 3.64516 4.12836 3.89426
# Velocity P-wave (km/s) = 6.01539 6.90398 6.47495
#
# Compressibility (1/GPa) = 0.02316154
#
# Stress axis : x y z
#
# Youngs Moduli (GPa) = 58.00481 119.36251 56.56651
#
# Poissons Ratio (x) = 0.18106 0.15905
# Poissons Ratio (y) = 0.08799 0.32462
# Poissons Ratio (z) = 0.16309 0.68499
#
# Static dielectric constant tensor:
#      x y z
#    x 4.468540 0.048280 0.279170 
#    y 0.048280 5.370960 -0.031970 
#    z 0.279170 -0.031970 4.259650 
# 
# 
# High freq. dielectric constant tensor:
#      x y z
#    x 1.935090 0.008370 0.009300 
#    y 0.008370 1.950610 -0.002420 
#    z 0.009300 -0.002420 1.916420 
# 
# From -- ./inp_files/355962.got.cif
#   From: 2010.06.25/outbox.cif.g09.slc.cpg/sg2_178_cif.got.tgz:355962.got - 2010.06.27 13:26:56.
