data_PCOD8026820
_publ_section_title
;
Structure prediction by ZEFSAII (Michael W. Deem and Ramdas Pophale) SiO2 
 PCOD8026820
Probable space group: P -1
;
_chemical_formula_sum "Si O2"
_cell_formula_units_Z 16
_cell_length_a 8.982896
_cell_length_b 15.786191
_cell_length_c 9.262335
_cell_angle_alpha 67.116622
_cell_angle_beta 65.667959
_cell_angle_gamma 40.692075
_cell_volume 773.806232
_symmetry_space_group_name_H-M "P -1"
_symmetry_group_IT_number 2
_symmetry_cell_setting 'triclinic'
loop_
_space_group_symop_operation_xyz
x,y,z
-x,-y,-z
loop_
_atom_site_type_symbol
_atom_site_label
_atom_site_fract_x
_atom_site_fract_y
_atom_site_fract_z
Si Si1 0.228282 0.093729 0.548206
Si Si2 0.963566 0.324824 0.715762
Si Si3 0.050424 0.771092 0.709451
Si Si4 0.818982 0.676185 0.870223
Si Si5 0.973875 0.147258 0.024497
Si Si6 0.842944 0.592282 0.226876
Si Si7 0.553838 0.563641 0.536457
Si Si8 0.309546 0.914032 0.851329
O O1 0.107235 0.228983 0.585447
O O2 0.121809 0.122483 0.414557
O O3 0.500000 0.000000 0.500000
O O4 0.184674 0.015801 0.700881
O O5 0.729383 0.465508 0.658409
O O6 0.112826 0.341275 0.727825
O O7 0.903852 0.267585 0.888267
O O8 0.979628 0.851163 0.829113
O O9 0.315312 0.691017 0.621338
O O10 0.016955 0.674847 0.806736
O O11 0.588374 0.811977 0.801188
O O12 0.917959 0.558741 0.800797
O O13 0.747190 0.665009 0.062406
O O14 0.757621 0.165722 0.072981
O O15 0.213666 0.003668 0.972758
O O16 0.650337 0.606704 0.370268
O O17 0.500000 0.500000 0.500000
#
# Coordination Sequence:
#
# PCOD8026820 Si02
#       8
#     2   2   2   2   2   2   2   2
#     4  11  23  41  69  95 133 173 221 274 329 392
#     4  11  24  44  68  97 133 178 222 266 339 393
#     4  12  24  44  68 102 132 176 224 273 335 389
#     4  11  23  42  69  98 135 173 226 268 333 395
#     4  10  25  44  67 100 131 171 227 276 331 392
#     4  11  25  42  67 102 134 178 220 272 333 400
#     4  12  25  41  66  99 144 169 214 283 329 393
#     4  10  24  43  68  95 134 175 216 282 331 393
#
# _framework density 20.677011
#
# number of rings (size 3 to 8) (size 9 to 14) (size 15 to 20)
#    0.000    1.000    5.000    0.375    3.500    4.500 
#    0.000    0.000    0.000    0.000    0.000    0.000 
#    0.000    0.000    0.000    0.000    0.000    0.000 
#
# Total GULP energy -198472.061434 kJ/mol
# GULP energy per Si atom -12404.503840 kJ/mol
# Density = 2.062995 g / cm^3
# Si number density = 20.677011 Si / 1000 Ang^3
#
#
#
# Elastic Constant Matrix: (Units=GPa)
#
#
# Indices 1 2 3 4 5 6 
#
# 1 98.9134 35.3935 62.2975 -5.9263 -12.2132 6.1884
# 2 35.3935 80.6742 52.8775 -7.5844 2.6017 -13.9270
# 3 62.2975 52.8775 144.0497 -2.0333 1.4797 4.8199
# 4 -5.9263 -7.5844 -2.0333 28.9082 4.2192 -2.3530
# 5 -12.2132 2.6017 1.4797 4.2192 41.8061 -0.2917
# 6 6.1884 -13.9270 4.8199 -2.3530 -0.2917 40.6468
#
#
#
# Elastic Compliance Matrix: (Units=1/GPa)
#
#
# Indices 1 2 3 4 5 6 
#
# 1 0.015717 -0.004079 -0.005236 0.000813 0.004927 -0.003087
# 2 -0.004079 0.019971 -0.005749 0.005076 -0.002685 0.008420
# 3 -0.005236 -0.005749 0.011394 -0.001789 -0.001413 -0.002638
# 4 0.000813 0.005076 -0.001789 0.036826 -0.003704 0.003933
# 5 0.004927 -0.002685 -0.001413 -0.003704 0.025940 -0.001531
# 6 -0.003087 0.008420 -0.002638 0.003933 -0.001531 0.028487
#
#
# Mechanical properties :
#
#
# Convention : Reuss Voigt Hill
#
# Bulk Modulus (GPa) = 58.98274 69.41937 64.20105
# Shear Modulus (GPa) = 28.71678 33.81013 31.26345
#
# Velocity S-wave (km/s) = 3.73074 4.04809 3.89265
# Velocity P-wave (km/s) = 6.86626 7.44953 7.16384
#
# Compressibility (1/GPa) = 0.01695411
#
# Stress axis : x y z
#
# Youngs Moduli (GPa) = 63.62409 50.07297 87.76311
#
# Poissons Ratio (x) = 0.20426 0.45951
# Poissons Ratio (y) = 0.25953 0.50457
# Poissons Ratio (z) = 0.33312 0.28788
#
# Static dielectric constant tensor:
#      x y z
#    x 3.793400 -0.021500 -0.139120 
#    y -0.021500 3.847850 -0.015530 
#    z -0.139120 -0.015530 4.100470 
# 
# 
# High freq. dielectric constant tensor:
#      x y z
#    x 1.805910 0.005750 -0.006180 
#    y 0.005750 1.808550 -0.000370 
#    z -0.006180 -0.000370 1.828980 
# 
# From -- ./inp_files/188315.got.cif
#   From: 2010.06.25/outbox.cif.g09.slc.cpg/sg2_95_cif.got.tgz:188315.got - 2010.06.27 13:26:56.
