data_PCOD8026502
_publ_section_title
;
Structure prediction by ZEFSAII (Michael W. Deem and Ramdas Pophale) SiO2 
 PCOD8026502
Probable space group: P -1
;
_chemical_formula_sum "Si O2"
_cell_formula_units_Z 16
_cell_length_a 8.322853
_cell_length_b 14.587448
_cell_length_c 9.629675
_cell_angle_alpha 113.040500
_cell_angle_beta 82.229358
_cell_angle_gamma 50.473221
_cell_volume 697.694873
_symmetry_space_group_name_H-M "P -1"
_symmetry_group_IT_number 2
_symmetry_cell_setting 'triclinic'
loop_
_space_group_symop_operation_xyz
x,y,z
-x,-y,-z
loop_
_atom_site_type_symbol
_atom_site_label
_atom_site_fract_x
_atom_site_fract_y
_atom_site_fract_z
Si Si1 0.917349 0.337475 0.853488
Si Si2 0.529782 0.285505 0.525632
Si Si3 0.374910 0.142867 0.507441
Si Si4 0.185287 0.829825 0.324979
Si Si5 0.717182 0.165306 0.151374
Si Si6 0.362464 0.142457 0.192940
Si Si7 0.004891 0.389880 0.171774
Si Si8 0.431821 0.347953 0.037540
O O1 0.935665 0.209065 0.761128
O O2 0.657765 0.504592 0.928140
O O3 0.124269 0.290941 0.703072
O O4 0.962277 0.342163 0.012572
O O5 0.550739 0.157799 0.484695
O O6 0.667940 0.282995 0.627214
O O7 0.684972 0.240399 0.342651
O O8 0.244025 0.446606 0.643066
O O9 0.316188 0.129399 0.349822
O O10 0.500000 0.000000 0.500000
O O11 0.384651 0.789720 0.176455
O O12 0.000000 0.000000 0.500000
O O13 0.534813 0.157796 0.181243
O O14 0.606704 0.286191 0.114248
O O15 0.000000 0.000000 0.000000
O O16 0.102644 0.281564 0.227393
O O17 0.500000 0.000000 0.000000
O O18 0.199164 0.385411 0.109323
#
# Coordination Sequence:
#
# PCOD8026502 Si02
#       8
#     2   2   2   2   2   2   2   2
#     4  12  24  42  67 102 135 174 228 277 336 396
#     4  11  23  43  67  97 133 178 223 274 339 395
#     4  11  23  40  68 101 132 174 225 279 330 398
#     4  12  26  43  65  97 137 179 227 275 333 401
#     4  10  24  43  68  94 134 179 217 275 342 400
#     4  10  24  42  66  99 135 172 223 274 337 398
#     4  11  23  43  72  96 134 177 222 282 333 394
#     4  11  23  43  70  98 136 174 226 276 336 399
#
# _framework density 22.932659999999998
#
# number of rings (size 3 to 8) (size 9 to 14) (size 15 to 20)
#    0.000    1.000    2.500    3.750    1.750    8.500 
#    0.000    0.625    0.000    0.000    0.000    0.000 
#    0.000    0.000    0.000    0.000    0.000    0.000 
#
# Total GULP energy -198343.629924 kJ/mol
# GULP energy per Si atom -12396.476870 kJ/mol
# Density = 2.288046 g / cm^3
# Si number density = 22.932660 Si / 1000 Ang^3
#
#
#
# Elastic Constant Matrix: (Units=GPa)
#
#
# Indices 1 2 3 4 5 6 
#
# 1 51.2500 37.1311 29.3500 -0.2237 7.2680 -14.7284
# 2 37.1311 169.4382 65.9847 -14.9214 4.9456 -20.3484
# 3 29.3500 65.9847 177.4827 -15.6832 -8.2942 -13.2851
# 4 -0.2237 -14.9214 -15.6832 48.1112 -11.0489 10.0639
# 5 7.2680 4.9456 -8.2942 -11.0489 36.8032 5.6971
# 6 -14.7284 -20.3484 -13.2851 10.0639 5.6971 29.3706
#
#
#
# Elastic Compliance Matrix: (Units=1/GPa)
#
#
# Indices 1 2 3 4 5 6 
#
# 1 0.030497 -0.003699 -0.003717 -0.008167 -0.011298 0.016039
# 2 -0.003699 0.007953 -0.002107 0.001029 -0.000895 0.002523
# 3 -0.003717 -0.002107 0.007342 0.002973 0.003838 -0.001766
# 4 -0.008167 0.001029 0.002973 0.027891 0.012694 -0.014056
# 5 -0.011298 -0.000895 0.003838 0.012694 0.036678 -0.016013
# 6 0.016039 0.002523 -0.001766 -0.014056 -0.016013 0.050962
#
#
# Mechanical properties :
#
#
# Convention : Reuss Voigt Hill
#
# Bulk Modulus (GPa) = 37.38913 73.67807 55.53360
# Shear Modulus (GPa) = 26.41543 40.57068 33.49306
#
# Velocity S-wave (km/s) = 3.39760 4.21066 3.82579
# Velocity P-wave (km/s) = 5.63302 7.47243 6.61695
#
# Compressibility (1/GPa) = 0.02674574
#
# Stress axis : x y z
#
# Youngs Moduli (GPa) = 32.79062 125.74390 136.19706
#
# Poissons Ratio (x) = 0.46510 0.50625
# Poissons Ratio (y) = 0.12129 0.28697
# Poissons Ratio (z) = 0.12188 0.26494
#
# Static dielectric constant tensor:
#      x y z
#    x 3.934990 -0.285520 -0.046770 
#    y -0.285520 4.405610 -0.139360 
#    z -0.046770 -0.139360 4.498410 
# 
# 
# High freq. dielectric constant tensor:
#      x y z
#    x 1.888330 -0.018560 -0.002620 
#    y -0.018560 1.913660 -0.003750 
#    z -0.002620 -0.003750 1.927360 
# 
# From -- ./inp_files/208289.got.cif
#   From: 2010.06.25/outbox.cif.g09.slc.cpg/sg2_105_cif.got.tgz:208289.got - 2010.06.27 13:26:56.
