data_PCOD8026741
_publ_section_title
;
Structure prediction by ZEFSAII (Michael W. Deem and Ramdas Pophale) SiO2 
 PCOD8026741
Probable space group: P -1
;
_chemical_formula_sum "Si O2"
_cell_formula_units_Z 16
_cell_length_a 18.839128
_cell_length_b 6.679775
_cell_length_c 19.356454
_cell_angle_alpha 63.581765
_cell_angle_beta 159.005613
_cell_angle_gamma 105.561747
_cell_volume 694.583774
_symmetry_space_group_name_H-M "P -1"
_symmetry_group_IT_number 2
_symmetry_cell_setting 'triclinic'
loop_
_space_group_symop_operation_xyz
x,y,z
-x,-y,-z
loop_
_atom_site_type_symbol
_atom_site_label
_atom_site_fract_x
_atom_site_fract_y
_atom_site_fract_z
Si Si1 0.346963 0.895640 0.467442
Si Si2 0.003445 0.267390 0.998259
Si Si3 0.892447 0.820628 0.416385
Si Si4 0.300019 0.936486 0.213763
Si Si5 0.928535 0.999373 0.662311
Si Si6 0.628604 0.903055 0.297350
Si Si7 0.824118 0.740255 0.218657
Si Si8 0.380758 0.677053 0.185675
O O1 0.521987 0.606617 0.653034
O O2 0.156312 0.010388 0.219239
O O3 0.466556 0.078324 0.547141
O O4 0.245564 0.900750 0.449140
O O5 0.109044 0.215071 0.024777
O O6 0.000000 0.500000 0.000000
O O7 0.758254 0.278590 0.772995
O O8 0.713000 0.834005 0.306922
O O9 0.776611 0.887659 0.225795
O O10 0.100147 0.545981 0.650604
O O11 0.000000 0.000000 0.500000
O O12 0.311472 0.892848 0.148802
O O13 0.815810 0.929425 0.507465
O O14 0.989102 0.219070 0.660545
O O15 0.154312 0.747544 0.926319
O O16 0.572286 0.689057 0.310680
O O17 0.398345 0.161703 0.044844
#
# Coordination Sequence:
#
# PCOD8026741 Si02
#       8
#     2   2   2   2   2   2   2   2
#     4  12  25  43  70  97 133 176 218 276 335 391
#     4  11  26  46  69 101 136 170 222 276 327 404
#     4  11  22  43  67  98 134 176 220 275 326 387
#     4  11  24  44  69  98 127 176 217 269 336 391
#     4  11  23  45  64  98 134 171 225 274 328 394
#     4  11  23  44  68  97 132 182 215 272 337 382
#     4  10  24  43  66  97 136 169 225 272 325 395
#     4  11  25  44  67  99 134 172 227 274 329 400
#
# _framework density 23.035377
#
# number of rings (size 3 to 8) (size 9 to 14) (size 15 to 20)
#    0.000    1.000    3.750    2.250    0.000    5.500 
#    2.250    0.000    0.000    0.000    0.000    0.000 
#    0.000    0.000    0.000    0.000    0.000    0.000 
#
# Total GULP energy -198312.658047 kJ/mol
# GULP energy per Si atom -12394.541128 kJ/mol
# Density = 2.298295 g / cm^3
# Si number density = 23.035377 Si / 1000 Ang^3
#
#
#
# Elastic Constant Matrix: (Units=GPa)
#
#
# Indices 1 2 3 4 5 6 
#
# 1 130.4236 39.1499 22.0712 5.5367 24.2193 -4.8115
# 2 39.1499 130.8434 42.7117 0.7372 4.7463 -1.4700
# 3 22.0712 42.7117 95.2134 8.6903 -9.3017 0.4513
# 4 5.5367 0.7372 8.6903 33.2877 7.3013 0.5784
# 5 24.2193 4.7463 -9.3017 7.3013 39.4781 -1.7643
# 6 -4.8115 -1.4700 0.4513 0.5784 -1.7643 26.9195
#
#
#
# Elastic Compliance Matrix: (Units=1/GPa)
#
#
# Indices 1 2 3 4 5 6 
#
# 1 0.009813 -0.002045 -0.001999 0.000282 -0.006241 0.001261
# 2 -0.002045 0.009622 -0.004084 0.001438 -0.001125 0.000124
# 3 -0.001999 -0.004084 0.013767 -0.004430 0.005765 -0.000338
# 4 0.000282 0.001438 -0.004430 0.032780 -0.007497 -0.000993
# 5 -0.006241 -0.001125 0.005765 -0.007497 0.032084 0.000990
# 6 0.001261 0.000124 -0.000338 -0.000993 0.000990 0.037472
#
#
# Mechanical properties :
#
#
# Convention : Reuss Voigt Hill
#
# Bulk Modulus (GPa) = 59.00814 62.70511 60.85663
# Shear Modulus (GPa) = 31.75781 36.77358 34.26569
#
# Velocity S-wave (km/s) = 3.71705 3.99983 3.86103
# Velocity P-wave (km/s) = 6.64032 6.97222 6.80829
#
# Compressibility (1/GPa) = 0.01694681
#
# Stress axis : x y z
#
# Youngs Moduli (GPa) = 101.90765 103.93108 72.63598
#
# Poissons Ratio (x) = 0.21250 0.14519
# Poissons Ratio (y) = 0.20836 0.29664
# Poissons Ratio (z) = 0.20370 0.42445
#
# Static dielectric constant tensor:
#      x y z
#    x 4.532990 -0.041730 0.128740 
#    y -0.041730 3.985020 0.153550 
#    z 0.128740 0.153550 4.067240 
# 
# 
# High freq. dielectric constant tensor:
#      x y z
#    x 1.927590 -0.001980 0.011940 
#    y -0.001980 1.905020 0.018940 
#    z 0.011940 0.018940 1.902910 
# 
# From -- ./inp_files/600758.got.cif
#   From: 2010.06.25/outbox.cif.g09.slc.cpg/sg2_301_cif.got.tgz:600758.got - 2010.06.27 13:26:56.
