data_PCOD8026335
_publ_section_title
;
Structure prediction by ZEFSAII (Michael W. Deem and Ramdas Pophale) SiO2 
 PCOD8026335
Probable space group: P -1
;
_chemical_formula_sum "Si O2"
_cell_formula_units_Z 16
_cell_length_a 9.295867
_cell_length_b 11.759949
_cell_length_c 18.356441
_cell_angle_alpha 28.793537
_cell_angle_beta 130.169792
_cell_angle_gamma 129.494934
_cell_volume 724.809891
_symmetry_space_group_name_H-M "P -1"
_symmetry_group_IT_number 2
_symmetry_cell_setting 'triclinic'
loop_
_space_group_symop_operation_xyz
x,y,z
-x,-y,-z
loop_
_atom_site_type_symbol
_atom_site_label
_atom_site_fract_x
_atom_site_fract_y
_atom_site_fract_z
Si Si1 0.226616 0.323243 0.696909
Si Si2 0.642033 0.063567 0.796370
Si Si3 0.962434 0.802171 0.661525
Si Si4 0.796340 0.172460 0.635426
Si Si5 0.345849 0.162551 0.344125
Si Si6 0.040468 0.518518 0.287768
Si Si7 0.367609 0.383492 0.858868
Si Si8 0.759415 0.859652 0.350367
O O1 0.305125 0.605798 0.545706
O O2 0.344131 0.258520 0.841424
O O3 0.247802 0.149239 0.734538
O O4 0.005606 0.287713 0.668885
O O5 0.679909 0.024306 0.745995
O O6 0.827460 0.218717 0.809758
O O7 0.460703 0.194931 0.665725
O O8 0.591917 0.804574 0.962737
O O9 0.758891 0.788406 0.642924
O O10 0.960543 0.551976 0.759060
O O11 0.000000 0.000000 0.500000
O O12 0.133534 0.875301 0.735652
O O13 0.809544 0.989729 0.676117
O O14 0.445778 0.406177 0.200092
O O15 0.500000 0.000000 0.500000
O O16 0.128835 0.340620 0.469586
O O17 0.822144 0.510527 0.244521
#
# Coordination Sequence:
#
# PCOD8026335 Si02
#       8
#     2   2   2   2   2   2   2   2
#     4  11  21  42  70  97 132 180 235 279 329 407
#     4  12  27  43  69 103 138 178 230 285 347 393
#     4  10  24  41  67 102 135 171 224 284 337 393
#     4  11  23  41  71  98 133 182 233 278 326 413
#     4  12  24  42  70 103 136 182 227 280 340 409
#     4  11  23  45  69  96 138 184 225 277 337 408
#     4  12  27  45  68 103 139 180 226 284 347 405
#     4  11  23  43  69 102 131 177 231 281 330 411
#
# _framework density 22.074753000000001
#
# number of rings (size 3 to 8) (size 9 to 14) (size 15 to 20)
#    0.000    0.750    5.000    3.000    7.000    1.000 
#    0.000    0.625    0.000    0.000    0.000    0.000 
#    0.000    0.000    0.000    0.000    0.000    0.000 
#
# Total GULP energy -198415.225736 kJ/mol
# GULP energy per Si atom -12400.951609 kJ/mol
# Density = 2.202451 g / cm^3
# Si number density = 22.074753 Si / 1000 Ang^3
#
#
#
# Elastic Constant Matrix: (Units=GPa)
#
#
# Indices 1 2 3 4 5 6 
#
# 1 135.7077 43.8287 31.5418 -2.0633 -15.6824 -9.5531
# 2 43.8287 95.0514 12.7448 -3.8507 -4.4149 -12.4379
# 3 31.5418 12.7448 86.0552 -2.3654 -21.6545 3.4129
# 4 -2.0633 -3.8507 -2.3654 24.3243 3.1929 -9.4398
# 5 -15.6824 -4.4149 -21.6545 3.1929 30.2876 0.9025
# 6 -9.5531 -12.4379 3.4129 -9.4398 0.9025 46.4903
#
#
#
# Elastic Compliance Matrix: (Units=1/GPa)
#
#
# Indices 1 2 3 4 5 6 
#
# 1 0.009520 -0.003818 -0.002284 0.000036 0.002704 0.001057
# 2 -0.003818 0.012910 -0.000845 0.003098 -0.001127 0.003382
# 3 -0.002284 -0.000845 0.015067 -0.000976 0.009634 -0.002187
# 4 0.000036 0.003098 -0.000976 0.046259 -0.005414 0.010406
# 5 0.002704 -0.001127 0.009634 -0.005414 0.041782 -0.002363
# 6 0.001057 0.003382 -0.002187 0.010406 -0.002363 0.024951
#
#
# Mechanical properties :
#
#
# Convention : Reuss Voigt Hill
#
# Bulk Modulus (GPa) = 42.36838 54.78276 48.57557
# Shear Modulus (GPa) = 29.02705 35.46704 32.24704
#
# Velocity S-wave (km/s) = 3.63015 4.01269 3.82620
# Velocity P-wave (km/s) = 6.06675 6.80733 6.44768
#
# Compressibility (1/GPa) = 0.02360251
#
# Stress axis : x y z
#
# Youngs Moduli (GPa) = 105.03803 77.45758 66.36935
#
# Poissons Ratio (x) = 0.29574 0.15162
# Poissons Ratio (y) = 0.40105 0.05609
# Poissons Ratio (z) = 0.23996 0.06546
#
# Static dielectric constant tensor:
#      x y z
#    x 4.072080 -0.196130 -0.107860 
#    y -0.196130 4.660930 -0.029190 
#    z -0.107860 -0.029190 3.493420 
# 
# 
# High freq. dielectric constant tensor:
#      x y z
#    x 1.880850 -0.004590 -0.014420 
#    y -0.004590 1.886540 0.002290 
#    z -0.014420 0.002290 1.823370 
# 
# From -- ./inp_files/184189.got.cif
#   From: 2010.06.25/outbox.cif.g09.slc.cpg/sg2_93_cif.got.tgz:184189.got - 2010.06.27 13:26:56.
