data_PCOD8026278
_publ_section_title
;
Structure prediction by ZEFSAII (Michael W. Deem and Ramdas Pophale) SiO2 
 PCOD8026278
Probable space group: P -1
;
_chemical_formula_sum "Si O2"
_cell_formula_units_Z 16
_cell_length_a 8.208882
_cell_length_b 14.790680
_cell_length_c 5.629476
_cell_angle_alpha 75.485871
_cell_angle_beta 102.553036
_cell_angle_gamma 108.594114
_cell_volume 620.075149
_symmetry_space_group_name_H-M "P -1"
_symmetry_group_IT_number 2
_symmetry_cell_setting 'triclinic'
loop_
_space_group_symop_operation_xyz
x,y,z
-x,-y,-z
loop_
_atom_site_type_symbol
_atom_site_label
_atom_site_fract_x
_atom_site_fract_y
_atom_site_fract_z
Si Si1 0.003766 0.418609 0.864028
Si Si2 0.249016 0.498032 0.500984
Si Si3 0.198298 0.031144 0.162007
Si Si4 0.455978 0.911956 0.294023
Si Si5 0.585156 0.581390 0.782638
Si Si6 0.221720 0.779977 0.925454
Si Si7 0.832847 0.031144 0.306849
Si Si8 0.441743 0.220023 0.205430
O O1 0.869724 0.429254 0.609494
O O2 0.945102 0.310013 0.016987
O O3 0.188022 0.434400 0.769113
O O4 0.000000 0.500000 0.000000
O O5 0.440470 0.570746 0.538748
O O6 0.246378 0.434400 0.296487
O O7 0.293904 0.143982 0.050460
O O8 0.350598 0.981622 0.336705
O O9 0.104009 0.021829 0.404718
O O10 0.082180 0.978171 0.926547
O O11 0.308686 0.840704 0.138203
O O12 0.532014 0.840702 0.521094
O O13 0.631024 0.981621 0.181675
O O14 0.635089 0.689987 0.827001
O O15 0.500000 0.500000 0.000000
O O16 0.149922 0.856018 0.694441
O O17 0.369270 0.738538 0.880734
#
# Coordination Sequence:
#
# PCOD8026278 Si02
#       8
#     2   2   2   2   2   2   2   2
#     4  11  23  40  63  86 123 162 213 261 313 376
#     4  10  23  44  58  86 120 160 208 271 310 366
#     4  10  17  30  47  78 126 154 191 255 313 372
#     4  10  17  30  46  80 126 152 190 255 312 374
#     4  11  23  40  63  86 123 162 213 261 313 376
#     4  11  18  29  51  82 113 158 193 242 319 372
#     4  10  17  30  47  78 126 154 191 255 313 372
#     4  11  18  29  51  82 113 158 193 242 319 372
#
# _framework density 25.803324
#
# number of rings (size 3 to 8) (size 9 to 14) (size 15 to 20)
#    0.000    1.500    3.750    4.500    0.000    2.000 
#    0.000    0.000    0.000    0.000    0.000    7.000 
#    0.000    0.000    0.000    0.000    0.000    0.000 
#
# Total GULP energy -198302.834346 kJ/mol
# GULP energy per Si atom -12393.927147 kJ/mol
# Density = 2.574459 g / cm^3
# Si number density = 25.803324 Si / 1000 Ang^3
#
#
#
# Elastic Constant Matrix: (Units=GPa)
#
#
# Indices 1 2 3 4 5 6 
#
# 1 111.2090 39.6484 41.4655 1.1794 -17.3203 -5.2163
# 2 39.6484 175.8315 54.3796 -20.6104 -8.0256 -0.4348
# 3 41.4655 54.3796 99.0106 -1.4577 -16.9972 -1.4574
# 4 1.1794 -20.6104 -1.4577 32.8485 -3.1541 -6.4689
# 5 -17.3203 -8.0256 -16.9972 -3.1541 52.5611 5.5430
# 6 -5.2163 -0.4348 -1.4574 -6.4689 5.5430 36.8541
#
#
#
# Elastic Compliance Matrix: (Units=1/GPa)
#
#
# Indices 1 2 3 4 5 6 
#
# 1 0.011222 -0.001467 -0.003523 -0.001091 0.002173 0.000913
# 2 -0.001467 0.007674 -0.003562 0.004809 -0.000241 0.000622
# 3 -0.003523 -0.003562 0.013984 -0.001345 0.002805 -0.000646
# 4 -0.001091 0.004809 -0.001345 0.034704 0.001418 0.005727
# 5 0.002173 -0.000241 0.002805 0.001418 0.020959 -0.002488
# 6 0.000913 0.000622 -0.000646 0.005727 -0.002488 0.028625
#
#
# Mechanical properties :
#
#
# Convention : Reuss Voigt Hill
#
# Bulk Modulus (GPa) = 63.39184 73.00423 68.19803
# Shear Modulus (GPa) = 35.83474 41.15658 38.49566
#
# Velocity S-wave (km/s) = 3.73066 3.99809 3.86669
# Velocity P-wave (km/s) = 6.57097 7.04748 6.81339
#
# Compressibility (1/GPa) = 0.01577490
#
# Stress axis : x y z
#
# Youngs Moduli (GPa) = 89.11293 130.31285 71.51121
#
# Poissons Ratio (x) = 0.19119 0.25197
# Poissons Ratio (y) = 0.13075 0.25469
# Poissons Ratio (z) = 0.31399 0.46412
#
# Static dielectric constant tensor:
#      x y z
#    x 5.674320 -0.089380 -0.025040 
#    y -0.089380 4.417870 0.120760 
#    z -0.025040 0.120760 4.784780 
# 
# 
# High freq. dielectric constant tensor:
#      x y z
#    x 2.075460 -0.003610 0.002730 
#    y -0.003610 2.009760 0.012590 
#    z 0.002730 0.012590 2.049530 
# 
# From -- ./inp_files/37477.got.cif
#   From: 2010.06.25/outbox.cif.g09.slc.cpg/sg2_19_cif.got.tgz:37477.got - 2010.06.27 13:26:56.
