data_PCOD8026184
_publ_section_title
;
Structure prediction by ZEFSAII (Michael W. Deem and Ramdas Pophale) SiO2 
 PCOD8026184
Probable space group: P -1
;
_chemical_formula_sum "Si O2"
_cell_formula_units_Z 16
_cell_length_a 21.933176
_cell_length_b 9.369852
_cell_length_c 5.278592
_cell_angle_alpha 126.204108
_cell_angle_beta 69.904952
_cell_angle_gamma 125.225541
_cell_volume 715.055931
_symmetry_space_group_name_H-M "P -1"
_symmetry_group_IT_number 2
_symmetry_cell_setting 'triclinic'
loop_
_space_group_symop_operation_xyz
x,y,z
-x,-y,-z
loop_
_atom_site_type_symbol
_atom_site_label
_atom_site_fract_x
_atom_site_fract_y
_atom_site_fract_z
Si Si1 0.049235 0.972517 0.197770
Si Si2 0.369441 0.435908 0.850745
Si Si3 0.249051 0.563064 0.149339
Si Si4 0.638317 0.804499 0.887165
Si Si5 0.090023 0.338935 0.229584
Si Si6 0.081775 0.640506 0.914040
Si Si7 0.495501 0.111543 0.871337
Si Si8 0.758759 0.238147 0.103916
O O1 0.104544 0.200259 0.265111
O O2 0.097800 0.870970 0.109705
O O3 0.000000 0.000000 0.500000
O O4 0.991319 0.808866 0.913847
O O5 0.374847 0.346988 0.481587
O O6 0.291954 0.436951 0.977960
O O7 0.374140 0.306746 0.942240
O O8 0.437563 0.661024 0.000028
O O9 0.162829 0.414507 0.029784
O O10 0.251468 0.661165 0.521099
O O11 0.282174 0.725039 0.040517
O O12 0.582366 0.892059 0.028811
O O13 0.721360 0.997514 0.954853
O O14 0.085208 0.533723 0.538568
O O15 0.153462 0.669267 0.000702
O O16 0.000000 0.500000 0.000000
O O17 0.500000 0.000000 0.500000
O O18 0.500000 0.000000 0.000000
#
# Coordination Sequence:
#
# PCOD8026184 Si02
#       8
#     2   2   2   2   2   2   2   2
#     4  11  22  39  62  92 124 165 225 276 348 406
#     4  12  25  43  70 102 138 177 215 283 332 387
#     4  11  24  45  67  91 133 173 225 263 343 395
#     4  12  25  44  67 105 139 170 228 275 333 393
#     4  10  24  40  62  91 126 172 219 284 332 417
#     4  11  22  41  66  90 130 172 226 280 348 399
#     4  12  24  44  73 100 139 184 224 266 325 402
#     4  11  25  44  67  95 130 178 223 274 333 411
#
# _framework density 22.375871
#
# number of rings (size 3 to 8) (size 9 to 14) (size 15 to 20)
#    0.000    0.750    1.250    6.375    3.500    2.000 
#    0.000    0.000    0.000    0.000    0.000    0.000 
#    0.000    0.000    0.000    0.000    0.000    0.000 
#
# Total GULP energy -198284.198063 kJ/mol
# GULP energy per Si atom -12392.762379 kJ/mol
# Density = 2.232494 g / cm^3
# Si number density = 22.375871 Si / 1000 Ang^3
#
#
#
# Elastic Constant Matrix: (Units=GPa)
#
#
# Indices 1 2 3 4 5 6 
#
# 1 108.4358 33.7883 32.6059 -4.0609 -19.0512 -7.4779
# 2 33.7883 109.6865 15.6137 -3.2304 -3.8921 -16.1702
# 3 32.6059 15.6137 119.8866 1.7304 -14.9647 -6.0104
# 4 -4.0609 -3.2304 1.7304 36.4204 -6.7862 2.8177
# 5 -19.0512 -3.8921 -14.9647 -6.7862 33.7632 1.0655
# 6 -7.4779 -16.1702 -6.0104 2.8177 1.0655 52.6973
#
#
#
# Elastic Compliance Matrix: (Units=1/GPa)
#
#
# Indices 1 2 3 4 5 6 
#
# 1 0.011956 -0.003064 -0.002136 0.002239 0.005888 0.000274
# 2 -0.003064 0.010515 -0.000499 0.000259 -0.000772 0.002737
# 3 -0.002136 -0.000499 0.009372 -0.000246 0.002823 0.000569
# 4 0.002239 0.000259 -0.000246 0.029165 0.007088 -0.001334
# 5 0.005888 -0.000772 0.002823 0.007088 0.035533 -0.000177
# 6 0.000274 0.002737 0.000569 -0.001334 -0.000177 0.019995
#
#
# Mechanical properties :
#
#
# Convention : Reuss Voigt Hill
#
# Bulk Modulus (GPa) = 48.91203 55.78053 52.34628
# Shear Modulus (GPa) = 37.10581 41.64292 39.37437
#
# Velocity S-wave (km/s) = 4.07664 4.31869 4.19940
# Velocity P-wave (km/s) = 6.63817 7.06053 6.85260
#
# Compressibility (1/GPa) = 0.02044487
#
# Stress axis : x y z
#
# Youngs Moduli (GPa) = 83.63832 95.09871 106.70350
#
# Poissons Ratio (x) = 0.29135 0.22796
# Poissons Ratio (y) = 0.25624 0.05326
# Poissons Ratio (z) = 0.17869 0.04747
#
# Static dielectric constant tensor:
#      x y z
#    x 4.239000 -0.228300 -0.226430 
#    y -0.228300 4.467300 0.119720 
#    z -0.226430 0.119720 4.005820 
# 
# 
# High freq. dielectric constant tensor:
#      x y z
#    x 1.889520 -0.002520 -0.005850 
#    y -0.002520 1.897020 0.004710 
#    z -0.005850 0.004710 1.888170 
# 
# From -- ./inp_files/117517.got.cif
#   From: 2010.06.25/outbox.cif.g09.slc.cpg/sg2_59_cif.got.tgz:117517.got - 2010.06.27 13:26:56.
