data_PCOD8026771
_publ_section_title
;
Structure prediction by ZEFSAII (Michael W. Deem and Ramdas Pophale) SiO2 
 PCOD8026771
Probable space group: P -1
;
_chemical_formula_sum "Si O2"
_cell_formula_units_Z 14
_cell_length_a 16.643746
_cell_length_b 18.200819
_cell_length_c 11.787489
_cell_angle_alpha 30.336997
_cell_angle_beta 148.070033
_cell_angle_gamma 158.589201
_cell_volume 638.310301
_symmetry_space_group_name_H-M "P -1"
_symmetry_group_IT_number 2
_symmetry_cell_setting 'triclinic'
loop_
_space_group_symop_operation_xyz
x,y,z
-x,-y,-z
loop_
_atom_site_type_symbol
_atom_site_label
_atom_site_fract_x
_atom_site_fract_y
_atom_site_fract_z
Si Si1 0.818889 0.969113 0.385023
Si Si2 0.435458 0.869727 0.983816
Si Si3 0.110357 0.730406 0.360027
Si Si4 0.537590 0.969837 0.429894
Si Si5 0.617298 0.462069 0.116006
Si Si6 0.567805 0.529397 0.722526
Si Si7 0.795714 0.574103 0.715840
O O1 0.938643 0.192713 0.291119
O O2 0.690225 0.769690 0.583515
O O3 0.000000 0.000000 0.500000
O O4 0.641806 0.901487 0.168319
O O5 0.410538 0.966365 0.724398
O O6 0.219052 0.608276 0.087162
O O7 0.500000 0.000000 0.000000
O O8 0.319863 0.914639 0.279594
O O9 0.000000 0.500000 0.500000
O O10 0.892387 0.682679 0.159626
O O11 0.231120 0.817903 0.511436
O O12 0.470110 0.754888 0.654776
O O13 0.500000 0.500000 0.000000
O O14 0.535869 0.414161 0.951785
O O15 0.714707 0.541141 0.792800
O O16 0.328946 0.404080 0.548106
#
# Coordination Sequence:
#
# PCOD8026771 Si02
#       7
#     2   2   2   2   2   2   2
#     4   9  20  40  65  93 118 167 212 261 317 381
#     4  11  25  40  63  97 135 164 210 272 326 382
#     4   9  22  44  66  94 125 174 221 262 315 394
#     4  10  24  43  67  95 132 175 219 261 327 394
#     4  11  25  41  68  97 134 169 214 277 327 382
#     4   9  20  38  62  96 125 159 217 264 314 383
#     4   9  20  38  65  92 123 166 213 263 315 380
#
# _framework density 21.932904000000001
#
# number of rings (size 3 to 8) (size 9 to 14) (size 15 to 20)
#    0.000    2.286    0.000    0.857   14.000    3.429 
#    2.571    0.000    0.000    0.000    0.000    0.000 
#    0.000    0.000    0.000    0.000    0.000    0.000 
#
# Total GULP energy -173444.269315 kJ/mol
# GULP energy per Si atom -12388.876380 kJ/mol
# Density = 2.188298 g / cm^3
# Si number density = 21.932904 Si / 1000 Ang^3
#
#
#
# Elastic Constant Matrix: (Units=GPa)
#
#
# Indices 1 2 3 4 5 6 
#
# 1 77.0940 26.5665 38.4198 13.5266 -7.7294 -17.1939
# 2 26.5665 139.8977 38.3032 -6.8184 -2.6937 -14.3171
# 3 38.4198 38.3032 112.5498 -1.2597 -19.3743 -7.7780
# 4 13.5266 -6.8184 -1.2597 37.0475 -5.5055 8.9392
# 5 -7.7294 -2.6937 -19.3743 -5.5055 36.1728 7.5470
# 6 -17.1939 -14.3171 -7.7780 8.9392 7.5470 30.3955
#
#
#
# Elastic Compliance Matrix: (Units=1/GPa)
#
#
# Indices 1 2 3 4 5 6 
#
# 1 0.021994 -0.001498 -0.006823 -0.012699 -0.004074 0.014736
# 2 -0.001498 0.008368 -0.002377 0.001223 -0.001294 0.002448
# 3 -0.006823 -0.002377 0.012952 0.004691 0.007015 -0.004786
# 4 -0.012699 0.001223 0.004691 0.038026 0.009639 -0.018983
# 5 -0.004074 -0.001294 0.007015 0.009639 0.034515 -0.012523
# 6 0.014736 0.002448 -0.004786 -0.018983 -0.012523 0.049856
#
#
# Mechanical properties :
#
#
# Convention : Reuss Voigt Hill
#
# Bulk Modulus (GPa) = 45.62153 59.56894 52.59524
# Shear Modulus (GPa) = 25.71841 35.80662 30.76251
#
# Velocity S-wave (km/s) = 3.42803 4.04487 3.74916
# Velocity P-wave (km/s) = 6.04270 7.00237 6.54016
#
# Compressibility (1/GPa) = 0.02191947
#
# Stress axis : x y z
#
# Youngs Moduli (GPa) = 45.46754 119.49665 77.20723
#
# Poissons Ratio (x) = 0.17898 0.52678
# Poissons Ratio (y) = 0.06810 0.18349
# Poissons Ratio (z) = 0.31022 0.28400
#
# Static dielectric constant tensor:
#      x y z
#    x 4.621570 -1.887190 1.395710 
#    y -1.887190 9.396530 -2.606020 
#    z 1.395710 -2.606020 5.755490 
# 
# 
# High freq. dielectric constant tensor:
#      x y z
#    x 1.835920 -0.001800 0.013780 
#    y -0.001800 1.884480 0.001290 
#    z 0.013780 0.001290 1.856950 
# 
# From -- ./inp_files/466568.got.cif
#   From: 2010.06.25/outbox.cif.g09.slc.cpg/sg2_234_cif.got.tgz:466568.got - 2010.06.27 13:26:56.
