data_PCOD8026523
_publ_section_title
;
Structure prediction by ZEFSAII (Michael W. Deem and Ramdas Pophale) SiO2 
 PCOD8026523
Probable space group: P -1
;
_chemical_formula_sum "Si O2"
_cell_formula_units_Z 14
_cell_length_a 9.166188
_cell_length_b 9.365319
_cell_length_c 13.876277
_cell_angle_alpha 94.405362
_cell_angle_beta 118.911169
_cell_angle_gamma 131.716663
_cell_volume 616.817606
_symmetry_space_group_name_H-M "P -1"
_symmetry_group_IT_number 2
_symmetry_cell_setting 'triclinic'
loop_
_space_group_symop_operation_xyz
x,y,z
-x,-y,-z
loop_
_atom_site_type_symbol
_atom_site_label
_atom_site_fract_x
_atom_site_fract_y
_atom_site_fract_z
Si Si1 0.446071 0.138531 0.095538
Si Si2 0.909093 0.580602 0.903561
Si Si3 0.121037 0.746581 0.655079
Si Si4 0.461473 0.479560 0.811337
Si Si5 0.730657 0.341779 0.639866
Si Si6 0.864388 0.168278 0.551304
Si Si7 0.508546 0.775971 0.101407
O O1 0.712361 0.275540 0.250216
O O2 0.392063 0.268544 0.103777
O O3 0.500497 0.154289 0.000272
O O4 0.194966 0.861838 0.033547
O O5 0.667870 0.537169 0.807624
O O6 0.916032 0.496980 0.802677
O O7 0.797944 0.408594 0.953048
O O8 0.123289 0.736691 0.540359
O O9 0.809627 0.511594 0.589827
O O10 0.251355 0.986156 0.743908
O O11 0.433333 0.355187 0.890447
O O12 0.152057 0.280225 0.658061
O O13 0.818551 0.243137 0.629783
O O14 0.399369 0.123453 0.546657
#
# Coordination Sequence:
#
# PCOD8026523 Si02
#       7
#     2   2   2   2   2   2   2
#     4  12  23  44  69  98 136 175 224 269 329 399
#     4  10  24  43  69 100 131 176 221 272 336 389
#     4  12  24  42  71 100 135 174 221 278 326 393
#     4  10  24  47  67  96 141 174 215 278 331 392
#     4  11  23  43  69 100 130 176 227 267 334 390
#     4  11  24  47  68  98 136 173 225 274 328 395
#     4  10  24  42  67  99 138 171 217 273 335 387
#
# _framework density 22.697147000000001
#
# number of rings (size 3 to 8) (size 9 to 14) (size 15 to 20)
#    0.857    0.286    4.286    1.714    0.000    4.000 
#    2.571    1.429    0.000    0.000    0.000    0.000 
#    0.000    0.000    0.000    0.000    0.000    0.000 
#
# Total GULP energy -173558.304199 kJ/mol
# GULP energy per Si atom -12397.021728 kJ/mol
# Density = 2.264549 g / cm^3
# Si number density = 22.697147 Si / 1000 Ang^3
#
#
#
# Elastic Constant Matrix: (Units=GPa)
#
#
# Indices 1 2 3 4 5 6 
#
# 1 51.6116 26.2714 19.6964 -12.1611 -9.2880 6.4821
# 2 26.2714 165.5380 27.3488 3.7159 1.5729 12.4914
# 3 19.6964 27.3488 72.9021 -6.8463 2.4996 15.2078
# 4 -12.1611 3.7159 -6.8463 41.8680 4.7224 -1.8969
# 5 -9.2880 1.5729 2.4996 4.7224 31.8859 5.9788
# 6 6.4821 12.4914 15.2078 -1.8969 5.9788 44.8832
#
#
#
# Elastic Compliance Matrix: (Units=1/GPa)
#
#
# Indices 1 2 3 4 5 6 
#
# 1 0.026066 -0.003366 -0.005079 0.006098 0.007603 -0.001862
# 2 -0.003366 0.006964 -0.001668 -0.001822 -0.000762 -0.000862
# 3 -0.005079 -0.001668 0.016792 0.001474 -0.002155 -0.004142
# 4 0.006098 -0.001822 0.001474 0.026337 -0.002251 0.000540
# 5 0.007603 -0.000762 -0.002155 -0.002251 0.035039 -0.004918
# 6 -0.001862 -0.000862 -0.004142 0.000540 -0.004918 0.024870
#
#
# Mechanical properties :
#
#
# Convention : Reuss Voigt Hill
#
# Bulk Modulus (GPa) = 33.79025 48.52056 41.15541
# Shear Modulus (GPa) = 30.09152 38.17641 34.13397
#
# Velocity S-wave (km/s) = 3.64508 4.10566 3.88221
# Velocity P-wave (km/s) = 5.71273 6.62563 6.18604
#
# Compressibility (1/GPa) = 0.02959433
#
# Stress axis : x y z
#
# Youngs Moduli (GPa) = 38.36383 143.59707 59.55388
#
# Poissons Ratio (x) = 0.48338 0.30249
# Poissons Ratio (y) = 0.12914 0.09934
# Poissons Ratio (z) = 0.19486 0.23953
#
# Static dielectric constant tensor:
#      x y z
#    x 3.979510 0.106140 0.056100 
#    y 0.106140 4.437630 0.226760 
#    z 0.056100 0.226760 3.881400 
# 
# 
# High freq. dielectric constant tensor:
#      x y z
#    x 1.889530 0.001780 -0.002620 
#    y 0.001780 1.918840 0.017940 
#    z -0.002620 0.017940 1.886820 
# 
# From -- ./inp_files/493053.got.cif
#   From: 2010.06.25/outbox.cif.g09.slc.cpg/sg2_247_cif.got.tgz:493053.got - 2010.06.27 13:26:56.
