data_PCOD8026271
_publ_section_title
;
Structure prediction by ZEFSAII (Michael W. Deem and Ramdas Pophale) SiO2 
 PCOD8026271
Probable space group: P -1
;
_chemical_formula_sum "Si O2"
_cell_formula_units_Z 14
_cell_length_a 8.981566
_cell_length_b 11.778502
_cell_length_c 18.813121
_cell_angle_alpha 30.347855
_cell_angle_beta 130.572290
_cell_angle_gamma 138.183805
_cell_volume 670.295384
_symmetry_space_group_name_H-M "P -1"
_symmetry_group_IT_number 2
_symmetry_cell_setting 'triclinic'
loop_
_space_group_symop_operation_xyz
x,y,z
-x,-y,-z
loop_
_atom_site_type_symbol
_atom_site_label
_atom_site_fract_x
_atom_site_fract_y
_atom_site_fract_z
Si Si1 0.958110 0.336729 0.814384
Si Si2 0.952676 0.217747 0.656872
Si Si3 0.994206 0.830996 0.792328
Si Si4 0.782213 0.834311 0.113543
Si Si5 0.356923 0.696211 0.986530
Si Si6 0.901130 0.140863 0.346634
Si Si7 0.581539 0.050498 0.746259
O O1 0.145783 0.323865 0.831812
O O2 0.070094 0.616134 0.731689
O O3 0.740847 0.275949 0.729628
O O4 0.898603 0.134683 0.968883
O O5 0.727226 0.063166 0.716057
O O6 0.000000 0.500000 0.500000
O O7 0.159584 0.216746 0.762312
O O8 0.946402 0.068413 0.663356
O O9 0.242985 0.879092 0.863930
O O10 0.956652 0.765667 0.732356
O O11 0.827535 0.598248 0.916386
O O12 0.516837 0.724513 0.086653
O O13 0.498171 0.784166 0.908614
O O14 0.639915 0.942831 0.354340
O O15 0.000000 0.000000 0.500000
#
# Coordination Sequence:
#
# PCOD8026271 Si02
#       7
#     2   2   2   2   2   2   2
#     4   9  20  41  65  97 123 164 228 264 309 383
#     4  11  25  42  64  94 136 171 209 270 327 386
#     4  10  24  41  61 100 133 158 220 274 320 379
#     4   9  20  39  66  92 122 171 217 264 316 384
#     4   9  20  43  64  97 125 164 217 274 317 374
#     4  11  25  42  66  94 134 179 211 262 328 397
#     4   9  22  44  66  94 125 174 217 260 324 380
#
# _framework density 20.886313999999999
#
# number of rings (size 3 to 8) (size 9 to 14) (size 15 to 20)
#    0.000    2.286    0.000    0.857   12.000    2.857 
#   10.286    1.429    0.000    0.000    0.000    0.000 
#    0.000    0.000    0.000    0.000    0.000    0.000 
#
# Total GULP energy -173487.634265 kJ/mol
# GULP energy per Si atom -12391.973876 kJ/mol
# Density = 2.083878 g / cm^3
# Si number density = 20.886314 Si / 1000 Ang^3
#
#
#
# Elastic Constant Matrix: (Units=GPa)
#
#
# Indices 1 2 3 4 5 6 
#
# 1 88.4133 39.0855 42.7557 -13.9465 -4.4232 2.7450
# 2 39.0855 87.2550 41.7187 12.7180 4.2984 11.8427
# 3 42.7557 41.7187 105.1948 6.1551 12.3707 5.7164
# 4 -13.9465 12.7180 6.1551 40.3456 -1.5960 11.0077
# 5 -4.4232 4.2984 12.3707 -1.5960 28.4947 -4.7849
# 6 2.7450 11.8427 5.7164 11.0077 -4.7849 34.0073
#
#
#
# Elastic Compliance Matrix: (Units=1/GPa)
#
#
# Indices 1 2 3 4 5 6 
#
# 1 0.019984 -0.007716 -0.006582 0.010704 0.007689 -0.000202
# 2 -0.007716 0.018014 -0.002989 -0.007118 -0.003579 -0.003348
# 3 -0.006582 -0.002989 0.014460 -0.003634 -0.007168 -0.000691
# 4 0.010704 -0.007118 -0.003634 0.033655 0.004857 -0.007984
# 5 0.007689 -0.003579 -0.007168 0.004857 0.041229 0.006059
# 6 -0.000202 -0.003348 -0.000691 -0.007984 0.006059 0.034141
#
#
# Mechanical properties :
#
#
# Convention : Reuss Voigt Hill
#
# Bulk Modulus (GPa) = 55.91455 58.66477 57.28966
# Shear Modulus (GPa) = 24.75040 31.05641 27.90341
#
# Velocity S-wave (km/s) = 3.44613 3.86025 3.65905
# Velocity P-wave (km/s) = 6.53172 6.92946 6.73353
#
# Compressibility (1/GPa) = 0.01788443
#
# Stress axis : x y z
#
# Youngs Moduli (GPa) = 50.04028 55.51143 69.15813
#
# Poissons Ratio (x) = 0.42834 0.45517
# Poissons Ratio (y) = 0.38613 0.20670
# Poissons Ratio (z) = 0.32935 0.16591
#
# Static dielectric constant tensor:
#      x y z
#    x 3.865310 0.150740 -0.016770 
#    y 0.150740 3.882780 0.149070 
#    z -0.016770 0.149070 3.779450 
# 
# 
# High freq. dielectric constant tensor:
#      x y z
#    x 1.816430 0.011540 -0.003780 
#    y 0.011540 1.808330 0.015400 
#    z -0.003780 0.015400 1.807910 
# 
# From -- ./inp_files/255781.got.cif
#   From: 2010.06.25/outbox.cif.g09.slc.cpg/sg2_128_cif.got.tgz:255781.got - 2010.06.27 13:26:56.
