data_PCOD8026778
_publ_section_title
;
Structure prediction by ZEFSAII (Michael W. Deem and Ramdas Pophale) SiO2 
 PCOD8026778
Probable space group: P -1
;
_chemical_formula_sum "Si O2"
_cell_formula_units_Z 16
_cell_length_a 26.156176
_cell_length_b 18.976314
_cell_length_c 6.632759
_cell_angle_alpha 103.815941
_cell_angle_beta 115.564514
_cell_angle_gamma 18.369098
_cell_volume 748.322995
_symmetry_space_group_name_H-M "P -1"
_symmetry_group_IT_number 2
_symmetry_cell_setting 'triclinic'
loop_
_space_group_symop_operation_xyz
x,y,z
-x,-y,-z
loop_
_atom_site_type_symbol
_atom_site_label
_atom_site_fract_x
_atom_site_fract_y
_atom_site_fract_z
Si Si1 0.142045 0.273777 0.732330
Si Si2 0.864071 0.540110 0.765109
Si Si3 0.448970 0.640038 0.416629
Si Si4 0.444950 0.024502 0.127461
Si Si5 0.614501 0.168586 0.206386
Si Si6 0.171082 0.679679 0.603697
Si Si7 0.108220 0.864778 0.307606
Si Si8 0.120865 0.083566 0.842052
O O1 0.000000 0.500000 0.500000
O O2 0.999660 0.435836 0.805953
O O3 0.202837 0.119734 0.635212
O O4 0.374994 0.027027 0.983637
O O5 0.768220 0.681873 0.914981
O O6 0.027244 0.273001 0.905551
O O7 0.664002 0.757213 0.443624
O O8 0.500000 0.500000 0.500000
O O9 0.443254 0.715010 0.612695
O O10 0.650409 0.402029 0.449659
O O11 0.229302 0.906680 0.092599
O O12 0.500000 0.000000 0.000000
O O13 0.699623 0.122003 0.160991
O O14 0.411529 0.378433 0.900613
O O15 0.144006 0.738858 0.365642
O O16 0.066766 0.729121 0.464791
O O17 0.042569 0.898738 0.655303
O O18 0.000000 0.000000 0.000000
#
# Coordination Sequence:
#
# PCOD8026778 Si02
#       8
#     2   2   2   2   2   2   2   2
#     4  11  23  43  70  97 135 180 221 279 341 394
#     4  10  24  43  67  97 137 174 224 277 338 404
#     4  12  25  42  67  97 134 173 223 273 335 396
#     4  11  22  43  68 100 133 175 226 275 337 407
#     4  11  25  45  66  98 133 173 226 273 329 409
#     4  11  23  42  67  90 133 173 219 275 330 390
#     4  11  22  40  63  94 128 170 219 270 329 393
#     4  11  25  43  65  99 130 175 220 274 333 395
#
# _framework density 21.381142000000001
#
# number of rings (size 3 to 8) (size 9 to 14) (size 15 to 20)
#    0.000    1.000    3.750    2.625    3.500    1.000 
#    2.250    0.000    0.000    0.000    0.000    0.000 
#    0.000    0.000    0.000    0.000    0.000    0.000 
#
# Total GULP energy -198271.074808 kJ/mol
# GULP energy per Si atom -12391.942176 kJ/mol
# Density = 2.133248 g / cm^3
# Si number density = 21.381142 Si / 1000 Ang^3
#
#
#
# Elastic Constant Matrix: (Units=GPa)
#
#
# Indices 1 2 3 4 5 6 
#
# 1 108.5356 5.3475 27.6320 -33.2753 5.3818 -7.1364
# 2 5.3475 -15.9185 -27.5577 -68.5021 -10.1964 -8.9066
# 3 27.6320 -27.5577 77.7481 -34.8584 2.0929 -2.5627
# 4 -33.2753 -68.5021 -34.8584 -14.2117 0.9455 2.2805
# 5 5.3818 -10.1964 2.0929 0.9455 39.5413 -11.1925
# 6 -7.1364 -8.9066 -2.5627 2.2805 -11.1925 40.6511
#
#
#
# Elastic Compliance Matrix: (Units=1/GPa)
#
#
# Indices 1 2 3 4 5 6 
#
# 1 0.011800 -0.004592 -0.003957 0.004006 -0.002721 -0.000158
# 2 -0.004592 0.007330 -0.003100 -0.016311 0.003795 0.002564
# 3 -0.003957 -0.003100 0.011405 -0.003941 -0.000969 -0.000701
# 4 0.004006 -0.016311 -0.003941 0.007292 -0.006199 -0.005235
# 5 -0.002721 0.003795 -0.000969 -0.006199 0.029304 0.008709
# 6 -0.000158 0.002564 -0.000701 -0.005235 0.008709 0.027781
#
#
# Mechanical properties :
#
#
# Convention : Reuss Voigt Hill
#
# Bulk Modulus (GPa) = 138.20515 20.13430 79.16972
# Shear Modulus (GPa) = 41.45125 24.19236 32.82181
#
# Velocity S-wave (km/s) = 4.40782 3.36740 3.92226
# Velocity P-wave (km/s) = 9.52283 4.95545 7.59081
#
# Compressibility (1/GPa) = 0.00723562
#
# Stress axis : x y z
#
# Youngs Moduli (GPa) = 84.74582 136.42481 87.67791
#
# Poissons Ratio (x) = 0.62647 0.34697
# Poissons Ratio (y) = 0.38916 0.27185
# Poissons Ratio (z) = 0.33537 0.42298
#
# Static dielectric constant tensor:
#      x y z
#    x 3.964220 -0.245340 -0.124640 
#    y -0.245340 3.979760 -0.215400 
#    z -0.124640 -0.215400 3.634780 
# 
# 
# High freq. dielectric constant tensor:
#      x y z
#    x 1.849060 -0.005540 0.002190 
#    y -0.005540 1.846740 -0.011730 
#    z 0.002190 -0.011730 1.838540 
# 
# From -- ./inp_files/124840.got.cif
#   From: 2010.06.25/outbox.cif.g09.slc.cpg/sg2_63_cif.got.tgz:124840.got - 2010.06.27 13:26:56.
