data_PCOD8026316
_publ_section_title
;
Structure prediction by ZEFSAII (Michael W. Deem and Ramdas Pophale) SiO2 
 PCOD8026316
Probable space group: P -1
;
_chemical_formula_sum "Si O2"
_cell_formula_units_Z 16
_cell_length_a 8.862634
_cell_length_b 9.061226
_cell_length_c 16.358428
_cell_angle_alpha 54.674330
_cell_angle_beta 101.433314
_cell_angle_gamma 64.475778
_cell_volume 768.161024
_symmetry_space_group_name_H-M "P -1"
_symmetry_group_IT_number 2
_symmetry_cell_setting 'triclinic'
loop_
_space_group_symop_operation_xyz
x,y,z
-x,-y,-z
loop_
_atom_site_type_symbol
_atom_site_label
_atom_site_fract_x
_atom_site_fract_y
_atom_site_fract_z
Si Si1 0.646792 0.885536 0.973985
Si Si2 0.627621 0.286883 0.764085
Si Si3 0.758902 0.533519 0.432968
Si Si4 0.945251 0.544891 0.756297
Si Si5 0.469851 0.284318 0.286706
Si Si6 0.066130 0.737665 0.295533
Si Si7 0.081258 0.136880 0.470258
Si Si8 0.631137 0.039875 0.217327
O O1 0.676074 0.063929 0.887043
O O2 0.542376 0.841175 0.909585
O O3 0.876479 0.625902 0.102102
O O4 0.500000 0.000000 0.000000
O O5 0.419687 0.443839 0.636162
O O6 0.597990 0.462278 0.773784
O O7 0.823932 0.177807 0.761575
O O8 0.782916 0.457005 0.554060
O O9 0.701339 0.789751 0.340385
O O10 0.977527 0.323718 0.476120
O O11 0.719104 0.705766 0.723116
O O12 0.971085 0.388155 0.734126
O O13 0.975026 0.721823 0.666564
O O14 0.668189 0.055210 0.432690
O O15 0.527049 0.246413 0.209606
O O16 0.837284 0.980294 0.226062
O O17 0.000000 0.000000 0.500000
#
# Coordination Sequence:
#
# PCOD8026316 Si02
#       8
#     2   2   2   2   2   2   2   2
#     4  11  23  46  72  85 125 178 221 249 311 394
#     4  10  24  41  65  98 128 166 212 263 318 373
#     4  11  20  39  65  94 134 168 213 252 324 386
#     4  11  24  43  66  91 128 176 211 258 322 376
#     4  11  24  40  65  98 134 157 210 269 325 365
#     4  11  20  37  65  96 126 162 215 262 309 375
#     4  12  22  39  65  98 130 166 207 263 326 380
#     4  11  22  41  67  95 124 176 212 258 317 382
#
# _framework density 20.828966000000001
#
# number of rings (size 3 to 8) (size 9 to 14) (size 15 to 20)
#    0.000    1.000    5.000    2.625    0.000    3.500 
#    4.500    0.625    2.750    0.000    0.000    0.000 
#    0.000    0.000    0.000    0.000    0.000    0.000 
#
# Total GULP energy -198479.851772 kJ/mol
# GULP energy per Si atom -12404.990736 kJ/mol
# Density = 2.078156 g / cm^3
# Si number density = 20.828966 Si / 1000 Ang^3
#
#
#
# Elastic Constant Matrix: (Units=GPa)
#
#
# Indices 1 2 3 4 5 6 
#
# 1 153.7150 43.1674 69.3692 0.8798 0.9952 -23.3831
# 2 43.1674 85.6886 33.7927 17.4829 7.6937 -20.5328
# 3 69.3692 33.7927 156.9749 9.5458 8.9398 -5.6418
# 4 0.8798 17.4829 9.5458 25.0487 -4.8450 1.5419
# 5 0.9952 7.6937 8.9398 -4.8450 30.3719 1.4551
# 6 -23.3831 -20.5328 -5.6418 1.5419 1.4551 33.8432
#
#
#
# Elastic Compliance Matrix: (Units=1/GPa)
#
#
# Indices 1 2 3 4 5 6 
#
# 1 0.009699 -0.003446 -0.003751 0.003664 0.002065 0.003729
# 2 -0.003446 0.020359 -0.001063 -0.015857 -0.007781 0.010851
# 3 -0.003751 -0.001063 0.008508 -0.002750 -0.002475 -0.001586
# 4 0.003664 -0.015857 -0.002750 0.055281 0.014036 -0.010670
# 5 0.002065 -0.007781 -0.002475 0.014036 0.038083 -0.005984
# 6 0.003729 0.010851 -0.001586 -0.010670 -0.005984 0.039187
#
#
# Mechanical properties :
#
#
# Convention : Reuss Voigt Hill
#
# Bulk Modulus (GPa) = 45.35679 76.55968 60.95824
# Shear Modulus (GPa) = 25.64313 34.52270 30.08291
#
# Velocity S-wave (km/s) = 3.51255 4.07558 3.80449
# Velocity P-wave (km/s) = 6.18658 7.68006 6.97342
#
# Compressibility (1/GPa) = 0.02204741
#
# Stress axis : x y z
#
# Youngs Moduli (GPa) = 103.10485 49.11776 117.53979
#
# Poissons Ratio (x) = 0.16927 0.44084
# Poissons Ratio (y) = 0.35532 0.12489
# Poissons Ratio (z) = 0.38670 0.05219
#
# Static dielectric constant tensor:
#      x y z
#    x 4.015390 -0.148750 0.178950 
#    y -0.148750 3.744200 0.168950 
#    z 0.178950 0.168950 3.874200 
# 
# 
# High freq. dielectric constant tensor:
#      x y z
#    x 1.829560 -0.009580 0.011220 
#    y -0.009580 1.806040 0.012110 
#    z 0.011220 0.012110 1.813410 
# 
# From -- ./inp_files/190411.got.cif
#   From: 2010.06.25/outbox.cif.g09.slc.cpg/sg2_96_cif.got.tgz:190411.got - 2010.06.27 13:26:56.
