data_PCOD8026119
_publ_section_title
;
Structure prediction by ZEFSAII (Michael W. Deem and Ramdas Pophale) SiO2 
 PCOD8026119
Probable space group: P -1
;
_chemical_formula_sum "Si O2"
_cell_formula_units_Z 12
_cell_length_a 8.881858
_cell_length_b 7.535606
_cell_length_c 10.088552
_cell_angle_alpha 131.053430
_cell_angle_beta 103.017685
_cell_angle_gamma 104.105039
_cell_volume 419.745821
_symmetry_space_group_name_H-M "P -1"
_symmetry_group_IT_number 2
_symmetry_cell_setting 'triclinic'
loop_
_space_group_symop_operation_xyz
x,y,z
-x,-y,-z
loop_
_atom_site_type_symbol
_atom_site_label
_atom_site_fract_x
_atom_site_fract_y
_atom_site_fract_z
Si Si1 0.050513 0.896033 0.324741
Si Si2 0.318000 0.732193 0.379179
Si Si3 0.861156 0.067645 0.943353
Si Si4 0.657766 0.449630 0.974663
Si Si5 0.475755 0.823314 0.724912
Si Si6 0.119218 0.504349 0.647416
O O1 0.166520 0.817028 0.406614
O O2 0.113510 0.883030 0.184143
O O3 0.079111 0.194266 0.513220
O O4 0.836821 0.671469 0.198831
O O5 0.276886 0.506219 0.145680
O O6 0.355750 0.639873 0.484064
O O7 0.500000 0.000000 0.500000
O O8 0.650590 0.804971 0.792991
O O9 0.918863 0.361680 0.166652
O O10 0.000000 0.000000 0.000000
O O11 0.582279 0.146732 0.868319
O O12 0.500000 0.500000 0.000000
O O13 0.335489 0.719710 0.767774
O O14 0.000000 0.500000 0.500000
#
# Coordination Sequence:
#
# PCOD8026119 Si02
#       6
#     2   2   2   2   2   2
#     4  12  26  53  80 118 155 207 257 326 386 461
#     4  10  23  50  80 112 155 202 260 319 388 461
#     4  12  27  52  80 114 160 205 257 322 389 464
#     4  11  25  47  79 115 157 200 256 322 390 451
#     4  11  27  54  76 115 155 205 259 320 387 463
#     4  12  28  51  81 116 156 206 263 314 389 466
#
# _framework density 28.588730000000002
#
# number of rings (size 3 to 8) (size 9 to 14) (size 15 to 20)
#    0.000    0.667    5.000    2.000    2.333    3.333 
#    9.000    6.667    0.000    0.000    0.000    0.000 
#    0.000    0.000    0.000    0.000    0.000    0.000 
#
# Total GULP energy -148749.704575 kJ/mol
# GULP energy per Si atom -12395.808715 kJ/mol
# Density = 2.852366 g / cm^3
# Si number density = 28.588730 Si / 1000 Ang^3
#
#
#
# Elastic Constant Matrix: (Units=GPa)
#
#
# Indices 1 2 3 4 5 6 
#
# 1 229.5331 50.0217 95.8083 7.3021 9.8561 -30.1681
# 2 50.0217 108.5677 64.0609 3.7004 0.7021 -14.6573
# 3 95.8083 64.0609 187.3376 -8.3898 -17.7835 -17.6289
# 4 7.3021 3.7004 -8.3898 54.3916 6.1941 19.5607
# 5 9.8561 0.7021 -17.7835 6.1941 76.9074 -10.0036
# 6 -30.1681 -14.6573 -17.6289 19.5607 -10.0036 45.8788
#
#
#
# Elastic Compliance Matrix: (Units=1/GPa)
#
#
# Indices 1 2 3 4 5 6 
#
# 1 0.006277 -0.000629 -0.002828 -0.002492 -0.000766 0.003736
# 2 -0.000629 0.012165 -0.003691 -0.002353 -0.000305 0.002991
# 3 -0.002828 -0.003691 0.008320 0.001700 0.002171 -0.000094
# 4 -0.002492 -0.002353 0.001700 0.023991 -0.002835 -0.012584
# 5 -0.000766 -0.000305 0.002171 -0.002835 0.014431 0.004588
# 6 0.003736 0.002991 -0.000094 -0.012584 0.004588 0.031538
#
#
# Mechanical properties :
#
#
# Convention : Reuss Voigt Hill
#
# Bulk Modulus (GPa) = 80.22130 105.02446 92.62288
# Shear Modulus (GPa) = 43.41310 56.47206 49.94258
#
# Velocity S-wave (km/s) = 3.90107 4.44929 4.18417
# Velocity P-wave (km/s) = 6.95791 7.95053 7.47072
#
# Compressibility (1/GPa) = 0.01246552
#
# Stress axis : x y z
#
# Youngs Moduli (GPa) = 159.30149 82.20596 120.19620
#
# Poissons Ratio (x) = 0.05174 0.33991
# Poissons Ratio (y) = 0.10026 0.44361
# Poissons Ratio (z) = 0.45050 0.30340
#
# Static dielectric constant tensor:
#      x y z
#    x 9.043210 0.401990 -2.120040 
#    y 0.401990 5.684860 -0.980440 
#    z -2.120040 -0.980440 8.520070 
# 
# 
# High freq. dielectric constant tensor:
#      x y z
#    x 2.192750 0.009570 0.010950 
#    y 0.009570 2.166600 -0.014490 
#    z 0.010950 -0.014490 2.190100 
# 
# From -- ./inp_files/377435.got.cif
#   From: 2010.06.25/outbox.cif.g09.slc.cpg/sg2_189_cif.got.tgz:377435.got - 2010.06.27 13:26:56.
