data_PCOD8026297
_publ_section_title
;
Structure prediction by ZEFSAII (Michael W. Deem and Ramdas Pophale) SiO2 
 PCOD8026297
Probable space group: P -1
;
_chemical_formula_sum "Si O2"
_cell_formula_units_Z 12
_cell_length_a 5.278863
_cell_length_b 13.648735
_cell_length_c 11.615027
_cell_angle_alpha 126.513169
_cell_angle_beta 62.992152
_cell_angle_gamma 89.933990
_cell_volume 554.557475
_symmetry_space_group_name_H-M "P -1"
_symmetry_group_IT_number 2
_symmetry_cell_setting 'triclinic'
loop_
_space_group_symop_operation_xyz
x,y,z
-x,-y,-z
loop_
_atom_site_type_symbol
_atom_site_label
_atom_site_fract_x
_atom_site_fract_y
_atom_site_fract_z
Si Si1 0.285076 0.228352 0.272455
Si Si2 0.851727 0.867984 0.214538
Si Si3 0.716491 0.351237 0.612531
Si Si4 0.331856 0.770247 0.227238
Si Si5 0.558157 0.349207 0.111453
Si Si6 0.222896 0.867559 0.711971
O O1 0.335658 0.306698 0.208300
O O2 0.606178 0.146568 0.211495
O O3 0.055787 0.333033 0.483301
O O4 0.123801 0.128158 0.193169
O O5 0.529859 0.852032 0.289066
O O6 0.010095 0.870548 0.307997
O O7 0.790342 0.001247 0.253856
O O8 0.085457 0.745192 0.005837
O O9 0.742403 0.309847 0.711118
O O10 0.484139 0.501222 0.749861
O O11 0.593298 0.257313 0.496090
O O12 0.523793 0.667014 0.016468
#
# Coordination Sequence:
#
# PCOD8026297 Si02
#       6
#     2   2   2   2   2   2
#     4  10  24  41  66  93 126 163 210 255 310 369
#     4  10  24  41  64  95 125 165 207 257 310 367
#     4  10  24  43  66  93 127 164 209 258 310 370
#     4  10  24  41  66  93 126 163 210 255 310 369
#     4  10  24  43  66  93 127 164 209 258 310 370
#     4  10  24  41  64  95 125 165 207 257 310 367
#
# _framework density 21.638876
#
# number of rings (size 3 to 8) (size 9 to 14) (size 15 to 20)
#    2.000    0.000    0.000    2.000    4.667    5.333 
#    0.000    0.000    0.000    0.000    0.000    0.000 
#    0.000    0.000    0.000    0.000    0.000    0.000 
#
# Total GULP energy -148700.313998 kJ/mol
# GULP energy per Si atom -12391.692833 kJ/mol
# Density = 2.158963 g / cm^3
# Si number density = 21.638876 Si / 1000 Ang^3
#
#
#
# Elastic Constant Matrix: (Units=GPa)
#
#
# Indices 1 2 3 4 5 6 
#
# 1 124.8109 7.6511 16.1415 -2.2478 -5.7506 -10.2196
# 2 7.6511 73.2343 27.2605 -18.1915 0.7254 6.8376
# 3 16.1415 27.2605 49.6931 -24.1200 -1.4537 1.7369
# 4 -2.2478 -18.1915 -24.1200 45.7524 1.5113 0.3903
# 5 -5.7506 0.7254 -1.4537 1.5113 11.9855 -4.1727
# 6 -10.2196 6.8376 1.7369 0.3903 -4.1727 3.6922
#
#
#
# Elastic Compliance Matrix: (Units=1/GPa)
#
#
# Indices 1 2 3 4 5 6 
#
# 1 -0.194305 0.212555 0.059578 0.146832 -0.753135 -1.826142
# 2 0.212555 -0.205326 -0.074330 -0.152827 0.790803 1.913410
# 3 0.059578 -0.074330 0.012888 -0.032463 0.236018 0.566659
# 4 0.146832 -0.152827 -0.032463 -0.078379 0.550433 1.335058
# 5 -0.753135 0.790803 0.236018 0.550433 -2.738519 -6.813207
# 6 -1.826142 1.913410 0.566659 1.335058 -6.813207-16.434734
#
#
# Mechanical properties :
#
#
# Convention : Reuss Voigt Hill
#
# Bulk Modulus (GPa) = 112.82084 38.87161 75.84622
# Shear Modulus (GPa) = -0.24961 25.39838 12.57439
#
# Velocity S-wave (km/s) = -0.34001 3.42970 2.41322
# Velocity P-wave (km/s) = 7.21783 5.80402 6.54919
#
# Compressibility (1/GPa) = 0.00886361
#
# Stress axis : x y z
#
# Youngs Moduli (GPa) = -5.14655 -4.87031 77.59067
#
# Poissons Ratio (x) = 1.03521 -4.62270
# Poissons Ratio (y) = 1.09392 5.76730
# Poissons Ratio (z) = 0.30662 -0.36201
#
# Static dielectric constant tensor:
#      x y z
#    x 3.690780 -0.001400 -0.005300 
#    y -0.001400 3.727630 -0.089260 
#    z -0.005300 -0.089260 3.722980 
# 
# 
# High freq. dielectric constant tensor:
#      x y z
#    x 1.836970 0.001080 -0.000640 
#    y 0.001080 1.853450 -0.009710 
#    z -0.000640 -0.009710 1.839190 
# 
# From -- ./inp_files/72418.got.cif
#   From: 2010.06.25/outbox.cif.g09.slc.cpg/sg2_37_cif.got.tgz:72418.got - 2010.06.27 13:26:56.
