data_PCOD8026955
_publ_section_title
;
Structure prediction by ZEFSAII (Michael W. Deem and Ramdas Pophale) SiO2 
 PCOD8026955
Probable space group: P -1
;
_chemical_formula_sum "Si O2"
_cell_formula_units_Z 16
_cell_length_a 9.039998
_cell_length_b 26.155576
_cell_length_c 13.435876
_cell_angle_alpha 149.113535
_cell_angle_beta 49.484743
_cell_angle_gamma 151.186163
_cell_volume 715.678969
_symmetry_space_group_name_H-M "P -1"
_symmetry_group_IT_number 2
_symmetry_cell_setting 'triclinic'
loop_
_space_group_symop_operation_xyz
x,y,z
-x,-y,-z
loop_
_atom_site_type_symbol
_atom_site_label
_atom_site_fract_x
_atom_site_fract_y
_atom_site_fract_z
Si Si1 0.079730 0.554786 0.944039
Si Si2 0.284825 0.582722 0.438698
Si Si3 0.304673 0.282385 0.141775
Si Si4 0.130035 0.371819 0.978420
Si Si5 0.669947 0.204251 0.504790
Si Si6 0.773615 0.928861 0.696256
Si Si7 0.709478 0.021177 0.521023
Si Si8 0.646351 0.625480 0.518084
O O1 0.465704 0.693466 0.984222
O O2 0.021461 0.641729 0.077905
O O3 0.829982 0.377913 0.697489
O O4 0.000000 0.500000 0.000000
O O5 0.116670 0.437392 0.189725
O O6 0.451944 0.748555 0.591985
O O7 0.579467 0.649727 0.482813
O O8 0.000000 0.500000 0.500000
O O9 0.365706 0.421210 0.310989
O O10 0.397832 0.314745 0.272159
O O11 0.932373 0.083161 0.952523
O O12 0.500000 0.500000 0.000000
O O13 0.918127 0.182651 0.772717
O O14 0.354981 0.064798 0.334519
O O15 0.965532 0.247156 0.432555
O O16 0.543330 0.146411 0.577767
O O17 0.034365 0.948361 0.592165
O O18 0.500000 0.000000 0.500000
#
# Coordination Sequence:
#
# PCOD8026955 Si02
#       8
#     2   2   2   2   2   2   2   2
#     4  11  22  41  67  97 134 183 224 272 348 403
#     4  12  27  46  72 100 141 185 231 286 347 408
#     4  10  24  43  72  95 138 176 229 283 339 412
#     4  12  25  43  67 100 139 180 230 286 338 407
#     4  11  24  42  67 100 138 175 227 284 338 410
#     4  12  25  45  66 104 139 175 232 290 341 406
#     4  12  25  43  69 103 141 179 229 284 346 410
#     4  10  25  46  70  98 134 183 232 271 350 418
#
# _framework density 22.356393000000001
#
# number of rings (size 3 to 8) (size 9 to 14) (size 15 to 20)
#    0.000    0.750    2.500    4.125    8.750    2.000 
#    0.000    0.000    0.000    0.000    0.000    0.000 
#    0.000    0.000    0.000    0.000    0.000    0.000 
#
# Total GULP energy -198381.350755 kJ/mol
# GULP energy per Si atom -12398.834422 kJ/mol
# Density = 2.230551 g / cm^3
# Si number density = 22.356393 Si / 1000 Ang^3
#
#
#
# Elastic Constant Matrix: (Units=GPa)
#
#
# Indices 1 2 3 4 5 6 
#
# 1 124.2573 20.6287 20.1160 -5.5099 7.4278 -1.8736
# 2 20.6287 120.0580 31.8099 -6.9498 -2.2985 -1.3965
# 3 20.1160 31.8099 112.9395 7.6428 11.3398 5.8874
# 4 -5.5099 -6.9498 7.6428 36.2938 -2.3205 -1.7852
# 5 7.4278 -2.2985 11.3398 -2.3205 26.0694 -1.5329
# 6 -1.8736 -1.3965 5.8874 -1.7852 -1.5329 34.6472
#
#
#
# Elastic Compliance Matrix: (Units=1/GPa)
#
#
# Indices 1 2 3 4 5 6 
#
# 1 0.008598 -0.001135 -0.001134 0.001233 -0.001912 0.000591
# 2 -0.001135 0.009525 -0.002982 0.002508 0.002747 0.001080
# 3 -0.001134 -0.002982 0.010765 -0.003453 -0.005072 -0.002413
# 4 0.001233 0.002508 -0.003453 0.029332 0.004127 0.002448
# 5 -0.001912 0.002747 -0.005072 0.004127 0.041892 0.002935
# 6 0.000591 0.001080 -0.002413 0.002448 0.002935 0.029604
#
#
# Mechanical properties :
#
#
# Convention : Reuss Voigt Hill
#
# Bulk Modulus (GPa) = 54.39353 55.81822 55.10588
# Shear Modulus (GPa) = 34.16535 38.38209 36.27372
#
# Velocity S-wave (km/s) = 3.91348 4.14796 4.03242
# Velocity P-wave (km/s) = 6.69354 6.92549 6.81050
#
# Compressibility (1/GPa) = 0.01838454
#
# Stress axis : x y z
#
# Youngs Moduli (GPa) = 116.30953 104.98760 92.89372
#
# Poissons Ratio (x) = 0.11918 0.10534
# Poissons Ratio (y) = 0.13203 0.27705
# Poissons Ratio (z) = 0.13189 0.31312
#
# Static dielectric constant tensor:
#      x y z
#    x 4.093280 -0.075240 0.678120 
#    y -0.075240 3.983810 0.017670 
#    z 0.678120 0.017670 7.034050 
# 
# 
# High freq. dielectric constant tensor:
#      x y z
#    x 1.883270 -0.001140 0.006660 
#    y -0.001140 1.882220 0.005960 
#    z 0.006660 0.005960 1.892530 
# 
# From -- ./inp_files/508920.got.cif
#   From: 2010.06.25/outbox.cif.g09.slc.cpg/sg2_255_cif.got.tgz:508920.got - 2010.06.27 13:26:56.
