data_PCOD8026623
_publ_section_title
;
Structure prediction by ZEFSAII (Michael W. Deem and Ramdas Pophale) SiO2 
 PCOD8026623
Probable space group: P -1
;
_chemical_formula_sum "Si O2"
_cell_formula_units_Z 14
_cell_length_a 14.013610
_cell_length_b 10.527781
_cell_length_c 7.968141
_cell_angle_alpha 60.101646
_cell_angle_beta 143.413569
_cell_angle_gamma 121.019524
_cell_volume 592.163363
_symmetry_space_group_name_H-M "P -1"
_symmetry_group_IT_number 2
_symmetry_cell_setting 'triclinic'
loop_
_space_group_symop_operation_xyz
x,y,z
-x,-y,-z
loop_
_atom_site_type_symbol
_atom_site_label
_atom_site_fract_x
_atom_site_fract_y
_atom_site_fract_z
Si Si1 0.962770 0.399791 0.769755
Si Si2 0.556874 0.824395 0.379106
Si Si3 0.388983 0.702505 0.534877
Si Si4 0.284958 0.398641 0.417161
Si Si5 0.049524 0.290060 0.615664
Si Si6 0.721208 0.070949 0.225433
Si Si7 0.677100 0.805673 0.099668
O O1 0.800036 0.296026 0.692484
O O2 0.016306 0.310542 0.749661
O O3 0.916832 0.553149 0.541716
O O4 0.112320 0.432764 0.090764
O O5 0.481398 0.834769 0.451616
O O6 0.619935 0.669823 0.550459
O O7 0.698917 0.970937 0.431778
O O8 0.413007 0.824812 0.036612
O O9 0.398183 0.549843 0.551440
O O10 0.490932 0.725948 0.837057
O O11 0.249956 0.276441 0.593730
O O12 0.204669 0.211009 0.879260
O O13 0.898445 0.176320 0.393767
O O14 0.690909 0.974043 0.073635
#
# Coordination Sequence:
#
# PCOD8026623 Si02
#       7
#     2   2   2   2   2   2   2
#     4  11  26  42  72 103 134 173 226 272 351 383
#     4  10  24  42  71  94 137 173 231 263 342 384
#     4  12  24  43  70 104 137 170 223 287 327 402
#     4  11  23  44  67 104 135 174 219 281 336 401
#     4  11  24  46  69  97 140 177 220 281 326 408
#     4  10  24  46  69  99 133 184 222 274 327 405
#     4  11  25  43  71 101 135 176 228 269 342 388
#
# _framework density 23.642122000000001
#
# number of rings (size 3 to 8) (size 9 to 14) (size 15 to 20)
#    0.000    1.143    1.429    3.429    8.000    1.714 
#    0.000    3.571    0.000    0.000    0.000    0.000 
#    0.000    0.000    0.000    0.000    0.000    0.000 
#
# Total GULP energy -173566.803902 kJ/mol
# GULP energy per Si atom -12397.628850 kJ/mol
# Density = 2.358831 g / cm^3
# Si number density = 23.642122 Si / 1000 Ang^3
#
#
#
# Elastic Constant Matrix: (Units=GPa)
#
#
# Indices 1 2 3 4 5 6 
#
# 1 111.5696 34.1414 20.4552 7.9062 7.3299 13.3129
# 2 34.1414 54.4878 33.6663 14.0650 9.1326 -3.1510
# 3 20.4552 33.6663 91.5071 20.1177 1.0751 -10.3003
# 4 7.9062 14.0650 20.1177 39.8867 0.5070 -3.0899
# 5 7.3299 9.1326 1.0751 0.5070 32.9362 1.3942
# 6 13.3129 -3.1510 -10.3003 -3.0899 1.3942 26.5502
#
#
#
# Elastic Compliance Matrix: (Units=1/GPa)
#
#
# Indices 1 2 3 4 5 6 
#
# 1 0.012340 -0.007642 -0.000792 0.000080 -0.000290 -0.007377
# 2 -0.007642 0.030671 -0.007956 -0.004881 -0.006646 0.004166
# 3 -0.000792 -0.007956 0.015555 -0.004528 0.001738 0.004869
# 4 0.000080 -0.004881 -0.004528 0.029122 0.000994 0.000961
# 5 -0.000290 -0.006646 0.001738 0.000994 0.032263 -0.001547
# 6 -0.007377 0.004166 0.004869 0.000961 -0.001547 0.043940
#
#
# Mechanical properties :
#
#
# Convention : Reuss Voigt Hill
#
# Bulk Modulus (GPa) = 38.77736 48.23227 43.50482
# Shear Modulus (GPa) = 24.35858 31.16139 27.75999
#
# Velocity S-wave (km/s) = 3.21332 3.63443 3.43034
# Velocity P-wave (km/s) = 5.49587 6.16907 5.84217
#
# Compressibility (1/GPa) = 0.02578824
#
# Stress axis : x y z
#
# Youngs Moduli (GPa) = 81.03539 32.60363 64.28659
#
# Poissons Ratio (x) = 0.24915 0.05089
# Poissons Ratio (y) = 0.61925 0.51146
# Poissons Ratio (z) = 0.06415 0.25939
#
# Static dielectric constant tensor:
#      x y z
#    x 4.510860 -0.134520 0.156910 
#    y -0.134520 4.146560 -0.122270 
#    z 0.156910 -0.122270 4.063810 
# 
# 
# High freq. dielectric constant tensor:
#      x y z
#    x 1.955600 -0.004240 0.010410 
#    y -0.004240 1.922250 -0.001310 
#    z 0.010410 -0.001310 1.927440 
# 
# From -- ./inp_files/306861.got.cif
#   From: 2010.06.25/outbox.cif.g09.slc.cpg/sg2_154_cif.got.tgz:306861.got - 2010.06.27 13:26:56.
