data_PCOD8026650
_publ_section_title
;
Structure prediction by ZEFSAII (Michael W. Deem and Ramdas Pophale) SiO2 
 PCOD8026650
Probable space group: P -1
;
_chemical_formula_sum "Si O2"
_cell_formula_units_Z 14
_cell_length_a 14.053570
_cell_length_b 23.191253
_cell_length_c 6.746745
_cell_angle_alpha 67.573891
_cell_angle_beta 79.283116
_cell_angle_gamma 20.604822
_cell_volume 608.335084
_symmetry_space_group_name_H-M "P -1"
_symmetry_group_IT_number 2
_symmetry_cell_setting 'triclinic'
loop_
_space_group_symop_operation_xyz
x,y,z
-x,-y,-z
loop_
_atom_site_type_symbol
_atom_site_label
_atom_site_fract_x
_atom_site_fract_y
_atom_site_fract_z
Si Si1 0.535646 0.753687 0.886899
Si Si2 0.963270 0.094083 0.924784
Si Si3 0.292912 0.952135 0.332171
Si Si4 0.187562 0.338116 0.777385
Si Si5 0.175231 0.661603 0.899875
Si Si6 0.126715 0.243080 0.819124
Si Si7 0.721658 0.499605 0.266230
O O1 0.520040 0.773854 0.629102
O O2 0.784792 0.648754 0.031055
O O3 0.635243 0.621360 0.059914
O O4 0.195074 0.982164 0.817593
O O5 0.590977 0.339569 0.719240
O O6 0.058150 0.050155 0.174367
O O7 0.000000 0.000000 0.000000
O O8 0.099998 0.119157 0.323103
O O9 0.480906 0.873648 0.191368
O O10 0.044419 0.356554 0.827702
O O11 0.000000 0.500000 0.500000
O O12 0.166217 0.614777 0.798976
O O13 0.500000 0.500000 0.000000
O O14 0.089059 0.680676 0.114929
O O15 0.016631 0.323212 0.532194
O O16 0.500000 0.000000 0.000000
#
# Coordination Sequence:
#
# PCOD8026650 Si02
#       7
#     2   2   2   2   2   2   2
#     4  10  24  42  73 105 140 182 234 302 348 417
#     4   9  21  41  65 102 140 179 234 290 356 408
#     4  11  24  44  70 104 144 180 238 293 352 419
#     4  11  24  48  71 103 139 188 239 290 359 415
#     4  12  28  47  70 105 143 191 237 285 352 425
#     4  12  28  49  70 100 150 187 235 295 349 428
#     4  11  25  43  71 105 136 191 237 283 363 417
#
# _framework density 23.013634
#
# number of rings (size 3 to 8) (size 9 to 14) (size 15 to 20)
#    0.000    1.143    4.286    0.000    6.000    5.143 
#    0.000    0.000    0.000    0.000    0.000    0.000 
#    0.000    0.000    0.000    0.000    0.000    0.000 
#
# Total GULP energy -173535.642762 kJ/mol
# GULP energy per Si atom -12395.403054 kJ/mol
# Density = 2.296125 g / cm^3
# Si number density = 23.013634 Si / 1000 Ang^3
#
#
#
# Elastic Constant Matrix: (Units=GPa)
#
#
# Indices 1 2 3 4 5 6 
#
# 1 140.7146 30.4532 54.7793 2.1557 7.9598 15.2067
# 2 30.4532 73.9391 33.2784 2.2904 4.0718 19.9958
# 3 54.7793 33.2784 126.0464 -2.6134 9.9523 3.8560
# 4 2.1557 2.2904 -2.6134 35.6171 0.5107 0.9412
# 5 7.9598 4.0718 9.9523 0.5107 39.6653 5.2206
# 6 15.2067 19.9958 3.8560 0.9412 5.2206 41.5855
#
#
#
# Elastic Compliance Matrix: (Units=1/GPa)
#
#
# Indices 1 2 3 4 5 6 
#
# 1 0.009050 -0.001549 -0.003431 -0.000635 -0.000503 -0.002169
# 2 -0.001549 0.018036 -0.003912 -0.001154 0.000480 -0.007777
# 3 -0.003431 -0.003912 0.010559 0.001199 -0.001886 0.002367
# 4 -0.000635 -0.001154 0.001199 0.028281 -0.000431 0.000090
# 5 -0.000503 0.000480 -0.001886 -0.000431 0.026155 -0.003146
# 6 -0.002169 -0.007777 0.002367 0.000090 -0.003146 0.028753
#
#
# Mechanical properties :
#
#
# Convention : Reuss Voigt Hill
#
# Bulk Modulus (GPa) = 50.35355 64.19133 57.27244
# Shear Modulus (GPa) = 34.42565 38.18619 36.30592
#
# Velocity S-wave (km/s) = 3.87186 4.07785 3.97619
# Velocity P-wave (km/s) = 6.47424 7.07991 6.78384
#
# Compressibility (1/GPa) = 0.01985957
#
# Stress axis : x y z
#
# Youngs Moduli (GPa) = 110.49486 55.44393 94.70475
#
# Poissons Ratio (x) = 0.08590 0.32496
# Poissons Ratio (y) = 0.17118 0.37053
# Poissons Ratio (z) = 0.37914 0.21692
#
# Static dielectric constant tensor:
#      x y z
#    x 4.473540 -0.232960 0.132710 
#    y -0.232960 4.883000 -0.031700 
#    z 0.132710 -0.031700 3.862080 
# 
# 
# High freq. dielectric constant tensor:
#      x y z
#    x 1.920510 0.005250 0.009270 
#    y 0.005250 1.925840 -0.005250 
#    z 0.009270 -0.005250 1.890440 
# 
# From -- ./inp_files/68792.got.cif
#   From: 2010.06.25/outbox.cif.g09.slc.cpg/sg2_35_cif.got.tgz:68792.got - 2010.06.27 13:26:56.
