data_PCOD8026838
_publ_section_title
;
Structure prediction by ZEFSAII (Michael W. Deem and Ramdas Pophale) SiO2 
 PCOD8026838
Probable space group: P -1
;
_chemical_formula_sum "Si O2"
_cell_formula_units_Z 14
_cell_length_a 20.939964
_cell_length_b 18.094341
_cell_length_c 8.082239
_cell_angle_alpha 140.253448
_cell_angle_beta 134.198813
_cell_angle_gamma 17.161794
_cell_volume 566.230991
_symmetry_space_group_name_H-M "P -1"
_symmetry_group_IT_number 2
_symmetry_cell_setting 'triclinic'
loop_
_space_group_symop_operation_xyz
x,y,z
-x,-y,-z
loop_
_atom_site_type_symbol
_atom_site_label
_atom_site_fract_x
_atom_site_fract_y
_atom_site_fract_z
Si Si1 0.360434 0.573514 0.572373
Si Si2 0.797255 0.464449 0.934507
Si Si3 0.213571 0.667405 0.810072
Si Si4 0.069858 0.616737 0.603454
Si Si5 0.602017 0.946949 0.934716
Si Si6 0.640057 0.166305 0.930383
Si Si7 0.761953 0.985810 0.189192
O O1 0.243401 0.625034 0.319482
O O2 0.348384 0.529499 0.652619
O O3 0.622716 0.264252 0.473472
O O4 0.267195 0.814468 0.820107
O O5 0.985777 0.279828 0.828118
O O6 0.855773 0.417391 0.147497
O O7 0.598984 0.786045 0.088720
O O8 0.119798 0.649529 0.606894
O O9 0.389599 0.473565 0.943968
O O10 0.000000 0.000000 0.000000
O O11 0.208011 0.342294 0.325775
O O12 0.804158 0.913219 0.653709
O O13 0.722109 0.928999 0.153566
O O14 0.500000 0.000000 0.000000
O O15 0.658623 0.069538 0.965849
#
# Coordination Sequence:
#
# PCOD8026838 Si02
#       7
#     2   2   2   2   2   2   2
#     4  11  23  41  65  98 141 175 222 276 329 401
#     4  10  24  43  69 102 132 181 227 273 337 395
#     4  12  25  41  65  98 136 178 225 277 333 398
#     4  11  24  43  69  97 137 177 226 282 330 400
#     4  11  24  45  68 100 136 177 227 280 341 394
#     4  11  25  43  66 101 135 182 224 272 340 397
#     4  10  24  43  69  97 133 181 224 276 332 403
#
# _framework density 24.724891
#
# number of rings (size 3 to 8) (size 9 to 14) (size 15 to 20)
#    0.000    1.143    1.429    4.714    2.000    7.429 
#    0.000    0.000    0.000    0.000    0.000    0.000 
#    0.000    0.000    0.000    0.000    0.000    0.000 
#
# Total GULP energy -173441.686927 kJ/mol
# GULP energy per Si atom -12388.691923 kJ/mol
# Density = 2.466862 g / cm^3
# Si number density = 24.724891 Si / 1000 Ang^3
#
#
#
# Elastic Constant Matrix: (Units=GPa)
#
#
# Indices 1 2 3 4 5 6 
#
# 1 117.6189 3.6469 12.1742 14.8640 -6.7148 -11.3896
# 2 3.6469 102.3775 30.0021 38.6486 -2.3619 -12.3536
# 3 12.1742 30.0021 106.9046 36.0925 -8.9084 -13.6794
# 4 14.8640 38.6486 36.0925 41.5959 -5.8683 -11.4452
# 5 -6.7148 -2.3619 -8.9084 -5.8683 38.0019 7.6387
# 6 -11.3896 -12.3536 -13.6794 -11.4452 7.6387 32.1541
#
#
#
# Elastic Compliance Matrix: (Units=1/GPa)
#
#
# Indices 1 2 3 4 5 6 
#
# 1 0.009215 0.001453 0.000305 -0.004178 0.000682 0.002303
# 2 0.001453 0.015410 0.000751 -0.015218 -0.001290 0.001644
# 3 0.000305 0.000751 0.013403 -0.011835 0.001088 0.001627
# 4 -0.004178 -0.015218 -0.011835 0.051799 0.002435 0.005498
# 5 0.000682 -0.001290 0.001088 0.002435 0.028112 -0.005603
# 6 0.002303 0.001644 0.001627 0.005498 -0.005603 0.036528
#
#
# Mechanical properties :
#
#
# Convention : Reuss Voigt Hill
#
# Bulk Modulus (GPa) = 23.23127 46.50527 34.86827
# Shear Modulus (GPa) = 30.52528 41.08889 35.80709
#
# Velocity S-wave (km/s) = 3.51750 4.08099 3.80968
# Velocity P-wave (km/s) = 5.09051 6.40749 5.78659
#
# Compressibility (1/GPa) = 0.04304542
#
# Stress axis : x y z
#
# Youngs Moduli (GPa) = 108.51458 64.89455 74.60820
#
# Poissons Ratio (x) = -0.09431 -0.02274
# Poissons Ratio (y) = -0.15770 -0.05600
# Poissons Ratio (z) = -0.03307 -0.04871
#
# Static dielectric constant tensor:
#      x y z
#    x 4.957130 -0.192000 -0.233600 
#    y -0.192000 4.503270 0.296480 
#    z -0.233600 0.296480 4.498840 
# 
# 
# High freq. dielectric constant tensor:
#      x y z
#    x 2.006610 -0.008520 -0.015310 
#    y -0.008520 1.982030 0.027460 
#    z -0.015310 0.027460 1.971950 
# 
# From -- ./inp_files/348704.got.cif
#   From: 2010.06.25/outbox.cif.g09.slc.cpg/sg2_175_cif.got.tgz:348704.got - 2010.06.27 13:26:56.
