data_PCOD8026451
_publ_section_title
;
Structure prediction by ZEFSAII (Michael W. Deem and Ramdas Pophale) SiO2 
 PCOD8026451
Probable space group: P -1
;
_chemical_formula_sum "Si O2"
_cell_formula_units_Z 16
_cell_length_a 8.706062
_cell_length_b 12.146169
_cell_length_c 8.815976
_cell_angle_alpha 101.357101
_cell_angle_beta 128.430157
_cell_angle_gamma 74.977051
_cell_volume 704.541408
_symmetry_space_group_name_H-M "P -1"
_symmetry_group_IT_number 2
_symmetry_cell_setting 'triclinic'
loop_
_space_group_symop_operation_xyz
x,y,z
-x,-y,-z
loop_
_atom_site_type_symbol
_atom_site_label
_atom_site_fract_x
_atom_site_fract_y
_atom_site_fract_z
Si Si1 0.743401 0.985290 0.980607
Si Si2 0.967637 0.632181 0.728074
Si Si3 0.117803 0.819196 0.052558
Si Si4 0.781795 0.216732 0.561450
Si Si5 0.414788 0.401988 0.333646
Si Si6 0.676037 0.556320 0.056242
Si Si7 0.709171 0.996496 0.308686
Si Si8 0.157580 0.259734 0.639866
O O1 0.797438 0.990096 0.191750
O O2 0.753011 0.105050 0.940861
O O3 0.525799 0.955238 0.819600
O O4 0.895933 0.885161 0.968317
O O5 0.768870 0.629699 0.697465
O O6 0.909986 0.675782 0.537820
O O7 0.107544 0.508954 0.773910
O O8 0.104081 0.710916 0.913365
O O9 0.236776 0.778369 0.267336
O O10 0.583324 0.290056 0.388575
O O11 0.969909 0.270686 0.640194
O O12 0.813764 0.085348 0.490056
O O13 0.500000 0.500000 0.500000
O O14 0.339694 0.444603 0.134043
O O15 0.671464 0.683748 0.155426
O O16 0.500000 0.500000 0.000000
O O17 0.754073 0.872104 0.379730
#
# Coordination Sequence:
#
# PCOD8026451 Si02
#       8
#     2   2   2   2   2   2   2   2
#     4  10  24  42  65  94 140 178 227 268 333 393
#     4  12  26  45  71  99 135 174 227 283 340 396
#     4  11  24  42  67  98 139 177 223 276 337 394
#     4  12  25  43  69 102 140 180 225 274 335 403
#     4  12  26  46  72 101 136 176 227 282 342 395
#     4  12  27  48  73  98 133 177 229 282 339 400
#     4  11  25  42  68  98 140 181 227 270 333 402
#     4  12  26  44  70 101 136 179 228 275 337 403
#
# _framework density 22.709809
#
# number of rings (size 3 to 8) (size 9 to 14) (size 15 to 20)
#    0.000    0.500    1.250    6.375   10.500    0.500 
#    0.000    0.000    0.000    0.000    0.000    0.000 
#    0.000    0.000    0.000    0.000    0.000    0.000 
#
# Total GULP energy -198544.980694 kJ/mol
# GULP energy per Si atom -12409.061293 kJ/mol
# Density = 2.265812 g / cm^3
# Si number density = 22.709809 Si / 1000 Ang^3
#
#
#
# Elastic Constant Matrix: (Units=GPa)
#
#
# Indices 1 2 3 4 5 6 
#
# 1 65.0955 40.1232 27.5169 3.2625 8.6445 25.8316
# 2 40.1232 106.6886 45.9176 0.8197 -7.7215 10.4087
# 3 27.5169 45.9176 137.6128 1.5372 -22.0580 21.0570
# 4 3.2625 0.8197 1.5372 49.8784 2.7731 1.4082
# 5 8.6445 -7.7215 -22.0580 2.7731 40.9580 -7.2057
# 6 25.8316 10.4087 21.0570 1.4082 -7.2057 38.4368
#
#
#
# Elastic Compliance Matrix: (Units=1/GPa)
#
#
# Indices 1 2 3 4 5 6 
#
# 1 0.032532 -0.010312 -0.002094 -0.000567 -0.013494 -0.020432
# 2 -0.010312 0.014253 -0.002839 0.000137 0.004279 0.005423
# 3 -0.002094 -0.002839 0.009748 -0.000319 0.004781 -0.002256
# 4 -0.000567 0.000137 -0.000319 0.020190 -0.001481 -0.000499
# 5 -0.013494 0.004279 0.004781 -0.001481 0.032766 0.011488
# 6 -0.020432 0.005423 -0.002256 -0.000499 0.011488 0.041688
#
#
# Mechanical properties :
#
#
# Convention : Reuss Voigt Hill
#
# Bulk Modulus (GPa) = 38.40027 59.61247 49.00637
# Shear Modulus (GPa) = 26.26761 38.91058 32.58910
#
# Velocity S-wave (km/s) = 3.40467 4.14379 3.79228
# Velocity P-wave (km/s) = 5.69223 7.01437 6.38760
#
# Compressibility (1/GPa) = 0.02604148
#
# Stress axis : x y z
#
# Youngs Moduli (GPa) = 30.73891 70.16201 102.58425
#
# Poissons Ratio (x) = 0.72351 0.21486
# Poissons Ratio (y) = 0.31698 0.29126
# Poissons Ratio (z) = 0.06438 0.19920
#
# Static dielectric constant tensor:
#      x y z
#    x 4.384330 0.292900 0.032860 
#    y 0.292900 4.478720 0.015070 
#    z 0.032860 0.015070 4.037710 
# 
# 
# High freq. dielectric constant tensor:
#      x y z
#    x 1.905770 0.005700 0.003020 
#    y 0.005700 1.909770 -0.001380 
#    z 0.003020 -0.001380 1.905420 
# 
# From -- ./inp_files/187968.got.cif
#   From: 2010.06.25/outbox.cif.g09.slc.cpg/sg2_94_cif.got.tgz:187968.got - 2010.06.27 13:26:56.
