data_PCOD8026968
_publ_section_title
;
Structure prediction by ZEFSAII (Michael W. Deem and Ramdas Pophale) SiO2 
 PCOD8026968
Probable space group: P -1
;
_chemical_formula_sum "Si O2"
_cell_formula_units_Z 14
_cell_length_a 9.212867
_cell_length_b 12.154165
_cell_length_c 9.644064
_cell_angle_alpha 107.519149
_cell_angle_beta 73.229725
_cell_angle_gamma 146.120514
_cell_volume 572.543928
_symmetry_space_group_name_H-M "P -1"
_symmetry_group_IT_number 2
_symmetry_cell_setting 'triclinic'
loop_
_space_group_symop_operation_xyz
x,y,z
-x,-y,-z
loop_
_atom_site_type_symbol
_atom_site_label
_atom_site_fract_x
_atom_site_fract_y
_atom_site_fract_z
Si Si1 0.385606 0.571952 0.418087
Si Si2 0.008482 0.210435 0.189153
Si Si3 0.184976 0.864149 0.079666
Si Si4 0.514183 0.129984 0.623859
Si Si5 0.350079 0.215150 0.120730
Si Si6 0.256300 0.407764 0.674938
Si Si7 0.742789 0.317502 0.908095
O O1 0.452070 0.748767 0.454162
O O2 0.201592 0.429468 0.547381
O O3 0.665367 0.678999 0.390592
O O4 0.217420 0.426533 0.278053
O O5 0.120540 0.152533 0.098992
O O6 0.756748 0.027446 0.280301
O O7 0.940086 0.230687 0.072361
O O8 0.384284 0.878916 0.060962
O O9 0.973063 0.706698 0.199672
O O10 0.271354 0.047382 0.153189
O O11 0.755017 0.296359 0.731445
O O12 0.500000 0.000000 0.500000
O O13 0.478720 0.367270 0.264123
O O14 0.544634 0.301796 0.974371
O O15 0.000000 0.500000 0.000000
#
# Coordination Sequence:
#
# PCOD8026968 Si02
#       7
#     2   2   2   2   2   2   2
#     4  10  25  47  69 105 149 192 245 292 373 440
#     4  11  26  45  77 111 137 195 244 310 365 432
#     4  12  24  42  72 103 147 184 246 301 363 429
#     4  12  29  48  74 106 153 197 246 298 374 443
#     4  11  24  43  74 107 145 180 250 304 364 426
#     4  10  24  43  73 105 144 193 236 307 363 437
#     4  12  26  46  70 110 147 193 239 301 371 433
#
# _framework density 24.452273000000002
#
# number of rings (size 3 to 8) (size 9 to 14) (size 15 to 20)
#    0.000    0.857    2.857    2.571    6.000    1.714 
#    0.000    4.286    0.000    0.000    0.000    0.000 
#    0.000    0.000    0.000    0.000    0.000    0.000 
#
# Total GULP energy -173481.226428 kJ/mol
# GULP energy per Si atom -12391.516173 kJ/mol
# Density = 2.439662 g / cm^3
# Si number density = 24.452273 Si / 1000 Ang^3
#
#
#
# Elastic Constant Matrix: (Units=GPa)
#
#
# Indices 1 2 3 4 5 6 
#
# 1 136.9574 20.2888 52.1815 6.6513 -1.5878 -28.8458
# 2 20.2888 64.9599 29.6864 6.0454 -1.5525 -23.0316
# 3 52.1815 29.6864 129.7366 10.4770 3.6385 -12.4181
# 4 6.6513 6.0454 10.4770 38.3687 -7.0273 -1.0153
# 5 -1.5878 -1.5525 3.6385 -7.0273 35.0406 -3.9227
# 6 -28.8458 -23.0316 -12.4181 -1.0153 -3.9227 45.3825
#
#
#
# Elastic Compliance Matrix: (Units=1/GPa)
#
#
# Indices 1 2 3 4 5 6 
#
# 1 0.009793 0.000656 -0.003548 -0.000426 0.001394 0.005698
# 2 0.000656 0.020765 -0.003985 -0.001637 0.002156 0.010014
# 3 -0.003548 -0.003985 0.010091 -0.001918 -0.001963 -0.001729
# 4 -0.000426 -0.001637 -0.001918 0.027940 0.005653 -0.000513
# 5 0.001394 0.002156 -0.001963 0.005653 0.030505 0.004206
# 6 0.005698 0.010014 -0.001729 -0.000513 0.004206 0.030618
#
#
# Mechanical properties :
#
#
# Convention : Reuss Voigt Hill
#
# Bulk Modulus (GPa) = 37.18197 59.55191 48.36694
# Shear Modulus (GPa) = 32.80142 39.05818 35.92980
#
# Velocity S-wave (km/s) = 3.66655 4.00099 3.83741
# Velocity P-wave (km/s) = 5.75880 6.76396 6.28151
#
# Compressibility (1/GPa) = 0.02689476
#
# Stress axis : x y z
#
# Youngs Moduli (GPa) = 102.11206 48.15828 99.09445
#
# Poissons Ratio (x) = -0.03159 0.35162
# Poissons Ratio (y) = -0.06698 0.39488
# Poissons Ratio (z) = 0.36233 0.19191
#
# Static dielectric constant tensor:
#      x y z
#    x 4.711740 -0.136600 -0.033180 
#    y -0.136600 4.466340 0.124320 
#    z -0.033180 0.124320 4.434610 
# 
# 
# High freq. dielectric constant tensor:
#      x y z
#    x 1.989720 -0.012020 -0.004730 
#    y -0.012020 1.972070 0.005720 
#    z -0.004730 0.005720 1.976560 
# 
# From -- ./inp_files/188505.got.cif
#   From: 2010.06.25/outbox.cif.g09.slc.cpg/sg2_95_cif.got.tgz:188505.got - 2010.06.27 13:26:56.
