data_PCOD8026250
_publ_section_title
;
Structure prediction by ZEFSAII (Michael W. Deem and Ramdas Pophale) SiO2 
 PCOD8026250
Probable space group: P -1
;
_chemical_formula_sum "Si O2"
_cell_formula_units_Z 16
_cell_length_a 8.550790
_cell_length_b 11.320192
_cell_length_c 15.843779
_cell_angle_alpha 150.447149
_cell_angle_beta 83.171660
_cell_angle_gamma 103.765467
_cell_volume 722.167806
_symmetry_space_group_name_H-M "P -1"
_symmetry_group_IT_number 2
_symmetry_cell_setting 'triclinic'
loop_
_space_group_symop_operation_xyz
x,y,z
-x,-y,-z
loop_
_atom_site_type_symbol
_atom_site_label
_atom_site_fract_x
_atom_site_fract_y
_atom_site_fract_z
Si Si1 0.290773 0.494871 0.746843
Si Si2 0.650404 0.582378 0.754647
Si Si3 0.949754 0.661737 0.200195
Si Si4 0.766686 0.992411 0.871376
Si Si5 0.752056 0.936722 0.639743
Si Si6 0.684184 0.656923 0.097458
Si Si7 0.110980 0.258002 0.014468
Si Si8 0.451463 0.968323 0.580053
O O1 0.481198 0.556837 0.801043
O O2 0.168261 0.289888 0.687026
O O3 0.273892 0.355209 0.569072
O O4 0.249814 0.759348 0.923928
O O5 0.657374 0.753060 0.777936
O O6 0.810824 0.691273 0.867329
O O7 0.649136 0.307030 0.556222
O O8 0.816829 0.526434 0.050815
O O9 0.050763 0.484408 0.120697
O O10 0.065674 0.910375 0.305980
O O11 0.718939 0.961180 0.756545
O O12 0.960006 0.009759 0.875246
O O13 0.620676 0.055306 0.676130
O O14 0.676445 0.876345 0.297486
O O15 0.500000 0.500000 0.000000
O O16 0.748795 0.778978 0.079598
O O17 0.500000 0.000000 0.500000
#
# Coordination Sequence:
#
# PCOD8026250 Si02
#       8
#     2   2   2   2   2   2   2   2
#     4  10  24  40  70 101 130 180 224 277 336 386
#     4  11  24  48  65  95 135 178 227 274 334 397
#     4  11  22  41  67  99 136 167 219 281 337 398
#     4  11  25  45  69  95 137 183 227 275 330 401
#     4  11  23  43  68 102 139 173 225 273 339 401
#     4  12  23  37  66 101 132 168 217 273 340 403
#     4  11  24  41  67  97 134 178 223 278 337 394
#     4  11  25  43  66 100 135 175 217 283 342 392
#
# _framework density 22.155515999999999
#
# number of rings (size 3 to 8) (size 9 to 14) (size 15 to 20)
#    0.000    1.000    1.250    6.000    7.000    4.000 
#    2.250    0.625    0.000    0.000    0.000    0.000 
#    0.000    0.000    0.000    0.000    0.000    0.000 
#
# Total GULP energy -198223.656072 kJ/mol
# GULP energy per Si atom -12388.978505 kJ/mol
# Density = 2.210509 g / cm^3
# Si number density = 22.155516 Si / 1000 Ang^3
#
#
#
# Elastic Constant Matrix: (Units=GPa)
#
#
# Indices 1 2 3 4 5 6 
#
# 1 92.8356 47.0071 28.4629 -13.0090 22.5703 0.7720
# 2 47.0071 115.8580 42.8200 -4.5962 -5.1935 -1.8468
# 3 28.4629 42.8200 81.2941 -6.4607 1.9806 -3.0571
# 4 -13.0090 -4.5962 -6.4607 31.5032 -3.7958 2.4363
# 5 22.5703 -5.1935 1.9806 -3.7958 37.2820 -7.4204
# 6 0.7720 -1.8468 -3.0571 2.4363 -7.4204 30.1715
#
#
#
# Elastic Compliance Matrix: (Units=1/GPa)
#
#
# Indices 1 2 3 4 5 6 
#
# 1 0.019082 -0.007354 -0.002262 0.005159 -0.012877 -0.004751
# 2 -0.007354 0.013694 -0.004828 -0.001375 0.006946 0.002356
# 3 -0.002262 -0.004828 0.015800 0.001534 0.000274 0.001307
# 4 0.005159 -0.001375 0.001534 0.034154 -0.000505 -0.002943
# 5 -0.012877 0.006946 0.000274 -0.000505 0.037520 0.010051
# 6 -0.004751 0.002356 0.001307 -0.002943 0.010051 0.036252
#
#
# Mechanical properties :
#
#
# Convention : Reuss Voigt Hill
#
# Bulk Modulus (GPa) = 50.79381 58.50751 54.65066
# Shear Modulus (GPa) = 26.04786 31.23786 28.64286
#
# Velocity S-wave (km/s) = 3.43254 3.75899 3.59947
# Velocity P-wave (km/s) = 6.21978 6.73089 6.48038
#
# Compressibility (1/GPa) = 0.01968744
#
# Stress axis : x y z
#
# Youngs Moduli (GPa) = 52.40441 73.02526 63.28939
#
# Poissons Ratio (x) = 0.53706 0.14318
# Poissons Ratio (y) = 0.38541 0.30555
# Poissons Ratio (z) = 0.11855 0.35256
#
# Static dielectric constant tensor:
#      x y z
#    x 4.547430 0.280460 -0.260180 
#    y 0.280460 3.946050 -0.093280 
#    z -0.260180 -0.093280 4.355380 
# 
# 
# High freq. dielectric constant tensor:
#      x y z
#    x 1.887700 0.018780 0.009140 
#    y 0.018780 1.859570 -0.012480 
#    z 0.009140 -0.012480 1.867610 
# 
# From -- ./inp_files/174982.got.cif
#   From: 2010.06.25/outbox.cif.g09.slc.cpg/sg2_88_cif.got.tgz:174982.got - 2010.06.27 13:26:56.
