data_PCOD8026825
_publ_section_title
;
Structure prediction by ZEFSAII (Michael W. Deem and Ramdas Pophale) SiO2 
 PCOD8026825
Probable space group: P -1
;
_chemical_formula_sum "Si O2"
_cell_formula_units_Z 14
_cell_length_a 14.872187
_cell_length_b 17.465929
_cell_length_c 9.232778
_cell_angle_alpha 47.411235
_cell_angle_beta 45.505113
_cell_angle_gamma 21.833113
_cell_volume 633.124228
_symmetry_space_group_name_H-M "P -1"
_symmetry_group_IT_number 2
_symmetry_cell_setting 'triclinic'
loop_
_space_group_symop_operation_xyz
x,y,z
-x,-y,-z
loop_
_atom_site_type_symbol
_atom_site_label
_atom_site_fract_x
_atom_site_fract_y
_atom_site_fract_z
Si Si1 0.977690 0.132583 0.196354
Si Si2 0.589105 0.151153 0.149016
Si Si3 0.852528 0.986814 0.522503
Si Si4 0.853713 0.613658 0.824517
Si Si5 0.622380 0.800712 0.142889
Si Si6 0.643458 0.494332 0.905701
Si Si7 0.940091 0.781400 0.433817
O O1 0.845015 0.115885 0.341358
O O2 0.805283 0.345864 0.052901
O O3 0.008502 0.136822 0.325119
O O4 0.248640 0.940920 0.059228
O O5 0.310017 0.311850 0.218879
O O6 0.563179 0.274560 0.112208
O O7 0.716888 0.975265 0.331803
O O8 0.572155 0.140175 0.640702
O O9 0.001502 0.825039 0.430158
O O10 0.859271 0.734369 0.664518
O O11 0.132406 0.364572 0.818322
O O12 0.717386 0.679341 0.043328
O O13 0.500000 0.000000 0.000000
O O14 0.815481 0.416441 0.683446
O O15 0.500000 0.500000 0.000000
#
# Coordination Sequence:
#
# PCOD8026825 Si02
#       7
#     2   2   2   2   2   2   2
#     4  10  24  43  68  98 130 172 220 271 325 385
#     4  11  24  45  66  97 137 170 218 271 320 393
#     4  11  22  45  69  95 132 171 215 276 325 379
#     4  11  25  41  67 100 126 177 218 264 330 389
#     4  11  24  42  69  94 137 168 214 276 325 381
#     4  11  25  43  67  95 134 177 216 268 328 388
#     4  11  25  42  68  98 133 172 219 267 328 391
#
# _framework density 22.112565
#
# number of rings (size 3 to 8) (size 9 to 14) (size 15 to 20)
#    0.000    1.143    2.857    2.143    6.000    2.857 
#    0.000    2.143    0.000    0.000    0.000    0.000 
#    0.000    0.000    0.000    0.000    0.000    0.000 
#
# Total GULP energy -173671.858729 kJ/mol
# GULP energy per Si atom -12405.132766 kJ/mol
# Density = 2.206224 g / cm^3
# Si number density = 22.112565 Si / 1000 Ang^3
#
#
#
# Elastic Constant Matrix: (Units=GPa)
#
#
# Indices 1 2 3 4 5 6 
#
# 1 88.0611 23.7617 12.5388 -6.2302 2.8659 -11.3773
# 2 23.7617 107.9227 26.0392 -10.7571 -3.7262 -9.3424
# 3 12.5388 26.0392 86.7967 -0.4941 2.6997 -1.7465
# 4 -6.2302 -10.7571 -0.4941 18.2853 1.2310 -3.4749
# 5 2.8659 -3.7262 2.6997 1.2310 38.1875 3.4146
# 6 -11.3773 -9.3424 -1.7465 -3.4749 3.4146 31.4609
#
#
#
# Elastic Compliance Matrix: (Units=1/GPa)
#
#
# Indices 1 2 3 4 5 6 
#
# 1 0.012980 -0.001787 -0.001168 0.004354 -0.001632 0.004756
# 2 -0.001787 0.011361 -0.003079 0.006530 0.000966 0.003173
# 3 -0.001168 -0.003079 0.012618 -0.001944 -0.000976 -0.000745
# 4 0.004354 0.006530 -0.001944 0.062132 -0.002497 0.010539
# 5 -0.001632 0.000966 -0.000976 -0.002497 0.026870 -0.003549
# 6 0.004756 0.003173 -0.000745 0.010539 -0.003549 0.035956
#
#
# Mechanical properties :
#
#
# Convention : Reuss Voigt Hill
#
# Bulk Modulus (GPa) = 40.17476 45.27330 42.72403
# Shear Modulus (GPa) = 27.43014 32.28280 29.85647
#
# Velocity S-wave (km/s) = 3.52586 3.82505 3.67850
# Velocity P-wave (km/s) = 5.89774 6.32665 6.11595
#
# Compressibility (1/GPa) = 0.02489125
#
# Stress axis : x y z
#
# Youngs Moduli (GPa) = 77.04299 88.01972 79.25212
#
# Poissons Ratio (x) = 0.15726 0.09255
# Poissons Ratio (y) = 0.13765 0.24404
# Poissons Ratio (z) = 0.08997 0.27104
#
# Static dielectric constant tensor:
#      x y z
#    x 3.892140 -0.093010 0.080800 
#    y -0.093010 4.238170 0.169210 
#    z 0.080800 0.169210 4.214090 
# 
# 
# High freq. dielectric constant tensor:
#      x y z
#    x 1.870110 -0.005280 0.003490 
#    y -0.005280 1.869630 -0.000350 
#    z 0.003490 -0.000350 1.881370 
# 
# From -- ./inp_files/27535.got.cif
#   From: 2010.06.25/outbox.cif.g09.slc.cpg/sg2_14_cif.got.tgz:27535.got - 2010.06.27 13:26:56.
