data_PCOD8026088
_publ_section_title
;
Structure prediction by ZEFSAII (Michael W. Deem and Ramdas Pophale) SiO2 
 PCOD8026088
Probable space group: P -1
;
_chemical_formula_sum "Si O2"
_cell_formula_units_Z 16
_cell_length_a 9.247710
_cell_length_b 15.102511
_cell_length_c 5.358336
_cell_angle_alpha 94.464344
_cell_angle_beta 81.471214
_cell_angle_gamma 72.861440
_cell_volume 701.351663
_symmetry_space_group_name_H-M "P -1"
_symmetry_group_IT_number 2
_symmetry_cell_setting 'triclinic'
loop_
_space_group_symop_operation_xyz
x,y,z
-x,-y,-z
loop_
_atom_site_type_symbol
_atom_site_label
_atom_site_fract_x
_atom_site_fract_y
_atom_site_fract_z
Si Si1 0.115304 0.382032 0.194986
Si Si2 0.639834 0.915599 0.339919
Si Si3 0.130971 0.038351 0.376177
Si Si4 0.740758 0.273463 0.786996
Si Si5 0.656695 0.066942 0.064671
Si Si6 0.070929 0.595454 0.255188
Si Si7 0.432067 0.236934 0.948648
Si Si8 0.138632 0.836919 0.764933
O O1 0.027033 0.363159 0.459976
O O2 0.133472 0.484152 0.229640
O O3 0.030628 0.369922 0.959348
O O4 0.286252 0.309727 0.128927
O O5 0.797980 0.901641 0.443945
O O6 0.612135 0.815459 0.293164
O O7 0.500000 0.000000 0.500000
O O8 0.645147 0.962694 0.078544
O O9 0.044971 0.111150 0.194207
O O10 0.000000 0.000000 0.500000
O O11 0.260399 0.944152 0.228194
O O12 0.557530 0.288179 0.851994
O O13 0.808457 0.229310 0.498761
O O14 0.777511 0.371664 0.799741
O O15 0.825742 0.215033 0.990676
O O16 0.767731 0.087049 0.254117
O O17 0.501522 0.154542 0.116293
#
# Coordination Sequence:
#
# PCOD8026088 Si02
#       8
#     2   2   2   2   2   2   2   2
#     4  10  24  46  76 106 139 172 228 280 351 420
#     4  12  25  42  62  90 139 182 230 288 343 390
#     4  12  24  42  65  91 129 187 239 288 337 396
#     4  11  25  45  69 100 144 176 229 286 344 417
#     4  11  24  43  61  89 138 176 233 285 337 390
#     4  10  23  48  73 106 140 176 216 288 350 421
#     4  11  25  44  66 103 136 187 231 287 342 419
#     4  11  24  40  66 101 132 181 237 287 332 403
#
# _framework density 22.813089999999999
#
# number of rings (size 3 to 8) (size 9 to 14) (size 15 to 20)
#    0.000    1.000    2.500    3.750    3.500    4.500 
#    0.000    0.000    0.000    8.250    0.000    0.000 
#    0.000    0.000    0.000    0.000    0.000    0.000 
#
# Total GULP energy -198236.904044 kJ/mol
# GULP energy per Si atom -12389.806503 kJ/mol
# Density = 2.276117 g / cm^3
# Si number density = 22.813090 Si / 1000 Ang^3
#
#
#
# Elastic Constant Matrix: (Units=GPa)
#
#
# Indices 1 2 3 4 5 6 
#
# 1 172.1959 75.1505 57.4443 6.4592 7.0537 11.1725
# 2 75.1505 83.1438 40.7541 13.1138 -8.0258 6.1084
# 3 57.4443 40.7541 126.7826 5.6509 7.4123 -2.8583
# 4 6.4592 13.1138 5.6509 28.6916 -8.6307 -5.5473
# 5 7.0537 -8.0258 7.4123 -8.6307 37.6189 1.6162
# 6 11.1725 6.1084 -2.8583 -5.5473 1.6162 49.7634
#
#
#
# Elastic Compliance Matrix: (Units=1/GPa)
#
#
# Indices 1 2 3 4 5 6 
#
# 1 0.010493 -0.009009 -0.001731 0.000884 -0.003297 -0.001144
# 2 -0.009009 0.023747 -0.003652 -0.006688 0.006029 -0.002043
# 3 -0.001731 -0.003652 0.010049 -0.000420 -0.002593 0.001451
# 4 0.000884 -0.006688 -0.000420 0.041062 0.007699 0.004926
# 5 -0.003297 0.006029 -0.002593 0.007699 0.030776 -0.000290
# 6 -0.001144 -0.002043 0.001451 0.004926 -0.000290 0.021245
#
#
# Mechanical properties :
#
#
# Convention : Reuss Voigt Hill
#
# Bulk Modulus (GPa) = 64.49477 80.97999 72.73738
# Shear Modulus (GPa) = 29.18451 37.13301 33.15876
#
# Velocity S-wave (km/s) = 3.58059 4.03886 3.81661
# Velocity P-wave (km/s) = 6.73992 7.57127 7.16766
#
# Compressibility (1/GPa) = 0.01550513
#
# Stress axis : x y z
#
# Youngs Moduli (GPa) = 95.30570 42.10986 99.51622
#
# Poissons Ratio (x) = 0.37937 0.17222
# Poissons Ratio (y) = 0.85862 0.36344
# Poissons Ratio (z) = 0.16493 0.15379
#
# Static dielectric constant tensor:
#      x y z
#    x 4.319790 -0.091140 0.429250 
#    y -0.091140 4.161100 0.000530 
#    z 0.429250 0.000530 3.955410 
# 
# 
# High freq. dielectric constant tensor:
#      x y z
#    x 1.919090 0.011580 0.009130 
#    y 0.011580 1.879040 -0.005440 
#    z 0.009130 -0.005440 1.912010 
# 
# From -- ./inp_files/39249.got.cif
#   From: 2010.06.25/outbox.cif.g09.slc.cpg/sg2_20_cif.got.tgz:39249.got - 2010.06.27 13:26:56.
