data_PCOD8026198
_publ_section_title
;
Structure prediction by ZEFSAII (Michael W. Deem and Ramdas Pophale) SiO2 
 PCOD8026198
Probable space group: P -1
;
_chemical_formula_sum "Si O2"
_cell_formula_units_Z 16
_cell_length_a 11.757775
_cell_length_b 20.552689
_cell_length_c 15.029934
_cell_angle_alpha 153.228819
_cell_angle_beta 151.696787
_cell_angle_gamma 41.141491
_cell_volume 766.366809
_symmetry_space_group_name_H-M "P -1"
_symmetry_group_IT_number 2
_symmetry_cell_setting 'triclinic'
loop_
_space_group_symop_operation_xyz
x,y,z
-x,-y,-z
loop_
_atom_site_type_symbol
_atom_site_label
_atom_site_fract_x
_atom_site_fract_y
_atom_site_fract_z
Si Si1 0.643176 0.167807 0.502418
Si Si2 0.949288 0.606007 0.016758
Si Si3 0.881331 0.875318 0.886978
Si Si4 0.565200 0.896732 0.995709
Si Si5 0.745428 0.783493 0.225157
Si Si6 0.023453 0.899632 0.214576
Si Si7 0.108618 0.666324 0.457003
Si Si8 0.801593 0.181776 0.121949
O O1 0.381935 0.219555 0.394461
O O2 0.752259 0.173397 0.684064
O O3 0.625550 0.999359 0.249503
O O4 0.802739 0.282975 0.690034
O O5 0.862241 0.503957 0.747394
O O6 0.744120 0.699352 0.025618
O O7 0.000000 0.500000 0.000000
O O8 0.036723 0.796775 0.829179
O O9 0.013807 0.881638 0.080495
O O10 0.836168 0.033112 0.014152
O O11 0.793420 0.827049 0.028419
O O12 0.341833 0.770783 0.706372
O O13 0.500000 0.000000 0.000000
O O14 0.853798 0.694205 0.270561
O O15 0.473881 0.814027 0.094539
O O16 0.937265 0.929695 0.527949
O O17 0.099691 0.687034 0.582567
#
# Coordination Sequence:
#
# PCOD8026198 Si02
#       8
#     2   2   2   2   2   2   2   2
#     4  12  22  40  62  94 126 162 205 258 313 370
#     4  10  24  40  64  93 128 165 200 251 324 373
#     4  11  24  39  62  92 125 168 207 258 305 361
#     4  12  18  35  64  89 127 155 197 257 318 361
#     4  11  20  38  62  94 127 158 201 256 314 371
#     4  12  22  35  62  97 126 159 206 258 314 369
#     4  11  22  41  60  94 126 165 198 259 316 365
#     4  11  23  40  62  91 126 164 214 254 303 364
#
# _framework density 20.877731000000001
#
# number of rings (size 3 to 8) (size 9 to 14) (size 15 to 20)
#    0.000    0.750    7.500    1.125    1.750    2.000 
#    0.000    0.625    0.000    3.750    0.000    0.000 
#    0.000    0.000    0.000    0.000    0.000    0.000 
#
# Total GULP energy -198330.340003 kJ/mol
# GULP energy per Si atom -12395.646250 kJ/mol
# Density = 2.083021 g / cm^3
# Si number density = 20.877731 Si / 1000 Ang^3
#
#
#
# Elastic Constant Matrix: (Units=GPa)
#
#
# Indices 1 2 3 4 5 6 
#
# 1 162.5920 35.4409 61.9101 -11.5318 -14.7963 -14.4923
# 2 35.4409 53.1164 34.7067 -18.0531 -7.1864 -2.2381
# 3 61.9101 34.7067 103.8557 -7.0785 -12.2049 -12.1717
# 4 -11.5318 -18.0531 -7.0785 34.4989 4.7163 -5.9608
# 5 -14.7963 -7.1864 -12.2049 4.7163 31.0527 -4.6815
# 6 -14.4923 -2.2381 -12.1717 -5.9608 -4.6815 29.5116
#
#
#
# Elastic Compliance Matrix: (Units=1/GPa)
#
#
# Indices 1 2 3 4 5 6 
#
# 1 0.008655 -0.002658 -0.003544 0.000989 0.002444 0.003174
# 2 -0.002658 0.030115 -0.007372 0.013371 0.000892 0.000780
# 3 -0.003544 -0.007372 0.014956 -0.001732 0.003358 0.004052
# 4 0.000989 0.013371 -0.001732 0.037580 -0.001599 0.008122
# 5 0.002444 0.000892 0.003358 -0.001599 0.036358 0.008097
# 6 0.003174 0.000780 0.004052 0.008122 0.008097 0.040099
#
#
# Mechanical properties :
#
#
# Convention : Reuss Voigt Hill
#
# Bulk Modulus (GPa) = 37.62547 64.85328 51.23937
# Shear Modulus (GPa) = 24.53739 31.51308 28.02524
#
# Velocity S-wave (km/s) = 3.43197 3.88933 3.66779
# Velocity P-wave (km/s) = 5.81081 7.16240 6.52171
#
# Compressibility (1/GPa) = 0.02657774
#
# Stress axis : x y z
#
# Youngs Moduli (GPa) = 115.54196 33.20610 66.86116
#
# Poissons Ratio (x) = 0.08827 0.23698
# Poissons Ratio (y) = 0.30715 0.49287
# Poissons Ratio (z) = 0.40951 0.24478
#
# Static dielectric constant tensor:
#      x y z
#    x 3.554290 0.161860 -0.189590 
#    y 0.161860 3.635150 -0.046540 
#    z -0.189590 -0.046540 4.147870 
# 
# 
# High freq. dielectric constant tensor:
#      x y z
#    x 1.808020 0.005950 -0.004270 
#    y 0.005950 1.809310 -0.021760 
#    z -0.004270 -0.021760 1.811790 
# 
# From -- ./inp_files/458392.got.cif
#   From: 2010.06.25/outbox.cif.g09.slc.cpg/sg2_230_cif.got.tgz:458392.got - 2010.06.27 13:26:56.
