data_PCOD8026791
_publ_section_title
;
Structure prediction by ZEFSAII (Michael W. Deem and Ramdas Pophale) SiO2 
 PCOD8026791
Probable space group: P -1
;
_chemical_formula_sum "Si O2"
_cell_formula_units_Z 14
_cell_length_a 12.323358
_cell_length_b 8.595496
_cell_length_c 14.974422
_cell_angle_alpha 137.351190
_cell_angle_beta 135.379998
_cell_angle_gamma 56.278997
_cell_volume 753.157515
_symmetry_space_group_name_H-M "P -1"
_symmetry_group_IT_number 2
_symmetry_cell_setting 'triclinic'
loop_
_space_group_symop_operation_xyz
x,y,z
-x,-y,-z
loop_
_atom_site_type_symbol
_atom_site_label
_atom_site_fract_x
_atom_site_fract_y
_atom_site_fract_z
Si Si1 0.893108 0.858757 0.984622
Si Si2 0.694494 0.296707 0.030508
Si Si3 0.677359 0.718273 0.644763
Si Si4 0.639485 0.763436 0.127347
Si Si5 0.423178 0.748444 0.654851
Si Si6 0.258025 0.836836 0.192380
Si Si7 0.312579 0.368423 0.101184
O O1 0.074976 0.836686 0.070965
O O2 0.836401 0.129116 0.079443
O O3 0.821455 0.753046 0.808977
O O4 0.842628 0.710569 0.976710
O O5 0.726722 0.568782 0.160624
O O6 0.545504 0.256332 0.986257
O O7 0.655750 0.230689 0.878233
O O8 0.516489 0.758403 0.621147
O O9 0.688773 0.462302 0.501972
O O10 0.688118 0.904756 0.648343
O O11 0.681658 0.014129 0.293108
O O12 0.691690 0.732401 0.042942
O O13 0.537913 0.725099 0.796428
O O14 0.310591 0.648846 0.218553
#
# Coordination Sequence:
#
# PCOD8026791 Si02
#       7
#     2   2   2   2   2   2   2
#     4  10  18  33  51  73  95 126 165 198 231 276
#     4   9  17  28  49  73  91 122 163 195 240 270
#     4   9  18  31  49  71  96 129 159 192 242 282
#     4  10  17  30  48  73 100 120 157 202 240 285
#     4  10  18  31  48  72 105 122 151 200 244 291
#     4  10  18  32  51  72  97 125 165 200 226 280
#     4  10  20  29  49  77  97 126 155 196 248 278
#
# _framework density 18.58841
#
# number of rings (size 3 to 8) (size 9 to 14) (size 15 to 20)
#    0.000    2.286    4.286    2.571    0.000    0.571 
#    0.000    0.000    0.000    8.571    0.000    0.000 
#    0.000    0.000    0.000    0.000    0.000    0.000 
#
# Total GULP energy -173486.939583 kJ/mol
# GULP energy per Si atom -12391.924256 kJ/mol
# Density = 1.854610 g / cm^3
# Si number density = 18.588410 Si / 1000 Ang^3
#
#
#
# Elastic Constant Matrix: (Units=GPa)
#
#
# Indices 1 2 3 4 5 6 
#
# 1 65.3334 22.6375 23.4513 13.2116 3.9400 17.2580
# 2 22.6375 105.0343 41.7389 43.5478 4.7237 17.6590
# 3 23.4513 41.7389 79.1188 43.4762 6.3026 4.6092
# 4 13.2116 43.5478 43.4762 38.9419 3.2612 7.7140
# 5 3.9400 4.7237 6.3026 3.2612 18.2951 3.4675
# 6 17.2580 17.6590 4.6092 7.7140 3.4675 28.2072
#
#
#
# Elastic Compliance Matrix: (Units=1/GPa)
#
#
# Indices 1 2 3 4 5 6 
#
# 1 0.020664 -0.001942 -0.007858 0.006290 -0.000118 -0.011849
# 2 -0.001942 0.019328 0.004344 -0.024802 -0.000748 -0.004747
# 3 -0.007858 0.004344 0.037631 -0.045509 -0.006010 0.009123
# 4 0.006290 -0.024802 -0.045509 0.103675 0.004092 -0.009741
# 5 -0.000118 -0.000748 -0.006010 0.004092 0.057482 -0.006663
# 6 -0.011849 -0.004747 0.009123 -0.009741 -0.006663 0.047666
#
#
# Mechanical properties :
#
#
# Convention : Reuss Voigt Hill
#
# Bulk Modulus (GPa) = 14.98961 47.23800 31.11380
# Shear Modulus (GPa) = 15.64486 27.86610 21.75548
#
# Velocity S-wave (km/s) = 2.90426 3.87604 3.42479
# Velocity P-wave (km/s) = 4.39634 6.74532 5.69329
#
# Compressibility (1/GPa) = 0.06671288
#
# Stress axis : x y z
#
# Youngs Moduli (GPa) = 48.39224 51.73949 26.57374
#
# Poissons Ratio (x) = 0.10046 0.20881
# Poissons Ratio (y) = 0.09397 -0.11544
# Poissons Ratio (z) = 0.38025 -0.22476
#
# Static dielectric constant tensor:
#      x y z
#    x 3.396210 0.274540 0.065040 
#    y 0.274540 3.854280 0.573530 
#    z 0.065040 0.573530 3.183440 
# 
# 
# High freq. dielectric constant tensor:
#      x y z
#    x 1.717170 0.018280 0.003890 
#    y 0.018280 1.733050 0.039340 
#    z 0.003890 0.039340 1.670500 
# 
# From -- ./inp_files/162963.got.cif
#   From: 2010.06.25/outbox.cif.g09.slc.cpg/sg2_82_cif.got.tgz:162963.got - 2010.06.27 13:26:56.
