data_PCOD8026984
_publ_section_title
;
Structure prediction by ZEFSAII (Michael W. Deem and Ramdas Pophale) SiO2 
 PCOD8026984
Probable space group: P -1
;
_chemical_formula_sum "Si O2"
_cell_formula_units_Z 14
_cell_length_a 8.656138
_cell_length_b 9.243919
_cell_length_c 9.656528
_cell_angle_alpha 51.077047
_cell_angle_beta 102.798703
_cell_angle_gamma 99.705903
_cell_volume 585.764355
_symmetry_space_group_name_H-M "P -1"
_symmetry_group_IT_number 2
_symmetry_cell_setting 'triclinic'
loop_
_space_group_symop_operation_xyz
x,y,z
-x,-y,-z
loop_
_atom_site_type_symbol
_atom_site_label
_atom_site_fract_x
_atom_site_fract_y
_atom_site_fract_z
Si Si1 0.808120 0.010602 0.227170
Si Si2 0.169876 0.553528 0.061612
Si Si3 0.634472 0.709239 0.923346
Si Si4 0.164595 0.910134 0.316020
Si Si5 0.634644 0.115569 0.380620
Si Si6 0.380392 0.308485 0.748202
Si Si7 0.728255 0.399843 0.656965
O O1 0.735468 0.980320 0.384661
O O2 0.695525 0.898365 0.164418
O O3 0.799489 0.226381 0.061694
O O4 0.984633 0.942077 0.298677
O O5 0.298708 0.456312 0.053276
O O6 0.184066 0.493575 0.261497
O O7 0.000000 0.500000 0.000000
O O8 0.454063 0.731114 0.819661
O O9 0.744578 0.894756 0.816119
O O10 0.623568 0.645382 0.118433
O O11 0.245857 0.804289 0.525446
O O12 0.170910 0.774949 0.266345
O O13 0.500000 0.000000 0.500000
O O14 0.556801 0.318728 0.717445
O O15 0.276649 0.454025 0.556872
#
# Coordination Sequence:
#
# PCOD8026984 Si02
#       7
#     2   2   2   2   2   2   2
#     4  12  26  46  77 106 153 192 247 297 376 431
#     4  12  28  48  77 112 149 191 246 308 369 438
#     4  11  25  48  77 106 150 195 247 302 368 437
#     4  11  25  46  75 108 150 194 243 306 368 436
#     4  10  24  43  74 109 144 192 247 300 360 435
#     4  11  27  49  75 110 148 195 249 303 366 440
#     4  11  28  48  75 108 150 194 247 305 366 438
#
# _framework density 23.900393999999999
#
# number of rings (size 3 to 8) (size 9 to 14) (size 15 to 20)
#    0.000    0.857    1.429    3.857   12.000    5.714 
#    0.000    0.000    0.000    0.000    0.000    0.000 
#    0.000    0.000    0.000    0.000    0.000    0.000 
#
# Total GULP energy -173617.154470 kJ/mol
# GULP energy per Si atom -12401.225319 kJ/mol
# Density = 2.384600 g / cm^3
# Si number density = 23.900394 Si / 1000 Ang^3
#
#
#
# Elastic Constant Matrix: (Units=GPa)
#
#
# Indices 1 2 3 4 5 6 
#
# 1 122.8917 57.9314 60.4291 2.0996 8.2931 -27.3868
# 2 57.9314 164.4861 70.5287 9.4451 1.9571 -18.5730
# 3 60.4291 70.5287 164.5064 25.5138 5.9500 -7.3191
# 4 2.0996 9.4451 25.5138 40.5381 -0.3613 -6.1866
# 5 8.2931 1.9571 5.9500 -0.3613 34.0909 5.6346
# 6 -27.3868 -18.5730 -7.3191 -6.1866 5.6346 52.2595
#
#
#
# Elastic Compliance Matrix: (Units=1/GPa)
#
#
# Indices 1 2 3 4 5 6 
#
# 1 0.012538 -0.002286 -0.003726 0.003108 -0.003219 0.005951
# 2 -0.002286 0.008146 -0.002618 0.000070 0.000331 0.001303
# 3 -0.003726 -0.002618 0.009319 -0.005399 -0.000265 -0.002188
# 4 0.003108 0.000070 -0.005399 0.028543 -0.000226 0.004301
# 5 -0.003219 0.000331 -0.000265 -0.000226 0.030963 -0.004972
# 6 0.005951 0.001303 -0.002188 0.004301 -0.004972 0.023456
#
#
# Mechanical properties :
#
#
# Convention : Reuss Voigt Hill
#
# Bulk Modulus (GPa) = 78.47212 92.18475 85.32844
# Shear Modulus (GPa) = 37.18231 42.91070 40.04650
#
# Velocity S-wave (km/s) = 3.94854 4.24181 4.09780
# Velocity P-wave (km/s) = 7.32750 7.91484 7.62683
#
# Compressibility (1/GPa) = 0.01274338
#
# Stress axis : x y z
#
# Youngs Moduli (GPa) = 79.76067 122.75530 107.30400
#
# Poissons Ratio (x) = 0.28064 0.39983
# Poissons Ratio (y) = 0.18235 0.28087
# Poissons Ratio (z) = 0.29720 0.32132
#
# Static dielectric constant tensor:
#      x y z
#    x 4.488970 -0.036590 0.211420 
#    y -0.036590 4.588490 0.328180 
#    z 0.211420 0.328180 4.953210 
# 
# 
# High freq. dielectric constant tensor:
#      x y z
#    x 1.957200 -0.006010 -0.000860 
#    y -0.006010 1.957440 0.009310 
#    z -0.000860 0.009310 1.956970 
# 
# From -- ./inp_files/156927.got.cif
#   From: 2010.06.25/outbox.cif.g09.slc.cpg/sg2_79_cif.got.tgz:156927.got - 2010.06.27 13:26:56.
