data_PCOD8026174
_publ_section_title
;
Structure prediction by ZEFSAII (Michael W. Deem and Ramdas Pophale) SiO2 
 PCOD8026174
Probable space group: P -1
;
_chemical_formula_sum "Si O2"
_cell_formula_units_Z 14
_cell_length_a 11.876947
_cell_length_b 7.836930
_cell_length_c 7.721863
_cell_angle_alpha 125.624948
_cell_angle_beta 89.928285
_cell_angle_gamma 111.153822
_cell_volume 523.753129
_symmetry_space_group_name_H-M "P -1"
_symmetry_group_IT_number 2
_symmetry_cell_setting 'triclinic'
loop_
_space_group_symop_operation_xyz
x,y,z
-x,-y,-z
loop_
_atom_site_type_symbol
_atom_site_label
_atom_site_fract_x
_atom_site_fract_y
_atom_site_fract_z
Si Si1 0.859569 0.700176 0.568698
Si Si2 0.759852 0.865374 0.340649
Si Si3 0.059122 0.642028 0.319552
Si Si4 0.466067 0.693427 0.260354
Si Si5 0.629863 0.236077 0.359298
Si Si6 0.534779 0.758738 0.944612
Si Si7 0.040690 0.195822 0.916900
O O1 0.795017 0.778734 0.465056
O O2 0.957132 0.613119 0.445218
O O3 0.754777 0.473526 0.528826
O O4 0.936378 0.935042 0.826008
O O5 0.611372 0.748095 0.260140
O O6 0.830531 0.804542 0.147172
O O7 0.805593 0.147068 0.506866
O O8 0.019921 0.715359 0.182993
O O9 0.072607 0.398221 0.181597
O O10 0.435328 0.842433 0.495052
O O11 0.403225 0.421679 0.161639
O O12 0.428277 0.716795 0.074491
O O13 0.528463 0.268436 0.256966
O O14 0.647329 0.020571 0.141857
#
# Coordination Sequence:
#
# PCOD8026174 Si02
#       7
#     2   2   2   2   2   2   2
#     4   9  17  30  52  83 117 147 193 244 287 348
#     4   9  17  30  52  83 116 150 191 241 291 349
#     4   8  15  29  49  82 112 147 195 239 288 348
#     4  11  22  40  61  87 125 159 194 248 300 349
#     4  11  22  40  61  89 123 157 198 248 297 349
#     4  10  24  40  58  88 120 161 208 236 290 367
#     4   8  15  29  49  80 114 147 194 240 288 348
#
# _framework density 26.730149000000001
#
# number of rings (size 3 to 8) (size 9 to 14) (size 15 to 20)
#    0.000    2.571    1.429    2.571    0.000    2.286 
#   10.286    0.000    0.000    3.429    0.000   26.000 
#    0.000    0.000    0.000    0.000    0.000    0.571 
#
# Total GULP energy -173463.060632 kJ/mol
# GULP energy per Si atom -12390.218617 kJ/mol
# Density = 2.666931 g / cm^3
# Si number density = 26.730149 Si / 1000 Ang^3
#
#
#
# Elastic Constant Matrix: (Units=GPa)
#
#
# Indices 1 2 3 4 5 6 
#
# 1 65.0523 31.7551 36.5652 25.2374 -2.6536 19.1615
# 2 31.7551 124.7164 36.4272 29.9340 2.0926 12.7331
# 3 36.5652 36.4272 143.5460 23.6714 -5.2016 17.0737
# 4 25.2374 29.9340 23.6714 47.5603 -6.6219 -2.6873
# 5 -2.6536 2.0926 -5.2016 -6.6219 34.8480 4.4044
# 6 19.1615 12.7331 17.0737 -2.6873 4.4044 38.3251
#
#
#
# Elastic Compliance Matrix: (Units=1/GPa)
#
#
# Indices 1 2 3 4 5 6 
#
# 1 0.025986 -0.001741 -0.002740 -0.011883 0.000950 -0.012135
# 2 -0.001741 0.010332 -0.001078 -0.005401 -0.001653 -0.002271
# 3 -0.002740 -0.001078 0.008612 -0.002144 0.001035 -0.002378
# 4 -0.011883 -0.005401 -0.002144 0.032955 0.004030 0.010539
# 5 0.000950 -0.001653 0.001035 0.004030 0.030240 -0.003579
# 6 -0.012135 -0.002271 -0.002378 0.010539 -0.003579 0.035124
#
#
# Mechanical properties :
#
#
# Convention : Reuss Voigt Hill
#
# Bulk Modulus (GPa) = 29.57498 60.31217 44.94358
# Shear Modulus (GPa) = 30.18656 39.38450 34.78553
#
# Velocity S-wave (km/s) = 3.36416 3.84267 3.61135
# Velocity P-wave (km/s) = 5.11649 6.50388 5.85145
#
# Compressibility (1/GPa) = 0.03381236
#
# Stress axis : x y z
#
# Youngs Moduli (GPa) = 38.48282 96.78457 116.12058
#
# Poissons Ratio (x) = 0.16850 0.31818
# Poissons Ratio (y) = 0.06700 0.12513
# Poissons Ratio (z) = 0.10545 0.10429
#
# Static dielectric constant tensor:
#      x y z
#    x 4.668900 -0.414170 0.545350 
#    y -0.414170 5.279200 0.377180 
#    z 0.545350 0.377180 6.079500 
# 
# 
# High freq. dielectric constant tensor:
#      x y z
#    x 2.051920 -0.031240 0.015790 
#    y -0.031240 2.096610 0.018340 
#    z 0.015790 0.018340 2.092400 
# 
# From -- ./inp_files/293957.got.cif
#   From: 2010.06.25/outbox.cif.g09.slc.cpg/sg2_147_cif.got.tgz:293957.got - 2010.06.27 13:26:56.
