data_PCOD8026338
_publ_section_title
;
Structure prediction by ZEFSAII (Michael W. Deem and Ramdas Pophale) SiO2 
 PCOD8026338
Probable space group: P -1
;
_chemical_formula_sum "Si O2"
_cell_formula_units_Z 10
_cell_length_a 11.281832
_cell_length_b 6.377460
_cell_length_c 7.920552
_cell_angle_alpha 59.257419
_cell_angle_beta 109.916997
_cell_angle_gamma 84.566168
_cell_volume 434.267833
_symmetry_space_group_name_H-M "P -1"
_symmetry_group_IT_number 2
_symmetry_cell_setting 'triclinic'
loop_
_space_group_symop_operation_xyz
x,y,z
-x,-y,-z
loop_
_atom_site_type_symbol
_atom_site_label
_atom_site_fract_x
_atom_site_fract_y
_atom_site_fract_z
Si Si1 0.904348 0.384198 0.902673
Si Si2 0.581293 0.315346 0.470528
Si Si3 0.335797 0.266772 0.197744
Si Si4 0.206727 0.502966 0.692053
Si Si5 0.040263 0.161574 0.711426
O O1 0.756024 0.598593 0.741367
O O2 0.955059 0.308184 0.771450
O O3 0.000000 0.500000 0.000000
O O4 0.897001 0.140297 0.106493
O O5 0.500000 0.500000 0.500000
O O6 0.483700 0.279964 0.289907
O O7 0.683176 0.445856 0.393718
O O8 0.660538 0.029317 0.700497
O O9 0.267224 0.432550 0.934942
O O10 0.162933 0.267266 0.692441
O O11 0.071062 0.757741 0.526303
#
# Coordination Sequence:
#
# PCOD8026338 Si02
#       5
#     2   2   2   2   2
#     4  11  21  43  69  96 138 173 212 269 330 390
#     4  11  26  48  67  92 134 177 222 276 323 383
#     4  11  25  44  69  98 127 179 222 267 328 388
#     4  11  23  45  66 101 132 170 222 269 326 393
#     4  10  24  41  67 103 135 171 212 268 334 391
#
# _framework density 23.027263999999999
#
# number of rings (size 3 to 8) (size 9 to 14) (size 15 to 20)
#    0.000    1.200    2.000    3.000    5.600    1.600 
#   14.400    0.000    0.000    0.000    0.000    0.000 
#    0.000    0.000    0.000    0.000    0.000    0.000 
#
# Total GULP energy -123987.627294 kJ/mol
# GULP energy per Si atom -12398.762729 kJ/mol
# Density = 2.297485 g / cm^3
# Si number density = 23.027264 Si / 1000 Ang^3
#
#
#
# Elastic Constant Matrix: (Units=GPa)
#
#
# Indices 1 2 3 4 5 6 
#
# 1 158.8689 61.0018 42.5598 -16.5261 -4.2644 30.2965
# 2 61.0018 102.0613 50.9874 -36.5567 -4.1199 1.1535
# 3 42.5598 50.9874 123.2421 -5.5159 -1.0589 7.9911
# 4 -16.5261 -36.5567 -5.5159 44.7931 5.7614 4.6845
# 5 -4.2644 -4.1199 -1.0589 5.7614 32.6439 -5.2884
# 6 30.2965 1.1535 7.9911 4.6845 -5.2884 43.4220
#
#
#
# Elastic Compliance Matrix: (Units=1/GPa)
#
#
# Indices 1 2 3 4 5 6 
#
# 1 0.009843 -0.005579 -0.000676 -0.000252 -0.000469 -0.006625
# 2 -0.005579 0.021513 -0.006520 0.014428 -0.000297 0.002929
# 3 -0.000676 -0.006520 0.010920 -0.004134 0.000024 -0.000916
# 4 -0.000252 0.014428 -0.004134 0.034544 -0.005057 -0.003789
# 5 -0.000469 -0.000297 0.000024 -0.005057 0.032206 0.004799
# 6 -0.006625 0.002929 -0.000916 -0.003789 0.004799 0.028736
#
#
# Mechanical properties :
#
#
# Convention : Reuss Voigt Hill
#
# Bulk Modulus (GPa) = 59.79742 77.03005 68.41374
# Shear Modulus (GPa) = 29.60559 39.48000 34.54279
#
# Velocity S-wave (km/s) = 3.58952 4.14513 3.87729
# Velocity P-wave (km/s) = 6.57298 7.51224 7.05825
#
# Compressibility (1/GPa) = 0.01672313
#
# Stress axis : x y z
#
# Youngs Moduli (GPa) = 101.59984 46.48405 91.57675
#
# Poissons Ratio (x) = 0.25935 0.06195
# Poissons Ratio (y) = 0.56686 0.59710
# Poissons Ratio (z) = 0.06873 0.30308
#
# Static dielectric constant tensor:
#      x y z
#    x 4.591240 -0.019200 0.105760 
#    y -0.019200 4.314240 -0.080710 
#    z 0.105760 -0.080710 4.572140 
# 
# 
# High freq. dielectric constant tensor:
#      x y z
#    x 1.913520 0.018610 0.005740 
#    y 0.018610 1.906260 -0.004950 
#    z 0.005740 -0.004950 1.925290 
# 
# From -- ./inp_files/19958.got.cif
#   From: 2010.06.25/outbox.cif.g09.slc.cpg/sg2_10_cif.got.tgz:19958.got - 2010.06.27 13:26:56.
