data_PCOD8026050
_publ_section_title
;
Structure prediction by ZEFSAII (Michael W. Deem and Ramdas Pophale) SiO2 
 PCOD8026050
Probable space group: P -1
;
_chemical_formula_sum "Si O2"
_cell_formula_units_Z 12
_cell_length_a 14.799110
_cell_length_b 8.785185
_cell_length_c 5.382721
_cell_angle_alpha 121.438544
_cell_angle_beta 122.306640
_cell_angle_gamma 63.973019
_cell_volume 492.075771
_symmetry_space_group_name_H-M "P -1"
_symmetry_group_IT_number 2
_symmetry_cell_setting 'triclinic'
loop_
_space_group_symop_operation_xyz
x,y,z
-x,-y,-z
loop_
_atom_site_type_symbol
_atom_site_label
_atom_site_fract_x
_atom_site_fract_y
_atom_site_fract_z
Si Si1 0.974853 0.715644 0.170297
Si Si2 0.359986 0.847943 0.157816
Si Si3 0.431558 0.130806 0.809056
Si Si4 0.377213 0.514928 0.241335
Si Si5 0.902144 0.903443 0.734753
Si Si6 0.208363 0.796819 0.483321
O O1 0.087959 0.785516 0.385466
O O2 0.919439 0.773484 0.404728
O O3 0.000000 0.500000 0.000000
O O4 0.893753 0.794192 0.885749
O O5 0.483669 0.808668 0.201621
O O6 0.351324 0.656029 0.098926
O O7 0.347443 0.024945 0.468337
O O8 0.263894 0.901954 0.861248
O O9 0.357884 0.315689 0.975505
O O10 0.500000 0.000000 0.000000
O O11 0.500000 0.500000 0.500000
O O12 0.287328 0.597055 0.389195
O O13 0.799264 0.074882 0.668250
O O14 0.000000 0.000000 0.000000
#
# Coordination Sequence:
#
# PCOD8026050 Si02
#       6
#     2   2   2   2   2   2
#     4  11  25  50  75 109 145 184 240 313 365 433
#     4  11  24  42  69  97 142 187 243 286 361 419
#     4  11  23  45  67  96 142 190 238 296 352 417
#     4  12  24  44  67 102 145 187 239 296 352 432
#     4  10  23  47  76  99 144 188 236 300 373 430
#     4  11  25  43  71 102 135 195 237 287 370 431
#
# _framework density 24.386488
#
# number of rings (size 3 to 8) (size 9 to 14) (size 15 to 20)
#    0.000    1.000    3.333    3.000    7.000    0.000 
#    9.000    0.000    0.000    0.000    0.000    0.000 
#    0.000    0.000    0.000    0.000    0.000    0.000 
#
# Total GULP energy -148755.908771 kJ/mol
# GULP energy per Si atom -12396.325731 kJ/mol
# Density = 2.433098 g / cm^3
# Si number density = 24.386488 Si / 1000 Ang^3
#
#
#
# Elastic Constant Matrix: (Units=GPa)
#
#
# Indices 1 2 3 4 5 6 
#
# 1 55.6830 17.5272 17.5810 3.3029 -4.9380 -9.9226
# 2 17.5272 174.5990 92.8713 14.8035 -9.3263 -9.7248
# 3 17.5810 92.8713 189.6176 3.6993 -10.8323 -2.8195
# 4 3.3029 14.8035 3.6993 55.3293 -6.5637 -6.6658
# 5 -4.9380 -9.3263 -10.8323 -6.5637 39.3735 1.8749
# 6 -9.9226 -9.7248 -2.8195 -6.6658 1.8749 44.5319
#
#
#
# Elastic Compliance Matrix: (Units=1/GPa)
#
#
# Indices 1 2 3 4 5 6 
#
# 1 0.019507 -0.001025 -0.001149 -0.000138 0.001676 0.003959
# 2 -0.001025 0.008063 -0.003783 -0.001671 0.000413 0.001025
# 3 -0.001149 -0.003783 0.007274 0.000656 0.001098 -0.000570
# 4 -0.000138 -0.001671 0.000656 0.019109 0.002839 0.002387
# 5 0.001676 0.000413 0.001098 0.002839 0.026489 -0.000157
# 6 0.003959 0.001025 -0.000570 0.002387 -0.000157 0.023890
#
#
# Mechanical properties :
#
#
# Convention : Reuss Voigt Hill
#
# Bulk Modulus (GPa) = 43.61101 75.09539 59.35320
# Shear Modulus (GPa) = 40.35853 47.30829 43.83341
#
# Velocity S-wave (km/s) = 4.07253 4.40925 4.24423
# Velocity P-wave (km/s) = 6.32741 7.53543 6.95768
#
# Compressibility (1/GPa) = 0.02292999
#
# Stress axis : x y z
#
# Youngs Moduli (GPa) = 51.26482 124.01961 137.46699
#
# Poissons Ratio (x) = 0.12715 0.15798
# Poissons Ratio (y) = 0.05256 0.52000
# Poissons Ratio (z) = 0.05891 0.46913
#
# Static dielectric constant tensor:
#      x y z
#    x 4.896580 -0.300480 -0.203760 
#    y -0.300480 5.424850 -0.087760 
#    z -0.203760 -0.087760 4.847470 
# 
# 
# High freq. dielectric constant tensor:
#      x y z
#    x 1.965650 -0.007780 -0.007620 
#    y -0.007780 1.980250 -0.002590 
#    z -0.007620 -0.002590 1.979810 
# 
# From -- ./inp_files/40452.got.cif
#   From: 2010.06.25/outbox.cif.g09.slc.cpg/sg2_21_cif.got.tgz:40452.got - 2010.06.27 13:26:56.
