data_PCOD8026257
_publ_section_title
;
Structure prediction by ZEFSAII (Michael W. Deem and Ramdas Pophale) SiO2 
 PCOD8026257
Probable space group: P -1
;
_chemical_formula_sum "Si O2"
_cell_formula_units_Z 14
_cell_length_a 8.818420
_cell_length_b 21.626709
_cell_length_c 7.929070
_cell_angle_alpha 130.612999
_cell_angle_beta 33.360655
_cell_angle_gamma 130.323824
_cell_volume 611.577080
_symmetry_space_group_name_H-M "P -1"
_symmetry_group_IT_number 2
_symmetry_cell_setting 'triclinic'
loop_
_space_group_symop_operation_xyz
x,y,z
-x,-y,-z
loop_
_atom_site_type_symbol
_atom_site_label
_atom_site_fract_x
_atom_site_fract_y
_atom_site_fract_z
Si Si1 0.569793 0.511981 0.760279
Si Si2 0.397190 0.900985 0.410476
Si Si3 0.958161 0.771460 0.129766
Si Si4 0.797854 0.826565 0.705694
Si Si5 0.207354 0.352193 0.661920
Si Si6 0.127699 0.610657 0.265428
Si Si7 0.419411 0.780806 0.461954
O O1 0.484512 0.423317 0.584065
O O2 0.904327 0.551432 0.494478
O O3 0.500000 0.500000 0.000000
O O4 0.405568 0.574758 0.935414
O O5 0.502459 0.862528 0.411895
O O6 0.056790 0.872748 0.667121
O O7 0.500000 0.000000 0.500000
O O8 0.531458 0.865646 0.059579
O O9 0.899536 0.840865 0.441068
O O10 0.959560 0.685584 0.077871
O O11 0.705588 0.753869 0.196165
O O12 0.262301 0.803425 0.815058
O O13 0.700795 0.725600 0.656010
O O14 0.001888 0.390906 0.804180
O O15 0.206074 0.705120 0.429423
#
# Coordination Sequence:
#
# PCOD8026257 Si02
#       7
#     2   2   2   2   2   2   2
#     4  12  26  43  61 102 134 179 226 288 321 381
#     4  12  25  46  73 102 134 172 226 279 334 412
#     4  10  24  40  71  94 136 177 220 270 335 400
#     4  10  24  45  70  96 136 178 218 268 347 396
#     4  10  24  44  68  94 140 177 233 267 336 397
#     4  12  25  39  68  91 137 175 233 269 337 388
#     4  12  22  43  65 102 128 180 220 279 339 397
#
# _framework density 22.891635999999998
#
# number of rings (size 3 to 8) (size 9 to 14) (size 15 to 20)
#    0.857    0.000    1.429    6.000    2.000    3.429 
#    0.000    4.286    0.000    0.000    0.000    0.000 
#    0.000    0.000    0.000    0.000    0.000    0.000 
#
# Total GULP energy -173634.365445 kJ/mol
# GULP energy per Si atom -12402.454675 kJ/mol
# Density = 2.283953 g / cm^3
# Si number density = 22.891636 Si / 1000 Ang^3
#
#
#
# Elastic Constant Matrix: (Units=GPa)
#
#
# Indices 1 2 3 4 5 6 
#
# 1 90.9690 32.6475 -6.6963 2.4463 -4.4027 -8.3103
# 2 32.6475 137.3019 24.0082 17.3498 6.9728 -3.0205
# 3 -6.6963 24.0082 82.4554 1.6955 2.8130 0.6542
# 4 2.4463 17.3498 1.6955 26.3699 2.2813 6.5449
# 5 -4.4027 6.9728 2.8130 2.2813 31.6917 -3.5695
# 6 -8.3103 -3.0205 0.6542 6.5449 -3.5695 23.5174
#
#
#
# Elastic Compliance Matrix: (Units=1/GPa)
#
#
# Indices 1 2 3 4 5 6 
#
# 1 0.012933 -0.003392 0.001911 -0.000503 0.002935 0.004667
# 2 -0.003392 0.009461 -0.002862 -0.005950 -0.001702 0.001494
# 3 0.001911 -0.002862 0.013112 0.000993 -0.000384 -0.000392
# 4 -0.000503 -0.005950 0.000993 0.045680 -0.003742 -0.014250
# 5 0.002935 -0.001702 -0.000384 -0.003742 0.033422 0.006944
# 6 0.004667 0.001494 -0.000392 -0.014250 0.006944 0.049393
#
#
# Mechanical properties :
#
#
# Convention : Reuss Voigt Hill
#
# Bulk Modulus (GPa) = 37.28480 45.62725 41.45602
# Shear Modulus (GPa) = 27.52896 33.70027 30.61461
#
# Velocity S-wave (km/s) = 3.47158 3.84104 3.66098
# Velocity P-wave (km/s) = 5.69140 6.29655 6.00161
#
# Compressibility (1/GPa) = 0.02682058
#
# Stress axis : x y z
#
# Youngs Moduli (GPa) = 77.32328 105.69347 76.26597
#
# Poissons Ratio (x) = 0.35853 -0.14575
# Poissons Ratio (y) = 0.26229 0.21825
# Poissons Ratio (z) = -0.14778 0.30247
#
# Static dielectric constant tensor:
#      x y z
#    x 4.146840 -0.008950 0.030500 
#    y -0.008950 3.870330 -0.040110 
#    z 0.030500 -0.040110 3.894670 
# 
# 
# High freq. dielectric constant tensor:
#      x y z
#    x 1.912890 0.001750 0.000410 
#    y 0.001750 1.883090 -0.007340 
#    z 0.000410 -0.007340 1.900140 
# 
# From -- ./inp_files/223975.got.cif
#   From: 2010.06.25/outbox.cif.g09.slc.cpg/sg2_112_cif.got.tgz:223975.got - 2010.06.27 13:26:56.
