data_PCOD8026201
_publ_section_title
;
Structure prediction by ZEFSAII (Michael W. Deem and Ramdas Pophale) SiO2 
 PCOD8026201
Probable space group: P -1
;
_chemical_formula_sum "Si O2"
_cell_formula_units_Z 16
_cell_length_a 12.002240
_cell_length_b 20.613367
_cell_length_c 18.019297
_cell_angle_alpha 159.902404
_cell_angle_beta 151.956051
_cell_angle_gamma 38.261409
_cell_volume 693.427379
_symmetry_space_group_name_H-M "P -1"
_symmetry_group_IT_number 2
_symmetry_cell_setting 'triclinic'
loop_
_space_group_symop_operation_xyz
x,y,z
-x,-y,-z
loop_
_atom_site_type_symbol
_atom_site_label
_atom_site_fract_x
_atom_site_fract_y
_atom_site_fract_z
Si Si1 0.881330 0.274415 0.209200
Si Si2 0.937767 0.744764 0.442433
Si Si3 0.415831 0.623394 0.644227
Si Si4 0.288479 0.978034 0.791047
Si Si5 0.361932 0.642347 0.227881
Si Si6 0.945462 0.206487 0.678356
Si Si7 0.803042 0.889533 0.668898
Si Si8 0.518530 0.573624 0.808103
O O1 0.598188 0.255363 0.046246
O O2 0.000000 0.500000 0.500000
O O3 0.013975 0.213358 0.292576
O O4 0.881802 0.124565 0.980813
O O5 0.811328 0.843981 0.537945
O O6 0.163828 0.671887 0.528469
O O7 0.739605 0.559980 0.093377
O O8 0.031880 0.913496 0.616475
O O9 0.500000 0.500000 0.500000
O O10 0.389390 0.506246 0.580452
O O11 0.650456 0.815609 0.994873
O O12 0.260504 0.817745 0.535487
O O13 0.500000 0.000000 0.000000
O O14 0.145468 0.722298 0.221662
O O15 0.524844 0.802984 0.441291
O O16 0.539214 0.605892 0.359886
O O17 0.000000 0.000000 0.500000
O O18 0.187250 0.363043 0.958664
#
# Coordination Sequence:
#
# PCOD8026201 Si02
#       8
#     2   2   2   2   2   2   2   2
#     4  11  24  47  72 104 135 185 240 294 348 423
#     4  11  24  46  65 100 143 185 235 291 355 418
#     4  11  24  41  66 101 140 183 231 289 355 418
#     4  10  24  40  64  96 138 175 231 280 352 410
#     4  12  26  43  72 101 143 187 236 291 358 419
#     4  12  24  43  68 101 139 182 234 291 354 424
#     4  11  25  46  74 100 141 189 237 289 353 421
#     4  12  23  42  71 102 138 180 236 290 350 422
#
# _framework density 23.073792999999998
#
# number of rings (size 3 to 8) (size 9 to 14) (size 15 to 20)
#    0.000    0.750    5.000    2.250    3.500    2.000 
#    0.000    0.625    0.000    0.000    0.000    0.000 
#    0.000    0.000    0.000    0.000    0.000    0.000 
#
# Total GULP energy -198315.275243 kJ/mol
# GULP energy per Si atom -12394.704703 kJ/mol
# Density = 2.302128 g / cm^3
# Si number density = 23.073793 Si / 1000 Ang^3
#
#
#
# Elastic Constant Matrix: (Units=GPa)
#
#
# Indices 1 2 3 4 5 6 
#
# 1 157.2408 24.2973 54.0601 7.8256 -17.5676 -12.3216
# 2 24.2973 61.8490 11.6892 2.5167 -5.0076 -7.4923
# 3 54.0601 11.6892 111.6568 6.0582 -4.8365 -1.6833
# 4 7.8256 2.5167 6.0582 32.0969 0.0149 -0.7776
# 5 -17.5676 -5.0076 -4.8365 0.0149 44.7673 0.5573
# 6 -12.3216 -7.4923 -1.6833 -0.7776 0.5573 42.6655
#
#
#
# Elastic Compliance Matrix: (Units=1/GPa)
#
#
# Indices 1 2 3 4 5 6 
#
# 1 0.008450 -0.002139 -0.003661 -0.001157 0.002658 0.001864
# 2 -0.002139 0.017540 -0.000684 -0.000667 0.001019 0.002410
# 3 -0.003661 -0.000684 0.010835 -0.001117 -0.000333 -0.000766
# 4 -0.001157 -0.000667 -0.001117 0.031703 -0.000661 0.000091
# 5 0.002658 0.001019 -0.000333 -0.000661 0.023451 0.000615
# 6 0.001864 0.002410 -0.000766 0.000091 0.000615 0.024363
#
#
# Mechanical properties :
#
#
# Convention : Reuss Voigt Hill
#
# Bulk Modulus (GPa) = 41.91855 56.75998 49.33927
# Shear Modulus (GPa) = 36.42666 39.95261 38.18964
#
# Velocity S-wave (km/s) = 3.97760 4.16566 4.07272
# Velocity P-wave (km/s) = 6.26910 6.91301 6.59892
#
# Compressibility (1/GPa) = 0.02385578
#
# Stress axis : x y z
#
# Youngs Moduli (GPa) = 118.34911 57.01382 92.29546
#
# Poissons Ratio (x) = 0.12197 0.33789
# Poissons Ratio (y) = 0.25319 0.06311
# Poissons Ratio (z) = 0.43327 0.03898
#
# Static dielectric constant tensor:
#      x y z
#    x 4.790390 -0.244630 -0.303770 
#    y -0.244630 4.465030 0.228140 
#    z -0.303770 0.228140 4.418250 
# 
# 
# High freq. dielectric constant tensor:
#      x y z
#    x 1.924610 0.004700 -0.002230 
#    y 0.004700 1.902410 -0.004450 
#    z -0.002230 -0.004450 1.912790 
# 
# From -- ./inp_files/570832.got.cif
#   From: 2010.06.25/outbox.cif.g09.slc.cpg/sg2_286_cif.got.tgz:570832.got - 2010.06.27 13:26:56.
