data_PCOD8026165
_publ_section_title
;
Structure prediction by ZEFSAII (Michael W. Deem and Ramdas Pophale) SiO2 
 PCOD8026165
Probable space group: P -1
;
_chemical_formula_sum "Si O2"
_cell_formula_units_Z 16
_cell_length_a 8.795672
_cell_length_b 11.885471
_cell_length_c 11.045841
_cell_angle_alpha 120.258181
_cell_angle_beta 92.173379
_cell_angle_gamma 52.275919
_cell_volume 724.512579
_symmetry_space_group_name_H-M "P -1"
_symmetry_group_IT_number 2
_symmetry_cell_setting 'triclinic'
loop_
_space_group_symop_operation_xyz
x,y,z
-x,-y,-z
loop_
_atom_site_type_symbol
_atom_site_label
_atom_site_fract_x
_atom_site_fract_y
_atom_site_fract_z
Si Si1 0.975701 0.016870 0.332406
Si Si2 0.372949 0.284493 0.180429
Si Si3 0.214351 0.303602 0.931962
Si Si4 0.757550 0.990410 0.506269
Si Si5 0.702232 0.733231 0.350806
Si Si6 0.158346 0.067973 0.927123
Si Si7 0.009706 0.654438 0.739910
Si Si8 0.719342 0.413816 0.512196
O O1 0.816724 0.227860 0.470865
O O2 0.201334 0.944191 0.337061
O O3 0.918433 0.932126 0.373219
O O4 0.962352 0.978289 0.171399
O O5 0.319216 0.461179 0.315151
O O6 0.223294 0.269924 0.240191
O O7 0.612142 0.110513 0.121459
O O8 0.334848 0.302536 0.045118
O O9 0.349883 0.228838 0.773464
O O10 0.175451 0.177084 0.894739
O O11 0.000000 0.500000 0.000000
O O12 0.796415 0.815355 0.444745
O O13 0.525227 0.154023 0.535566
O O14 0.858100 0.525629 0.274559
O O15 0.015667 0.194545 0.105883
O O16 0.122996 0.614714 0.596272
O O17 0.500000 0.500000 0.500000
#
# Coordination Sequence:
#
# PCOD8026165 Si02
#       8
#     2   2   2   2   2   2   2   2
#     4  11  23  43  63  94 138 177 213 266 342 391
#     4  11  24  43  69 100 130 178 223 276 332 392
#     4  11  21  39  68  94 129 166 217 275 329 379
#     4  10  24  39  68  96 132 173 222 271 328 397
#     4  11  21  42  67 101 126 171 227 277 322 386
#     4  11  23  42  67 100 136 174 218 277 334 399
#     4  11  24  42  69  97 132 172 227 274 328 390
#     4  12  25  44  66  94 136 176 217 273 331 402
#
# _framework density 22.083814
#
# number of rings (size 3 to 8) (size 9 to 14) (size 15 to 20)
#    0.000    1.000    5.000    3.375    0.000    2.500 
#    2.250    0.625    0.000    0.000    0.000    0.000 
#    0.000    0.000    0.000    0.000    0.000    0.000 
#
# Total GULP energy -198366.126656 kJ/mol
# GULP energy per Si atom -12397.882916 kJ/mol
# Density = 2.203355 g / cm^3
# Si number density = 22.083814 Si / 1000 Ang^3
#
#
#
# Elastic Constant Matrix: (Units=GPa)
#
#
# Indices 1 2 3 4 5 6 
#
# 1 100.5848 26.3608 43.6931 -4.3400 25.4980 -16.8980
# 2 26.3608 96.7548 29.3190 10.3172 11.5762 -6.3290
# 3 43.6931 29.3190 109.8024 7.4392 32.7981 -7.0823
# 4 -4.3400 10.3172 7.4392 39.8819 -0.6610 3.5263
# 5 25.4980 11.5762 32.7981 -0.6610 44.9492 -5.8941
# 6 -16.8980 -6.3290 -7.0823 3.5263 -5.8941 28.1048
#
#
#
# Elastic Compliance Matrix: (Units=1/GPa)
#
#
# Indices 1 2 3 4 5 6 
#
# 1 0.014209 -0.002123 -0.003641 0.002175 -0.004035 0.006029
# 2 -0.002123 0.011956 -0.001962 -0.003073 -0.000326 0.001239
# 3 -0.003641 -0.001962 0.013398 -0.002467 -0.007304 -0.000477
# 4 0.002175 -0.003073 -0.002467 0.026862 0.001347 -0.003094
# 5 -0.004035 -0.000326 -0.007304 0.001347 0.030209 0.001827
# 6 0.006029 0.001239 -0.000477 -0.003094 0.001827 0.040136
#
#
# Mechanical properties :
#
#
# Convention : Reuss Voigt Hill
#
# Bulk Modulus (GPa) = 41.47369 56.20976 48.84172
# Shear Modulus (GPa) = 31.19955 36.43846 33.81901
#
# Velocity S-wave (km/s) = 3.76277 4.06644 3.91755
# Velocity P-wave (km/s) = 6.13994 6.89609 6.52897
#
# Compressibility (1/GPa) = 0.02411167
#
# Stress axis : x y z
#
# Youngs Moduli (GPa) = 70.37758 83.63943 74.63715
#
# Poissons Ratio (x) = 0.17756 0.27173
# Poissons Ratio (y) = 0.14940 0.14646
# Poissons Ratio (z) = 0.25622 0.16413
#
# Static dielectric constant tensor:
#      x y z
#    x 4.675560 -0.471200 0.093150 
#    y -0.471200 4.351690 0.053890 
#    z 0.093150 0.053890 4.282540 
# 
# 
# High freq. dielectric constant tensor:
#      x y z
#    x 1.866570 -0.005760 0.016720 
#    y -0.005760 1.872500 0.005600 
#    z 0.016720 0.005600 1.873860 
# 
# From -- ./inp_files/392838.got.cif
#   From: 2010.06.25/outbox.cif.g09.slc.cpg/sg2_197_cif.got.tgz:392838.got - 2010.06.27 13:26:56.
