data_PCOD8026225
_publ_section_title
;
Structure prediction by ZEFSAII (Michael W. Deem and Ramdas Pophale) SiO2 
 PCOD8026225
Probable space group: P -1
;
_chemical_formula_sum "Si O2"
_cell_formula_units_Z 14
_cell_length_a 13.992250
_cell_length_b 14.614180
_cell_length_c 9.038286
_cell_angle_alpha 151.314908
_cell_angle_beta 125.294354
_cell_angle_gamma 45.206774
_cell_volume 625.129647
_symmetry_space_group_name_H-M "P -1"
_symmetry_group_IT_number 2
_symmetry_cell_setting 'triclinic'
loop_
_space_group_symop_operation_xyz
x,y,z
-x,-y,-z
loop_
_atom_site_type_symbol
_atom_site_label
_atom_site_fract_x
_atom_site_fract_y
_atom_site_fract_z
Si Si1 0.553120 0.865741 0.208148
Si Si2 0.024359 0.252678 0.273179
Si Si3 0.629766 0.284685 0.255953
Si Si4 0.983316 0.668599 0.956476
Si Si5 0.747603 0.353325 0.726604
Si Si6 0.801805 0.167191 0.990387
Si Si7 0.740654 0.004979 0.418308
O O1 0.620385 0.956350 0.280038
O O2 0.500000 0.000000 0.500000
O O3 0.418756 0.896327 0.047217
O O4 0.655779 0.615426 0.999299
O O5 0.039352 0.405579 0.628908
O O6 0.068903 0.267854 0.168755
O O7 0.116334 0.000021 0.040474
O O8 0.867401 0.313856 0.211226
O O9 0.500000 0.500000 0.500000
O O10 0.753853 0.235047 0.407387
O O11 0.659242 0.325005 0.168997
O O12 0.101172 0.715693 0.182283
O O13 0.855734 0.800789 0.137863
O O14 0.687500 0.242964 0.629538
O O15 0.801175 0.019128 0.647945
#
# Coordination Sequence:
#
# PCOD8026225 Si02
#       7
#     2   2   2   2   2   2   2
#     4  11  25  47  67  99 132 175 233 275 324 394
#     4  10  24  40  66  98 140 171 216 277 336 405
#     4  10  24  44  66  92 136 177 222 278 324 392
#     4  11  24  43  64 105 135 171 221 276 337 402
#     4  11  25  45  69  97 138 177 217 283 334 393
#     4  11  22  41  67  99 131 181 218 270 343 392
#     4  12  25  43  72 102 134 177 221 274 339 399
#
# _framework density 22.395354000000001
#
# number of rings (size 3 to 8) (size 9 to 14) (size 15 to 20)
#    0.000    1.143    2.857    2.143    8.000    2.286 
#    0.000    0.000    0.000    0.000    0.000    0.000 
#    0.000    0.000    0.000    0.000    0.000    0.000 
#
# Total GULP energy -173438.405909 kJ/mol
# GULP energy per Si atom -12388.457565 kJ/mol
# Density = 2.234438 g / cm^3
# Si number density = 22.395354 Si / 1000 Ang^3
#
#
#
# Elastic Constant Matrix: (Units=GPa)
#
#
# Indices 1 2 3 4 5 6 
#
# 1 150.3066 11.6898 72.1113 -10.1595 -12.2744 8.1963
# 2 11.6898 42.3206 31.8293 -11.4561 -1.5598 7.1698
# 3 72.1113 31.8293 149.9849 -28.9819 -10.5054 -3.2123
# 4 -10.1595 -11.4561 -28.9819 47.6171 -0.0469 10.1859
# 5 -12.2744 -1.5598 -10.5054 -0.0469 49.5397 -3.3571
# 6 8.1963 7.1698 -3.2123 10.1859 -3.3571 27.2666
#
#
#
# Elastic Compliance Matrix: (Units=1/GPa)
#
#
# Indices 1 2 3 4 5 6 
#
# 1 0.009073 0.001772 -0.004684 0.000310 0.001058 -0.003731
# 2 0.001772 0.032025 -0.006683 0.006651 -0.000799 -0.012324
# 3 -0.004684 -0.006683 0.011167 0.003478 0.001226 0.003333
# 4 0.000310 0.006651 0.003478 0.027262 0.000265 -0.011584
# 5 0.001058 -0.000799 0.001226 0.000265 0.020853 0.002505
# 6 -0.003731 -0.012324 0.003333 -0.011584 0.002505 0.046065
#
#
# Mechanical properties :
#
#
# Convention : Reuss Voigt Hill
#
# Bulk Modulus (GPa) = 30.23476 63.76366 46.99921
# Shear Modulus (GPa) = 28.30287 40.01679 34.15983
#
# Velocity S-wave (km/s) = 3.55883 4.23168 3.90976
# Velocity P-wave (km/s) = 5.51514 7.23946 6.43532
#
# Compressibility (1/GPa) = 0.03307451
#
# Stress axis : x y z
#
# Youngs Moduli (GPa) = 110.21214 31.22599 89.54977
#
# Poissons Ratio (x) = -0.05533 0.41948
# Poissons Ratio (y) = -0.19528 0.59844
# Poissons Ratio (z) = 0.51626 0.20868
#
# Static dielectric constant tensor:
#      x y z
#    x 3.875490 -0.127530 -0.196430 
#    y -0.127530 4.282950 -0.593260 
#    z -0.196430 -0.593260 4.407590 
# 
# 
# High freq. dielectric constant tensor:
#      x y z
#    x 1.892040 0.000340 -0.000740 
#    y 0.000340 1.858450 -0.017060 
#    z -0.000740 -0.017060 1.906750 
# 
# From -- ./inp_files/204496.got.cif
#   From: 2010.06.25/outbox.cif.g09.slc.cpg/sg2_103_cif.got.tgz:204496.got - 2010.06.27 13:26:56.
