data_PCOD8026325
_publ_section_title
;
Structure prediction by ZEFSAII (Michael W. Deem and Ramdas Pophale) SiO2 
 PCOD8026325
Probable space group: P -1
;
_chemical_formula_sum "Si O2"
_cell_formula_units_Z 16
_cell_length_a 14.977544
_cell_length_b 23.922810
_cell_length_c 6.430762
_cell_angle_alpha 78.545711
_cell_angle_beta 102.130475
_cell_angle_gamma 160.721597
_cell_volume 743.756468
_symmetry_space_group_name_H-M "P -1"
_symmetry_group_IT_number 2
_symmetry_cell_setting 'triclinic'
loop_
_space_group_symop_operation_xyz
x,y,z
-x,-y,-z
loop_
_atom_site_type_symbol
_atom_site_label
_atom_site_fract_x
_atom_site_fract_y
_atom_site_fract_z
Si Si1 0.982855 0.946965 0.724878
Si Si2 0.101054 0.501095 0.646073
Si Si3 0.255274 0.777744 0.025822
Si Si4 0.829027 0.533193 0.682866
Si Si5 0.222721 0.295212 0.299683
Si Si6 0.150066 0.845275 0.035000
Si Si7 0.182012 0.353503 0.594963
Si Si8 0.562533 0.748519 0.987361
O O1 0.937163 0.857917 0.674954
O O2 0.738827 0.818871 0.853261
O O3 0.000000 0.000000 0.500000
O O4 0.255802 0.104938 0.881811
O O5 0.227501 0.534669 0.506029
O O6 0.334182 0.650312 0.822728
O O7 0.000000 0.500000 0.500000
O O8 0.842185 0.317782 0.757867
O O9 0.575393 0.958459 0.021105
O O10 0.172240 0.794196 0.006234
O O11 0.103715 0.669561 0.820038
O O12 0.860427 0.618628 0.599847
O O13 0.581646 0.381635 0.835576
O O14 0.197065 0.302805 0.516993
O O15 0.539894 0.473459 0.266958
O O16 0.098925 0.268872 0.106194
O O17 0.084644 0.806034 0.275789
#
# Coordination Sequence:
#
# PCOD8026325 Si02
#       8
#     2   2   2   2   2   2   2   2
#     4  11  24  44  68  97 136 175 218 278 341 393
#     4  11  24  43  68  96 131 179 228 274 331 400
#     4  10  24  41  66  95 131 176 221 278 333 390
#     4  11  22  43  68  93 132 173 220 274 336 400
#     4  11  25  39  65 100 131 170 221 271 329 407
#     4  11  23  42  63  96 135 170 220 275 332 395
#     4  11  23  41  67  98 132 174 216 270 339 400
#     4  10  24  42  68  96 131 175 223 274 339 393
#
# _framework density 21.512419000000001
#
# number of rings (size 3 to 8) (size 9 to 14) (size 15 to 20)
#    0.000    1.250    2.500    2.625    1.750   10.500 
#    0.000    0.000    0.000    0.000    0.000    0.000 
#    0.000    0.000    0.000    0.000    0.000    0.000 
#
# Total GULP energy -198415.184620 kJ/mol
# GULP energy per Si atom -12400.949039 kJ/mol
# Density = 2.146346 g / cm^3
# Si number density = 21.512419 Si / 1000 Ang^3
#
#
#
# Elastic Constant Matrix: (Units=GPa)
#
#
# Indices 1 2 3 4 5 6 
#
# 1 90.0623 40.2487 47.2119 -5.2635 8.1282 -14.5080
# 2 40.2487 126.1555 79.5510 -12.3392 2.7658 -2.8012
# 3 47.2119 79.5510 136.0684 -12.3718 5.5000 1.1714
# 4 -5.2635 -12.3392 -12.3718 42.3841 -1.3523 -5.9092
# 5 8.1282 2.7658 5.5000 -1.3523 37.5912 2.3571
# 6 -14.5080 -2.8012 1.1714 -5.9092 2.3571 33.4110
#
#
#
# Elastic Compliance Matrix: (Units=1/GPa)
#
#
# Indices 1 2 3 4 5 6 
#
# 1 0.015658 -0.002123 -0.004035 0.001050 -0.003051 0.007164
# 2 -0.002123 0.013031 -0.006757 0.001667 0.000507 0.000667
# 3 -0.004035 -0.006757 0.012816 0.000902 -0.000311 -0.002586
# 4 0.001050 0.001667 0.000902 0.025175 0.000110 0.005009
# 5 -0.003051 0.000507 -0.000311 0.000110 0.027474 -0.003190
# 6 0.007164 0.000667 -0.002586 0.005009 -0.003190 0.034298
#
#
# Mechanical properties :
#
#
# Convention : Reuss Voigt Hill
#
# Bulk Modulus (GPa) = 63.78695 76.25660 70.02178
# Shear Modulus (GPa) = 31.34669 35.02888 33.18779
#
# Velocity S-wave (km/s) = 3.82140 4.03961 3.93202
# Velocity P-wave (km/s) = 7.01330 7.56853 7.29620
#
# Compressibility (1/GPa) = 0.01567719
#
# Stress axis : x y z
#
# Youngs Moduli (GPa) = 63.86635 76.73779 78.02516
#
# Poissons Ratio (x) = 0.16288 0.31481
# Poissons Ratio (y) = 0.13556 0.52720
# Poissons Ratio (z) = 0.25768 0.51851
#
# Static dielectric constant tensor:
#      x y z
#    x 3.692920 -0.005140 -0.064320 
#    y -0.005140 4.141620 0.117670 
#    z -0.064320 0.117670 4.018400 
# 
# 
# High freq. dielectric constant tensor:
#      x y z
#    x 1.830990 0.001970 0.000660 
#    y 0.001970 1.853780 0.002640 
#    z 0.000660 0.002640 1.857640 
# 
# From -- ./inp_files/71670.got.cif
#   From: 2010.06.25/outbox.cif.g09.slc.cpg/sg2_36_cif.got.tgz:71670.got - 2010.06.27 13:26:56.
