data_PCOD8026194
_publ_section_title
;
Structure prediction by ZEFSAII (Michael W. Deem and Ramdas Pophale) SiO2 
 PCOD8026194
Probable space group: P -1
;
_chemical_formula_sum "Si O2"
_cell_formula_units_Z 16
_cell_length_a 11.992720
_cell_length_b 16.853918
_cell_length_c 9.249524
_cell_angle_alpha 135.041754
_cell_angle_beta 37.908415
_cell_angle_gamma 133.997132
_cell_volume 770.582816
_symmetry_space_group_name_H-M "P -1"
_symmetry_group_IT_number 2
_symmetry_cell_setting 'triclinic'
loop_
_space_group_symop_operation_xyz
x,y,z
-x,-y,-z
loop_
_atom_site_type_symbol
_atom_site_label
_atom_site_fract_x
_atom_site_fract_y
_atom_site_fract_z
Si Si1 0.813835 0.966205 0.747531
Si Si2 0.797290 0.644067 0.650733
Si Si3 0.201275 0.253397 0.904059
Si Si4 0.832625 0.229857 0.715863
Si Si5 0.078353 0.992050 0.753420
Si Si6 0.840932 0.217571 0.025782
Si Si7 0.579082 0.375900 0.513325
Si Si8 0.547263 0.726025 0.778733
O O1 0.652594 0.841726 0.719353
O O2 0.000000 0.000000 0.500000
O O3 0.879439 0.943451 0.809829
O O4 0.731214 0.076710 0.974776
O O5 0.707099 0.506048 0.593984
O O6 0.672157 0.692238 0.729502
O O7 0.007580 0.667990 0.400135
O O8 0.824251 0.712612 0.862083
O O9 0.207925 0.118830 0.723015
O O10 0.394780 0.342466 0.759872
O O11 0.027471 0.261551 0.992131
O O12 0.806332 0.101295 0.505856
O O13 0.900731 0.239128 0.824729
O O14 0.631820 0.252824 0.929912
O O15 0.000000 0.000000 0.000000
O O16 0.697377 0.286466 0.309325
O O17 0.523958 0.376569 0.400984
#
# Coordination Sequence:
#
# PCOD8026194 Si02
#       8
#     2   2   2   2   2   2   2   2
#     4  11  19  38  65  90 134 158 200 264 312 374
#     4  12  24  46  61  90 133 167 212 258 310 368
#     4  11  24  41  66  91 128 168 207 261 315 369
#     4  11  23  40  65  94 129 163 209 260 312 376
#     4  11  20  39  63  93 128 165 200 255 326 370
#     4  10  24  40  63  99 121 164 210 256 317 369
#     4  11  26  41  66  92 125 171 214 256 304 378
#     4  11  24  40  67  98 120 170 211 259 314 368
#
# _framework density 20.763504999999999
#
# number of rings (size 3 to 8) (size 9 to 14) (size 15 to 20)
#    0.000    1.000    3.750    3.000    1.750    5.500 
#    0.000    1.250    0.000    0.000    0.000    0.000 
#    0.000    0.000    0.000    0.000    0.000    0.000 
#
# Total GULP energy -198386.822247 kJ/mol
# GULP energy per Si atom -12399.176390 kJ/mol
# Density = 2.071625 g / cm^3
# Si number density = 20.763505 Si / 1000 Ang^3
#
#
#
# Elastic Constant Matrix: (Units=GPa)
#
#
# Indices 1 2 3 4 5 6 
#
# 1 68.7943 8.5837 32.7511 -8.5601 -1.6312 0.7192
# 2 8.5837 85.4265 12.4324 -1.6547 -18.7146 10.3266
# 3 32.7511 12.4324 76.2531 -15.2144 -4.0243 5.1149
# 4 -8.5601 -1.6547 -15.2144 38.3705 1.1145 0.9177
# 5 -1.6312 -18.7146 -4.0243 1.1145 31.3672 4.3843
# 6 0.7192 10.3266 5.1149 0.9177 4.3843 23.0876
#
#
#
# Elastic Compliance Matrix: (Units=1/GPa)
#
#
# Indices 1 2 3 4 5 6 
#
# 1 0.018427 -0.001148 -0.007703 0.000993 -0.001001 0.001796
# 2 -0.001148 0.015179 -0.000892 -0.000045 0.010067 -0.008466
# 3 -0.007703 -0.000892 0.018003 0.005424 0.001729 -0.003893
# 4 0.000993 -0.000045 0.005424 0.028487 0.000037 -0.002352
# 5 -0.001001 0.010067 0.001729 0.000037 0.039790 -0.012412
# 6 0.001796 -0.008466 -0.003893 -0.002352 -0.012412 0.050357
#
#
# Mechanical properties :
#
#
# Convention : Reuss Voigt Hill
#
# Bulk Modulus (GPa) = 31.12859 37.55648 34.34254
# Shear Modulus (GPa) = 24.94561 30.34549 27.64555
#
# Velocity S-wave (km/s) = 3.46991 3.82708 3.65286
# Velocity P-wave (km/s) = 5.57478 6.13643 5.86233
#
# Compressibility (1/GPa) = 0.03212480
#
# Stress axis : x y z
#
# Youngs Moduli (GPa) = 54.26698 65.88048 55.54753
#
# Poissons Ratio (x) = 0.07562 0.42786
# Poissons Ratio (y) = 0.06229 0.04953
# Poissons Ratio (z) = 0.41800 0.05874
#
# Static dielectric constant tensor:
#      x y z
#    x 3.616630 -0.143240 0.095850 
#    y -0.143240 3.769170 0.164950 
#    z 0.095850 0.164950 3.821330 
# 
# 
# High freq. dielectric constant tensor:
#      x y z
#    x 1.811120 -0.000230 0.009050 
#    y -0.000230 1.819600 0.004170 
#    z 0.009050 0.004170 1.815450 
# 
# From -- ./inp_files/258137.got.cif
#   From: 2010.06.25/outbox.cif.g09.slc.cpg/sg2_130_cif.got.tgz:258137.got - 2010.06.27 13:26:56.
