data_PCOD8026224
_publ_section_title
;
Structure prediction by ZEFSAII (Michael W. Deem and Ramdas Pophale) SiO2 
 PCOD8026224
Probable space group: P -1
;
_chemical_formula_sum "Si O2"
_cell_formula_units_Z 16
_cell_length_a 9.733214
_cell_length_b 14.705027
_cell_length_c 8.999000
_cell_angle_alpha 47.904997
_cell_angle_beta 112.262786
_cell_angle_gamma 81.597290
_cell_volume 718.867022
_symmetry_space_group_name_H-M "P -1"
_symmetry_group_IT_number 2
_symmetry_cell_setting 'triclinic'
loop_
_space_group_symop_operation_xyz
x,y,z
-x,-y,-z
loop_
_atom_site_type_symbol
_atom_site_label
_atom_site_fract_x
_atom_site_fract_y
_atom_site_fract_z
Si Si1 0.656695 0.999030 0.236131
Si Si2 0.973273 0.075533 0.607530
Si Si3 0.681143 0.471719 0.160051
Si Si4 0.396387 0.748535 0.893358
Si Si5 0.841066 0.487263 0.907239
Si Si6 0.485834 0.190844 0.663326
Si Si7 0.153489 0.751313 0.006225
Si Si8 0.823417 0.185965 0.719868
O O1 0.617983 0.098630 0.257136
O O2 0.585807 0.896861 0.354335
O O3 0.542164 0.122488 0.925096
O O4 0.872973 0.895418 0.396506
O O5 0.767448 0.216299 0.326534
O O6 0.980812 0.047907 0.825040
O O7 0.022502 0.925555 0.703556
O O8 0.798312 0.322784 0.466871
O O9 0.500000 0.500000 0.000000
O O10 0.602156 0.623357 0.060340
O O11 0.791259 0.461453 0.075143
O O12 0.355766 0.689098 0.093420
O O13 0.677454 0.632823 0.593434
O O14 0.912166 0.346699 0.978212
O O15 0.000000 0.500000 0.000000
O O16 0.653426 0.173706 0.664161
O O17 0.139201 0.769074 0.156585
#
# Coordination Sequence:
#
# PCOD8026224 Si02
#       8
#     2   2   2   2   2   2   2   2
#     4  10  24  40  66  98 134 172 213 266 329 386
#     4  11  22  40  68  97 134 169 219 271 315 378
#     4  12  23  43  66  96 129 170 221 272 318 377
#     4  11  21  40  70  96 129 174 222 263 315 390
#     4  12  28  46  66  95 132 172 218 271 332 385
#     4  11  23  42  64  97 133 171 208 275 326 376
#     4  11  23  40  69  98 125 175 219 261 320 394
#     4  12  23  42  70  99 131 169 220 271 315 388
#
# _framework density 22.257245000000001
#
# number of rings (size 3 to 8) (size 9 to 14) (size 15 to 20)
#    0.000    0.750    6.250    1.875    7.000    1.000 
#    2.250    1.875    0.000    0.000    0.000    0.000 
#    0.000    0.000    0.000    0.000    0.000    0.000 
#
# Total GULP energy -198252.460910 kJ/mol
# GULP energy per Si atom -12390.778807 kJ/mol
# Density = 2.220659 g / cm^3
# Si number density = 22.257245 Si / 1000 Ang^3
#
#
#
# Elastic Constant Matrix: (Units=GPa)
#
#
# Indices 1 2 3 4 5 6 
#
# 1 128.2019 73.9702 32.0907 -4.5120 -1.4339 13.1586
# 2 73.9702 167.2859 27.4108 -6.8351 -2.7856 1.8260
# 3 32.0907 27.4108 45.8335 8.6145 -19.6504 2.3277
# 4 -4.5120 -6.8351 8.6145 21.4604 2.5015 -0.3764
# 5 -1.4339 -2.7856 -19.6504 2.5015 28.8614 2.7817
# 6 13.1586 1.8260 2.3277 -0.3764 2.7817 38.5921
#
#
#
# Elastic Compliance Matrix: (Units=1/GPa)
#
#
# Indices 1 2 3 4 5 6 
#
# 1 0.013421 -0.003812 -0.011770 0.007217 -0.008048 -0.003035
# 2 -0.003812 0.008506 -0.004517 0.004088 -0.002935 0.001421
# 3 -0.011770 -0.004517 0.055805 -0.031004 0.039885 -0.002316
# 4 0.007217 0.004088 -0.031004 0.064941 -0.026151 0.001734
# 5 -0.008048 -0.002935 0.039885 -0.026151 0.063809 -0.004377
# 6 -0.003035 0.001421 -0.002316 0.001734 -0.004377 0.027352
#
#
# Mechanical properties :
#
#
# Convention : Reuss Voigt Hill
#
# Bulk Modulus (GPa) = 26.64201 67.58496 47.11349
# Shear Modulus (GPa) = 17.44934 31.63942 24.54438
#
# Velocity S-wave (km/s) = 2.80301 3.77441 3.32438
# Velocity P-wave (km/s) = 4.74045 7.03038 5.99575
#
# Compressibility (1/GPa) = 0.03753471
#
# Stress axis : x y z
#
# Youngs Moduli (GPa) = 74.50772 117.56159 17.91957
#
# Poissons Ratio (x) = 0.44816 0.21091
# Poissons Ratio (y) = 0.28403 0.08094
# Poissons Ratio (z) = 0.87695 0.53102
#
# Static dielectric constant tensor:
#      x y z
#    x 3.026940 1.683210 -1.810060 
#    y 1.683210 0.893410 3.415330 
#    z -1.810060 3.415330 0.788060 
# 
# 
# High freq. dielectric constant tensor:
#      x y z
#    x 1.852030 -0.009330 -0.009800 
#    y -0.009330 1.898690 -0.007420 
#    z -0.009800 -0.007420 1.889600 
# 
# From -- ./inp_files/205739.got.cif
#   From: 2010.06.25/outbox.cif.g09.slc.cpg/sg2_103_cif.got.tgz:205739.got - 2010.06.27 13:26:56.
