data_PCOD8026163
_publ_section_title
;
Structure prediction by ZEFSAII (Michael W. Deem and Ramdas Pophale) SiO2 
 PCOD8026163
Probable space group: P -1
;
_chemical_formula_sum "Si O2"
_cell_formula_units_Z 16
_cell_length_a 11.081644
_cell_length_b 11.725924
_cell_length_c 11.574579
_cell_angle_alpha 62.388254
_cell_angle_beta 131.792734
_cell_angle_gamma 80.186193
_cell_volume 683.799111
_symmetry_space_group_name_H-M "P -1"
_symmetry_group_IT_number 2
_symmetry_cell_setting 'triclinic'
loop_
_space_group_symop_operation_xyz
x,y,z
-x,-y,-z
loop_
_atom_site_type_symbol
_atom_site_label
_atom_site_fract_x
_atom_site_fract_y
_atom_site_fract_z
Si Si1 0.425394 0.090643 0.757138
Si Si2 0.468243 0.257685 0.983469
Si Si3 0.971847 0.345460 0.484798
Si Si4 0.169579 0.846631 0.582205
Si Si5 0.937599 0.018219 0.807916
Si Si6 0.064238 0.696011 0.258060
Si Si7 0.566287 0.283926 0.794791
Si Si8 0.629670 0.972473 0.708864
O O1 0.597533 0.111436 0.878426
O O2 0.182060 0.272391 0.573182
O O3 0.491652 0.915752 0.940331
O O4 0.422290 0.080280 0.621056
O O5 0.574479 0.245447 0.178064
O O6 0.189459 0.435021 0.725230
O O7 0.570482 0.294676 0.931804
O O8 0.842668 0.300704 0.359821
O O9 0.034479 0.276962 0.689460
O O10 0.107300 0.933251 0.377244
O O11 0.000000 0.000000 0.500000
O O12 0.721512 0.061934 0.699572
O O13 0.928480 0.151939 0.818238
O O14 0.197126 0.796532 0.077164
O O15 0.323678 0.486532 0.495554
O O16 0.863985 0.761382 0.007969
O O17 0.500000 0.000000 0.500000
#
# Coordination Sequence:
#
# PCOD8026163 Si02
#       8
#     2   2   2   2   2   2   2   2
#     4  12  25  41  66 100 134 178 222 272 340 395
#     4  11  22  39  66 103 144 167 218 282 347 397
#     4  10  24  39  68 104 134 174 223 284 334 399
#     4  11  19  39  69  97 132 179 218 277 342 395
#     4  11  23  48  67  96 135 181 228 273 333 396
#     4  10  24  46  73 101 131 174 234 275 337 402
#     4  11  24  40  74 102 126 177 229 281 334 398
#     4  12  28  46  69  97 138 183 224 277 336 401
#
# _framework density 23.398685
#
# number of rings (size 3 to 8) (size 9 to 14) (size 15 to 20)
#    0.000    1.000    3.750    2.625    3.500    1.500 
#    0.000    0.625    0.000    0.000    0.000    0.000 
#    0.000    0.000    0.000    0.000    0.000    0.000 
#
# Total GULP energy -198237.391555 kJ/mol
# GULP energy per Si atom -12389.836972 kJ/mol
# Density = 2.334543 g / cm^3
# Si number density = 23.398685 Si / 1000 Ang^3
#
#
#
# Elastic Constant Matrix: (Units=GPa)
#
#
# Indices 1 2 3 4 5 6 
#
# 1 101.1916 10.6442 36.1561 -12.2555 15.0412 -13.7482
# 2 10.6442 74.0898 52.7743 5.2878 -7.8132 -2.3531
# 3 36.1561 52.7743 139.5097 12.6685 10.4713 -14.6373
# 4 -12.2555 5.2878 12.6685 43.6837 -1.4666 0.9679
# 5 15.0412 -7.8132 10.4713 -1.4666 15.7638 3.6889
# 6 -13.7482 -2.3531 -14.6373 0.9679 3.6889 38.8187
#
#
#
# Elastic Compliance Matrix: (Units=1/GPa)
#
#
# Indices 1 2 3 4 5 6 
#
# 1 0.014112 -0.002849 -0.001220 0.004028 -0.015025 0.005693
# 2 -0.002849 0.023604 -0.010526 0.000287 0.022775 -0.005719
# 3 -0.001220 -0.010526 0.013464 -0.003585 -0.014613 0.005485
# 4 0.004028 0.000287 -0.003585 0.025080 0.001165 -0.000644
# 5 -0.015025 0.022775 -0.014613 0.001165 0.103394 -0.019305
# 6 0.005693 -0.005719 0.005485 -0.000644 -0.019305 0.031349
#
#
# Mechanical properties :
#
#
# Convention : Reuss Voigt Hill
#
# Bulk Modulus (GPa) = 45.47779 57.10449 51.29114
# Shear Modulus (GPa) = 20.20008 34.00099 27.10054
#
# Velocity S-wave (km/s) = 2.94138 3.81611 3.40694
# Velocity P-wave (km/s) = 5.56901 6.62381 6.11918
#
# Compressibility (1/GPa) = 0.02198876
#
# Stress axis : x y z
#
# Youngs Moduli (GPa) = 70.85937 42.36614 74.27275
#
# Poissons Ratio (x) = 0.12071 0.09064
# Poissons Ratio (y) = 0.20190 0.78180
# Poissons Ratio (z) = 0.08647 0.44595
#
# Static dielectric constant tensor:
#      x y z
#    x 4.474800 -0.102030 0.028870 
#    y -0.102030 4.434830 0.328690 
#    z 0.028870 0.328690 4.668510 
# 
# 
# High freq. dielectric constant tensor:
#      x y z
#    x 1.940770 -0.007770 0.000450 
#    y -0.007770 1.917620 0.006500 
#    z 0.000450 0.006500 1.925650 
# 
# From -- ./inp_files/427889.got.cif
#   From: 2010.06.25/outbox.cif.g09.slc.cpg/sg2_214_cif.got.tgz:427889.got - 2010.06.27 13:26:56.
