data_PCOD8026320
_publ_section_title
;
Structure prediction by ZEFSAII (Michael W. Deem and Ramdas Pophale) SiO2 
 PCOD8026320
Probable space group: P -1
;
_chemical_formula_sum "Si O2"
_cell_formula_units_Z 16
_cell_length_a 8.704077
_cell_length_b 11.918889
_cell_length_c 9.685671
_cell_angle_alpha 60.653539
_cell_angle_beta 83.999267
_cell_angle_gamma 56.383193
_cell_volume 709.876158
_symmetry_space_group_name_H-M "P -1"
_symmetry_group_IT_number 2
_symmetry_cell_setting 'triclinic'
loop_
_space_group_symop_operation_xyz
x,y,z
-x,-y,-z
loop_
_atom_site_type_symbol
_atom_site_label
_atom_site_fract_x
_atom_site_fract_y
_atom_site_fract_z
Si Si1 0.296219 0.890507 0.947059
Si Si2 0.136762 0.196611 0.222178
Si Si3 0.021286 0.796808 0.050886
Si Si4 0.064137 0.330103 0.639200
Si Si5 0.668375 0.169246 0.531807
Si Si6 0.125376 0.666924 0.595789
Si Si7 0.499677 0.872524 0.670540
Si Si8 0.406303 0.298924 0.737523
O O1 0.339697 0.935919 0.767504
O O2 0.144209 0.046308 0.949995
O O3 0.490040 0.785060 0.078823
O O4 0.201883 0.794942 0.991709
O O5 0.299714 0.225586 0.210241
O O6 0.961793 0.326870 0.252879
O O7 0.205310 0.020129 0.360707
O O8 0.067641 0.234073 0.050359
O O9 0.079643 0.658002 0.238789
O O10 0.276720 0.239726 0.736962
O O11 0.000000 0.500000 0.500000
O O12 0.045246 0.252397 0.550288
O O13 0.805046 0.222128 0.467402
O O14 0.527333 0.230116 0.375509
O O15 0.560795 0.245451 0.637849
O O16 0.289902 0.486905 0.651746
O O17 0.500000 0.000000 0.500000
#
# Coordination Sequence:
#
# PCOD8026320 Si02
#       8
#     2   2   2   2   2   2   2   2
#     4  11  24  43  69 103 135 178 227 281 340 396
#     4  11  23  41  64 102 132 179 225 281 338 393
#     4  11  24  41  72 101 137 175 228 284 336 402
#     4  10  24  42  66 100 135 182 221 276 335 403
#     4  11  22  40  66  99 134 179 231 275 337 396
#     4  11  24  42  67  96 143 179 221 278 338 410
#     4  10  24  41  66 103 135 172 225 287 333 396
#     4  11  23  44  65 100 135 182 224 276 338 404
#
# _framework density 22.539141999999998
#
# number of rings (size 3 to 8) (size 9 to 14) (size 15 to 20)
#    0.000    1.250    1.250    3.750    8.750    2.000 
#    0.000   10.625    0.000    0.000    0.000    0.000 
#    0.000    0.000    0.000    0.000    0.000    0.000 
#
# Total GULP energy -198330.884939 kJ/mol
# GULP energy per Si atom -12395.680309 kJ/mol
# Density = 2.248784 g / cm^3
# Si number density = 22.539142 Si / 1000 Ang^3
#
#
#
# Elastic Constant Matrix: (Units=GPa)
#
#
# Indices 1 2 3 4 5 6 
#
# 1 107.7712 22.0121 41.2005 -5.8033 3.0769 12.1872
# 2 22.0121 72.4184 29.1083 13.7289 6.8344 3.6642
# 3 41.2005 29.1083 133.6774 18.5280 0.7140 2.1394
# 4 -5.8033 13.7289 18.5280 34.1825 -0.8880 -3.8886
# 5 3.0769 6.8344 0.7140 -0.8880 40.2184 12.6823
# 6 12.1872 3.6642 2.1394 -3.8886 12.6823 34.4311
#
#
#
# Elastic Compliance Matrix: (Units=1/GPa)
#
#
# Indices 1 2 3 4 5 6 
#
# 1 0.011901 -0.002975 -0.003638 0.004818 0.000850 -0.003439
# 2 -0.002975 0.016947 -0.001864 -0.006414 -0.002639 -0.000387
# 3 -0.003638 -0.001864 0.009710 -0.005101 0.000241 0.000218
# 4 0.004818 -0.006414 -0.005101 0.035783 0.000622 0.003106
# 5 0.000850 -0.002639 0.000241 0.000622 0.028564 -0.010486
# 6 -0.003439 -0.000387 0.000218 0.003106 -0.010486 0.034502
#
#
# Mechanical properties :
#
#
# Convention : Reuss Voigt Hill
#
# Bulk Modulus (GPa) = 46.28602 55.38987 50.83795
# Shear Modulus (GPa) = 30.94811 36.53613 33.74212
#
# Velocity S-wave (km/s) = 3.70953 4.03054 3.87336
# Velocity P-wave (km/s) = 6.23923 6.80358 6.52750
#
# Compressibility (1/GPa) = 0.02160479
#
# Stress axis : x y z
#
# Youngs Moduli (GPa) = 84.02496 59.00874 102.98737
#
# Poissons Ratio (x) = 0.17555 0.37462
# Poissons Ratio (y) = 0.24997 0.19197
# Poissons Ratio (z) = 0.30564 0.10999
#
# Static dielectric constant tensor:
#      x y z
#    x 4.828970 0.369580 0.279100 
#    y 0.369580 3.850610 0.362960 
#    z 0.279100 0.362960 4.730280 
# 
# 
# High freq. dielectric constant tensor:
#      x y z
#    x 1.910320 0.014230 0.001850 
#    y 0.014230 1.865980 0.022500 
#    z 0.001850 0.022500 1.895020 
# 
# From -- ./inp_files/185075.got.cif
#   From: 2010.06.25/outbox.cif.g09.slc.cpg/sg2_93_cif.got.tgz:185075.got - 2010.06.27 13:26:56.
