data_PCOD8026972
_publ_section_title
;
Structure prediction by ZEFSAII (Michael W. Deem and Ramdas Pophale) SiO2 
 PCOD8026972
Probable space group: P -1
;
_chemical_formula_sum "Si O2"
_cell_formula_units_Z 10
_cell_length_a 9.142796
_cell_length_b 9.171477
_cell_length_c 9.216360
_cell_angle_alpha 98.287102
_cell_angle_beta 150.451759
_cell_angle_gamma 77.568909
_cell_volume 370.689435
_symmetry_space_group_name_H-M "P -1"
_symmetry_group_IT_number 2
_symmetry_cell_setting 'triclinic'
loop_
_space_group_symop_operation_xyz
x,y,z
-x,-y,-z
loop_
_atom_site_type_symbol
_atom_site_label
_atom_site_fract_x
_atom_site_fract_y
_atom_site_fract_z
Si Si1 0.093709 0.662744 0.312772
Si Si2 0.571355 0.504134 0.894667
Si Si3 0.574602 0.249582 0.647485
Si Si4 0.391701 0.034764 0.072718
Si Si5 0.860104 0.956170 0.718732
O O1 0.853689 0.814032 0.121280
O O2 0.321302 0.644913 0.642898
O O3 0.326722 0.643092 0.375109
O O4 0.908097 0.527513 0.147325
O O5 0.539494 0.343758 0.777966
O O6 0.500000 0.500000 0.000000
O O7 0.254898 0.191552 0.340975
O O8 0.821356 0.090478 0.830230
O O9 0.200549 0.908440 0.943013
O O10 0.500000 0.000000 0.000000
O O11 0.657484 0.036320 0.418621
#
# Coordination Sequence:
#
# PCOD8026972 Si02
#       5
#     2   2   2   2   2
#     4  11  25  47  73 103 141 191 240 281 360 423
#     4  12  27  46  72 106 145 186 236 297 353 416
#     4  10  24  47  74 104 145 184 240 287 350 430
#     4  11  24  45  72 106 147 181 234 297 352 419
#     4  10  24  43  73 107 138 190 235 286 354 419
#
# _framework density 26.976762000000001
#
# number of rings (size 3 to 8) (size 9 to 14) (size 15 to 20)
#    0.000    1.200    0.000    4.800    2.800   13.600 
#    0.000    0.000    0.000    0.000    0.000    0.000 
#    0.000    0.000    0.000    0.000    0.000    0.000 
#
# Total GULP energy -123924.649489 kJ/mol
# GULP energy per Si atom -12392.464949 kJ/mol
# Density = 2.691536 g / cm^3
# Si number density = 26.976762 Si / 1000 Ang^3
#
#
#
# Elastic Constant Matrix: (Units=GPa)
#
#
# Indices 1 2 3 4 5 6 
#
# 1 247.2136 82.1419 94.7321 40.7163 -7.2900 9.4640
# 2 82.1419 95.6118 34.1345 11.1695 -9.0237 1.8491
# 3 94.7321 34.1345 137.6795 0.1926 -8.2331 8.8820
# 4 40.7163 11.1695 0.1926 63.6029 18.5453 4.5487
# 5 -7.2900 -9.0237 -8.2331 18.5453 50.9325 12.3651
# 6 9.4640 1.8491 8.8820 4.5487 12.3651 41.1347
#
#
#
# Elastic Compliance Matrix: (Units=1/GPa)
#
#
# Indices 1 2 3 4 5 6 
#
# 1 0.008099 -0.004727 -0.004260 -0.004737 0.001519 -0.000664
# 2 -0.004727 0.014833 -0.000300 -0.000148 0.001979 -0.000093
# 3 -0.004260 -0.000300 0.010399 0.002744 0.000428 -0.001684
# 4 -0.004737 -0.000148 0.002744 0.021087 -0.008085 0.000603
# 5 0.001519 0.001979 0.000428 -0.008085 0.024947 -0.007136
# 6 -0.000664 -0.000093 -0.001684 0.000603 -0.007136 0.026909
#
#
# Mechanical properties :
#
#
# Convention : Reuss Voigt Hill
#
# Bulk Modulus (GPa) = 67.76956 100.28020 84.02488
# Shear Modulus (GPa) = 38.53003 49.10045 43.81524
#
# Velocity S-wave (km/s) = 3.78334 4.27089 4.03449
# Velocity P-wave (km/s) = 6.65289 7.84692 7.27445
#
# Compressibility (1/GPa) = 0.01475589
#
# Stress axis : x y z
#
# Youngs Moduli (GPa) = 123.47778 67.41538 96.16042
#
# Poissons Ratio (x) = 0.31869 0.40965
# Poissons Ratio (y) = 0.58371 0.02889
# Poissons Ratio (z) = 0.52603 0.02025
#
# Static dielectric constant tensor:
#      x y z
#    x 5.517380 0.617260 0.515370 
#    y 0.617260 4.902760 0.106070 
#    z 0.515370 0.106070 5.605050 
# 
# 
# High freq. dielectric constant tensor:
#      x y z
#    x 2.100760 0.025950 0.005900 
#    y 0.025950 2.086170 -0.008070 
#    z 0.005900 -0.008070 2.120460 
# 
# From -- ./inp_files/39394.got.cif
#   From: 2010.06.25/outbox.cif.g09.slc.cpg/sg2_20_cif.got.tgz:39394.got - 2010.06.27 13:26:56.
