data_PCOD8026682
_publ_section_title
;
Structure prediction by ZEFSAII (Michael W. Deem and Ramdas Pophale) SiO2 
 PCOD8026682
Probable space group: P -1
;
_chemical_formula_sum "Si O2"
_cell_formula_units_Z 16
_cell_length_a 11.200076
_cell_length_b 6.708131
_cell_length_c 15.292174
_cell_angle_alpha 136.162501
_cell_angle_beta 75.749563
_cell_angle_gamma 89.535875
_cell_volume 741.193705
_symmetry_space_group_name_H-M "P -1"
_symmetry_group_IT_number 2
_symmetry_cell_setting 'triclinic'
loop_
_space_group_symop_operation_xyz
x,y,z
-x,-y,-z
loop_
_atom_site_type_symbol
_atom_site_label
_atom_site_fract_x
_atom_site_fract_y
_atom_site_fract_z
Si Si1 0.243530 0.559957 0.614278
Si Si2 0.185037 0.330324 0.197600
Si Si3 0.104762 0.649574 0.493213
Si Si4 0.747394 0.823980 0.206866
Si Si5 0.521872 0.949455 0.580954
Si Si6 0.078363 0.327700 0.709050
Si Si7 0.599272 0.410394 0.826964
Si Si8 0.325743 0.694929 0.027034
O O1 0.215610 0.576223 0.521449
O O2 0.394057 0.393822 0.537169
O O3 0.161369 0.386591 0.630520
O O4 0.211877 0.905496 0.763359
O O5 0.159948 0.511570 0.348678
O O6 0.306749 0.392105 0.149519
O O7 0.059573 0.425141 0.188390
O O8 0.218880 0.977745 0.098427
O O9 0.000000 0.500000 0.500000
O O10 0.050305 0.006375 0.602583
O O11 0.849248 0.652221 0.206926
O O12 0.612782 0.990066 0.328108
O O13 0.732579 0.588279 0.061921
O O14 0.500000 0.000000 0.500000
O O15 0.604595 0.158811 0.673211
O O16 0.642855 0.248656 0.860684
O O17 0.456152 0.632966 0.927896
#
# Coordination Sequence:
#
# PCOD8026682 Si02
#       8
#     2   2   2   2   2   2   2   2
#     4  11  22  40  63  96 133 170 212 265 331 388
#     4  12  24  39  70  95 131 175 215 267 328 384
#     4  11  24  39  65  97 136 169 210 267 327 394
#     4  10  24  43  63  94 134 170 221 270 318 387
#     4  11  21  40  68  97 129 165 214 273 334 385
#     4  11  24  40  64 100 129 167 215 268 328 387
#     4  10  24  44  67  96 131 168 222 273 318 388
#     4  10  24  47  65  94 129 176 226 265 315 384
#
# _framework density 21.5868
#
# number of rings (size 3 to 8) (size 9 to 14) (size 15 to 20)
#    0.000    1.250    2.500    2.625    5.250    1.500 
#    6.750    1.250    0.000    0.000    0.000    0.000 
#    0.000    0.000    0.000    0.000    0.000    0.000 
#
# Total GULP energy -198410.643571 kJ/mol
# GULP energy per Si atom -12400.665223 kJ/mol
# Density = 2.153767 g / cm^3
# Si number density = 21.586800 Si / 1000 Ang^3
#
#
#
# Elastic Constant Matrix: (Units=GPa)
#
#
# Indices 1 2 3 4 5 6 
#
# 1 117.6157 47.6001 43.5874 20.1074 3.6866 -18.1854
# 2 47.6001 103.1973 38.0067 21.3604 -1.0607 -13.2082
# 3 43.5874 38.0067 84.3500 12.5432 9.1694 -15.1164
# 4 20.1074 21.3604 12.5432 32.2726 -7.7198 -7.6483
# 5 3.6866 -1.0607 9.1694 -7.7198 29.9152 3.8839
# 6 -18.1854 -13.2082 -15.1164 -7.6483 3.8839 45.5201
#
#
#
# Elastic Compliance Matrix: (Units=1/GPa)
#
#
# Indices 1 2 3 4 5 6 
#
# 1 0.012249 -0.003196 -0.003703 -0.003982 -0.001804 0.002221
# 2 -0.003196 0.013713 -0.003691 -0.005394 0.000552 0.000523
# 3 -0.003703 -0.003691 0.017029 -0.002539 -0.005963 0.003187
# 4 -0.003982 -0.005394 -0.002539 0.041229 0.011464 0.001950
# 5 -0.001804 0.000552 -0.005963 0.011464 0.038967 -0.003939
# 6 0.002221 0.000523 0.003187 0.001950 -0.003939 0.024729
#
#
# Mechanical properties :
#
#
# Convention : Reuss Voigt Hill
#
# Bulk Modulus (GPa) = 45.85079 62.61681 54.23380
# Shear Modulus (GPa) = 28.34990 33.27285 30.81138
#
# Velocity S-wave (km/s) = 3.62788 3.93026 3.78209
# Velocity P-wave (km/s) = 6.23177 7.04741 6.65210
#
# Compressibility (1/GPa) = 0.02180988
#
# Stress axis : x y z
#
# Youngs Moduli (GPa) = 81.64075 72.92336 58.72275
#
# Poissons Ratio (x) = 0.23306 0.21746
# Poissons Ratio (y) = 0.26092 0.21677
# Poissons Ratio (z) = 0.30233 0.26919
#
# Static dielectric constant tensor:
#      x y z
#    x 4.562700 -0.299660 -0.117150 
#    y -0.299660 3.961460 0.389190 
#    z -0.117150 0.389190 3.718930 
# 
# 
# High freq. dielectric constant tensor:
#      x y z
#    x 1.860420 -0.007160 0.001240 
#    y -0.007160 1.854340 0.007660 
#    z 0.001240 0.007660 1.836520 
# 
# From -- ./inp_files/123762.got.cif
#   From: 2010.06.25/outbox.cif.g09.slc.cpg/sg2_62_cif.got.tgz:123762.got - 2010.06.27 13:26:56.
