data_PCOD8026484
_publ_section_title
;
Structure prediction by ZEFSAII (Michael W. Deem and Ramdas Pophale) SiO2 
 PCOD8026484
Probable space group: P -1
;
_chemical_formula_sum "Si O2"
_cell_formula_units_Z 14
_cell_length_a 12.601349
_cell_length_b 7.558727
_cell_length_c 8.240358
_cell_angle_alpha 124.851672
_cell_angle_beta 106.191173
_cell_angle_gamma 85.513932
_cell_volume 615.277957
_symmetry_space_group_name_H-M "P -1"
_symmetry_group_IT_number 2
_symmetry_cell_setting 'triclinic'
loop_
_space_group_symop_operation_xyz
x,y,z
-x,-y,-z
loop_
_atom_site_type_symbol
_atom_site_label
_atom_site_fract_x
_atom_site_fract_y
_atom_site_fract_z
Si Si1 0.570760 0.224399 0.175981
Si Si2 0.124489 0.028254 0.624917
Si Si3 0.229680 0.615938 0.485727
Si Si4 0.707121 0.219460 0.909084
Si Si5 0.270184 0.196174 0.471902
Si Si6 0.493013 0.612547 0.227818
Si Si7 0.871501 0.536389 0.974948
O O1 0.644354 0.255621 0.388163
O O2 0.485546 0.409137 0.243052
O O3 0.661538 0.260155 0.089309
O O4 0.500000 0.000000 0.000000
O O5 0.199347 0.087732 0.531645
O O6 0.149830 0.800007 0.596013
O O7 0.142894 0.213519 0.865649
O O8 0.000000 0.000000 0.500000
O O9 0.222275 0.415763 0.504499
O O10 0.196879 0.527372 0.249028
O O11 0.615718 0.260301 0.751851
O O12 0.816590 0.388029 0.019589
O O13 0.736505 0.974142 0.769483
O O14 0.396933 0.230865 0.604208
O O15 0.500000 0.500000 0.000000
O O16 0.000000 0.500000 0.000000
#
# Coordination Sequence:
#
# PCOD8026484 Si02
#       7
#     2   2   2   2   2   2   2
#     4  10  24  42  66 107 144 180 236 288 350 421
#     4  12  25  48  73  98 143 186 233 297 353 415
#     4  11  26  45  70 105 138 183 237 287 354 409
#     4  11  23  42  71  98 140 190 230 289 353 418
#     4  11  24  45  66 104 141 180 241 287 352 423
#     4   9  20  38  63  93 131 183 223 278 350 407
#     4  12  25  48  73 103 137 186 241 287 354 420
#
# _framework density 22.753943
#
# number of rings (size 3 to 8) (size 9 to 14) (size 15 to 20)
#    0.000    1.143    2.857    3.000    8.000    1.714 
#    2.571    4.286    0.000    0.000    0.000    0.000 
#    0.000    0.000    0.000    0.000    0.000    0.000 
#
# Total GULP energy -173516.405245 kJ/mol
# GULP energy per Si atom -12394.028946 kJ/mol
# Density = 2.270215 g / cm^3
# Si number density = 22.753943 Si / 1000 Ang^3
#
#
#
# Elastic Constant Matrix: (Units=GPa)
#
#
# Indices 1 2 3 4 5 6 
#
# 1 93.7730 54.6233 17.3433 8.8566 19.7014 3.9656
# 2 54.6233 116.0505 37.8680 25.4615 5.6539 -19.1615
# 3 17.3433 37.8680 143.9232 21.0651 13.2701 -9.6811
# 4 8.8566 25.4615 21.0651 42.8179 -5.9111 -3.5050
# 5 19.7014 5.6539 13.2701 -5.9111 43.4720 4.5987
# 6 3.9656 -19.1615 -9.6811 -3.5050 4.5987 42.6006
#
#
#
# Elastic Compliance Matrix: (Units=1/GPa)
#
#
# Indices 1 2 3 4 5 6 
#
# 1 0.017176 -0.008751 0.000467 0.000169 -0.006264 -0.004739
# 2 -0.008751 0.015730 -0.001838 -0.005946 0.000945 0.006881
# 3 0.000467 -0.001838 0.008223 -0.003385 -0.003054 0.001050
# 4 0.000169 -0.005946 -0.003385 0.029194 0.005879 -0.001692
# 5 -0.006264 0.000945 -0.003054 0.005879 0.027683 -0.002191
# 6 -0.004739 0.006881 0.001050 -0.001692 -0.002191 0.027346
#
#
# Mechanical properties :
#
#
# Convention : Reuss Voigt Hill
#
# Bulk Modulus (GPa) = 47.88267 63.71291 55.79779
# Shear Modulus (GPa) = 32.77443 42.03890 37.40666
#
# Velocity S-wave (km/s) = 3.79936 4.30297 4.05898
# Velocity P-wave (km/s) = 6.35108 7.26285 6.82221
#
# Compressibility (1/GPa) = 0.02088438
#
# Stress axis : x y z
#
# Youngs Moduli (GPa) = 58.22154 63.57108 121.60788
#
# Poissons Ratio (x) = 0.55631 -0.05678
# Poissons Ratio (y) = 0.50950 0.22356
# Poissons Ratio (z) = -0.02718 0.11687
#
# Static dielectric constant tensor:
#      x y z
#    x 4.226710 -0.441660 0.148860 
#    y -0.441660 4.696950 0.194460 
#    z 0.148860 0.194460 4.296080 
# 
# 
# High freq. dielectric constant tensor:
#      x y z
#    x 1.888020 -0.014310 0.008820 
#    y -0.014310 1.897840 0.019100 
#    z 0.008820 0.019100 1.917640 
# 
# From -- ./inp_files/246077.got.cif
#   From: 2010.06.25/outbox.cif.g09.slc.cpg/sg2_124_cif.got.tgz:246077.got - 2010.06.27 13:26:56.
