data_PCOD8026487
_publ_section_title
;
Structure prediction by ZEFSAII (Michael W. Deem and Ramdas Pophale) SiO2 
 PCOD8026487
Probable space group: P -1
;
_chemical_formula_sum "Si O2"
_cell_formula_units_Z 16
_cell_length_a 24.417050
_cell_length_b 9.339845
_cell_length_c 8.562194
_cell_angle_alpha 31.381546
_cell_angle_beta 120.912156
_cell_angle_gamma 133.954987
_cell_volume 715.607492
_symmetry_space_group_name_H-M "P -1"
_symmetry_group_IT_number 2
_symmetry_cell_setting 'triclinic'
loop_
_space_group_symop_operation_xyz
x,y,z
-x,-y,-z
loop_
_atom_site_type_symbol
_atom_site_label
_atom_site_fract_x
_atom_site_fract_y
_atom_site_fract_z
Si Si1 0.225608 0.702285 0.373526
Si Si2 0.874773 0.545670 0.992851
Si Si3 0.676680 0.866521 0.183841
Si Si4 0.713584 0.466253 0.835877
Si Si5 0.443927 0.608746 0.785400
Si Si6 0.960199 0.300180 0.473632
Si Si7 0.934978 0.640074 0.672563
Si Si8 0.703217 0.616459 0.032371
O O1 0.134203 0.400317 0.499576
O O2 0.269760 0.550944 0.651369
O O3 0.265079 0.893469 0.091194
O O4 0.234459 0.981161 0.245801
O O5 0.793203 0.491429 0.925770
O O6 0.889922 0.432599 0.954166
O O7 0.938981 0.926009 0.790658
O O8 0.883268 0.302270 0.344400
O O9 0.717712 0.743787 0.472471
O O10 0.599256 0.538312 0.306730
O O11 0.652567 0.084955 0.039731
O O12 0.693492 0.491342 0.958997
O O13 0.381063 0.481123 0.949729
O O14 0.500000 0.000000 0.500000
O O15 0.500000 0.500000 0.000000
O O16 0.000000 0.500000 0.500000
O O17 0.021675 0.492923 0.239200
O O18 0.000000 0.000000 0.500000
#
# Coordination Sequence:
#
# PCOD8026487 Si02
#       8
#     2   2   2   2   2   2   2   2
#     4  11  23  43  69  96 132 180 234 272 334 404
#     4  11  24  41  62  86 126 175 212 280 334 386
#     4  11  23  43  71 101 132 180 221 267 328 406
#     4  12  24  43  68 100 139 167 231 276 334 388
#     4  11  23  45  72 101 139 176 217 263 324 404
#     4  11  25  41  59  89 125 167 227 275 344 392
#     4  10  24  42  66  90 130 172 233 279 340 394
#     4  11  26  42  70 104 135 174 222 279 332 394
#
# _framework density 22.358626000000001
#
# number of rings (size 3 to 8) (size 9 to 14) (size 15 to 20)
#    0.000    1.000    1.250    6.000    3.500    3.000 
#    0.000    3.750    0.000    0.000    0.000    0.000 
#    0.000    0.000    0.000    0.000    0.000    0.000 
#
# Total GULP energy -198249.759686 kJ/mol
# GULP energy per Si atom -12390.609980 kJ/mol
# Density = 2.230774 g / cm^3
# Si number density = 22.358626 Si / 1000 Ang^3
#
#
#
# Elastic Constant Matrix: (Units=GPa)
#
#
# Indices 1 2 3 4 5 6 
#
# 1 121.9329 73.2333 49.2122 11.4095 14.2075 -8.0373
# 2 73.2333 149.5276 35.1717 -9.0847 1.5735 -10.7476
# 3 49.2122 35.1717 97.7960 8.6607 26.3745 4.0847
# 4 11.4095 -9.0847 8.6607 45.7954 5.6588 7.2125
# 5 14.2075 1.5735 26.3745 5.6588 32.6657 0.8168
# 6 -8.0373 -10.7476 4.0847 7.2125 0.8168 49.2013
#
#
#
# Elastic Compliance Matrix: (Units=1/GPa)
#
#
# Indices 1 2 3 4 5 6 
#
# 1 0.014289 -0.006089 -0.004223 -0.004051 -0.001860 0.001979
# 2 -0.006089 0.010329 -0.001794 0.003400 0.002989 0.000862
# 3 -0.004223 -0.001794 0.016081 -0.000662 -0.010893 -0.002139
# 4 -0.004051 0.003400 -0.000662 0.024432 -0.002014 -0.003412
# 5 -0.001860 0.002989 -0.010893 -0.002014 0.040400 0.000878
# 6 0.001979 0.000862 -0.002139 -0.003412 0.000878 0.021500
#
#
# Mechanical properties :
#
#
# Convention : Reuss Voigt Hill
#
# Bulk Modulus (GPa) = 60.65181 76.05456 68.35318
# Shear Modulus (GPa) = 31.90041 39.64176 35.77109
#
# Velocity S-wave (km/s) = 3.78135 4.21526 4.00419
# Velocity P-wave (km/s) = 6.80077 7.60137 7.21219
#
# Compressibility (1/GPa) = 0.01648755
#
# Stress axis : x y z
#
# Youngs Moduli (GPa) = 69.98362 96.81406 62.18493
#
# Poissons Ratio (x) = 0.58953 0.26260
# Poissons Ratio (y) = 0.42615 0.11154
# Poissons Ratio (z) = 0.29553 0.17366
#
# Static dielectric constant tensor:
#      x y z
#    x 4.338510 -0.286850 0.259910 
#    y -0.286850 5.118040 -0.422470 
#    z 0.259910 -0.422470 4.147910 
# 
# 
# High freq. dielectric constant tensor:
#      x y z
#    x 1.872620 -0.009600 0.020120 
#    y -0.009600 1.904980 -0.003790 
#    z 0.020120 -0.003790 1.872870 
# 
# From -- ./inp_files/226229.got.cif
#   From: 2010.06.25/outbox.cif.g09.slc.cpg/sg2_114_cif.got.tgz:226229.got - 2010.06.27 13:26:56.
