data_PCOD8026891
_publ_section_title
;
Structure prediction by ZEFSAII (Michael W. Deem and Ramdas Pophale) SiO2 
 PCOD8026891
Probable space group: P -1
;
_chemical_formula_sum "Si O2"
_cell_formula_units_Z 12
_cell_length_a 8.962405
_cell_length_b 7.915566
_cell_length_c 9.449851
_cell_angle_alpha 102.490670
_cell_angle_beta 52.233975
_cell_angle_gamma 89.545610
_cell_volume 508.785205
_symmetry_space_group_name_H-M "P -1"
_symmetry_group_IT_number 2
_symmetry_cell_setting 'triclinic'
loop_
_space_group_symop_operation_xyz
x,y,z
-x,-y,-z
loop_
_atom_site_type_symbol
_atom_site_label
_atom_site_fract_x
_atom_site_fract_y
_atom_site_fract_z
Si Si1 0.913070 0.536914 0.903721
Si Si2 0.186775 0.718774 0.476389
Si Si3 0.472320 0.237986 0.913824
Si Si4 0.848984 0.665118 0.494369
Si Si5 0.462956 0.844650 0.817770
Si Si6 0.129207 0.837375 0.820069
O O1 0.003049 0.365781 0.728993
O O2 0.998471 0.699584 0.826781
O O3 0.683314 0.595929 0.025811
O O4 0.000000 0.500000 0.000000
O O5 0.327998 0.758026 0.278104
O O6 0.231505 0.510351 0.447035
O O7 0.213845 0.854622 0.615120
O O8 0.963787 0.752350 0.563448
O O9 0.397563 0.055333 0.897551
O O10 0.504299 0.250016 0.066053
O O11 0.656533 0.805956 0.603558
O O12 0.298904 0.762787 0.817473
O O13 0.000000 0.000000 0.000000
#
# Coordination Sequence:
#
# PCOD8026891 Si02
#       6
#     2   2   2   2   2   2
#     4  11  26  44  69 100 136 174 226 273 334 393
#     4  10  24  43  70  94 137 176 227 270 330 395
#     4  11  25  44  68 101 133 179 222 272 334 399
#     4  10  24  44  66  97 134 179 220 276 329 397
#     4  11  25  43  69  99 138 173 222 275 334 395
#     4  11  24  45  67  97 140 175 218 278 332 392
#
# _framework density 23.585591000000001
#
# number of rings (size 3 to 8) (size 9 to 14) (size 15 to 20)
#    0.000    1.333    1.667    3.000    9.333    5.333 
#    0.000    0.000    0.000    0.000    0.000    0.000 
#    0.000    0.000    0.000    0.000    0.000    0.000 
#
# Total GULP energy -148671.548422 kJ/mol
# GULP energy per Si atom -12389.295702 kJ/mol
# Density = 2.353191 g / cm^3
# Si number density = 23.585591 Si / 1000 Ang^3
#
#
#
# Elastic Constant Matrix: (Units=GPa)
#
#
# Indices 1 2 3 4 5 6 
#
# 1 162.5114 20.9840 72.7308 20.5000 6.0575 -9.1536
# 2 20.9840 32.1583 33.2637 3.5105 4.5038 0.7756
# 3 72.7308 33.2637 153.6626 21.1499 1.9436 -7.0143
# 4 20.5000 3.5105 21.1499 33.4173 -0.9420 -0.4779
# 5 6.0575 4.5038 1.9436 -0.9420 38.9790 6.3935
# 6 -9.1536 0.7756 -7.0143 -0.4779 6.3935 36.3180
#
#
#
# Elastic Compliance Matrix: (Units=1/GPa)
#
#
# Indices 1 2 3 4 5 6 
#
# 1 0.008255 -0.001810 -0.003010 -0.002980 -0.001278 0.001724
# 2 -0.001810 0.041340 -0.008421 0.001961 -0.003651 -0.002297
# 3 -0.003010 -0.008421 0.010323 -0.003767 0.000629 0.001255
# 4 -0.002980 0.001961 -0.003767 0.033953 0.001463 -0.001331
# 5 -0.001278 -0.003651 0.000629 0.001463 0.027078 -0.004870
# 6 0.001724 -0.002297 0.001255 -0.001331 -0.004870 0.029100
#
#
# Mechanical properties :
#
#
# Convention : Reuss Voigt Hill
#
# Bulk Modulus (GPa) = 29.90792 66.92103 48.41447
# Shear Modulus (GPa) = 26.64139 36.49979 31.57059
#
# Velocity S-wave (km/s) = 3.36454 3.93815 3.66259
# Velocity P-wave (km/s) = 5.27273 7.00814 6.20144
#
# Compressibility (1/GPa) = 0.03343596
#
# Stress axis : x y z
#
# Youngs Moduli (GPa) = 121.13771 24.18948 96.86841
#
# Poissons Ratio (x) = 0.04378 0.29161
# Poissons Ratio (y) = 0.21925 0.81573
# Poissons Ratio (z) = 0.36468 0.20370
#
# Static dielectric constant tensor:
#      x y z
#    x 4.259650 0.215750 0.122970 
#    y 0.215750 4.114310 0.156680 
#    z 0.122970 0.156680 4.777580 
# 
# 
# High freq. dielectric constant tensor:
#      x y z
#    x 1.940970 0.011820 -0.001100 
#    y 0.011820 1.907650 0.010810 
#    z -0.001100 0.010810 1.950730 
# 
# From -- ./inp_files/155664.got.cif
#   From: 2010.06.25/outbox.cif.g09.slc.cpg/sg2_78_cif.got.tgz:155664.got - 2010.06.27 13:26:56.
