data_PCOD8026375
_publ_section_title
;
Structure prediction by ZEFSAII (Michael W. Deem and Ramdas Pophale) SiO2 
 PCOD8026375
Probable space group: P -1
;
_chemical_formula_sum "Si O2"
_cell_formula_units_Z 16
_cell_length_a 8.558193
_cell_length_b 9.188944
_cell_length_c 15.352255
_cell_angle_alpha 69.088527
_cell_angle_beta 141.028937
_cell_angle_gamma 101.560248
_cell_volume 703.164987
_symmetry_space_group_name_H-M "P -1"
_symmetry_group_IT_number 2
_symmetry_cell_setting 'triclinic'
loop_
_space_group_symop_operation_xyz
x,y,z
-x,-y,-z
loop_
_atom_site_type_symbol
_atom_site_label
_atom_site_fract_x
_atom_site_fract_y
_atom_site_fract_z
Si Si1 0.333295 0.543705 0.333787
Si Si2 0.921994 0.743638 0.749440
Si Si3 0.910768 0.816905 0.089805
Si Si4 0.475556 0.656579 0.012834
Si Si5 0.354897 0.434715 0.710140
Si Si6 0.815148 0.900478 0.840299
Si Si7 0.720480 0.959167 0.474347
Si Si8 0.990304 0.247976 0.502253
O O1 0.500000 0.500000 0.500000
O O2 0.499108 0.531314 0.321351
O O3 0.124193 0.428243 0.262888
O O4 0.180548 0.714986 0.241898
O O5 0.854940 0.761580 0.817851
O O6 0.732579 0.878941 0.591304
O O7 0.212387 0.760395 0.852672
O O8 0.699374 0.760089 0.071512
O O9 0.815402 0.810554 0.950960
O O10 0.955586 0.995417 0.091856
O O11 0.465201 0.617061 0.119729
O O12 0.500000 0.500000 0.000000
O O13 0.183757 0.592645 0.633665
O O14 0.191140 0.293453 0.649805
O O15 0.554396 0.012057 0.690936
O O16 0.882681 0.830450 0.512199
O O17 0.828711 0.122996 0.500455
#
# Coordination Sequence:
#
# PCOD8026375 Si02
#       8
#     2   2   2   2   2   2   2   2
#     4  12  26  46  75 101 142 181 230 289 345 410
#     4  12  26  43  71 105 135 181 237 281 344 413
#     4  11  27  47  71  99 141 184 228 280 356 404
#     4  12  27  45  73 100 144 180 232 288 341 410
#     4  11  25  44  71 103 135 182 235 280 343 408
#     4  11  26  47  71 101 140 183 229 288 344 413
#     4  11  24  44  70 101 142 177 228 284 351 401
#     4  10  24  41  70 101 139 174 229 282 343 408
#
# _framework density 22.754262000000001
#
# number of rings (size 3 to 8) (size 9 to 14) (size 15 to 20)
#    0.000    0.750    1.250    4.875   12.250    2.500 
#    0.000    0.000    0.000    0.000    0.000    0.000 
#    0.000    0.000    0.000    0.000    0.000    0.000 
#
# Total GULP energy -198468.390443 kJ/mol
# GULP energy per Si atom -12404.274403 kJ/mol
# Density = 2.270247 g / cm^3
# Si number density = 22.754262 Si / 1000 Ang^3
#
#
#
# Elastic Constant Matrix: (Units=GPa)
#
#
# Indices 1 2 3 4 5 6 
#
# 1 99.2928 19.2137 46.2342 7.3587 -4.7380 8.0384
# 2 19.2137 106.4728 19.1861 12.2863 -4.4164 7.8002
# 3 46.2342 19.1861 150.8196 -2.4417 -11.3949 -1.6442
# 4 7.3587 12.2863 -2.4417 28.6977 -2.2757 2.9840
# 5 -4.7380 -4.4164 -11.3949 -2.2757 44.9037 1.2255
# 6 8.0384 7.8002 -1.6442 2.9840 1.2255 32.5479
#
#
#
# Elastic Compliance Matrix: (Units=1/GPa)
#
#
# Indices 1 2 3 4 5 6 
#
# 1 0.012455 -0.001043 -0.003746 -0.002762 0.000197 -0.002770
# 2 -0.001043 0.010398 -0.001052 -0.004033 0.000494 -0.001936
# 3 -0.003746 -0.001052 0.008083 0.002089 0.001622 0.001333
# 4 -0.002762 -0.004033 0.002089 0.037787 0.001805 -0.001778
# 5 0.000197 0.000494 0.001622 0.001805 0.022873 -0.001112
# 6 -0.002770 -0.001936 0.001333 -0.001778 -0.001112 0.032144
#
#
# Mechanical properties :
#
#
# Convention : Reuss Voigt Hill
#
# Bulk Modulus (GPa) = 51.93390 58.42815 55.18103
# Shear Modulus (GPa) = 35.25108 39.35996 37.30552
#
# Velocity S-wave (km/s) = 3.94027 4.16358 4.05346
# Velocity P-wave (km/s) = 6.60108 6.98910 6.79786
#
# Compressibility (1/GPa) = 0.01925524
#
# Stress axis : x y z
#
# Youngs Moduli (GPa) = 80.28610 96.17623 123.71017
#
# Poissons Ratio (x) = 0.10030 0.46337
# Poissons Ratio (y) = 0.08373 0.13015
# Poissons Ratio (z) = 0.30072 0.10118
#
# Static dielectric constant tensor:
#      x y z
#    x 3.976660 0.037260 0.049910 
#    y 0.037260 4.198610 0.122000 
#    z 0.049910 0.122000 4.197800 
# 
# 
# High freq. dielectric constant tensor:
#      x y z
#    x 1.896020 -0.000610 0.001250 
#    y -0.000610 1.908340 0.006940 
#    z 0.001250 0.006940 1.908930 
# 
# From -- ./inp_files/494756.got.cif
#   From: 2010.06.25/outbox.cif.g09.slc.cpg/sg2_248_cif.got.tgz:494756.got - 2010.06.27 13:26:56.
