data_PCOD8026053
_publ_section_title
;
Structure prediction by ZEFSAII (Michael W. Deem and Ramdas Pophale) SiO2 
 PCOD8026053
Probable space group: P -1
;
_chemical_formula_sum "Si O2"
_cell_formula_units_Z 14
_cell_length_a 21.889103
_cell_length_b 15.414045
_cell_length_c 12.404876
_cell_angle_alpha 30.155602
_cell_angle_beta 160.104344
_cell_angle_gamma 152.573371
_cell_volume 643.901770
_symmetry_space_group_name_H-M "P -1"
_symmetry_group_IT_number 2
_symmetry_cell_setting 'triclinic'
loop_
_space_group_symop_operation_xyz
x,y,z
-x,-y,-z
loop_
_atom_site_type_symbol
_atom_site_label
_atom_site_fract_x
_atom_site_fract_y
_atom_site_fract_z
Si Si1 0.462341 0.410373 0.649487
Si Si2 0.262404 0.193104 0.246878
Si Si3 0.557198 0.085697 0.226514
Si Si4 0.866644 0.223285 0.166648
Si Si5 0.928677 0.637884 0.855114
Si Si6 0.015332 0.051061 0.785536
Si Si7 0.285550 0.887167 0.317805
O O1 0.500000 0.500000 0.500000
O O2 0.570620 0.588939 0.718510
O O3 0.228052 0.300972 0.411093
O O4 0.557534 0.259638 0.969562
O O5 0.345145 0.032294 0.548382
O O6 0.151492 0.151466 0.224894
O O7 0.114615 0.178021 0.919790
O O8 0.680804 0.185343 0.431961
O O9 0.332289 0.938974 0.041074
O O10 0.918314 0.155626 0.437830
O O11 0.036371 0.273307 0.302838
O O12 0.831615 0.409013 0.934764
O O13 0.138123 0.711419 0.188317
O O14 0.181185 0.028107 0.012030
O O15 0.500000 0.000000 0.500000
#
# Coordination Sequence:
#
# PCOD8026053 Si02
#       7
#     2   2   2   2   2   2   2
#     4  12  26  42  70 100 132 174 223 266 332 392
#     4  10  23  48  62 102 134 171 223 273 317 405
#     4  11  24  42  71  96 132 179 215 269 335 381
#     4  11  23  42  66  97 132 180 213 274 335 380
#     4  11  25  42  64 101 136 167 226 272 322 401
#     4  10  24  42  70  90 136 176 215 272 341 372
#     4  11  23  43  65  97 130 170 223 273 323 396
#
# _framework density 21.742446999999999
#
# number of rings (size 3 to 8) (size 9 to 14) (size 15 to 20)
#    0.000    1.143    2.857    2.571    6.000    2.286 
#    0.000    4.286    0.000    0.000    0.000    0.000 
#    0.000    0.000    0.000    0.000    0.000    0.000 
#
# Total GULP energy -173602.500042 kJ/mol
# GULP energy per Si atom -12400.178574 kJ/mol
# Density = 2.169296 g / cm^3
# Si number density = 21.742447 Si / 1000 Ang^3
#
#
#
# Elastic Constant Matrix: (Units=GPa)
#
#
# Indices 1 2 3 4 5 6 
#
# 1 88.7950 19.3818 29.6762 3.0743 -2.1474 3.9178
# 2 19.3818 104.3777 40.0677 4.4834 -10.0216 -0.4612
# 3 29.6762 40.0677 101.8020 4.2089 -9.9040 2.6274
# 4 3.0743 4.4834 4.2089 28.6361 3.2806 6.6068
# 5 -2.1474 -10.0216 -9.9040 3.2806 44.8036 2.9366
# 6 3.9178 -0.4612 2.6274 6.6068 2.9366 25.2408
#
#
#
# Elastic Compliance Matrix: (Units=1/GPa)
#
#
# Indices 1 2 3 4 5 6 
#
# 1 0.012656 -0.001132 -0.003213 -0.000328 -0.000232 -0.001538
# 2 -0.001132 0.011566 -0.004021 -0.001525 0.001690 0.001008
# 3 -0.003213 -0.004021 0.012581 -0.000886 0.001849 -0.000867
# 4 -0.000328 -0.001525 -0.000886 0.037819 -0.002701 -0.009470
# 5 -0.000232 0.001690 0.001849 -0.002701 0.023434 -0.002145
# 6 -0.001538 0.001008 -0.000867 -0.009470 -0.002145 0.042694
#
#
# Mechanical properties :
#
#
# Convention : Reuss Voigt Hill
#
# Bulk Modulus (GPa) = 49.82070 52.58067 51.20069
# Shear Modulus (GPa) = 30.45547 33.45939 31.95743
#
# Velocity S-wave (km/s) = 3.74670 3.92713 3.83798
# Velocity P-wave (km/s) = 6.45607 6.69321 6.57571
#
# Compressibility (1/GPa) = 0.02007198
#
# Stress axis : x y z
#
# Youngs Moduli (GPa) = 79.01108 86.45681 79.48285
#
# Poissons Ratio (x) = 0.09784 0.25541
# Poissons Ratio (y) = 0.08941 0.31961
# Poissons Ratio (z) = 0.25390 0.34765
#
# Static dielectric constant tensor:
#      x y z
#    x 3.915090 -0.057270 -0.031010 
#    y -0.057270 4.174890 0.316260 
#    z -0.031010 0.316260 3.961280 
# 
# 
# High freq. dielectric constant tensor:
#      x y z
#    x 1.862570 -0.004180 -0.002900 
#    y -0.004180 1.853110 0.017240 
#    z -0.002900 0.017240 1.852910 
# 
# From -- ./inp_files/182805.got.cif
#   From: 2010.06.25/outbox.cif.g09.slc.cpg/sg2_92_cif.got.tgz:182805.got - 2010.06.27 13:26:56.
