data_PCOD8026176
_publ_section_title
;
Structure prediction by ZEFSAII (Michael W. Deem and Ramdas Pophale) SiO2 
 PCOD8026176
Probable space group: P -1
;
_chemical_formula_sum "Si O2"
_cell_formula_units_Z 16
_cell_length_a 5.113668
_cell_length_b 8.752828
_cell_length_c 17.721630
_cell_angle_alpha 87.542805
_cell_angle_beta 112.885663
_cell_angle_gamma 103.421530
_cell_volume 709.811705
_symmetry_space_group_name_H-M "P -1"
_symmetry_group_IT_number 2
_symmetry_cell_setting 'triclinic'
loop_
_space_group_symop_operation_xyz
x,y,z
-x,-y,-z
loop_
_atom_site_type_symbol
_atom_site_label
_atom_site_fract_x
_atom_site_fract_y
_atom_site_fract_z
Si Si1 0.966834 0.227223 0.025902
Si Si2 0.279101 0.989428 0.122050
Si Si3 0.503076 0.031417 0.303692
Si Si4 0.789799 0.385518 0.283122
Si Si5 0.892038 0.024562 0.594903
Si Si6 0.526865 0.513518 0.622850
Si Si7 0.401617 0.693428 0.896596
Si Si8 0.474379 0.745400 0.484399
O O1 0.821941 0.340587 0.058390
O O2 0.287526 0.334227 0.039314
O O3 0.774906 0.169087 0.931038
O O4 0.002765 0.071081 0.080017
O O5 0.326811 0.941055 0.214327
O O6 0.563981 0.121083 0.124408
O O7 0.269093 0.024776 0.342943
O O8 0.759954 0.948058 0.358886
O O9 0.636120 0.211611 0.295569
O O10 0.664015 0.501978 0.321479
O O11 0.710210 0.414035 0.186699
O O12 0.134657 0.410732 0.325735
O O13 0.811779 0.183142 0.552924
O O14 0.768605 0.882835 0.525072
O O15 0.406572 0.622832 0.548007
O O16 0.487164 0.339854 0.587937
#
# Coordination Sequence:
#
# PCOD8026176 Si02
#       8
#     2   2   2   2   2   2   2   2
#     4   9  16  26  42  70 106 143 171 203 258 310
#     4   8  19  25  46  68 107 143 170 208 255 317
#     4  11  21  34  54  77 112 146 176 213 271 324
#     4  11  20  34  53  81 110 139 177 217 269 322
#     4  11  24  39  55  79 106 144 182 216 273 321
#     4  11  23  38  57  80 104 140 182 225 274 306
#     4   9  17  26  44  68 105 140 165 209 256 315
#     4  10  24  40  59  77 106 139 182 231 265 321
#
# _framework density 22.541187999999998
#
# number of rings (size 3 to 8) (size 9 to 14) (size 15 to 20)
#    0.750    1.250    2.500    1.125    3.500    7.000 
#    0.000    0.000    0.000    0.000    0.000    0.000 
#    0.000   20.000    0.000    0.000    0.000    0.000 
#
# Total GULP energy -198345.150101 kJ/mol
# GULP energy per Si atom -12396.571881 kJ/mol
# Density = 2.248988 g / cm^3
# Si number density = 22.541188 Si / 1000 Ang^3
#
#
#
# Elastic Constant Matrix: (Units=GPa)
#
#
# Indices 1 2 3 4 5 6 
#
# 1 91.9624 0.5356 39.3645 11.7119 -14.4104 -19.4732
# 2 0.5356 49.9116 25.6139 15.4109 1.0122 -14.1605
# 3 39.3645 25.6139 161.7307 29.2091 4.1344 -18.9625
# 4 11.7119 15.4109 29.2091 17.5798 -10.9916 -7.5875
# 5 -14.4104 1.0122 4.1344 -10.9916 28.8808 6.4484
# 6 -19.4732 -14.1605 -18.9625 -7.5875 6.4484 19.0139
#
#
#
# Elastic Compliance Matrix: (Units=1/GPa)
#
#
# Indices 1 2 3 4 5 6 
#
# 1 0.016494 0.006974 -0.002587 -0.003416 0.003251 0.017040
# 2 0.006974 0.044375 0.006184 -0.057093 -0.028080 0.033098
# 3 -0.002587 0.006184 0.013284 -0.033590 -0.017955 0.007889
# 4 -0.003416 -0.057093 -0.033590 0.210628 0.091158 -0.026381
# 5 0.003251 -0.028080 -0.017955 0.091158 0.080383 -0.026374
# 6 0.017040 0.033098 0.007889 -0.026381 -0.026374 0.100979
#
#
# Mechanical properties :
#
#
# Convention : Reuss Voigt Hill
#
# Bulk Modulus (GPa) = 10.49381 48.29252 29.39317
# Shear Modulus (GPa) = 10.48734 28.96761 19.72748
#
# Velocity S-wave (km/s) = 2.15931 3.58871 2.96154
# Velocity P-wave (km/s) = 3.29884 6.21631 4.97618
#
# Compressibility (1/GPa) = 0.09529426
#
# Stress axis : x y z
#
# Youngs Moduli (GPa) = 60.62976 22.53535 75.27937
#
# Poissons Ratio (x) = -0.15716 0.19477
# Poissons Ratio (y) = -0.42283 -0.46556
# Poissons Ratio (z) = 0.15686 -0.13937
#
# Static dielectric constant tensor:
#      x y z
#    x 3.834760 -0.163020 0.026150 
#    y -0.163020 3.530100 0.196580 
#    z 0.026150 0.196580 4.279160 
# 
# 
# High freq. dielectric constant tensor:
#      x y z
#    x 1.884190 -0.012590 -0.000470 
#    y -0.012590 1.837630 0.016330 
#    z -0.000470 0.016330 1.900210 
# 
# From -- ./inp_files/548233.got.cif
#   From: 2010.06.25/outbox.cif.g09.slc.cpg/sg2_275_cif.got.tgz:548233.got - 2010.06.27 13:26:56.
