data_PCOD8026915
_publ_section_title
;
Structure prediction by ZEFSAII (Michael W. Deem and Ramdas Pophale) SiO2 
 PCOD8026915
Probable space group: P -1
;
_chemical_formula_sum "Si O2"
_cell_formula_units_Z 16
_cell_length_a 17.210220
_cell_length_b 11.109670
_cell_length_c 19.474580
_cell_angle_alpha 147.543992
_cell_angle_beta 157.784244
_cell_angle_gamma 32.650139
_cell_volume 720.792423
_symmetry_space_group_name_H-M "P -1"
_symmetry_group_IT_number 2
_symmetry_cell_setting 'triclinic'
loop_
_space_group_symop_operation_xyz
x,y,z
-x,-y,-z
loop_
_atom_site_type_symbol
_atom_site_label
_atom_site_fract_x
_atom_site_fract_y
_atom_site_fract_z
Si Si1 0.344205 0.081255 0.975808
Si Si2 0.082881 0.975118 0.454930
Si Si3 0.777412 0.021987 0.576209
Si Si4 0.495618 0.714147 0.182864
Si Si5 0.127963 0.732214 0.990854
Si Si6 0.142392 0.605640 0.437532
Si Si7 0.378369 0.578234 0.256625
Si Si8 0.276082 0.801956 0.908638
O O1 0.108146 0.116053 0.772076
O O2 0.400064 0.894851 0.994087
O O3 0.351827 0.326487 0.129870
O O4 0.500000 0.000000 0.000000
O O5 0.240507 0.967540 0.516355
O O6 0.196756 0.791469 0.518604
O O7 0.999052 0.243403 0.543665
O O8 0.677433 0.279475 0.649728
O O9 0.626707 0.866230 0.402475
O O10 0.020268 0.912681 0.748310
O O11 0.333104 0.644722 0.067684
O O12 0.671201 0.477886 0.187489
O O13 0.360806 0.862891 0.080511
O O14 0.211117 0.714305 0.127898
O O15 0.979229 0.563473 0.777161
O O16 0.000000 0.000000 0.000000
O O17 0.376283 0.448373 0.579795
#
# Coordination Sequence:
#
# PCOD8026915 Si02
#       8
#     2   2   2   2   2   2   2   2
#     4  11  21  44  71 102 136 180 237 279 346 407
#     4  10  24  43  71 104 140 173 230 297 335 410
#     4  11  26  45  66 106 140 180 228 286 351 405
#     4  11  25  44  70  98 138 190 226 278 348 410
#     4  12  27  47  69 100 142 183 235 282 342 418
#     4  11  25  44  73 104 134 182 236 284 342 407
#     4  12  26  45  73 101 140 187 224 290 348 412
#     4  10  25  42  68 102 138 181 229 290 335 412
#
# _framework density 22.197792
#
# number of rings (size 3 to 8) (size 9 to 14) (size 15 to 20)
#    0.000    1.000    2.500    2.625    7.000    5.500 
#    2.250    0.000    0.000    0.000    0.000    0.000 
#    0.000    0.000    0.000    0.000    0.000    0.000 
#
# Total GULP energy -198457.416962 kJ/mol
# GULP energy per Si atom -12403.588560 kJ/mol
# Density = 2.214727 g / cm^3
# Si number density = 22.197792 Si / 1000 Ang^3
#
#
#
# Elastic Constant Matrix: (Units=GPa)
#
#
# Indices 1 2 3 4 5 6 
#
# 1 92.9647 36.2802 28.4962 4.5402 -14.8141 2.6839
# 2 36.2802 120.7093 52.4651 11.0158 -10.9409 -10.3768
# 3 28.4962 52.4651 96.2748 5.7006 -1.2703 -3.0812
# 4 4.5402 11.0158 5.7006 29.3553 -4.5345 -6.4632
# 5 -14.8141 -10.9409 -1.2703 -4.5345 30.2931 4.1822
# 6 2.6839 -10.3768 -3.0812 -6.4632 4.1822 37.0494
#
#
#
# Elastic Compliance Matrix: (Units=1/GPa)
#
#
# Indices 1 2 3 4 5 6 
#
# 1 0.013610 -0.002634 -0.002583 -0.000285 0.005920 -0.002657
# 2 -0.002634 0.012113 -0.005585 -0.002167 0.002184 0.002494
# 3 -0.002583 -0.005585 0.014199 -0.000693 -0.002788 -0.000002
# 4 -0.000285 -0.002167 -0.000693 0.036826 0.003822 0.005349
# 5 0.005920 0.002184 -0.002788 0.003822 0.037652 -0.003632
# 6 -0.002657 0.002494 -0.000002 0.005349 -0.003632 0.029225
#
#
# Mechanical properties :
#
#
# Convention : Reuss Voigt Hill
#
# Bulk Modulus (GPa) = 54.58610 60.49242 57.53926
# Shear Modulus (GPa) = 29.18255 32.18671 30.68463
#
# Velocity S-wave (km/s) = 3.62976 3.81201 3.72200
# Velocity P-wave (km/s) = 6.49700 6.83271 6.66697
#
# Compressibility (1/GPa) = 0.01831968
#
# Stress axis : x y z
#
# Youngs Moduli (GPa) = 73.47272 82.55281 70.42666
#
# Poissons Ratio (x) = 0.21741 0.18194
# Poissons Ratio (y) = 0.19350 0.39331
# Poissons Ratio (z) = 0.18981 0.46104
#
# Static dielectric constant tensor:
#      x y z
#    x 3.848180 -0.016640 -0.144370 
#    y -0.016640 3.919750 -0.086050 
#    z -0.144370 -0.086050 4.060570 
# 
# 
# High freq. dielectric constant tensor:
#      x y z
#    x 1.870610 0.000160 -0.004430 
#    y 0.000160 1.874080 -0.001520 
#    z -0.004430 -0.001520 1.889810 
# 
# From -- ./inp_files/402914.got.cif
#   From: 2010.06.25/outbox.cif.g09.slc.cpg/sg2_202_cif.got.tgz:402914.got - 2010.06.27 13:26:56.
