data_PCOD8026625
_publ_section_title
;
Structure prediction by ZEFSAII (Michael W. Deem and Ramdas Pophale) SiO2 
 PCOD8026625
Probable space group: P -1
;
_chemical_formula_sum "Si O2"
_cell_formula_units_Z 16
_cell_length_a 21.678353
_cell_length_b 11.150818
_cell_length_c 8.088430
_cell_angle_alpha 126.239672
_cell_angle_beta 43.680066
_cell_angle_gamma 148.251079
_cell_volume 709.017702
_symmetry_space_group_name_H-M "P -1"
_symmetry_group_IT_number 2
_symmetry_cell_setting 'triclinic'
loop_
_space_group_symop_operation_xyz
x,y,z
-x,-y,-z
loop_
_atom_site_type_symbol
_atom_site_label
_atom_site_fract_x
_atom_site_fract_y
_atom_site_fract_z
Si Si1 0.456840 0.116878 0.665136
Si Si2 0.782642 0.299307 0.750648
Si Si3 0.163359 0.862747 0.011787
Si Si4 0.319579 0.411280 0.524754
Si Si5 0.161605 0.195192 0.330812
Si Si6 0.302302 0.490351 0.974819
Si Si7 0.003393 0.546142 0.775517
Si Si8 0.423156 0.210797 0.150346
O O1 0.546307 0.312747 0.511428
O O2 0.500000 0.000000 0.500000
O O3 0.296080 0.926246 0.773407
O O4 0.489369 0.246537 0.876866
O O5 0.854143 0.329824 0.473456
O O6 0.904855 0.506853 0.806473
O O7 0.690509 0.053900 0.803571
O O8 0.689227 0.321794 0.909381
O O9 0.050087 0.716976 0.967470
O O10 0.083528 0.705075 0.199027
O O11 0.215037 0.094172 0.128173
O O12 0.223810 0.341563 0.499459
O O13 0.249394 0.347255 0.789392
O O14 0.353181 0.281528 0.331533
O O15 0.205127 0.334142 0.192163
O O16 0.000000 0.000000 0.500000
O O17 0.456364 0.627496 0.817563
#
# Coordination Sequence:
#
# PCOD8026625 Si02
#       8
#     2   2   2   2   2   2   2   2
#     4  12  25  43  75 105 140 187 237 295 359 416
#     4  11  24  45  67 106 138 185 234 293 347 425
#     4  11  24  45  70 104 136 192 235 290 358 418
#     4  12  27  48  74 104 144 183 240 296 353 426
#     4  12  27  48  74 104 146 189 236 291 358 425
#     4  12  28  44  73 108 141 183 241 293 354 422
#     4  10  24  42  71  95 146 179 238 283 353 421
#     4  12  24  48  72 101 146 188 236 296 360 412
#
# _framework density 22.566433
#
# number of rings (size 3 to 8) (size 9 to 14) (size 15 to 20)
#    0.000    0.500    3.750    3.375    7.000    2.500 
#    0.000    0.000    0.000    0.000    0.000    0.000 
#    0.000    0.000    0.000    0.000    0.000    0.000 
#
# Total GULP energy -198426.552413 kJ/mol
# GULP energy per Si atom -12401.659526 kJ/mol
# Density = 2.251507 g / cm^3
# Si number density = 22.566433 Si / 1000 Ang^3
#
#
#
# Elastic Constant Matrix: (Units=GPa)
#
#
# Indices 1 2 3 4 5 6 
#
# 1 104.6305 36.0831 49.5849 -1.2642 13.1148 0.8619
# 2 36.0831 67.7596 14.2605 -1.8424 5.5930 6.2976
# 3 49.5849 14.2605 76.4040 -9.7857 13.2147 9.3209
# 4 -1.2642 -1.8424 -9.7857 33.1784 1.2220 -7.6501
# 5 13.1148 5.5930 13.2147 1.2220 46.8560 5.2306
# 6 0.8619 6.2976 9.3209 -7.6501 5.2306 28.4262
#
#
#
# Elastic Compliance Matrix: (Units=1/GPa)
#
#
# Indices 1 2 3 4 5 6 
#
# 1 0.016994 -0.007230 -0.010164 -0.001725 -0.001453 0.004223
# 2 -0.007230 0.018660 0.001823 0.000295 -0.000236 -0.004390
# 3 -0.010164 0.001823 0.021093 0.004847 -0.002870 -0.005180
# 4 -0.001725 0.000295 0.004847 0.033437 -0.002672 0.007888
# 5 -0.001453 -0.000236 -0.002870 -0.002672 0.023095 -0.003931
# 6 0.004223 -0.004390 -0.005180 0.007888 -0.003931 0.040568
#
#
# Mechanical properties :
#
#
# Convention : Reuss Voigt Hill
#
# Bulk Modulus (GPa) = 39.05328 49.85014 44.45171
# Shear Modulus (GPa) = 25.83654 31.61649 28.72652
#
# Velocity S-wave (km/s) = 3.38732 3.74711 3.57175
# Velocity P-wave (km/s) = 5.71333 6.39214 6.06224
#
# Compressibility (1/GPa) = 0.02560604
#
# Stress axis : x y z
#
# Youngs Moduli (GPa) = 58.84375 53.59103 47.40829
#
# Poissons Ratio (x) = 0.38746 0.48186
# Poissons Ratio (y) = 0.42544 -0.08644
# Poissons Ratio (z) = 0.59810 -0.09772
#
# Static dielectric constant tensor:
#      x y z
#    x 4.288780 0.048570 0.226600 
#    y 0.048570 3.960800 -0.058900 
#    z 0.226600 -0.058900 4.062750 
# 
# 
# High freq. dielectric constant tensor:
#      x y z
#    x 1.904860 0.003490 0.008100 
#    y 0.003490 1.889930 -0.006050 
#    z 0.008100 -0.006050 1.889720 
# 
# From -- ./inp_files/353660.got.cif
#   From: 2010.06.25/outbox.cif.g09.slc.cpg/sg2_177_cif.got.tgz:353660.got - 2010.06.27 13:26:56.
