data_PCOD8026696
_publ_section_title
;
Structure prediction by ZEFSAII (Michael W. Deem and Ramdas Pophale) SiO2 
 PCOD8026696
Probable space group: P -1
;
_chemical_formula_sum "Si O2"
_cell_formula_units_Z 16
_cell_length_a 9.127358
_cell_length_b 6.680859
_cell_length_c 16.793470
_cell_angle_alpha 81.772562
_cell_angle_beta 116.039105
_cell_angle_gamma 124.268968
_cell_volume 752.863836
_symmetry_space_group_name_H-M "P -1"
_symmetry_group_IT_number 2
_symmetry_cell_setting 'triclinic'
loop_
_space_group_symop_operation_xyz
x,y,z
-x,-y,-z
loop_
_atom_site_type_symbol
_atom_site_label
_atom_site_fract_x
_atom_site_fract_y
_atom_site_fract_z
Si Si1 0.628217 0.393254 0.025177
Si Si2 0.298052 0.359037 0.413531
Si Si3 0.352756 0.856413 0.694237
Si Si4 0.437575 0.927032 0.115060
Si Si5 0.942889 0.400472 0.635530
Si Si6 0.735452 0.919122 0.721121
Si Si7 0.135283 0.921519 0.501684
Si Si8 0.949540 0.133673 0.916647
O O1 0.860231 0.600514 0.075707
O O2 0.565883 0.190066 0.088511
O O3 0.500000 0.500000 0.000000
O O4 0.575531 0.278302 0.931099
O O5 0.500000 0.500000 0.500000
O O6 0.169940 0.462692 0.401338
O O7 0.291283 0.313458 0.319268
O O8 0.227176 0.090025 0.437954
O O9 0.513937 0.819801 0.698278
O O10 0.288259 0.966744 0.603911
O O11 0.169559 0.601744 0.701155
O O12 0.449153 0.052708 0.777797
O O13 0.215596 0.838780 0.086352
O O14 0.958083 0.338430 0.550029
O O15 0.839369 0.179735 0.685579
O O16 0.867727 0.966257 0.827452
O O17 0.000000 0.000000 0.500000
O O18 0.000000 0.000000 0.000000
#
# Coordination Sequence:
#
# PCOD8026696 Si02
#       8
#     2   2   2   2   2   2   2   2
#     4  11  22  43  67  92 128 167 208 262 318 379
#     4  11  23  41  65  92 126 168 205 260 317 364
#     4  11  22  43  65  91 127 163 211 259 307 375
#     4  10  24  43  64  97 125 166 212 259 320 375
#     4  11  23  43  64  89 129 168 205 258 314 364
#     4  10  25  43  62  96 126 161 216 255 308 382
#     4  11  23  40  61  93 124 163 212 253 308 371
#     4  11  22  45  66  93 131 166 209 265 318 375
#
# _framework density 21.252184
#
# number of rings (size 3 to 8) (size 9 to 14) (size 15 to 20)
#    0.000    1.250    2.500    3.000    1.750    3.000 
#   11.250    0.000    0.000    0.000    0.000    0.000 
#    0.000    0.000    0.000    0.000    0.000    0.000 
#
# Total GULP energy -198253.986471 kJ/mol
# GULP energy per Si atom -12390.874154 kJ/mol
# Density = 2.120381 g / cm^3
# Si number density = 21.252184 Si / 1000 Ang^3
#
#
#
# Elastic Constant Matrix: (Units=GPa)
#
#
# Indices 1 2 3 4 5 6 
#
# 1 148.7627 62.8698 72.4878 34.4123 0.9771 -2.6134
# 2 62.8698 73.3670 40.6553 18.7257 4.6858 -3.1536
# 3 72.4878 40.6553 162.4498 22.5523 0.7782 -23.5135
# 4 34.4123 18.7257 22.5523 33.1420 -1.1560 -7.6475
# 5 0.9771 4.6858 0.7782 -1.1560 34.8009 11.8281
# 6 -2.6134 -3.1536 -23.5135 -7.6475 11.8281 45.8617
#
#
#
# Elastic Compliance Matrix: (Units=1/GPa)
#
#
# Indices 1 2 3 4 5 6 
#
# 1 0.013485 -0.007879 -0.003427 -0.007915 0.001605 -0.003264
# 2 -0.007879 0.022293 -0.001503 -0.003375 -0.003041 0.000535
# 3 -0.003427 -0.001503 0.008800 -0.000596 -0.001443 0.004486
# 4 -0.007915 -0.003375 -0.000596 0.042095 0.000042 0.006020
# 5 0.001605 -0.003041 -0.001443 0.000042 0.032249 -0.009167
# 6 -0.003264 0.000535 0.004486 0.006020 -0.009167 0.027323
#
#
# Mechanical properties :
#
#
# Convention : Reuss Voigt Hill
#
# Bulk Modulus (GPa) = 52.74079 81.84502 67.29291
# Shear Modulus (GPa) = 28.06111 36.66537 32.36324
#
# Velocity S-wave (km/s) = 3.63766 4.15812 3.90657
# Velocity P-wave (km/s) = 6.52027 7.85164 7.21672
#
# Compressibility (1/GPa) = 0.01896066
#
# Stress axis : x y z
#
# Youngs Moduli (GPa) = 74.15764 44.85640 113.63875
#
# Poissons Ratio (x) = 0.35343 0.38939
# Poissons Ratio (y) = 0.58431 0.17078
# Poissons Ratio (z) = 0.25411 0.06741
#
# Static dielectric constant tensor:
#      x y z
#    x 4.033440 0.227960 -0.256330 
#    y 0.227960 3.791740 0.074160 
#    z -0.256330 0.074160 4.164630 
# 
# 
# High freq. dielectric constant tensor:
#      x y z
#    x 1.845820 0.007520 -0.012250 
#    y 0.007520 1.835810 0.010390 
#    z -0.012250 0.010390 1.845700 
# 
# From -- ./inp_files/47564.got.cif
#   From: 2010.06.25/outbox.cif.g09.slc.cpg/sg2_24_cif.got.tgz:47564.got - 2010.06.27 13:26:56.
