data_PCOD8026586
_publ_section_title
;
Structure prediction by ZEFSAII (Michael W. Deem and Ramdas Pophale) SiO2 
 PCOD8026586
Probable space group: P -1
;
_chemical_formula_sum "Si O2"
_cell_formula_units_Z 16
_cell_length_a 26.308850
_cell_length_b 5.249744
_cell_length_c 11.253509
_cell_angle_alpha 120.432674
_cell_angle_beta 33.844980
_cell_angle_gamma 122.542384
_cell_volume 723.803407
_symmetry_space_group_name_H-M "P -1"
_symmetry_group_IT_number 2
_symmetry_cell_setting 'triclinic'
loop_
_space_group_symop_operation_xyz
x,y,z
-x,-y,-z
loop_
_atom_site_type_symbol
_atom_site_label
_atom_site_fract_x
_atom_site_fract_y
_atom_site_fract_z
Si Si1 0.010122 0.793465 0.197893
Si Si2 0.439139 0.177046 0.086717
Si Si3 0.412845 0.725920 0.823758
Si Si4 0.944886 0.500949 0.727749
Si Si5 0.269168 0.622796 0.863755
Si Si6 0.847100 0.492058 0.289643
Si Si7 0.737325 0.850782 0.423066
Si Si8 0.419479 0.107283 0.613816
O O1 0.902779 0.678911 0.336017
O O2 0.012416 0.701895 0.310246
O O3 0.043598 0.146581 0.179642
O O4 0.080336 0.628375 0.959155
O O5 0.361097 0.243786 0.341083
O O6 0.500000 0.500000 0.000000
O O7 0.500000 0.000000 0.000000
O O8 0.392465 0.953506 0.017017
O O9 0.341418 0.737143 0.857565
O O10 0.390557 0.367902 0.813281
O O11 0.526184 0.791577 0.592029
O O12 0.000000 0.500000 0.500000
O O13 0.833770 0.344056 0.892767
O O14 0.267764 0.292348 0.733868
O O15 0.320506 0.863348 0.719251
O O16 0.809310 0.722342 0.333915
O O17 0.768144 0.215293 0.433215
O O18 0.500000 0.000000 0.500000
#
# Coordination Sequence:
#
# PCOD8026586 Si02
#       8
#     2   2   2   2   2   2   2   2
#     4  11  23  46  70 100 142 178 236 289 356 411
#     4  12  29  48  69 103 148 183 230 294 355 417
#     4  10  24  42  69  99 136 181 230 281 360 408
#     4  12  26  45  68 105 142 185 230 293 355 416
#     4  11  24  40  71  96 139 175 238 282 345 420
#     4  11  23  44  74  98 135 186 237 293 340 421
#     4  12  25  44  71 106 136 186 243 289 348 419
#     4   9  21  41  69  96 130 177 230 278 344 413
#
# _framework density 22.105450999999999
#
# number of rings (size 3 to 8) (size 9 to 14) (size 15 to 20)
#    0.000    1.000    2.500    2.625   12.250    4.000 
#    2.250    0.000    0.000    0.000    0.000    0.000 
#    0.000    0.000    0.000    0.000    0.000    0.000 
#
# Total GULP energy -198258.509176 kJ/mol
# GULP energy per Si atom -12391.156824 kJ/mol
# Density = 2.205514 g / cm^3
# Si number density = 22.105451 Si / 1000 Ang^3
#
#
#
# Elastic Constant Matrix: (Units=GPa)
#
#
# Indices 1 2 3 4 5 6 
#
# 1 100.9428 29.8499 22.7610 -2.4973 2.8760 8.6757
# 2 29.8499 106.5269 11.2999 -17.7698 -7.2593 -0.3585
# 3 22.7610 11.2999 96.7610 -12.1577 2.4821 19.4291
# 4 -2.4973 -17.7698 -12.1577 43.0949 -1.1807 -3.1057
# 5 2.8760 -7.2593 2.4821 -1.1807 24.1251 0.0271
# 6 8.6757 -0.3585 19.4291 -3.1057 0.0271 39.4737
#
#
#
# Elastic Compliance Matrix: (Units=1/GPa)
#
#
# Indices 1 2 3 4 5 6 
#
# 1 0.011568 -0.003430 -0.002123 -0.001524 -0.002266 -0.001647
# 2 -0.003430 0.011442 -0.000329 0.004639 0.004111 0.001382
# 3 -0.002123 -0.000329 0.012331 0.002805 -0.000971 -0.005384
# 4 -0.001524 0.004639 0.002805 0.025965 0.002558 0.001037
# 5 -0.002266 0.004111 -0.000971 0.002558 0.043182 0.001185
# 6 -0.001647 0.001382 -0.005384 0.001037 0.001185 0.028439
#
#
# Mechanical properties :
#
#
# Convention : Reuss Voigt Hill
#
# Bulk Modulus (GPa) = 42.41738 48.00581 45.21159
# Shear Modulus (GPa) = 32.77577 37.36007 35.06792
#
# Velocity S-wave (km/s) = 3.85476 4.11552 3.98728
# Velocity P-wave (km/s) = 6.24841 6.65937 6.45716
#
# Compressibility (1/GPa) = 0.02357524
#
# Stress axis : x y z
#
# Youngs Moduli (GPa) = 86.44423 87.39691 81.09497
#
# Poissons Ratio (x) = 0.29981 0.17218
# Poissons Ratio (y) = 0.29654 0.02672
# Poissons Ratio (z) = 0.18354 0.02879
#
# Static dielectric constant tensor:
#      x y z
#    x 4.125870 -0.159490 0.161320 
#    y -0.159490 4.556220 -0.982660 
#    z 0.161320 -0.982660 2.851590 
# 
# 
# High freq. dielectric constant tensor:
#      x y z
#    x 1.869390 -0.005870 -0.009050 
#    y -0.005870 1.888790 -0.007860 
#    z -0.009050 -0.007860 1.861560 
# 
# From -- ./inp_files/476041.got.cif
#   From: 2010.06.25/outbox.cif.g09.slc.cpg/sg2_239_cif.got.tgz:476041.got - 2010.06.27 13:26:56.
