data_PCOD8026971
_publ_section_title
;
Structure prediction by ZEFSAII (Michael W. Deem and Ramdas Pophale) SiO2 
 PCOD8026971
Probable space group: P -1
;
_chemical_formula_sum "Si O2"
_cell_formula_units_Z 16
_cell_length_a 18.272369
_cell_length_b 11.468917
_cell_length_c 8.335340
_cell_angle_alpha 123.904584
_cell_angle_beta 84.874275
_cell_angle_gamma 141.225074
_cell_volume 678.272849
_symmetry_space_group_name_H-M "P -1"
_symmetry_group_IT_number 2
_symmetry_cell_setting 'triclinic'
loop_
_space_group_symop_operation_xyz
x,y,z
-x,-y,-z
loop_
_atom_site_type_symbol
_atom_site_label
_atom_site_fract_x
_atom_site_fract_y
_atom_site_fract_z
Si Si1 0.155879 0.852727 0.757005
Si Si2 0.754782 0.236509 0.781869
Si Si3 0.990468 0.138050 0.678933
Si Si4 0.426559 0.699938 0.596364
Si Si5 0.103550 0.047324 0.081673
Si Si6 0.472973 0.271899 0.078455
Si Si7 0.255551 0.077421 0.562912
Si Si8 0.597555 0.079265 0.410092
O O1 0.000000 0.500000 0.500000
O O2 0.257106 0.041659 0.721202
O O3 0.081159 0.869954 0.848053
O O4 0.292264 0.009049 0.960047
O O5 0.754423 0.298269 0.645447
O O6 0.579032 0.928804 0.639789
O O7 0.810996 0.169054 0.713896
O O8 0.851427 0.501278 0.084889
O O9 0.940640 0.053786 0.805749
O O10 0.862356 0.993755 0.484363
O O11 0.000000 0.000000 0.500000
O O12 0.288393 0.383088 0.294586
O O13 0.450789 0.695140 0.771216
O O14 0.373432 0.774272 0.640785
O O15 0.000000 0.000000 0.000000
O O16 0.574256 0.584735 0.273258
O O17 0.484209 0.199148 0.856570
O O18 0.500000 0.000000 0.500000
#
# Coordination Sequence:
#
# PCOD8026971 Si02
#       8
#     2   2   2   2   2   2   2   2
#     4  12  29  47  75 108 150 194 245 308 372 436
#     4  11  25  47  76 108 148 197 243 303 373 445
#     4  12  28  47  73 108 152 193 245 306 374 443
#     4  11  26  44  78 109 145 192 251 307 364 431
#     4  12  27  49  74 107 151 191 248 302 372 439
#     4  12  26  47  76 109 150 193 255 302 373 440
#     4  12  26  48  75 107 149 196 245 301 377 441
#     4  10  24  43  73 106 148 190 249 298 367 433
#
# _framework density 23.589324000000001
#
# number of rings (size 3 to 8) (size 9 to 14) (size 15 to 20)
#    0.000    0.500    2.500    4.125   12.250    2.000 
#    0.000    0.000    0.000    0.000    0.000    0.000 
#    0.000    0.000    0.000    0.000    0.000    0.000 
#
# Total GULP energy -198291.036382 kJ/mol
# GULP energy per Si atom -12393.189774 kJ/mol
# Density = 2.353563 g / cm^3
# Si number density = 23.589324 Si / 1000 Ang^3
#
#
#
# Elastic Constant Matrix: (Units=GPa)
#
#
# Indices 1 2 3 4 5 6 
#
# 1 144.9047 25.6793 72.6292 11.5703 -18.1815 8.0233
# 2 25.6793 89.3481 34.4645 14.3221 -3.0015 -2.0746
# 3 72.6292 34.4645 155.3438 21.5178 -20.0259 7.6795
# 4 11.5703 14.3221 21.5178 38.9032 4.0160 1.8773
# 5 -18.1815 -3.0015 -20.0259 4.0160 57.4972 -5.1252
# 6 8.0233 -2.0746 7.6795 1.8773 -5.1252 34.8473
#
#
#
# Elastic Compliance Matrix: (Units=1/GPa)
#
#
# Indices 1 2 3 4 5 6 
#
# 1 0.009277 -0.001124 -0.003794 -0.000345 0.001477 -0.001131
# 2 -0.001124 0.012845 -0.001929 -0.003409 0.000027 0.001636
# 3 -0.003794 -0.001929 0.009454 -0.003575 0.002170 -0.000813
# 4 -0.000345 -0.003409 -0.003575 0.029495 -0.003724 -0.001472
# 5 0.001477 0.000027 0.002170 -0.003724 0.019071 0.002189
# 6 -0.001131 0.001636 -0.000813 -0.001472 0.002189 0.029635
#
#
# Mechanical properties :
#
#
# Convention : Reuss Voigt Hill
#
# Bulk Modulus (GPa) = 55.92431 72.79362 64.35897
# Shear Modulus (GPa) = 38.62962 43.37111 41.00036
#
# Velocity S-wave (km/s) = 4.05110 4.29253 4.17356
# Velocity P-wave (km/s) = 6.75580 7.44939 7.11106
#
# Compressibility (1/GPa) = 0.01788131
#
# Stress axis : x y z
#
# Youngs Moduli (GPa) = 107.78826 77.85211 105.77081
#
# Poissons Ratio (x) = 0.08753 0.40130
# Poissons Ratio (y) = 0.12119 0.20406
# Poissons Ratio (z) = 0.40896 0.15020
#
# Static dielectric constant tensor:
#      x y z
#    x 4.707380 -0.476060 0.082370 
#    y -0.476060 4.266580 0.069750 
#    z 0.082370 0.069750 4.982850 
# 
# 
# High freq. dielectric constant tensor:
#      x y z
#    x 1.956640 -0.012330 0.001160 
#    y -0.012330 1.922040 0.005580 
#    z 0.001160 0.005580 1.942910 
# 
# From -- ./inp_files/333757.got.cif
#   From: 2010.06.25/outbox.cif.g09.slc.cpg/sg2_167_cif.got.tgz:333757.got - 2010.06.27 13:26:56.
