data_PCOD8026982
_publ_section_title
;
Structure prediction by ZEFSAII (Michael W. Deem and Ramdas Pophale) SiO2 
 PCOD8026982
Probable space group: P -1
;
_chemical_formula_sum "Si O2"
_cell_formula_units_Z 14
_cell_length_a 27.139142
_cell_length_b 29.893482
_cell_length_c 8.979439
_cell_angle_alpha 152.071215
_cell_angle_beta 151.248333
_cell_angle_gamma 9.504351
_cell_volume 562.075155
_symmetry_space_group_name_H-M "P -1"
_symmetry_group_IT_number 2
_symmetry_cell_setting 'triclinic'
loop_
_space_group_symop_operation_xyz
x,y,z
-x,-y,-z
loop_
_atom_site_type_symbol
_atom_site_label
_atom_site_fract_x
_atom_site_fract_y
_atom_site_fract_z
Si Si1 0.176833 0.495197 0.859066
Si Si2 0.133909 0.551871 0.248927
Si Si3 0.205045 0.844612 0.813805
Si Si4 0.819588 0.341608 0.844223
Si Si5 0.259993 0.235506 0.681536
Si Si6 0.781606 0.894965 0.595710
Si Si7 0.390491 0.522098 0.897895
O O1 0.054536 0.514818 0.494790
O O2 0.528587 0.186591 0.847046
O O3 0.064856 0.581559 0.984558
O O4 0.061898 0.700254 0.104993
O O5 0.370955 0.430785 0.516889
O O6 0.828881 0.843490 0.390890
O O7 0.279315 0.329835 0.056567
O O8 0.459503 0.646216 0.784245
O O9 0.044155 0.884158 0.468099
O O10 0.371181 0.688549 0.955574
O O11 0.953028 0.145277 0.003060
O O12 0.910506 0.322843 0.176598
O O13 0.287011 0.149496 0.649446
O O14 0.500000 0.000000 0.500000
O O15 0.500000 0.500000 0.000000
#
# Coordination Sequence:
#
# PCOD8026982 Si02
#       7
#     2   2   2   2   2   2   2
#     4  11  25  46  71 105 141 193 243 305 376 441
#     4  12  25  46  74 105 144 190 244 312 364 443
#     4  11  25  46  72 105 151 200 251 306 376 441
#     4  10  24  43  74 101 147 193 244 308 368 445
#     4  11  25  47  71 106 146 188 243 302 378 448
#     4  11  24  47  72 106 143 189 248 298 374 445
#     4  12  27  45  71 113 150 195 255 305 375 445
#
# _framework density 24.907703999999999
#
# number of rings (size 3 to 8) (size 9 to 14) (size 15 to 20)
#    0.000    0.857    2.857    3.000    4.000    2.857 
#    5.143    0.000    0.000    0.000    0.000    0.000 
#    0.000    0.000    0.000    0.000    0.000    0.000 
#
# Total GULP energy -173496.936067 kJ/mol
# GULP energy per Si atom -12392.638290 kJ/mol
# Density = 2.485101 g / cm^3
# Si number density = 24.907704 Si / 1000 Ang^3
#
#
#
# Elastic Constant Matrix: (Units=GPa)
#
#
# Indices 1 2 3 4 5 6 
#
# 1 124.4591 14.1547 48.1020 3.6493 0.2725 -10.6822
# 2 14.1547 67.9693 20.7669 8.7585 0.4107 -3.0827
# 3 48.1020 20.7669 131.3480 10.2559 40.1617 -0.1244
# 4 3.6493 8.7585 10.2559 26.2542 -7.9236 0.5412
# 5 0.2725 0.4107 40.1617 -7.9236 56.6137 5.5341
# 6 -10.6822 -3.0827 -0.1244 0.5412 5.5341 36.5843
#
#
#
# Elastic Compliance Matrix: (Units=1/GPa)
#
#
# Indices 1 2 3 4 5 6 
#
# 1 0.010088 -0.000790 -0.004703 0.001645 0.003295 0.002340
# 2 -0.000790 0.016123 -0.002145 -0.004239 0.000710 0.001076
# 3 -0.004703 -0.002145 0.013436 -0.007051 -0.010498 0.000184
# 4 0.001645 -0.004239 -0.007051 0.045588 0.011634 -0.002335
# 5 0.003295 0.000710 -0.010498 0.011634 0.027038 -0.003276
# 6 0.002340 0.001076 0.000184 -0.002335 -0.003276 0.028639
#
#
# Mechanical properties :
#
#
# Convention : Reuss Voigt Hill
#
# Bulk Modulus (GPa) = 41.03308 54.42483 47.72896
# Shear Modulus (GPa) = 30.43016 39.94064 35.18540
#
# Velocity S-wave (km/s) = 3.49910 4.00877 3.76258
# Velocity P-wave (km/s) = 5.73016 6.58218 6.17089
#
# Compressibility (1/GPa) = 0.02437058
#
# Stress axis : x y z
#
# Youngs Moduli (GPa) = 99.13062 62.02288 74.42964
#
# Poissons Ratio (x) = 0.04897 0.35006
# Poissons Ratio (y) = 0.07826 0.15966
# Poissons Ratio (z) = 0.46623 0.13305
#
# Static dielectric constant tensor:
#      x y z
#    x 4.619460 -0.059500 0.299660 
#    y -0.059500 4.394460 -0.087470 
#    z 0.299660 -0.087470 4.690240 
# 
# 
# High freq. dielectric constant tensor:
#      x y z
#    x 2.010660 -0.010120 0.025380 
#    y -0.010120 1.970540 -0.002400 
#    z 0.025380 -0.002400 1.997530 
# 
# From -- ./inp_files/53542.got.cif
#   From: 2010.06.25/outbox.cif.g09.slc.cpg/sg2_27_cif.got.tgz:53542.got - 2010.06.27 13:26:56.
