data_PCOD8026854
_publ_section_title
;
Structure prediction by ZEFSAII (Michael W. Deem and Ramdas Pophale) SiO2 
 PCOD8026854
Probable space group: P -1
;
_chemical_formula_sum "Si O2"
_cell_formula_units_Z 10
_cell_length_a 9.455621
_cell_length_b 11.835508
_cell_length_c 9.741361
_cell_angle_alpha 59.354484
_cell_angle_beta 75.131030
_cell_angle_gamma 126.434468
_cell_volume 444.500392
_symmetry_space_group_name_H-M "P -1"
_symmetry_group_IT_number 2
_symmetry_cell_setting 'triclinic'
loop_
_space_group_symop_operation_xyz
x,y,z
-x,-y,-z
loop_
_atom_site_type_symbol
_atom_site_label
_atom_site_fract_x
_atom_site_fract_y
_atom_site_fract_z
Si Si1 0.133460 0.467105 0.944328
Si Si2 0.337681 0.519168 0.145975
Si Si3 0.354614 0.112748 0.662154
Si Si4 0.467051 0.128901 0.918149
Si Si5 0.979641 0.058172 0.709025
O O1 0.421438 0.720033 0.623870
O O2 0.224635 0.457797 0.060998
O O3 0.000000 0.500000 0.000000
O O4 0.886111 0.191905 0.095137
O O5 0.151248 0.252795 0.416717
O O6 0.299700 0.619249 0.190654
O O7 0.688809 0.753278 0.911103
O O8 0.192234 0.126575 0.697033
O O9 0.535909 0.234473 0.682584
O O10 0.131044 0.912816 0.177949
O O11 0.500000 0.000000 0.000000
#
# Coordination Sequence:
#
# PCOD8026854 Si02
#       5
#     2   2   2   2   2
#     4  12  27  44  68 100 137 173 223 272 333 393
#     4  10  24  43  69  94 139 170 224 267 330 390
#     4  12  26  43  73  97 135 175 220 277 328 388
#     4  10  25  44  70  98 134 176 221 271 329 394
#     4  10  24  43  70 100 133 169 229 267 331 389
#
# _framework density 22.497167999999999
#
# number of rings (size 3 to 8) (size 9 to 14) (size 15 to 20)
#    1.200    0.000    0.000    4.800    5.600    6.400 
#    0.000    0.000    0.000    0.000    0.000    0.000 
#    0.000    0.000    0.000    0.000    0.000    0.000 
#
# Total GULP energy -124000.737800 kJ/mol
# GULP energy per Si atom -12400.073780 kJ/mol
# Density = 2.244596 g / cm^3
# Si number density = 22.497168 Si / 1000 Ang^3
#
#
#
# Elastic Constant Matrix: (Units=GPa)
#
#
# Indices 1 2 3 4 5 6 
#
# 1 126.6017 -4.0248 61.7128 19.8828 -5.3157 -16.3818
# 2 -4.0248 47.6055 25.6263 8.3247 -4.0203 6.0468
# 3 61.7128 25.6263 132.4882 -4.7828 11.3487 0.5048
# 4 19.8828 8.3247 -4.7828 37.0399 5.0514 5.5417
# 5 -5.3157 -4.0203 11.3487 5.0514 38.3449 13.2401
# 6 -16.3818 6.0468 0.5048 5.5417 13.2401 33.1149
#
#
#
# Elastic Compliance Matrix: (Units=1/GPa)
#
#
# Indices 1 2 3 4 5 6 
#
# 1 0.016765 0.009311 -0.010667 -0.014299 0.006012 0.006745
# 2 0.009311 0.032235 -0.012063 -0.014872 0.011276 -0.003116
# 3 -0.010667 -0.012063 0.016006 0.011940 -0.008374 -0.001968
# 4 -0.014299 -0.014872 0.011940 0.042055 -0.009998 -0.007580
# 5 0.006012 0.011276 -0.008374 -0.009998 0.035910 -0.011642
# 6 0.006745 -0.003116 -0.001968 -0.007580 -0.011642 0.040057
#
#
# Mechanical properties :
#
#
# Convention : Reuss Voigt Hill
#
# Bulk Modulus (GPa) = 26.19987 52.59155 39.39571
# Shear Modulus (GPa) = 22.46289 36.59203 29.52746
#
# Velocity S-wave (km/s) = 3.16330 4.03739 3.62677
# Velocity P-wave (km/s) = 5.00131 6.72024 5.92346
#
# Compressibility (1/GPa) = 0.03816813
#
# Stress axis : x y z
#
# Youngs Moduli (GPa) = 59.64675 31.02185 62.47796
#
# Poissons Ratio (x) = -0.28884 0.66646
# Poissons Ratio (y) = -0.55536 0.75367
# Poissons Ratio (z) = 0.63626 0.37421
#
# Static dielectric constant tensor:
#      x y z
#    x 4.097160 0.019910 -0.032040 
#    y 0.019910 3.965820 0.007780 
#    z -0.032040 0.007780 4.078210 
# 
# 
# High freq. dielectric constant tensor:
#      x y z
#    x 1.892170 -0.004890 0.005710 
#    y -0.004890 1.884610 0.007010 
#    z 0.005710 0.007010 1.895220 
# 
# From -- ./inp_files/15776.got.cif
#   From: 2010.06.25/outbox.cif.g09.slc.cpg/sg2_8_cif.got.tgz:15776.got - 2010.06.27 13:26:56.
