data_PCOD8026799
_publ_section_title
;
Structure prediction by ZEFSAII (Michael W. Deem and Ramdas Pophale) SiO2 
 PCOD8026799
Probable space group: P -1
;
_chemical_formula_sum "Si O2"
_cell_formula_units_Z 16
_cell_length_a 5.170973
_cell_length_b 20.846235
_cell_length_c 8.737364
_cell_angle_alpha 112.125488
_cell_angle_beta 75.173643
_cell_angle_gamma 125.046460
_cell_volume 713.321363
_symmetry_space_group_name_H-M "P -1"
_symmetry_group_IT_number 2
_symmetry_cell_setting 'triclinic'
loop_
_space_group_symop_operation_xyz
x,y,z
-x,-y,-z
loop_
_atom_site_type_symbol
_atom_site_label
_atom_site_fract_x
_atom_site_fract_y
_atom_site_fract_z
Si Si1 0.343577 0.831518 0.644414
Si Si2 0.294409 0.997373 0.389690
Si Si3 0.664983 0.274372 0.712793
Si Si4 0.696293 0.794377 0.813602
Si Si5 0.097625 0.699678 0.972397
Si Si6 0.046120 0.439708 0.637243
Si Si7 0.956418 0.832099 0.114604
Si Si8 0.260034 0.459747 0.282048
O O1 0.487217 0.927767 0.689310
O O2 0.333888 0.795484 0.447271
O O3 0.578607 0.825836 0.721230
O O4 0.977414 0.783245 0.705890
O O5 0.500000 0.000000 0.500000
O O6 0.000000 0.000000 0.500000
O O7 0.191153 0.915775 0.238565
O O8 0.900616 0.303700 0.847493
O O9 0.310050 0.233547 0.789360
O O10 0.767281 0.351952 0.660179
O O11 0.404758 0.707927 0.847571
O O12 0.823526 0.852476 0.000005
O O13 0.123313 0.783852 0.991715
O O14 0.795751 0.616016 0.881501
O O15 0.123068 0.427408 0.442287
O O16 0.365027 0.475340 0.719062
O O17 0.920179 0.500040 0.727092
#
# Coordination Sequence:
#
# PCOD8026799 Si02
#       8
#     2   2   2   2   2   2   2   2
#     4  12  25  46  73 106 132 194 234 290 341 415
#     4  12  26  47  73 104 146 183 232 291 346 410
#     4  11  26  42  73 104 141 182 240 280 351 421
#     4  11  26  45  71 103 140 183 237 289 343 410
#     4  11  25  47  70 103 148 185 222 296 352 414
#     4  10  24  43  68 102 131 184 232 286 333 427
#     4  11  26  48  70 106 143 187 228 290 355 407
#     4  10  24  45  68  97 142 178 229 285 354 397
#
# _framework density 22.430281999999998
#
# number of rings (size 3 to 8) (size 9 to 14) (size 15 to 20)
#    0.000    1.000    2.500    2.250    8.750    4.000 
#    0.000    0.000    0.000    0.000    0.000    0.000 
#    0.000    0.000    0.000    0.000    0.000    0.000 
#
# Total GULP energy -198368.726385 kJ/mol
# GULP energy per Si atom -12398.045399 kJ/mol
# Density = 2.237923 g / cm^3
# Si number density = 22.430282 Si / 1000 Ang^3
#
#
#
# Elastic Constant Matrix: (Units=GPa)
#
#
# Indices 1 2 3 4 5 6 
#
# 1 126.5352 22.0244 43.7657 2.5454 9.1032 -0.1065
# 2 22.0244 90.0103 44.0144 13.8151 12.3120 -3.0155
# 3 43.7657 44.0144 108.1928 20.3183 15.1398 4.0371
# 4 2.5454 13.8151 20.3183 46.8445 2.9403 -0.0201
# 5 9.1032 12.3120 15.1398 2.9403 38.2488 -3.1792
# 6 -0.1065 -3.0155 4.0371 -0.0201 -3.1792 31.6098
#
#
#
# Elastic Compliance Matrix: (Units=1/GPa)
#
#
# Indices 1 2 3 4 5 6 
#
# 1 0.009302 -0.000566 -0.003704 0.001308 -0.000634 0.000387
# 2 -0.000566 0.014351 -0.005012 -0.001888 -0.002207 0.001784
# 3 -0.003704 -0.005012 0.014090 -0.004247 -0.002971 -0.002592
# 4 0.001308 -0.001888 -0.004247 0.023663 0.000192 0.000401
# 5 -0.000634 -0.002207 -0.002971 0.000192 0.028419 0.003025
# 6 0.000387 0.001784 -0.002592 0.000401 0.003025 0.032443
#
#
# Mechanical properties :
#
#
# Convention : Reuss Voigt Hill
#
# Bulk Modulus (GPa) = 52.14142 60.48303 56.31222
# Shear Modulus (GPa) = 33.96159 37.66954 35.81557
#
# Velocity S-wave (km/s) = 3.89536 4.10250 4.00027
# Velocity P-wave (km/s) = 6.59759 7.03307 6.81881
#
# Compressibility (1/GPa) = 0.01917861
#
# Stress axis : x y z
#
# Youngs Moduli (GPa) = 107.50125 69.68262 70.97156
#
# Poissons Ratio (x) = 0.03944 0.26288
# Poissons Ratio (y) = 0.06084 0.35573
# Poissons Ratio (z) = 0.39819 0.34927
#
# Static dielectric constant tensor:
#      x y z
#    x 4.102360 0.120460 0.104060 
#    y 0.120460 3.946170 -0.119960 
#    z 0.104060 -0.119960 4.184750 
# 
# 
# High freq. dielectric constant tensor:
#      x y z
#    x 1.892990 0.009600 0.009800 
#    y 0.009600 1.877570 -0.009230 
#    z 0.009800 -0.009230 1.894030 
# 
# From -- ./inp_files/141497.got.cif
#   From: 2010.06.25/outbox.cif.g09.slc.cpg/sg2_71_cif.got.tgz:141497.got - 2010.06.27 13:26:56.
