data_PCOD8026015
_publ_section_title
;
Structure prediction by ZEFSAII (Michael W. Deem and Ramdas Pophale) SiO2 
 PCOD8026015
Probable space group: P -1
;
_chemical_formula_sum "Si O2"
_cell_formula_units_Z 16
_cell_length_a 12.249311
_cell_length_b 9.696458
_cell_length_c 15.849198
_cell_angle_alpha 27.875133
_cell_angle_beta 121.329344
_cell_angle_gamma 108.823087
_cell_volume 706.213762
_symmetry_space_group_name_H-M "P -1"
_symmetry_group_IT_number 2
_symmetry_cell_setting 'triclinic'
loop_
_space_group_symop_operation_xyz
x,y,z
-x,-y,-z
loop_
_atom_site_type_symbol
_atom_site_label
_atom_site_fract_x
_atom_site_fract_y
_atom_site_fract_z
Si Si1 0.822361 0.889182 0.165968
Si Si2 0.906153 0.185342 0.602068
Si Si3 0.078013 0.885144 0.678030
Si Si4 0.779371 0.806495 0.858697
Si Si5 0.569496 0.121466 0.039652
Si Si6 0.501479 0.690742 0.813147
Si Si7 0.309059 0.143941 0.601999
Si Si8 0.161822 0.869638 0.134001
O O1 0.811379 0.548121 0.363787
O O2 0.976834 0.879509 0.244581
O O3 0.716419 0.118422 0.065359
O O4 0.779469 0.006598 0.990638
O O5 0.814090 0.974943 0.699356
O O6 0.979765 0.106948 0.585842
O O7 0.223925 0.923245 0.712987
O O8 0.099585 0.523223 0.900627
O O9 0.000000 0.000000 0.500000
O O10 0.637069 0.763751 0.809744
O O11 0.769999 0.025219 0.816795
O O12 0.590228 0.898552 0.252755
O O13 0.481514 0.481200 0.838894
O O14 0.500000 0.000000 0.000000
O O15 0.382733 0.023262 0.605985
O O16 0.500000 0.500000 0.000000
O O17 0.211254 0.494902 0.357946
O O18 0.000000 0.000000 0.000000
#
# Coordination Sequence:
#
# PCOD8026015 Si02
#       8
#     2   2   2   2   2   2   2   2
#     4  11  23  43  68 103 146 185 244 313 359 433
#     4  11  23  42  70 104 147 189 238 310 376 421
#     4  12  24  41  71 105 145 192 235 304 380 439
#     4  12  23  42  72 104 147 193 245 304 365 442
#     4  11  24  45  77 101 140 198 248 301 368 433
#     4  10  23  47  72 100 147 195 242 302 366 434
#     4  11  24  49  73 104 151 190 244 301 365 444
#     4  12  25  43  73 111 145 190 248 295 371 448
#
# _framework density 22.656030999999999
#
# number of rings (size 3 to 8) (size 9 to 14) (size 15 to 20)
#    0.000    0.750    5.000    3.375    3.500    1.500 
#    2.250    0.625    0.000    0.000    0.000    0.000 
#    0.000    0.000    0.000    0.000    0.000    0.000 
#
# Total GULP energy -198367.745850 kJ/mol
# GULP energy per Si atom -12397.984116 kJ/mol
# Density = 2.260446 g / cm^3
# Si number density = 22.656031 Si / 1000 Ang^3
#
#
#
# Elastic Constant Matrix: (Units=GPa)
#
#
# Indices 1 2 3 4 5 6 
#
# 1 102.4067 46.6856 29.8872 -5.7347 -2.6251 -6.0647
# 2 46.6856 124.9818 43.6238 -14.8667 13.1684 -11.0617
# 3 29.8872 43.6238 113.0600 -12.9089 4.7822 -0.9325
# 4 -5.7347 -14.8667 -12.9089 34.2688 -7.8425 1.1823
# 5 -2.6251 13.1684 4.7822 -7.8425 33.3140 -15.5319
# 6 -6.0647 -11.0617 -0.9325 1.1823 -15.5319 36.7071
#
#
#
# Elastic Compliance Matrix: (Units=1/GPa)
#
#
# Indices 1 2 3 4 5 6 
#
# 1 0.012483 -0.004205 -0.001780 0.000464 0.004177 0.002503
# 2 -0.004205 0.011287 -0.002828 0.002333 -0.003294 0.001166
# 3 -0.001780 -0.002828 0.010696 0.002422 -0.000538 -0.001180
# 4 0.000464 0.002333 0.002422 0.032902 0.007985 0.003160
# 5 0.004177 -0.003294 -0.000538 0.007985 0.041532 0.017000
# 6 0.002503 0.001166 -0.001180 0.003160 0.017000 0.035069
#
#
# Mechanical properties :
#
#
# Convention : Reuss Voigt Hill
#
# Bulk Modulus (GPa) = 59.38558 64.53796 61.96177
# Shear Modulus (GPa) = 29.90291 35.54144 32.72217
#
# Velocity S-wave (km/s) = 3.63694 3.96503 3.80452
# Velocity P-wave (km/s) = 6.62609 7.03632 6.83429
#
# Compressibility (1/GPa) = 0.01683910
#
# Stress axis : x y z
#
# Youngs Moduli (GPa) = 80.11034 88.59958 93.49046
#
# Poissons Ratio (x) = 0.37254 0.16646
# Poissons Ratio (y) = 0.33685 0.26439
# Poissons Ratio (z) = 0.14264 0.25056
#
# Static dielectric constant tensor:
#      x y z
#    x 4.294240 -0.190380 0.162640 
#    y -0.190380 4.358310 -0.196430 
#    z 0.162640 -0.196430 4.153530 
# 
# 
# High freq. dielectric constant tensor:
#      x y z
#    x 1.898330 -0.018660 0.003450 
#    y -0.018660 1.896260 -0.010950 
#    z 0.003450 -0.010950 1.889100 
# 
# From -- ./inp_files/245593.got.cif
#   From: 2010.06.25/outbox.cif.g09.slc.cpg/sg2_123_cif.got.tgz:245593.got - 2010.06.27 13:26:56.
