data_PCOD8026422
_publ_section_title
;
Structure prediction by ZEFSAII (Michael W. Deem and Ramdas Pophale) SiO2 
 PCOD8026422
Probable space group: P -1
;
_chemical_formula_sum "Si O2"
_cell_formula_units_Z 14
_cell_length_a 7.927200
_cell_length_b 20.266825
_cell_length_c 7.307897
_cell_angle_alpha 108.843088
_cell_angle_beta 36.511286
_cell_angle_gamma 123.590463
_cell_volume 564.092875
_symmetry_space_group_name_H-M "P -1"
_symmetry_group_IT_number 2
_symmetry_cell_setting 'triclinic'
loop_
_space_group_symop_operation_xyz
x,y,z
-x,-y,-z
loop_
_atom_site_type_symbol
_atom_site_label
_atom_site_fract_x
_atom_site_fract_y
_atom_site_fract_z
Si Si1 0.654924 0.101389 0.832171
Si Si2 0.714182 0.596453 0.389828
Si Si3 0.285795 0.663890 0.676450
Si Si4 0.621048 0.056174 0.270998
Si Si5 0.162098 0.687428 0.424568
Si Si6 0.899631 0.798664 0.809486
Si Si7 0.311076 0.145305 0.452895
O O1 0.894848 0.157554 0.512710
O O2 0.916903 0.113341 0.775864
O O3 0.414152 0.005443 0.914401
O O4 0.422640 0.133607 0.140750
O O5 0.500000 0.500000 0.500000
O O6 0.476421 0.631933 0.604008
O O7 0.923427 0.627030 0.421852
O O8 0.932013 0.625405 0.044544
O O9 0.227915 0.639255 0.487775
O O10 0.483488 0.761140 0.588530
O O11 0.372563 0.089325 0.487437
O O12 0.990871 0.134980 0.061157
O O13 0.500000 0.000000 0.500000
O O14 0.988043 0.730126 0.717002
O O15 0.505438 0.754910 0.088186
#
# Coordination Sequence:
#
# PCOD8026422 Si02
#       7
#     2   2   2   2   2   2   2
#     4  11  24  40  66  95 139 188 239 303 354 391
#     4  12  28  50  77 114 147 179 232 296 364 441
#     4  12  26  46  78 108 144 194 239 287 358 435
#     4  10  24  42  63  97 141 185 237 297 355 402
#     4  12  25  46  74 105 146 187 237 289 361 423
#     4  11  23  43  66  99 139 188 237 292 349 421
#     4  12  23  43  66  98 137 182 248 285 344 429
#
# _framework density 24.818608999999999
#
# number of rings (size 3 to 8) (size 9 to 14) (size 15 to 20)
#    0.000    0.571    1.429    7.286    2.000    2.286 
#    0.000    6.429    0.000    0.000    0.000    0.000 
#    0.000    0.000    0.000    0.000    0.000    0.000 
#
# Total GULP energy -173587.295224 kJ/mol
# GULP energy per Si atom -12399.092516 kJ/mol
# Density = 2.476212 g / cm^3
# Si number density = 24.818609 Si / 1000 Ang^3
#
#
#
# Elastic Constant Matrix: (Units=GPa)
#
#
# Indices 1 2 3 4 5 6 
#
# 1 144.0028 60.9006 17.6628 -12.6935 14.8311 22.1800
# 2 60.9006 129.5245 32.0776 -16.6128 4.7153 19.1838
# 3 17.6628 32.0776 109.7050 -23.9915 -2.5104 9.7942
# 4 -12.6935 -16.6128 -23.9915 46.0434 -7.7327 -6.2208
# 5 14.8311 4.7153 -2.5104 -7.7327 40.5141 -2.2138
# 6 22.1800 19.1838 9.7942 -6.2208 -2.2138 44.3619
#
#
#
# Elastic Compliance Matrix: (Units=1/GPa)
#
#
# Indices 1 2 3 4 5 6 
#
# 1 0.009383 -0.003766 -0.000158 0.000191 -0.003142 -0.003158
# 2 -0.003766 0.010449 -0.001941 0.001489 0.000218 -0.001988
# 3 -0.000158 -0.001941 0.010948 0.005191 0.001916 -0.000675
# 4 0.000191 0.001489 0.005191 0.026160 0.005183 0.002041
# 5 -0.003142 0.000218 0.001916 0.005183 0.027087 0.003133
# 6 -0.003158 -0.001988 -0.000675 0.002041 0.003133 0.025572
#
#
# Mechanical properties :
#
#
# Convention : Reuss Voigt Hill
#
# Bulk Modulus (GPa) = 52.49151 67.16826 59.82988
# Shear Modulus (GPa) = 39.16070 44.35665 41.75868
#
# Velocity S-wave (km/s) = 3.97656 4.23215 4.10635
# Velocity P-wave (km/s) = 6.50231 7.14170 6.82949
#
# Compressibility (1/GPa) = 0.01905070
#
# Stress axis : x y z
#
# Youngs Moduli (GPa) = 106.57182 95.69872 91.34353
#
# Poissons Ratio (x) = 0.36042 0.01440
# Poissons Ratio (y) = 0.40137 0.17730
# Poissons Ratio (z) = 0.01680 0.18576
#
# Static dielectric constant tensor:
#      x y z
#    x 5.169420 0.190070 0.030570 
#    y 0.190070 4.550830 0.050660 
#    z 0.030570 0.050660 4.428460 
# 
# 
# High freq. dielectric constant tensor:
#      x y z
#    x 2.019210 -0.001220 0.009960 
#    y -0.001220 1.974900 -0.007460 
#    z 0.009960 -0.007460 2.000780 
# 
# From -- ./inp_files/223750.got.cif
#   From: 2010.06.25/outbox.cif.g09.slc.cpg/sg2_112_cif.got.tgz:223750.got - 2010.06.27 13:26:56.
