data_PCOD8026019
_publ_section_title
;
Structure prediction by ZEFSAII (Michael W. Deem and Ramdas Pophale) SiO2 
 PCOD8026019
Probable space group: P -1
;
_chemical_formula_sum "Si O2"
_cell_formula_units_Z 12
_cell_length_a 5.097673
_cell_length_b 10.835325
_cell_length_c 11.026508
_cell_angle_alpha 123.594404
_cell_angle_beta 61.569148
_cell_angle_gamma 121.929416
_cell_volume 415.812588
_symmetry_space_group_name_H-M "P -1"
_symmetry_group_IT_number 2
_symmetry_cell_setting 'triclinic'
loop_
_space_group_symop_operation_xyz
x,y,z
-x,-y,-z
loop_
_atom_site_type_symbol
_atom_site_label
_atom_site_fract_x
_atom_site_fract_y
_atom_site_fract_z
Si Si1 0.855671 0.765264 0.148438
Si Si2 0.195714 0.431860 0.688071
Si Si3 0.726179 0.917437 0.849169
Si Si4 0.637727 0.186761 0.562161
Si Si5 0.654435 0.313835 0.385257
Si Si6 0.545868 0.332974 0.039269
O O1 0.665083 0.755953 0.313570
O O2 0.628125 0.645334 0.033383
O O3 0.186985 0.742232 0.089155
O O4 0.929769 0.943751 0.173263
O O5 0.509412 0.423693 0.552983
O O6 0.114015 0.571837 0.706134
O O7 0.895211 0.266591 0.654217
O O8 0.267199 0.492264 0.846082
O O9 0.605429 0.838666 0.702663
O O10 0.726802 0.778796 0.868063
O O11 0.500000 0.000000 0.000000
O O12 0.807832 0.243121 0.422959
O O13 0.500000 0.000000 0.500000
#
# Coordination Sequence:
#
# PCOD8026019 Si02
#       6
#     2   2   2   2   2   2
#     4  11  25  43  70 106 148 186 239 294 363 428
#     4  10  24  47  73 102 139 192 244 298 352 431
#     4   9  20  42  71 101 140 185 242 296 348 426
#     4  12  28  42  72 105 149 190 231 303 364 432
#     4  10  23  47  72 102 141 189 247 291 361 427
#     4  10  24  45  72 104 140 195 238 297 353 428
#
# _framework density 28.859152000000002
#
# number of rings (size 3 to 8) (size 9 to 14) (size 15 to 20)
#    0.000    1.667    0.000    2.000    9.333    2.667 
#   21.000    0.000    0.000    0.000    0.000    0.000 
#    0.000    0.000    0.000    0.000    0.000    0.000 
#
# Total GULP energy -148764.233496 kJ/mol
# GULP energy per Si atom -12397.019458 kJ/mol
# Density = 2.879347 g / cm^3
# Si number density = 28.859152 Si / 1000 Ang^3
#
#
#
# Elastic Constant Matrix: (Units=GPa)
#
#
# Indices 1 2 3 4 5 6 
#
# 1 64.3611 11.4564 13.8857 3.5581 40.9408 6.1932
# 2 11.4564 153.5116 36.8337 18.2423 32.0173 9.7682
# 3 13.8857 36.8337 142.1199 2.4897 44.3286 -2.5297
# 4 3.5581 18.2423 2.4897 57.1124 0.5419 4.8946
# 5 40.9408 32.0173 44.3286 0.5419 50.8819 4.0374
# 6 6.1932 9.7682 -2.5297 4.8946 4.0374 34.5544
#
#
#
# Elastic Compliance Matrix: (Units=1/GPa)
#
#
# Indices 1 2 3 4 5 6 
#
# 1 0.039918 0.004367 0.007952 -0.003625 -0.041563 -0.002437
# 2 0.004367 0.008418 0.000144 -0.002735 -0.008769 -0.001740
# 3 0.007952 0.000144 0.011427 -0.001006 -0.016548 0.001447
# 4 -0.003625 -0.002735 -0.001006 0.018768 0.005470 -0.001948
# 5 -0.041563 -0.008769 -0.016548 0.005470 0.073019 -0.000590
# 6 -0.002437 -0.001740 0.001447 -0.001948 -0.000590 0.030319
#
#
# Mechanical properties :
#
#
# Convention : Reuss Voigt Hill
#
# Bulk Modulus (GPa) = 11.80790 53.81605 32.81198
# Shear Modulus (GPa) = 27.00177 48.36419 37.68298
#
# Velocity S-wave (km/s) = 3.06214 4.09818 3.61744
# Velocity P-wave (km/s) = 4.07464 6.40950 5.37050
#
# Compressibility (1/GPa) = 0.08468904
#
# Stress axis : x y z
#
# Youngs Moduli (GPa) = 25.05158 118.78607 87.51182
#
# Poissons Ratio (x) = -0.51879 -0.69588
# Poissons Ratio (y) = -0.10941 -0.01257
# Poissons Ratio (z) = -0.19921 -0.01706
#
# Static dielectric constant tensor:
#      x y z
#    x 4.947070 -0.619070 0.183200 
#    y -0.619070 6.534720 -0.404770 
#    z 0.183200 -0.404770 5.713790 
# 
# 
# High freq. dielectric constant tensor:
#      x y z
#    x 2.146500 -0.023960 0.007320 
#    y -0.023960 2.199750 0.001610 
#    z 0.007320 0.001610 2.192290 
# 
# From -- ./inp_files/63298.got.cif
#   From: 2010.06.25/outbox.cif.g09.slc.cpg/sg2_32_cif.got.tgz:63298.got - 2010.06.27 13:26:56.
