data_PCOD8026301
_publ_section_title
;
Structure prediction by ZEFSAII (Michael W. Deem and Ramdas Pophale) SiO2 
 PCOD8026301
Probable space group: P -1
;
_chemical_formula_sum "Si O2"
_cell_formula_units_Z 14
_cell_length_a 14.103312
_cell_length_b 6.649725
_cell_length_c 21.523189
_cell_angle_alpha 101.991550
_cell_angle_beta 159.615596
_cell_angle_gamma 87.011611
_cell_volume 624.585746
_symmetry_space_group_name_H-M "P -1"
_symmetry_group_IT_number 2
_symmetry_cell_setting 'triclinic'
loop_
_space_group_symop_operation_xyz
x,y,z
-x,-y,-z
loop_
_atom_site_type_symbol
_atom_site_label
_atom_site_fract_x
_atom_site_fract_y
_atom_site_fract_z
Si Si1 0.280413 0.055743 0.041272
Si Si2 0.388677 0.266356 0.380020
Si Si3 0.445800 0.712079 0.650560
Si Si4 0.492588 0.373929 0.075428
Si Si5 0.025205 0.773755 0.663163
Si Si6 0.246623 0.111722 0.709286
Si Si7 0.871808 0.136407 0.630016
O O1 0.333269 0.152215 0.150095
O O2 0.411633 0.259964 0.086175
O O3 0.440315 0.887694 0.120380
O O4 0.930300 0.914043 0.803890
O O5 0.500000 0.500000 0.500000
O O6 0.367008 0.313276 0.295665
O O7 0.633583 0.160487 0.533473
O O8 0.239499 0.838125 0.506991
O O9 0.238898 0.463014 0.533893
O O10 0.678254 0.265219 0.140817
O O11 0.705003 0.633896 0.232710
O O12 0.197361 0.343359 0.853905
O O13 0.115304 0.962390 0.678703
O O14 0.905318 0.899611 0.649623
O O15 0.000000 0.000000 0.500000
#
# Coordination Sequence:
#
# PCOD8026301 Si02
#       7
#     2   2   2   2   2   2   2
#     4  11  23  44  68  99 131 175 215 265 329 382
#     4  10  24  46  70  92 131 172 222 272 322 383
#     4  10  24  43  68  95 134 169 219 268 323 387
#     4  11  24  39  67  99 135 170 217 267 322 394
#     4  11  22  40  65  97 134 171 217 261 333 378
#     4  11  23  40  67  96 138 169 213 270 323 393
#     4  10  24  41  64  95 133 169 218 270 322 384
#
# _framework density 22.414857999999999
#
# number of rings (size 3 to 8) (size 9 to 14) (size 15 to 20)
#    0.857    0.571    0.000    5.143    2.000    6.286 
#    2.571    0.714    0.000    0.000    0.000    0.000 
#    0.000    0.000    0.000    0.000    0.000    0.000 
#
# Total GULP energy -173500.249588 kJ/mol
# GULP energy per Si atom -12392.874971 kJ/mol
# Density = 2.236384 g / cm^3
# Si number density = 22.414858 Si / 1000 Ang^3
#
#
#
# Elastic Constant Matrix: (Units=GPa)
#
#
# Indices 1 2 3 4 5 6 
#
# 1 73.0994 42.3301 16.1116 0.1286 -0.2205 -15.6364
# 2 42.3301 137.0205 62.0446 1.0905 16.7959 -20.3713
# 3 16.1116 62.0446 127.5981 -3.6175 9.2829 -12.3269
# 4 0.1286 1.0905 -3.6175 38.4774 -2.4905 8.8101
# 5 -0.2205 16.7959 9.2829 -2.4905 41.8789 -4.1817
# 6 -15.6364 -20.3713 -12.3269 8.8101 -4.1817 35.8451
#
#
#
# Elastic Compliance Matrix: (Units=1/GPa)
#
#
# Indices 1 2 3 4 5 6 
#
# 1 0.017778 -0.005267 0.000636 -0.000947 0.002559 0.005512
# 2 -0.005267 0.011900 -0.004631 -0.001642 -0.003586 0.002858
# 3 0.000636 -0.004631 0.010137 0.000862 -0.000246 0.000891
# 4 -0.000947 -0.001642 0.000862 0.027987 0.001351 -0.007770
# 5 0.002559 -0.003586 -0.000246 0.001351 0.025630 0.001652
# 6 0.005512 0.002858 0.000891 -0.007770 0.001652 0.034335
#
#
# Mechanical properties :
#
#
# Convention : Reuss Voigt Hill
#
# Bulk Modulus (GPa) = 46.96815 64.29893 55.63354
# Shear Modulus (GPa) = 32.59723 37.72241 35.15982
#
# Velocity S-wave (km/s) = 3.81762 4.10679 3.96485
# Velocity P-wave (km/s) = 6.35861 7.15792 6.77007
#
# Compressibility (1/GPa) = 0.02129103
#
# Stress axis : x y z
#
# Youngs Moduli (GPa) = 56.24876 84.03624 98.64880
#
# Poissons Ratio (x) = 0.44260 -0.06270
# Poissons Ratio (y) = 0.29625 0.45682
# Poissons Ratio (z) = -0.03575 0.38915
#
# Static dielectric constant tensor:
#      x y z
#    x 3.991190 -0.190850 0.137440 
#    y -0.190850 4.169230 -0.088900 
#    z 0.137440 -0.088900 3.901620 
# 
# 
# High freq. dielectric constant tensor:
#      x y z
#    x 1.884260 -0.009890 0.008170 
#    y -0.009890 1.886440 0.000190 
#    z 0.008170 0.000190 1.882870 
# 
# From -- ./inp_files/611327.got.cif
#   From: 2010.06.25/outbox.cif.g09.slc.cpg/sg2_306_cif.got.tgz:611327.got - 2010.06.27 13:26:56.
