data_PCOD8026787
_publ_section_title
;
Structure prediction by ZEFSAII (Michael W. Deem and Ramdas Pophale) SiO2 
 PCOD8026787
Probable space group: P -1
;
_chemical_formula_sum "Si O2"
_cell_formula_units_Z 12
_cell_length_a 14.792053
_cell_length_b 9.814407
_cell_length_c 5.282007
_cell_angle_alpha 107.976084
_cell_angle_beta 87.876190
_cell_angle_gamma 132.943807
_cell_volume 517.144123
_symmetry_space_group_name_H-M "P -1"
_symmetry_group_IT_number 2
_symmetry_cell_setting 'triclinic'
loop_
_space_group_symop_operation_xyz
x,y,z
-x,-y,-z
loop_
_atom_site_type_symbol
_atom_site_label
_atom_site_fract_x
_atom_site_fract_y
_atom_site_fract_z
Si Si1 0.213232 0.126966 0.509195
Si Si2 0.543709 0.126396 0.312600
Si Si3 0.056274 0.674692 0.293552
Si Si4 0.170378 0.540234 0.442656
Si Si5 0.513053 0.641573 0.390012
Si Si6 0.763863 0.674191 0.904020
O O1 0.347886 0.222362 0.670358
O O2 0.127159 0.894412 0.307891
O O3 0.164259 0.166667 0.777971
O O4 0.781065 0.771968 0.687394
O O5 0.693304 0.314010 0.357919
O O6 0.478215 0.206569 0.357412
O O7 0.500000 0.000000 0.500000
O O8 0.500000 0.000000 0.000000
O O9 0.159386 0.690855 0.432520
O O10 0.945056 0.615235 0.443529
O O11 0.000000 0.500000 0.000000
O O12 0.170069 0.409991 0.161566
O O13 0.500000 0.500000 0.500000
O O14 0.390795 0.513047 0.137455
#
# Coordination Sequence:
#
# PCOD8026787 Si02
#       6
#     2   2   2   2   2   2
#     4  11  24  42  69  97 134 178 223 270 338 402
#     4  11  25  42  70 103 134 178 222 279 342 405
#     4  11  27  45  69  95 138 187 229 282 328 402
#     4  10  26  45  67  98 140 175 230 284 335 398
#     4   9  21  41  66  99 135 170 216 279 339 400
#     4  10  24  43  68 100 131 172 223 282 337 398
#
# _framework density 23.204363000000001
#
# number of rings (size 3 to 8) (size 9 to 14) (size 15 to 20)
#    0.000    1.667    0.000    1.500   11.667   12.000 
#    0.000    0.000    0.000    0.000    0.000    0.000 
#    0.000    0.000    0.000    0.000    0.000    0.000 
#
# Total GULP energy -148658.869232 kJ/mol
# GULP energy per Si atom -12388.239103 kJ/mol
# Density = 2.315155 g / cm^3
# Si number density = 23.204363 Si / 1000 Ang^3
#
#
#
# Elastic Constant Matrix: (Units=GPa)
#
#
# Indices 1 2 3 4 5 6 
#
# 1 93.7691 41.5281 26.6649 -5.7476 -33.5912 -2.3662
# 2 41.5281 97.0815 38.1895 13.5936 -17.2728 -16.1759
# 3 26.6649 38.1895 162.1374 16.6202 -23.7070 -15.1832
# 4 -5.7476 13.5936 16.6202 32.1701 -14.2427 -4.7970
# 5 -33.5912 -17.2728 -23.7070 -14.2427 27.9395 0.9409
# 6 -2.3662 -16.1759 -15.1832 -4.7970 0.9409 31.5430
#
#
#
# Elastic Compliance Matrix: (Units=1/GPa)
#
#
# Indices 1 2 3 4 5 6 
#
# 1 0.040338 -0.011953 0.001418 0.039373 0.062326 0.001708
# 2 -0.011953 0.016619 -0.001981 -0.012928 -0.012539 0.005080
# 3 0.001418 -0.001981 0.007633 0.000755 0.007253 0.002663
# 4 0.039373 -0.012928 0.000755 0.079756 0.080426 0.006417
# 5 0.062326 -0.012539 0.007253 0.080426 0.149805 0.009499
# 6 0.001708 0.005080 0.002663 0.006417 0.009499 0.036411
#
#
# Mechanical properties :
#
#
# Convention : Reuss Voigt Hill
#
# Bulk Modulus (GPa) = 25.27854 62.86143 44.06999
# Shear Modulus (GPa) = 13.55822 34.77091 24.16456
#
# Velocity S-wave (km/s) = 2.41984 3.87520 3.23054
# Velocity P-wave (km/s) = 4.32725 6.86819 5.74008
#
# Compressibility (1/GPa) = 0.03955924
#
# Stress axis : x y z
#
# Youngs Moduli (GPa) = 24.79031 60.17340 131.00262
#
# Poissons Ratio (x) = 0.71924 -0.18579
# Poissons Ratio (y) = 0.29631 0.25952
# Poissons Ratio (z) = -0.03516 0.11920
#
# Static dielectric constant tensor:
#      x y z
#    x 5.320930 -0.066600 -0.528240 
#    y -0.066600 4.963870 0.600840 
#    z -0.528240 0.600840 4.246220 
# 
# 
# High freq. dielectric constant tensor:
#      x y z
#    x 1.937380 0.000520 -0.023000 
#    y 0.000520 1.917330 0.013470 
#    z -0.023000 0.013470 1.907740 
# 
# From -- ./inp_files/94068.got.cif
#   From: 2010.06.25/outbox.cif.g09.slc.cpg/sg2_48_cif.got.tgz:94068.got - 2010.06.27 13:26:56.
