data_PCOD8026614
_publ_section_title
;
Structure prediction by ZEFSAII (Michael W. Deem and Ramdas Pophale) SiO2 
 PCOD8026614
Probable space group: P -1
;
_chemical_formula_sum "Si O2"
_cell_formula_units_Z 16
_cell_length_a 14.664482
_cell_length_b 12.644188
_cell_length_c 8.621422
_cell_angle_alpha 47.618479
_cell_angle_beta 102.525066
_cell_angle_gamma 64.543862
_cell_volume 693.494523
_symmetry_space_group_name_H-M "P -1"
_symmetry_group_IT_number 2
_symmetry_cell_setting 'triclinic'
loop_
_space_group_symop_operation_xyz
x,y,z
-x,-y,-z
loop_
_atom_site_type_symbol
_atom_site_label
_atom_site_fract_x
_atom_site_fract_y
_atom_site_fract_z
Si Si1 0.800062 0.299520 0.077889
Si Si2 0.488035 0.350182 0.195029
Si Si3 0.931189 0.848696 0.602426
Si Si4 0.591219 0.718610 0.066010
Si Si5 0.997362 0.616982 0.150938
Si Si6 0.703963 0.899870 0.903588
Si Si7 0.890486 0.236586 0.826916
Si Si8 0.267302 0.081875 0.763358
O O1 0.887689 0.325120 0.170494
O O2 0.843991 0.098591 0.381555
O O3 0.617332 0.541395 0.797070
O O4 0.844054 0.226645 0.985840
O O5 0.648011 0.079554 0.572239
O O6 0.500000 0.500000 0.000000
O O7 0.409528 0.355420 0.026048
O O8 0.852019 0.891484 0.372386
O O9 0.920607 0.735509 0.836416
O O10 0.729318 0.474653 0.450884
O O11 0.612363 0.863019 0.912574
O O12 0.424997 0.896030 0.908913
O O13 0.004745 0.753162 0.116420
O O14 0.173425 0.346269 0.464823
O O15 0.884276 0.647548 0.173797
O O16 0.690565 0.000947 0.961218
O O17 0.000000 0.000000 0.000000
#
# Coordination Sequence:
#
# PCOD8026614 Si02
#       8
#     2   2   2   2   2   2   2   2
#     4  10  24  45  72 101 145 191 239 293 365 427
#     4  12  28  47  73 105 149 190 248 297 360 432
#     4  10  24  42  71 104 138 188 239 290 363 419
#     4  12  28  47  73 106 146 195 237 299 369 428
#     4  11  25  45  70 108 145 187 245 297 355 435
#     4  12  27  45  72 105 145 190 244 298 365 429
#     4  11  27  46  75 109 146 188 241 300 363 430
#     4  12  25  45  74 103 148 185 246 296 360 432
#
# _framework density 23.071560000000002
#
# number of rings (size 3 to 8) (size 9 to 14) (size 15 to 20)
#    0.000    0.750    1.250    4.500   14.000    0.000 
#    0.000    2.500    0.000    0.000    0.000    0.000 
#    0.000    0.000    0.000    0.000    0.000    0.000 
#
# Total GULP energy -198338.466605 kJ/mol
# GULP energy per Si atom -12396.154163 kJ/mol
# Density = 2.301905 g / cm^3
# Si number density = 23.071560 Si / 1000 Ang^3
#
#
#
# Elastic Constant Matrix: (Units=GPa)
#
#
# Indices 1 2 3 4 5 6 
#
# 1 96.8461 59.6486 42.1285 -1.9466 6.0561 -1.2578
# 2 59.6486 125.9546 42.0440 4.0114 11.6804 6.1368
# 3 42.1285 42.0440 128.9116 4.1797 0.4887 -0.3135
# 4 -1.9466 4.0114 4.1797 44.0451 -0.4082 13.3935
# 5 6.0561 11.6804 0.4887 -0.4082 28.4162 -3.7376
# 6 -1.2578 6.1368 -0.3135 13.3935 -3.7376 44.2246
#
#
#
# Elastic Compliance Matrix: (Units=1/GPa)
#
#
# Indices 1 2 3 4 5 6 
#
# 1 0.015701 -0.006450 -0.003066 0.001299 -0.000508 0.000884
# 2 -0.006450 0.012066 -0.001797 -0.000641 -0.003827 -0.002000
# 3 -0.003066 -0.001797 0.009376 -0.001049 0.001302 0.000656
# 4 0.001299 -0.000641 -0.001049 0.025216 -0.000629 -0.007571
# 5 -0.000508 -0.003827 0.001302 -0.000629 0.037350 0.003873
# 6 0.000884 -0.002000 0.000656 -0.007571 0.003873 0.025539
#
#
# Mechanical properties :
#
#
# Convention : Reuss Voigt Hill
#
# Bulk Modulus (GPa) = 68.87838 71.03938 69.95888
# Shear Modulus (GPa) = 32.74117 37.19660 34.96888
#
# Velocity S-wave (km/s) = 3.77120 4.01961 3.89738
# Velocity P-wave (km/s) = 6.99154 7.23884 7.11626
#
# Compressibility (1/GPa) = 0.01451834
#
# Stress axis : x y z
#
# Youngs Moduli (GPa) = 63.69068 82.87529 106.65600
#
# Poissons Ratio (x) = 0.53451 0.32697
# Poissons Ratio (y) = 0.41078 0.19169
# Poissons Ratio (z) = 0.19525 0.14895
#
# Static dielectric constant tensor:
#      x y z
#    x 4.130170 0.034940 0.074530 
#    y 0.034940 4.138690 0.080810 
#    z 0.074530 0.080810 4.290110 
# 
# 
# High freq. dielectric constant tensor:
#      x y z
#    x 1.915440 -0.000660 0.007710 
#    y -0.000660 1.913460 0.003790 
#    z 0.007710 0.003790 1.925840 
# 
# From -- ./inp_files/306524.got.cif
#   From: 2010.06.25/outbox.cif.g09.slc.cpg/sg2_154_cif.got.tgz:306524.got - 2010.06.27 13:26:56.
