data_PCOD8026299
_publ_section_title
;
Structure prediction by ZEFSAII (Michael W. Deem and Ramdas Pophale) SiO2 
 PCOD8026299
Probable space group: P -1
;
_chemical_formula_sum "Si O2"
_cell_formula_units_Z 12
_cell_length_a 18.449100
_cell_length_b 5.000804
_cell_length_c 21.435274
_cell_angle_alpha 52.428732
_cell_angle_beta 161.149908
_cell_angle_gamma 125.238010
_cell_volume 506.434713
_symmetry_space_group_name_H-M "P -1"
_symmetry_group_IT_number 2
_symmetry_cell_setting 'triclinic'
loop_
_space_group_symop_operation_xyz
x,y,z
-x,-y,-z
loop_
_atom_site_type_symbol
_atom_site_label
_atom_site_fract_x
_atom_site_fract_y
_atom_site_fract_z
Si Si1 0.887785 0.646373 0.948233
Si Si2 0.622082 0.506329 0.192344
Si Si3 0.818425 0.677601 0.201834
Si Si4 0.766836 0.777422 0.399641
Si Si5 0.093684 0.250835 0.281702
Si Si6 0.624923 0.325434 0.458344
O O1 0.926007 0.399971 0.072792
O O2 0.624033 0.692690 0.714676
O O3 0.000000 0.500000 0.000000
O O4 0.000000 0.000000 0.000000
O O5 0.700176 0.729361 0.165154
O O6 0.639960 0.731540 0.236761
O O7 0.776820 0.170416 0.371361
O O8 0.365533 0.388093 0.992144
O O9 0.979221 0.351435 0.380660
O O10 0.955414 0.013470 0.249780
O O11 0.625906 0.575449 0.364842
O O12 0.200732 0.554550 0.364450
O O13 0.297872 0.046601 0.445844
#
# Coordination Sequence:
#
# PCOD8026299 Si02
#       6
#     2   2   2   2   2   2
#     4  12  27  46  72 100 127 164 211 266 330 393
#     4  11  24  39  63  95 133 173 222 268 306 368
#     4  10  24  41  64  95 130 176 219 263 320 368
#     4  11  23  41  64  93 132 174 216 263 315 374
#     4  11  25  44  67  95 133 170 213 265 319 386
#     4  11  25  44  68  98 131 171 211 260 324 383
#
# _framework density 23.695056000000001
#
# number of rings (size 3 to 8) (size 9 to 14) (size 15 to 20)
#    0.000    1.000    0.000    6.000    0.000   17.333 
#    0.000    0.000    0.000    0.000    0.000    0.000 
#    0.000    0.000    0.000    0.000    0.000    0.000 
#
# Total GULP energy -148916.629331 kJ/mol
# GULP energy per Si atom -12409.719111 kJ/mol
# Density = 2.364113 g / cm^3
# Si number density = 23.695056 Si / 1000 Ang^3
#
#
#
# Elastic Constant Matrix: (Units=GPa)
#
#
# Indices 1 2 3 4 5 6 
#
# 1 90.5589 12.9206 17.1514 15.5301 -1.9801 -11.9559
# 2 12.9206 74.3843 4.1632 1.9108 -1.4747 -4.5680
# 3 17.1514 4.1632 93.0201 13.8898 1.9592 15.0147
# 4 15.5301 1.9108 13.8898 36.4188 10.2434 -1.0598
# 5 -1.9801 -1.4747 1.9592 10.2434 40.2850 5.0862
# 6 -11.9559 -4.5680 15.0147 -1.0598 5.0862 29.1500
#
#
#
# Elastic Compliance Matrix: (Units=1/GPa)
#
#
# Indices 1 2 3 4 5 6 
#
# 1 0.013470 -0.001654 -0.002742 -0.004751 0.001147 0.006305
# 2 -0.001654 0.013876 -0.000645 0.000228 0.000172 0.001806
# 3 -0.002742 -0.000645 0.013299 -0.004514 0.001414 -0.008487
# 4 -0.004751 0.000228 -0.004514 0.033822 -0.009011 0.003214
# 5 0.001147 0.000172 0.001414 -0.009011 0.027791 -0.005408
# 6 0.006305 0.001806 -0.008487 0.003214 -0.005408 0.042606
#
#
# Mechanical properties :
#
#
# Convention : Reuss Voigt Hill
#
# Bulk Modulus (GPa) = 32.72110 36.27037 34.49574
# Shear Modulus (GPa) = 30.27837 36.08595 33.18216
#
# Velocity S-wave (km/s) = 3.57856 3.90671 3.74623
# Velocity P-wave (km/s) = 5.56004 5.97413 5.77080
#
# Compressibility (1/GPa) = 0.03056132
#
# Stress axis : x y z
#
# Youngs Moduli (GPa) = 74.23849 72.06860 75.19409
#
# Poissons Ratio (x) = 0.11922 0.20620
# Poissons Ratio (y) = 0.12281 0.04851
# Poissons Ratio (z) = 0.20357 0.04650
#
# Static dielectric constant tensor:
#      x y z
#    x 4.310980 0.050920 -0.013220 
#    y 0.050920 4.180910 -0.128530 
#    z -0.013220 -0.128530 4.370780 
# 
# 
# High freq. dielectric constant tensor:
#      x y z
#    x 1.944080 -0.002250 -0.000480 
#    y -0.002250 1.941220 -0.002580 
#    z -0.000480 -0.002580 1.951810 
# 
# From -- ./inp_files/113776.got.cif
#   From: 2010.06.25/outbox.cif.g09.slc.cpg/sg2_57_cif.got.tgz:113776.got - 2010.06.27 13:26:56.
