data_PCOD8026170
_publ_section_title
;
Structure prediction by ZEFSAII (Michael W. Deem and Ramdas Pophale) SiO2 
 PCOD8026170
Probable space group: P -1
;
_chemical_formula_sum "Si O2"
_cell_formula_units_Z 16
_cell_length_a 9.051240
_cell_length_b 24.766810
_cell_length_c 13.502318
_cell_angle_alpha 158.347469
_cell_angle_beta 51.566426
_cell_angle_gamma 138.470888
_cell_volume 705.585348
_symmetry_space_group_name_H-M "P -1"
_symmetry_group_IT_number 2
_symmetry_cell_setting 'triclinic'
loop_
_space_group_symop_operation_xyz
x,y,z
-x,-y,-z
loop_
_atom_site_type_symbol
_atom_site_label
_atom_site_fract_x
_atom_site_fract_y
_atom_site_fract_z
Si Si1 0.559162 0.463504 0.658696
Si Si2 0.626998 0.381229 0.276657
Si Si3 0.172730 0.485170 0.781986
Si Si4 0.379002 0.918388 0.153527
Si Si5 0.859187 0.925009 0.130900
Si Si6 0.931360 0.859566 0.201936
Si Si7 0.377909 0.074074 0.116417
Si Si8 0.759148 0.209254 0.607376
O O1 0.656660 0.485464 0.543337
O O2 0.317952 0.441241 0.715830
O O3 0.514297 0.292267 0.446179
O O4 0.749949 0.650059 0.955339
O O5 0.783337 0.525571 0.370909
O O6 0.727905 0.265244 0.052946
O O7 0.353776 0.254606 0.141748
O O8 0.904973 0.341099 0.678802
O O9 0.242320 0.685266 0.117535
O O10 0.178242 0.897325 0.133981
O O11 0.491352 0.083248 0.465677
O O12 0.591816 0.952463 0.056764
O O13 0.827753 0.894026 0.209093
O O14 0.856052 0.095296 0.401532
O O15 0.102868 0.964346 0.062538
O O16 0.000000 0.000000 0.500000
O O17 0.500000 0.000000 0.000000
#
# Coordination Sequence:
#
# PCOD8026170 Si02
#       8
#     2   2   2   2   2   2   2   2
#     4  11  24  44  68 100 136 173 228 277 329 398
#     4  10  24  39  71  98 129 171 221 286 331 385
#     4  11  21  41  65 102 129 168 226 277 333 391
#     4  10  24  42  61  98 131 179 220 270 335 392
#     4  11  23  43  69  96 132 177 226 274 340 390
#     4  12  26  44  67  96 140 181 222 272 333 405
#     4  11  23  44  66  97 138 179 222 275 335 402
#     4  10  24  40  68  95 134 175 219 281 331 396
#
# _framework density 22.676207000000002
#
# number of rings (size 3 to 8) (size 9 to 14) (size 15 to 20)
#    0.000    1.250    3.750    1.125    3.500    4.500 
#    2.250    0.625    0.000    0.000    0.000    0.000 
#    0.000    0.000    0.000    0.000    0.000    0.000 
#
# Total GULP energy -198364.180599 kJ/mol
# GULP energy per Si atom -12397.761287 kJ/mol
# Density = 2.262460 g / cm^3
# Si number density = 22.676207 Si / 1000 Ang^3
#
#
#
# Elastic Constant Matrix: (Units=GPa)
#
#
# Indices 1 2 3 4 5 6 
#
# 1 100.6034 8.9561 24.2353 5.0779 -8.0059 -3.4600
# 2 8.9561 64.1516 8.4359 1.7021 -3.0465 -7.5468
# 3 24.2353 8.4359 100.4956 2.9344 5.1998 -11.1285
# 4 5.0779 1.7021 2.9344 19.4410 -0.3463 -4.6243
# 5 -8.0059 -3.0465 5.1998 -0.3463 33.6131 4.1591
# 6 -3.4600 -7.5468 -11.1285 -4.6243 4.1591 25.0546
#
#
#
# Elastic Compliance Matrix: (Units=1/GPa)
#
#
# Indices 1 2 3 4 5 6 
#
# 1 0.011041 -0.001083 -0.002767 -0.002557 0.003058 -0.001010
# 2 -0.001083 0.016377 -0.000672 0.000000 0.000792 0.004353
# 3 -0.002767 -0.000672 0.011385 0.000203 -0.003101 0.005025
# 4 -0.002557 0.000000 0.000203 0.054430 -0.001317 0.010002
# 5 0.003058 0.000792 -0.003101 -0.001317 0.031788 -0.006237
# 6 -0.001010 0.004353 0.005025 0.010002 -0.006237 0.046198
#
#
# Mechanical properties :
#
#
# Convention : Reuss Voigt Hill
#
# Bulk Modulus (GPa) = 33.60441 38.72281 36.16361
# Shear Modulus (GPa) = 26.29024 30.52998 28.41011
#
# Velocity S-wave (km/s) = 3.40865 3.67324 3.54342
# Velocity P-wave (km/s) = 5.50848 5.92484 5.72045
#
# Compressibility (1/GPa) = 0.02975800
#
# Stress axis : x y z
#
# Youngs Moduli (GPa) = 90.57371 61.05955 87.83220
#
# Poissons Ratio (x) = 0.06614 0.24304
# Poissons Ratio (y) = 0.09812 0.05906
# Poissons Ratio (z) = 0.25062 0.04106
#
# Static dielectric constant tensor:
#      x y z
#    x 4.127870 0.060530 -0.210120 
#    y 0.060530 3.992920 0.065930 
#    z -0.210120 0.065930 4.162440 
# 
# 
# High freq. dielectric constant tensor:
#      x y z
#    x 1.887330 0.006780 -0.015380 
#    y 0.006780 1.889300 0.002040 
#    z -0.015380 0.002040 1.905110 
# 
# From -- ./inp_files/298100.got.cif
#   From: 2010.06.25/outbox.cif.g09.slc.cpg/sg2_150_cif.got.tgz:298100.got - 2010.06.27 13:26:56.
