data_PCOD8026473
_publ_section_title
;
Structure prediction by ZEFSAII (Michael W. Deem and Ramdas Pophale) SiO2 
 PCOD8026473
Probable space group: P -1
;
_chemical_formula_sum "Si O2"
_cell_formula_units_Z 16
_cell_length_a 9.051018
_cell_length_b 14.629247
_cell_length_c 11.621944
_cell_angle_alpha 32.898542
_cell_angle_beta 79.624305
_cell_angle_gamma 67.592822
_cell_volume 742.107679
_symmetry_space_group_name_H-M "P -1"
_symmetry_group_IT_number 2
_symmetry_cell_setting 'triclinic'
loop_
_space_group_symop_operation_xyz
x,y,z
-x,-y,-z
loop_
_atom_site_type_symbol
_atom_site_label
_atom_site_fract_x
_atom_site_fract_y
_atom_site_fract_z
Si Si1 0.820388 0.109268 0.354162
Si Si2 0.781412 0.459163 0.849095
Si Si3 0.072913 0.146430 0.809491
Si Si4 0.260745 0.520152 0.564797
Si Si5 0.483909 0.383098 0.458776
Si Si6 0.862329 0.754515 0.065013
Si Si7 0.269857 0.119162 0.579718
Si Si8 0.382562 0.948798 0.364809
O O1 0.669556 0.152195 0.419367
O O2 0.812963 0.969743 0.403985
O O3 0.794489 0.315908 0.100498
O O4 0.000000 0.000000 0.500000
O O5 0.625860 0.475601 0.774732
O O6 0.767506 0.663496 0.674608
O O7 0.941786 0.363376 0.848222
O O8 0.174390 0.151680 0.903025
O O9 0.199648 0.097247 0.737125
O O10 0.917713 0.341072 0.603269
O O11 0.000000 0.000000 0.000000
O O12 0.380772 0.416833 0.553166
O O13 0.342224 0.610023 0.547400
O O14 0.236741 0.369285 0.804678
O O15 0.530937 0.177940 0.623451
O O16 0.791518 0.892155 0.822034
O O17 0.470852 0.994473 0.674940
#
# Coordination Sequence:
#
# PCOD8026473 Si02
#       8
#     2   2   2   2   2   2   2   2
#     4  12  27  47  73 100 137 181 242 290 338 408
#     4  11  23  47  71  99 137 185 227 287 344 408
#     4  12  24  40  73 102 143 181 225 280 346 423
#     4  11  23  39  67 104 140 175 223 277 344 426
#     4  10  24  42  66 101 138 176 228 277 349 408
#     4  12  22  41  69 101 138 179 222 280 347 409
#     4  11  27  46  71 105 137 184 233 282 349 408
#     4  11  26  47  67 100 140 180 233 290 335 407
#
# _framework density 21.560213000000001
#
# number of rings (size 3 to 8) (size 9 to 14) (size 15 to 20)
#    0.000    0.750    3.750    3.750    3.500    5.500 
#    2.250    0.000    0.000    0.000    0.000    0.000 
#    0.000    0.000    0.000    0.000    0.000    0.000 
#
# Total GULP energy -198305.343192 kJ/mol
# GULP energy per Si atom -12394.083950 kJ/mol
# Density = 2.151114 g / cm^3
# Si number density = 21.560213 Si / 1000 Ang^3
#
#
#
# Elastic Constant Matrix: (Units=GPa)
#
#
# Indices 1 2 3 4 5 6 
#
# 1 114.0887 29.0226 34.6508 13.2405 -3.0674 0.7848
# 2 29.0226 75.4855 18.2272 5.4731 -3.8551 3.9573
# 3 34.6508 18.2272 116.3228 9.3391 -8.6416 6.9168
# 4 13.2405 5.4731 9.3391 25.7777 -4.0740 -2.2745
# 5 -3.0674 -3.8551 -8.6416 -4.0740 38.5376 1.0807
# 6 0.7848 3.9573 6.9168 -2.2745 1.0807 33.8334
#
#
#
# Elastic Compliance Matrix: (Units=1/GPa)
#
#
# Indices 1 2 3 4 5 6 
#
# 1 0.010797 -0.003317 -0.002432 -0.003998 -0.000451 0.000380
# 2 -0.003317 0.014998 -0.001116 -0.001068 0.000917 -0.001550
# 3 -0.002432 -0.001116 0.009908 -0.002005 0.001762 -0.002030
# 4 -0.003998 -0.001068 -0.002005 0.042658 0.003540 0.003382
# 5 -0.000451 0.000917 0.001762 0.003540 0.026804 -0.001075
# 6 0.000380 -0.001550 -0.002030 0.003382 -0.001075 0.030406
#
#
# Mechanical properties :
#
#
# Convention : Reuss Voigt Hill
#
# Bulk Modulus (GPa) = 45.50838 52.18869 48.84854
# Shear Modulus (GPa) = 31.92355 34.56285 33.24320
#
# Velocity S-wave (km/s) = 3.85212 4.00820 3.93093
# Velocity P-wave (km/s) = 6.39832 6.75866 6.58096
#
# Compressibility (1/GPa) = 0.02197398
#
# Stress axis : x y z
#
# Youngs Moduli (GPa) = 92.62108 66.67591 100.92389
#
# Poissons Ratio (x) = 0.22117 0.24540
# Poissons Ratio (y) = 0.30723 0.11263
# Poissons Ratio (z) = 0.22521 0.07441
#
# Static dielectric constant tensor:
#      x y z
#    x 4.276560 -0.018610 0.189260 
#    y -0.018610 3.778050 0.130480 
#    z 0.189260 0.130480 3.655350 
# 
# 
# High freq. dielectric constant tensor:
#      x y z
#    x 1.870050 -0.003310 -0.000490 
#    y -0.003310 1.840090 0.004390 
#    z -0.000490 0.004390 1.844400 
# 
# From -- ./inp_files/187328.got.cif
#   From: 2010.06.25/outbox.cif.g09.slc.cpg/sg2_94_cif.got.tgz:187328.got - 2010.06.27 13:26:56.
