data_PCOD8026155
_publ_section_title
;
Structure prediction by ZEFSAII (Michael W. Deem and Ramdas Pophale) SiO2 
 PCOD8026155
Probable space group: P -1
;
_chemical_formula_sum "Si O2"
_cell_formula_units_Z 16
_cell_length_a 8.946028
_cell_length_b 12.057770
_cell_length_c 11.266685
_cell_angle_alpha 97.124942
_cell_angle_beta 37.844000
_cell_angle_gamma 98.602261
_cell_volume 737.197222
_symmetry_space_group_name_H-M "P -1"
_symmetry_group_IT_number 2
_symmetry_cell_setting 'triclinic'
loop_
_space_group_symop_operation_xyz
x,y,z
-x,-y,-z
loop_
_atom_site_type_symbol
_atom_site_label
_atom_site_fract_x
_atom_site_fract_y
_atom_site_fract_z
Si Si1 0.569976 0.527912 0.825774
Si Si2 0.012197 0.327196 0.328897
Si Si3 0.652291 0.278557 0.152701
Si Si4 0.825909 0.787460 0.235720
Si Si5 0.249373 0.095365 0.476028
Si Si6 0.612644 0.713282 0.117243
Si Si7 0.191310 0.855290 0.394309
Si Si8 0.581031 0.379598 0.449741
O O1 0.856363 0.575171 0.656067
O O2 0.423967 0.627978 0.879197
O O3 0.506851 0.410330 0.779351
O O4 0.500000 0.500000 0.000000
O O5 0.962634 0.212783 0.416667
O O6 0.757146 0.369014 0.450127
O O7 0.180552 0.299242 0.109895
O O8 0.442768 0.179783 0.296135
O O9 0.724828 0.340597 0.238927
O O10 0.886225 0.224784 0.946147
O O11 0.761272 0.893390 0.371547
O O12 0.721769 0.789367 0.168069
O O13 0.683709 0.685614 0.380680
O O14 0.979036 0.117418 0.604320
O O15 0.312985 0.969947 0.390997
O O16 0.400657 0.781499 0.202261
O O17 0.500000 0.500000 0.500000
#
# Coordination Sequence:
#
# PCOD8026155 Si02
#       8
#     2   2   2   2   2   2   2   2
#     4  10  24  39  66  99 132 172 216 265 323 402
#     4  11  23  44  65  99 135 173 221 272 329 392
#     4  11  23  44  64  98 138 172 220 267 334 394
#     4  11  24  42  66  96 135 174 219 268 331 394
#     4  10  26  45  70  98 126 176 224 285 325 390
#     4  11  24  42  66  99 132 178 212 271 330 398
#     4  11  24  47  69  96 132 168 232 276 333 386
#     4  11  24  39  64  98 135 182 217 265 328 393
#
# _framework density 21.703825999999999
#
# number of rings (size 3 to 8) (size 9 to 14) (size 15 to 20)
#    0.000    1.250    3.750    0.750    7.000    4.000 
#    0.000    3.750    0.000    0.000    0.000    0.000 
#    0.000    0.000    0.000    0.000    0.000    0.000 
#
# Total GULP energy -198317.187117 kJ/mol
# GULP energy per Si atom -12394.824195 kJ/mol
# Density = 2.165443 g / cm^3
# Si number density = 21.703826 Si / 1000 Ang^3
#
#
#
# Elastic Constant Matrix: (Units=GPa)
#
#
# Indices 1 2 3 4 5 6 
#
# 1 80.3453 18.9872 15.9069 -3.7036 -6.6153 10.1401
# 2 18.9872 96.1894 24.4460 2.5659 -16.6690 1.6853
# 3 15.9069 24.4460 103.6531 9.0714 -8.3683 4.8878
# 4 -3.7036 2.5659 9.0714 21.9104 -3.9580 1.9332
# 5 -6.6153 -16.6690 -8.3683 -3.9580 30.0581 -4.1045
# 6 10.1401 1.6853 4.8878 1.9332 -4.1045 30.2556
#
#
#
# Elastic Compliance Matrix: (Units=1/GPa)
#
#
# Indices 1 2 3 4 5 6 
#
# 1 0.014144 -0.002153 -0.001692 0.003980 0.001369 -0.004416
# 2 -0.002153 0.012383 -0.002170 0.000056 0.005959 0.001187
# 3 -0.001692 -0.002170 0.010895 -0.004339 0.000792 -0.000687
# 4 0.003980 0.000056 -0.004339 0.049415 0.005795 -0.003008
# 5 0.001369 0.005959 0.000792 0.005795 0.038393 0.003920
# 6 -0.004416 0.001187 -0.000687 -0.003008 0.003920 0.035300
#
#
# Mechanical properties :
#
#
# Convention : Reuss Voigt Hill
#
# Bulk Modulus (GPa) = 39.38454 44.31870 41.85162
# Shear Modulus (GPa) = 27.62040 31.16799 29.39420
#
# Velocity S-wave (km/s) = 3.57123 3.79365 3.68412
# Velocity P-wave (km/s) = 5.93217 6.29707 6.11734
#
# Compressibility (1/GPa) = 0.02539067
#
# Stress axis : x y z
#
# Youngs Moduli (GPa) = 70.70301 80.75617 91.78424
#
# Poissons Ratio (x) = 0.17390 0.15533
# Poissons Ratio (y) = 0.15225 0.19915
# Poissons Ratio (z) = 0.11965 0.17522
#
# Static dielectric constant tensor:
#      x y z
#    x 3.260440 0.101160 0.094790 
#    y 0.101160 3.988870 -0.002990 
#    z 0.094790 -0.002990 3.828370 
# 
# 
# High freq. dielectric constant tensor:
#      x y z
#    x 1.859770 0.012390 0.001490 
#    y 0.012390 1.846720 -0.000250 
#    z 0.001490 -0.000250 1.860710 
# 
# From -- ./inp_files/346519.got.cif
#   From: 2010.06.25/outbox.cif.g09.slc.cpg/sg2_174_cif.got.tgz:346519.got - 2010.06.27 13:26:56.
