data_PCOD8026980
_publ_section_title
;
Structure prediction by ZEFSAII (Michael W. Deem and Ramdas Pophale) SiO2 
 PCOD8026980
Probable space group: P -1
;
_chemical_formula_sum "Si O2"
_cell_formula_units_Z 16
_cell_length_a 9.184334
_cell_length_b 11.070557
_cell_length_c 15.036377
_cell_angle_alpha 43.864422
_cell_angle_beta 46.436141
_cell_angle_gamma 69.424708
_cell_volume 734.751189
_symmetry_space_group_name_H-M "P -1"
_symmetry_group_IT_number 2
_symmetry_cell_setting 'triclinic'
loop_
_space_group_symop_operation_xyz
x,y,z
-x,-y,-z
loop_
_atom_site_type_symbol
_atom_site_label
_atom_site_fract_x
_atom_site_fract_y
_atom_site_fract_z
Si Si1 0.806684 0.009337 0.283809
Si Si2 0.405784 0.348379 0.343587
Si Si3 0.397147 0.298386 0.182856
Si Si4 0.491920 0.029691 0.739648
Si Si5 0.941640 0.307947 0.377863
Si Si6 0.164181 0.642772 0.797404
Si Si7 0.103208 0.569510 0.325691
Si Si8 0.135872 0.978764 0.038507
O O1 0.773549 0.813680 0.448601
O O2 0.044346 0.071427 0.109400
O O3 0.634306 0.971526 0.297969
O O4 0.788135 0.154362 0.288828
O O5 0.479590 0.276362 0.258751
O O6 0.618190 0.408122 0.280073
O O7 0.325272 0.522766 0.261588
O O8 0.483021 0.171072 0.149092
O O9 0.143803 0.232812 0.333079
O O10 0.500000 0.500000 0.000000
O O11 0.724850 0.158995 0.567793
O O12 0.374163 0.076069 0.852806
O O13 0.940347 0.385232 0.239491
O O14 0.962232 0.461797 0.361601
O O15 0.000000 0.500000 0.000000
O O16 0.125588 0.777403 0.183416
O O17 0.000000 0.500000 0.500000
O O18 0.000000 0.000000 0.000000
#
# Coordination Sequence:
#
# PCOD8026980 Si02
#       8
#     2   2   2   2   2   2   2   2
#     4  11  22  43  68  98 139 186 224 276 365 406
#     4  11  21  42  71  94 133 184 223 279 357 411
#     4  11  22  39  67  95 137 183 225 287 349 408
#     4  11  21  42  66  99 140 176 234 285 343 418
#     4  11  25  40  69 107 133 179 240 289 348 407
#     4  12  25  41  68 106 140 178 238 299 341 415
#     4  11  24  48  72 100 141 184 233 281 355 424
#     4  10  24  43  73  99 135 192 228 278 350 426
#
# _framework density 21.776077999999998
#
# number of rings (size 3 to 8) (size 9 to 14) (size 15 to 20)
#    0.000    1.000    3.750    3.750    3.500    1.000 
#    2.250    3.750    0.000    0.000    0.000    0.000 
#    0.000    0.000    0.000    0.000    0.000    0.000 
#
# Total GULP energy -198237.737845 kJ/mol
# GULP energy per Si atom -12389.858615 kJ/mol
# Density = 2.172651 g / cm^3
# Si number density = 21.776078 Si / 1000 Ang^3
#
#
#
# Elastic Constant Matrix: (Units=GPa)
#
#
# Indices 1 2 3 4 5 6 
#
# 1 68.2950 34.9864 18.3499 -1.3464 12.2481 2.2990
# 2 34.9864 73.0054 21.0316 10.8069 2.5334 -8.2681
# 3 18.3499 21.0316 116.0685 10.9023 8.8580 -10.4501
# 4 -1.3464 10.8069 10.9023 40.5018 -5.8798 6.0214
# 5 12.2481 2.5334 8.8580 -5.8798 37.9638 5.9076
# 6 2.2990 -8.2681 -10.4501 6.0214 5.9076 34.5135
#
#
#
# Elastic Compliance Matrix: (Units=1/GPa)
#
#
# Indices 1 2 3 4 5 6 
#
# 1 0.021765 -0.010855 -0.001938 0.004174 -0.004483 -0.004598
# 2 -0.010855 0.020868 -0.000870 -0.006633 0.000263 0.006571
# 3 -0.001938 -0.000870 0.009991 -0.003533 -0.002825 0.004046
# 4 0.004174 -0.006633 -0.003533 0.029775 0.005956 -0.009151
# 5 -0.004483 0.000263 -0.002825 0.005956 0.030400 -0.006736
# 6 -0.004598 0.006571 0.004046 -0.009151 -0.006736 0.034829
#
#
# Mechanical properties :
#
#
# Convention : Reuss Voigt Hill
#
# Bulk Modulus (GPa) = 39.53068 45.12276 42.32672
# Shear Modulus (GPa) = 27.26467 34.79589 31.03028
#
# Velocity S-wave (km/s) = 3.54227 4.00170 3.77897
# Velocity P-wave (km/s) = 5.90956 6.48982 6.20647
#
# Compressibility (1/GPa) = 0.02529681
#
# Stress axis : x y z
#
# Youngs Moduli (GPa) = 45.94484 47.92132 100.08607
#
# Poissons Ratio (x) = 0.52020 0.19396
# Poissons Ratio (y) = 0.49875 0.08712
# Poissons Ratio (z) = 0.08904 0.04171
#
# Static dielectric constant tensor:
#      x y z
#    x 3.656910 0.139460 0.230460 
#    y 0.139460 4.133600 0.301450 
#    z 0.230460 0.301450 3.998990 
# 
# 
# High freq. dielectric constant tensor:
#      x y z
#    x 1.855300 -0.020030 0.015120 
#    y -0.020030 1.850590 0.021490 
#    z 0.015120 0.021490 1.867500 
# 
# From -- ./inp_files/278582.got.cif
#   From: 2010.06.25/outbox.cif.g09.slc.cpg/sg2_140_cif.got.tgz:278582.got - 2010.06.27 13:26:56.
