data_PCOD8026622
_publ_section_title
;
Structure prediction by ZEFSAII (Michael W. Deem and Ramdas Pophale) SiO2 
 PCOD8026622
Probable space group: P -1
;
_chemical_formula_sum "Si O2"
_cell_formula_units_Z 14
_cell_length_a 8.836377
_cell_length_b 11.006593
_cell_length_c 9.815488
_cell_angle_alpha 108.733624
_cell_angle_beta 50.275448
_cell_angle_gamma 120.089744
_cell_volume 635.291875
_symmetry_space_group_name_H-M "P -1"
_symmetry_group_IT_number 2
_symmetry_cell_setting 'triclinic'
loop_
_space_group_symop_operation_xyz
x,y,z
-x,-y,-z
loop_
_atom_site_type_symbol
_atom_site_label
_atom_site_fract_x
_atom_site_fract_y
_atom_site_fract_z
Si Si1 0.273675 0.686681 0.998701
Si Si2 0.237978 0.202004 0.324680
Si Si3 0.824124 0.941523 0.433629
Si Si4 0.652079 0.148772 0.718157
Si Si5 0.065118 0.363185 0.056860
Si Si6 0.026995 0.648874 0.587757
Si Si7 0.784209 0.877143 0.130890
O O1 0.518668 0.766474 0.840004
O O2 0.117593 0.696123 0.973927
O O3 0.233374 0.766042 0.181470
O O4 0.222748 0.525212 0.002845
O O5 0.198463 0.193365 0.509398
O O6 0.176415 0.322643 0.339039
O O7 0.072349 0.050317 0.307476
O O8 0.722832 0.895947 0.327817
O O9 0.690322 0.007702 0.627507
O O10 0.400962 0.117334 0.858429
O O11 0.751620 0.238905 0.558589
O O12 0.948359 0.341773 0.261060
O O13 0.209864 0.274423 0.939465
O O14 0.000000 0.500000 0.500000
O O15 0.000000 0.000000 0.000000
#
# Coordination Sequence:
#
# PCOD8026622 Si02
#       7
#     2   2   2   2   2   2   2
#     4  11  25  45  68 100 133 180 221 274 339 388
#     4  10  24  42  71  94 133 177 225 269 338 385
#     4  10  24  44  68 101 134 173 229 275 326 399
#     4  11  24  43  73  96 131 181 221 274 333 395
#     4  11  27  44  66 101 139 171 224 279 328 402
#     4  11  23  44  69  97 132 171 223 275 330 394
#     4  12  26  43  69 101 137 175 223 274 336 396
#
# _framework density 22.037113999999999
#
# number of rings (size 3 to 8) (size 9 to 14) (size 15 to 20)
#    0.000    1.143    1.429    3.857   12.000    1.714 
#    0.000    1.429    0.000    0.000    0.000    0.000 
#    0.000    0.000    0.000    0.000    0.000    0.000 
#
# Total GULP energy -173612.952888 kJ/mol
# GULP energy per Si atom -12400.925206 kJ/mol
# Density = 2.198696 g / cm^3
# Si number density = 22.037114 Si / 1000 Ang^3
#
#
#
# Elastic Constant Matrix: (Units=GPa)
#
#
# Indices 1 2 3 4 5 6 
#
# 1 102.9698 24.7552 51.9485 4.6146 15.2778 12.8860
# 2 24.7552 70.6963 43.3549 6.9409 7.9066 -2.0440
# 3 51.9485 43.3549 121.3336 8.7359 16.3463 12.2071
# 4 4.6146 6.9409 8.7359 43.5851 7.7165 1.4663
# 5 15.2778 7.9066 16.3463 7.7165 51.7094 -5.4213
# 6 12.8860 -2.0440 12.2071 1.4663 -5.4213 28.4391
#
#
#
# Elastic Compliance Matrix: (Units=1/GPa)
#
#
# Indices 1 2 3 4 5 6 
#
# 1 0.013306 -0.001990 -0.004123 0.000417 -0.002908 -0.004978
# 2 -0.001990 0.019049 -0.006420 -0.001804 0.000521 0.005219
# 3 -0.004123 -0.006420 0.013128 -0.000601 -0.002347 -0.004645
# 4 0.000417 -0.001804 -0.000601 0.023982 -0.003441 -0.001953
# 5 -0.002908 0.000521 -0.002347 -0.003441 0.022081 0.006749
# 6 -0.004978 0.005219 -0.004645 -0.001953 0.006749 0.041175
#
#
# Mechanical properties :
#
#
# Convention : Reuss Voigt Hill
#
# Bulk Modulus (GPa) = 48.98153 59.45744 54.21949
# Shear Modulus (GPa) = 30.37817 36.40945 33.39381
#
# Velocity S-wave (km/s) = 3.71684 4.06912 3.89697
# Velocity P-wave (km/s) = 6.37926 7.00829 6.70116
#
# Compressibility (1/GPa) = 0.02041586
#
# Stress axis : x y z
#
# Youngs Moduli (GPa) = 75.15447 52.49737 76.17489
#
# Poissons Ratio (x) = 0.10449 0.31408
# Poissons Ratio (y) = 0.14959 0.48902
# Poissons Ratio (z) = 0.30987 0.33702
#
# Static dielectric constant tensor:
#      x y z
#    x 3.910310 0.030120 0.077790 
#    y 0.030120 3.829990 0.145010 
#    z 0.077790 0.145010 3.921870 
# 
# 
# High freq. dielectric constant tensor:
#      x y z
#    x 1.876000 -0.011310 0.009970 
#    y -0.011310 1.862850 -0.004520 
#    z 0.009970 -0.004520 1.876520 
# 
# From -- ./inp_files/188270.got.cif
#   From: 2010.06.25/outbox.cif.g09.slc.cpg/sg2_95_cif.got.tgz:188270.got - 2010.06.27 13:26:56.
