data_PCOD8026421
_publ_section_title
;
Structure prediction by ZEFSAII (Michael W. Deem and Ramdas Pophale) SiO2 
 PCOD8026421
Probable space group: P -1
;
_chemical_formula_sum "Si O2"
_cell_formula_units_Z 16
_cell_length_a 11.775913
_cell_length_b 14.322597
_cell_length_c 15.160083
_cell_angle_alpha 40.977646
_cell_angle_beta 60.117048
_cell_angle_gamma 29.937555
_cell_volume 735.599224
_symmetry_space_group_name_H-M "P -1"
_symmetry_group_IT_number 2
_symmetry_cell_setting 'triclinic'
loop_
_space_group_symop_operation_xyz
x,y,z
-x,-y,-z
loop_
_atom_site_type_symbol
_atom_site_label
_atom_site_fract_x
_atom_site_fract_y
_atom_site_fract_z
Si Si1 0.353907 0.294610 0.185622
Si Si2 0.709176 0.275632 0.820712
Si Si3 0.275541 0.656160 0.038561
Si Si4 0.007813 0.353632 0.235638
Si Si5 0.520543 0.718514 0.494632
Si Si6 0.464982 0.218607 0.003474
Si Si7 0.778454 0.699225 0.515340
Si Si8 0.788699 0.634672 0.293551
O O1 0.218768 0.544594 0.116340
O O2 0.148262 0.373753 0.173372
O O3 0.484941 0.234982 0.088227
O O4 0.577986 0.017229 0.357619
O O5 0.639418 0.409665 0.846327
O O6 0.572109 0.501751 0.637922
O O7 0.604480 0.213458 0.899216
O O8 0.015288 0.991358 0.885434
O O9 0.500000 0.500000 0.000000
O O10 0.824102 0.508053 0.282225
O O11 0.214777 0.031811 0.378985
O O12 0.833464 0.511268 0.103447
O O13 0.624316 0.696892 0.559894
O O14 0.670940 0.642228 0.407389
O O15 0.600088 0.942268 0.127209
O O16 0.000000 0.500000 0.500000
O O17 0.923551 0.573689 0.643004
#
# Coordination Sequence:
#
# PCOD8026421 Si02
#       8
#     2   2   2   2   2   2   2   2
#     4  11  22  41  68  99 126 175 217 276 331 381
#     4  11  27  42  65 100 139 170 218 270 336 395
#     4  11  25  41  67  98 138 175 214 268 340 403
#     4  11  25  42  70  95 130 177 230 270 321 384
#     4  10  24  42  63  97 131 175 212 280 329 390
#     4  12  23  46  66  97 136 176 224 274 315 395
#     4   9  19  35  64  93 128 156 213 270 330 372
#     4  11  23  40  68  96 129 173 222 276 328 383
#
# _framework density 21.750975
#
# number of rings (size 3 to 8) (size 9 to 14) (size 15 to 20)
#    0.000    1.250    5.000    1.500   10.500    1.500 
#    0.000    0.625    0.000    0.000    0.000    0.000 
#    0.000    0.000    0.000    0.000    0.000    0.000 
#
# Total GULP energy -198429.328980 kJ/mol
# GULP energy per Si atom -12401.833061 kJ/mol
# Density = 2.170147 g / cm^3
# Si number density = 21.750975 Si / 1000 Ang^3
#
#
#
# Elastic Constant Matrix: (Units=GPa)
#
#
# Indices 1 2 3 4 5 6 
#
# 1 39.8315 14.5311 29.4638 -1.5121 -3.7655 -10.3419
# 2 14.5311 99.1204 37.4395 -10.7515 -10.6588 -0.8686
# 3 29.4638 37.4395 135.7919 -12.7249 -14.1131 -18.1117
# 4 -1.5121 -10.7515 -12.7249 30.1533 -10.9789 1.2991
# 5 -3.7655 -10.6588 -14.1131 -10.9789 39.3439 -1.9273
# 6 -10.3419 -0.8686 -18.1117 1.2991 -1.9273 30.5556
#
#
#
# Elastic Compliance Matrix: (Units=1/GPa)
#
#
# Indices 1 2 3 4 5 6 
#
# 1 0.031996 -0.002799 -0.005289 -0.001861 0.000265 0.007710
# 2 -0.002799 0.012188 -0.002219 0.004599 0.003429 -0.001895
# 3 -0.005289 -0.002219 0.010614 0.004778 0.004254 0.004503
# 4 -0.001861 0.004599 0.004778 0.041966 0.014564 0.001467
# 5 0.000265 0.003429 0.004254 0.014564 0.032163 0.004118
# 6 0.007710 -0.001895 0.004503 0.001467 0.004118 0.038150
#
#
# Mechanical properties :
#
#
# Convention : Reuss Voigt Hill
#
# Bulk Modulus (GPa) = 29.25261 48.62363 38.93812
# Shear Modulus (GPa) = 25.11501 32.89786 29.00643
#
# Velocity S-wave (km/s) = 3.40172 3.89328 3.65577
# Velocity P-wave (km/s) = 5.37652 6.52789 5.97998
#
# Compressibility (1/GPa) = 0.03418498
#
# Stress axis : x y z
#
# Youngs Moduli (GPa) = 31.25438 82.04806 94.21510
#
# Poissons Ratio (x) = 0.22962 0.49832
# Poissons Ratio (y) = 0.08747 0.20902
# Poissons Ratio (z) = 0.16531 0.18203
#
# Static dielectric constant tensor:
#      x y z
#    x 5.211860 -0.741860 1.208490 
#    y -0.741860 4.545570 -0.683170 
#    z 1.208490 -0.683170 4.872690 
# 
# 
# High freq. dielectric constant tensor:
#      x y z
#    x 1.830850 0.000270 -0.000090 
#    y 0.000270 1.865700 -0.004280 
#    z -0.000090 -0.004280 1.856270 
# 
# From -- ./inp_files/522274.got.cif
#   From: 2010.06.25/outbox.cif.g09.slc.cpg/sg2_262_cif.got.tgz:522274.got - 2010.06.27 13:26:56.
