data_PCOD8026206
_publ_section_title
;
Structure prediction by ZEFSAII (Michael W. Deem and Ramdas Pophale) SiO2 
 PCOD8026206
Probable space group: P -1
;
_chemical_formula_sum "Si O2"
_cell_formula_units_Z 16
_cell_length_a 6.669053
_cell_length_b 11.668041
_cell_length_c 11.662749
_cell_angle_alpha 105.732711
_cell_angle_beta 64.318767
_cell_angle_gamma 109.382989
_cell_volume 762.828213
_symmetry_space_group_name_H-M "P -1"
_symmetry_group_IT_number 2
_symmetry_cell_setting 'triclinic'
loop_
_space_group_symop_operation_xyz
x,y,z
-x,-y,-z
loop_
_atom_site_type_symbol
_atom_site_label
_atom_site_fract_x
_atom_site_fract_y
_atom_site_fract_z
Si Si1 0.999879 0.563849 0.813695
Si Si2 0.517017 0.846143 0.231587
Si Si3 0.229374 0.484916 0.378847
Si Si4 0.410307 0.263800 0.587689
Si Si5 0.494025 0.288489 0.320711
Si Si6 0.572704 0.064250 0.121615
Si Si7 0.056086 0.704479 0.213027
Si Si8 0.035060 0.211705 0.979284
O O1 0.256723 0.619623 0.721515
O O2 0.818686 0.534903 0.748108
O O3 0.993502 0.438213 0.848285
O O4 0.910690 0.653884 0.943655
O O5 0.564911 0.841044 0.354646
O O6 0.287896 0.741465 0.238021
O O7 0.724049 0.822474 0.097337
O O8 0.488175 0.976563 0.228243
O O9 0.434004 0.604240 0.379158
O O10 0.301517 0.364524 0.375422
O O11 0.000000 0.500000 0.500000
O O12 0.471541 0.225932 0.435446
O O13 0.148401 0.272794 0.651859
O O14 0.465047 0.182022 0.201661
O O15 0.850628 0.111858 0.071344
O O16 0.500000 0.000000 0.000000
O O17 0.081548 0.785986 0.114902
#
# Coordination Sequence:
#
# PCOD8026206 Si02
#       8
#     2   2   2   2   2   2   2   2
#     4  11  22  37  63  99 130 169 209 264 328 386
#     4  11  24  42  67  91 127 176 215 267 315 376
#     4  12  22  38  66  99 132 167 209 263 326 385
#     4  11  23  41  64  97 133 166 211 263 327 386
#     4  11  25  42  66  97 131 173 214 262 319 385
#     4  11  24  47  69  89 128 174 221 270 316 371
#     4  11  21  40  62  94 135 170 205 265 330 379
#     4  10  24  40  65  93 124 171 221 267 319 379
#
# _framework density 20.974578000000001
#
# number of rings (size 3 to 8) (size 9 to 14) (size 15 to 20)
#    0.000    1.000    5.000    1.875    1.750    1.000 
#    0.000    0.625    0.000    0.000    0.000    0.000 
#    0.000    0.000    0.000    0.000    0.000    0.000 
#
# Total GULP energy -198403.418480 kJ/mol
# GULP energy per Si atom -12400.213655 kJ/mol
# Density = 2.092684 g / cm^3
# Si number density = 20.974578 Si / 1000 Ang^3
#
#
#
# Elastic Constant Matrix: (Units=GPa)
#
#
# Indices 1 2 3 4 5 6 
#
# 1 96.0734 31.8201 36.3685 6.6548 -6.9010 0.6827
# 2 31.8201 107.0977 34.6110 -7.0333 -1.5588 -3.4140
# 3 36.3685 34.6110 77.7037 6.2494 -3.5327 3.8223
# 4 6.6548 -7.0333 6.2494 29.9202 2.1683 3.0081
# 5 -6.9010 -1.5588 -3.5327 2.1683 28.3951 -3.9241
# 6 0.6827 -3.4140 3.8223 3.0081 -3.9241 31.8046
#
#
#
# Elastic Compliance Matrix: (Units=1/GPa)
#
#
# Indices 1 2 3 4 5 6 
#
# 1 0.013491 -0.002570 -0.004841 -0.002864 0.002842 0.000638
# 2 -0.002570 0.011875 -0.004524 0.004216 -0.000665 0.001393
# 3 -0.004841 -0.004524 0.017568 -0.003502 0.000742 -0.002070
# 4 -0.002864 0.004216 -0.003502 0.036381 -0.004094 -0.003011
# 5 0.002842 -0.000665 0.000742 -0.004094 0.036929 0.004722
# 6 0.000638 0.001393 -0.002070 -0.003011 0.004722 0.032694
#
#
# Mechanical properties :
#
#
# Convention : Reuss Voigt Hill
#
# Bulk Modulus (GPa) = 52.46058 54.05266 53.25662
# Shear Modulus (GPa) = 27.90777 29.89567 28.90172
#
# Velocity S-wave (km/s) = 3.65163 3.77945 3.71609
# Velocity P-wave (km/s) = 6.54561 6.69867 6.62258
#
# Compressibility (1/GPa) = 0.01906193
#
# Stress axis : x y z
#
# Youngs Moduli (GPa) = 74.12606 84.21388 56.92281
#
# Poissons Ratio (x) = 0.21643 0.27558
# Poissons Ratio (y) = 0.19050 0.25753
# Poissons Ratio (z) = 0.35886 0.38100
#
# Static dielectric constant tensor:
#      x y z
#    x 3.774480 -0.023400 0.018730 
#    y -0.023400 3.880700 -0.173090 
#    z 0.018730 -0.173090 3.796770 
# 
# 
# High freq. dielectric constant tensor:
#      x y z
#    x 1.823640 0.000700 -0.002300 
#    y 0.000700 1.823040 -0.013190 
#    z -0.002300 -0.013190 1.818130 
# 
# From -- ./inp_files/66462.got.cif
#   From: 2010.06.25/outbox.cif.g09.slc.cpg/sg2_34_cif.got.tgz:66462.got - 2010.06.27 13:26:56.
