data_PCOD8026020
_publ_section_title
;
Structure prediction by ZEFSAII (Michael W. Deem and Ramdas Pophale) SiO2 
 PCOD8026020
Probable space group: P -1
;
_chemical_formula_sum "Si O2"
_cell_formula_units_Z 14
_cell_length_a 5.290517
_cell_length_b 22.441813
_cell_length_c 8.698303
_cell_angle_alpha 40.210252
_cell_angle_beta 86.774713
_cell_angle_gamma 101.141148
_cell_volume 619.372789
_symmetry_space_group_name_H-M "P -1"
_symmetry_group_IT_number 2
_symmetry_cell_setting 'triclinic'
loop_
_space_group_symop_operation_xyz
x,y,z
-x,-y,-z
loop_
_atom_site_type_symbol
_atom_site_label
_atom_site_fract_x
_atom_site_fract_y
_atom_site_fract_z
Si Si1 0.444046 0.723704 0.231936
Si Si2 0.966195 0.580576 0.727652
Si Si3 0.832453 0.640280 0.910425
Si Si4 0.589216 0.263613 0.144303
Si Si5 0.695162 0.932371 0.962826
Si Si6 0.319236 0.055482 0.705767
Si Si7 0.458202 0.460656 0.410234
O O1 0.632493 0.657999 0.351140
O O2 0.219287 0.668035 0.474765
O O3 0.329665 0.722103 0.066453
O O4 0.621533 0.833146 0.062756
O O5 0.828897 0.641917 0.721067
O O6 0.774698 0.518322 0.719195
O O7 0.000000 0.500000 0.000000
O O8 0.607341 0.679020 0.911604
O O9 0.133448 0.702469 0.836276
O O10 0.747426 0.523635 0.194582
O O11 0.428738 0.147770 0.406767
O O12 0.496304 0.987488 0.807969
O O13 0.656672 0.906131 0.195762
O O14 0.006565 0.997060 0.786727
O O15 0.500000 0.500000 0.500000
#
# Coordination Sequence:
#
# PCOD8026020 Si02
#       7
#     2   2   2   2   2   2   2
#     4  12  28  43  74 108 149 194 243 298 373 437
#     4  12  27  45  72 105 145 201 251 302 351 436
#     4  12  26  45  73 104 147 193 252 292 363 431
#     4  12  27  46  75 109 147 196 238 309 368 443
#     4  10  24  44  74 104 139 187 240 304 361 439
#     4  10  23  47  72 103 142 183 241 306 369 424
#     4  12  26  46  70 104 155 194 243 304 368 431
#
# _framework density 22.603508999999999
#
# number of rings (size 3 to 8) (size 9 to 14) (size 15 to 20)
#    0.000    0.571    2.857    3.857    6.000    3.429 
#    0.000    0.000    0.000    0.000    0.000    0.000 
#    0.000    0.000    0.000    0.000    0.000    0.000 
#
# Total GULP energy -173535.258843 kJ/mol
# GULP energy per Si atom -12395.375632 kJ/mol
# Density = 2.255206 g / cm^3
# Si number density = 22.603509 Si / 1000 Ang^3
#
#
#
# Elastic Constant Matrix: (Units=GPa)
#
#
# Indices 1 2 3 4 5 6 
#
# 1 126.6704 44.0743 26.5875 -4.3087 -5.4402 11.4455
# 2 44.0743 127.4904 23.5163 -2.4869 12.6155 16.0685
# 3 26.5875 23.5163 111.4398 -0.9714 3.9202 6.4988
# 4 -4.3087 -2.4869 -0.9714 44.9035 1.5911 2.3673
# 5 -5.4402 12.6155 3.9202 1.5911 28.2584 -5.1049
# 6 11.4455 16.0685 6.4988 2.3673 -5.1049 32.0562
#
#
#
# Elastic Compliance Matrix: (Units=1/GPa)
#
#
# Indices 1 2 3 4 5 6 
#
# 1 0.009614 -0.003201 -0.001669 0.000646 0.003292 -0.001013
# 2 -0.003201 0.010343 -0.000917 0.000716 -0.006026 -0.004869
# 3 -0.001669 -0.000917 0.009685 0.000111 -0.001470 -0.001150
# 4 0.000646 0.000716 0.000111 0.022580 -0.001950 -0.002590
# 5 0.003292 -0.006026 -0.001470 -0.001950 0.040607 0.008754
# 6 -0.001013 -0.004869 -0.001150 -0.002590 0.008754 0.035816
#
#
# Mechanical properties :
#
#
# Convention : Reuss Voigt Hill
#
# Bulk Modulus (GPa) = 55.34757 61.55075 58.44916
# Shear Modulus (GPa) = 34.19016 39.13847 36.66431
#
# Velocity S-wave (km/s) = 3.89344 4.16567 4.03185
# Velocity P-wave (km/s) = 6.68964 7.10118 6.89848
#
# Compressibility (1/GPa) = 0.01806764
#
# Stress axis : x y z
#
# Youngs Moduli (GPa) = 104.02004 96.68021 103.25336
#
# Poissons Ratio (x) = 0.30948 0.17235
# Poissons Ratio (y) = 0.33297 0.09466
# Poissons Ratio (z) = 0.17363 0.08864
#
# Static dielectric constant tensor:
#      x y z
#    x 4.418610 -0.111490 -0.200760 
#    y -0.111490 4.424200 0.028560 
#    z -0.200760 0.028560 4.568910 
# 
# 
# High freq. dielectric constant tensor:
#      x y z
#    x 1.892470 -0.002460 -0.005090 
#    y -0.002460 1.904580 0.004500 
#    z -0.005090 0.004500 1.905010 
# 
# From -- ./inp_files/35366.got.cif
#   From: 2010.06.25/outbox.cif.g09.slc.cpg/sg2_18_cif.got.tgz:35366.got - 2010.06.27 13:26:56.
