data_PCOD8026673
_publ_section_title
;
Structure prediction by ZEFSAII (Michael W. Deem and Ramdas Pophale) SiO2 
 PCOD8026673
Probable space group: P -1
;
_chemical_formula_sum "Si O2"
_cell_formula_units_Z 16
_cell_length_a 10.815798
_cell_length_b 10.842230
_cell_length_c 14.768303
_cell_angle_alpha 149.018001
_cell_angle_beta 63.421383
_cell_angle_gamma 122.071943
_cell_volume 755.317798
_symmetry_space_group_name_H-M "P -1"
_symmetry_group_IT_number 2
_symmetry_cell_setting 'triclinic'
loop_
_space_group_symop_operation_xyz
x,y,z
-x,-y,-z
loop_
_atom_site_type_symbol
_atom_site_label
_atom_site_fract_x
_atom_site_fract_y
_atom_site_fract_z
Si Si1 0.858807 0.155636 0.248223
Si Si2 0.715607 0.378522 0.715002
Si Si3 0.886788 0.858508 0.523858
Si Si4 0.962337 0.371006 0.168372
Si Si5 0.422194 0.273701 0.947546
Si Si6 0.304177 0.541014 0.424200
Si Si7 0.592620 0.950402 0.625739
Si Si8 0.903815 0.953829 0.784199
O O1 0.912724 0.157007 0.127690
O O2 0.797102 0.389871 0.423583
O O3 0.989664 0.178921 0.288000
O O4 0.729504 0.900535 0.155137
O O5 0.745386 0.344632 0.579097
O O6 0.624415 0.114892 0.626303
O O7 0.864256 0.487517 0.792246
O O8 0.623267 0.579777 0.861789
O O9 0.872410 0.565579 0.332860
O O10 0.939799 0.976108 0.679425
O O11 0.731930 0.896487 0.584599
O O12 0.000000 0.000000 0.500000
O O13 0.926242 0.230268 0.994288
O O14 0.529130 0.103338 0.819186
O O15 0.500000 0.500000 0.000000
O O16 0.260236 0.236018 0.257809
O O17 0.475396 0.677504 0.471435
#
# Coordination Sequence:
#
# PCOD8026673 Si02
#       8
#     2   2   2   2   2   2   2   2
#     4  11  20  39  67 102 133 162 217 287 329 383
#     4  11  19  40  68 101 132 162 226 282 333 387
#     4  12  27  48  65  92 138 183 222 270 323 403
#     4  12  23  42  72 103 132 167 225 280 330 389
#     4   9  20  38  62  94 131 168 208 276 331 375
#     4  11  22  38  67 100 128 174 217 274 348 383
#     4  10  24  43  62  91 138 181 214 272 328 399
#     4  12  24  41  70  99 131 175 222 272 334 393
#
# _framework density 21.183136000000001
#
# number of rings (size 3 to 8) (size 9 to 14) (size 15 to 20)
#    0.000    1.000    5.000    2.625    0.000    1.000 
#    2.250    0.625    0.000    0.000    0.000    0.000 
#    0.000    0.000    0.000    0.000    0.000    0.000 
#
# Total GULP energy -198240.909765 kJ/mol
# GULP energy per Si atom -12390.056860 kJ/mol
# Density = 2.113492 g / cm^3
# Si number density = 21.183136 Si / 1000 Ang^3
#
#
#
# Elastic Constant Matrix: (Units=GPa)
#
#
# Indices 1 2 3 4 5 6 
#
# 1 107.9026 37.5685 52.3552 -0.5556 -10.9912 7.3397
# 2 37.5685 116.5407 39.8138 2.8641 16.9237 6.3249
# 3 52.3552 39.8138 108.1437 -2.9342 5.6733 -0.0999
# 4 -0.5556 2.8641 -2.9342 32.9509 2.4225 11.6605
# 5 -10.9912 16.9237 5.6733 2.4225 34.7220 -3.1570
# 6 7.3397 6.3249 -0.0999 11.6605 -3.1570 32.3009
#
#
#
# Elastic Compliance Matrix: (Units=1/GPa)
#
#
# Indices 1 2 3 4 5 6 
#
# 1 0.014210 -0.003450 -0.005971 0.000189 0.006964 -0.001959
# 2 -0.003450 0.011518 -0.002230 -0.000033 -0.006531 -0.002105
# 3 -0.005971 -0.002230 0.013142 0.001066 -0.002919 0.001164
# 4 0.000189 -0.000033 0.001066 0.035389 -0.003765 -0.013176
# 5 0.006964 -0.006531 -0.002919 -0.003765 0.035337 0.004500
# 6 -0.001959 -0.002105 0.001164 -0.013176 0.004500 0.037016
#
#
# Mechanical properties :
#
#
# Convention : Reuss Voigt Hill
#
# Bulk Modulus (GPa) = 64.24073 65.78467 65.01270
# Shear Modulus (GPa) = 28.55436 33.51805 31.03621
#
# Velocity S-wave (km/s) = 3.67546 3.98213 3.83186
# Velocity P-wave (km/s) = 6.95731 7.22950 7.09472
#
# Compressibility (1/GPa) = 0.01556645
#
# Stress axis : x y z
#
# Youngs Moduli (GPa) = 70.37392 86.81767 76.09221
#
# Poissons Ratio (x) = 0.29956 0.45435
# Poissons Ratio (y) = 0.24282 0.16971
# Poissons Ratio (z) = 0.42021 0.19363
#
# Static dielectric constant tensor:
#      x y z
#    x 3.662030 0.271600 -0.238930 
#    y 0.271600 3.997420 -0.137010 
#    z -0.238930 -0.137010 4.304710 
# 
# 
# High freq. dielectric constant tensor:
#      x y z
#    x 1.799830 0.023820 -0.008410 
#    y 0.023820 1.843040 0.002660 
#    z -0.008410 0.002660 1.839260 
# 
# From -- ./inp_files/304892.got.cif
#   From: 2010.06.25/outbox.cif.g09.slc.cpg/sg2_153_cif.got.tgz:304892.got - 2010.06.27 13:26:56.
