data_PCOD8026893
_publ_section_title
;
Structure prediction by ZEFSAII (Michael W. Deem and Ramdas Pophale) SiO2 
 PCOD8026893
Probable space group: P -1
;
_chemical_formula_sum "Si O2"
_cell_formula_units_Z 12
_cell_length_a 13.473153
_cell_length_b 6.385003
_cell_length_c 8.425083
_cell_angle_alpha 76.622529
_cell_angle_beta 130.180992
_cell_angle_gamma 114.442325
_cell_volume 503.449289
_symmetry_space_group_name_H-M "P -1"
_symmetry_group_IT_number 2
_symmetry_cell_setting 'triclinic'
loop_
_space_group_symop_operation_xyz
x,y,z
-x,-y,-z
loop_
_atom_site_type_symbol
_atom_site_label
_atom_site_fract_x
_atom_site_fract_y
_atom_site_fract_z
Si Si1 0.723343 0.308660 0.420495
Si Si2 0.051581 0.351373 0.204837
Si Si3 0.760962 0.055901 0.962855
Si Si4 0.594110 0.239181 0.981683
Si Si5 0.262565 0.113830 0.360788
Si Si6 0.533069 0.628017 0.710806
O O1 0.870428 0.490841 0.595371
O O2 0.692552 0.382255 0.200577
O O3 0.603533 0.308025 0.422427
O O4 0.721188 0.043691 0.448882
O O5 0.149279 0.231073 0.245469
O O6 0.918607 0.143799 0.177435
O O7 0.000000 0.500000 0.000000
O O8 0.686966 0.218628 0.933329
O O9 0.780869 0.084525 0.786952
O O10 0.660452 0.788808 0.929622
O O11 0.498462 0.371495 0.787156
O O12 0.500000 0.000000 0.000000
O O13 0.407826 0.319449 0.420802
#
# Coordination Sequence:
#
# PCOD8026893 Si02
#       6
#     2   2   2   2   2   2
#     4  12  26  41  73 106 134 181 231 277 342 401
#     4  12  24  43  71 102 141 177 225 286 338 401
#     4  10  24  43  70  96 135 184 221 274 346 396
#     4  12  25  46  71  99 143 178 227 285 342 402
#     4  10  24  44  72  98 139 175 235 273 338 402
#     4  10  24  43  71 100 136 179 227 277 343 398
#
# _framework density 23.835567999999999
#
# number of rings (size 3 to 8) (size 9 to 14) (size 15 to 20)
#    1.000    0.000    3.333    2.500    2.333    1.333 
#    0.000    1.667    0.000    0.000    0.000    0.000 
#    0.000    0.000    0.000    0.000    0.000    0.000 
#
# Total GULP energy -148671.364660 kJ/mol
# GULP energy per Si atom -12389.280388 kJ/mol
# Density = 2.378132 g / cm^3
# Si number density = 23.835568 Si / 1000 Ang^3
#
#
#
# Elastic Constant Matrix: (Units=GPa)
#
#
# Indices 1 2 3 4 5 6 
#
# 1 65.4207 28.2691 2.1213 -10.2260 24.6693 -13.9014
# 2 28.2691 82.0935 34.4058 -18.0673 14.9121 9.9676
# 3 2.1213 34.4058 86.3025 -11.0240 4.9003 2.4895
# 4 -10.2260 -18.0673 -11.0240 43.1316 -0.9984 20.4783
# 5 24.6693 14.9121 4.9003 -0.9984 36.0220 9.1767
# 6 -13.9014 9.9676 2.4895 20.4783 9.1767 50.1362
#
#
#
# Elastic Compliance Matrix: (Units=1/GPa)
#
#
# Indices 1 2 3 4 5 6 
#
# 1 0.030912 -0.011495 0.003940 -0.004819 -0.021291 0.016526
# 2 -0.011495 0.022419 -0.007102 0.010717 0.002966 -0.012212
# 3 0.003940 -0.007102 0.014482 0.000709 -0.002192 0.001897
# 4 -0.004819 0.010717 0.000709 0.035830 0.004595 -0.018978
# 5 -0.021291 0.002966 -0.002192 0.004595 0.045778 -0.016640
# 6 0.016526 -0.012212 0.001897 -0.018978 -0.016640 0.037659
#
#
# Mechanical properties :
#
#
# Convention : Reuss Voigt Hill
#
# Bulk Modulus (GPa) = 25.97594 40.37879 33.17736
# Shear Modulus (GPa) = 21.81231 37.12599 29.46915
#
# Velocity S-wave (km/s) = 3.02837 3.95091 3.51999
# Velocity P-wave (km/s) = 4.81141 6.14738 5.51996
#
# Compressibility (1/GPa) = 0.03849716
#
# Stress axis : x y z
#
# Youngs Moduli (GPa) = 32.34970 44.60509 69.05101
#
# Poissons Ratio (x) = 0.51276 -0.27204
# Poissons Ratio (y) = 0.37187 0.49042
# Poissons Ratio (z) = -0.12745 0.31680
#
# Static dielectric constant tensor:
#      x y z
#    x 4.196160 0.011330 0.060490 
#    y 0.011330 4.386260 0.390080 
#    z 0.060490 0.390080 4.392860 
# 
# 
# High freq. dielectric constant tensor:
#      x y z
#    x 1.929100 -0.003110 0.012070 
#    y -0.003110 1.959640 0.021720 
#    z 0.012070 0.021720 1.939250 
# 
# From -- ./inp_files/286337.got.cif
#   From: 2010.06.25/outbox.cif.g09.slc.cpg/sg2_144_cif.got.tgz:286337.got - 2010.06.27 13:26:56.
