data_PCOD8026996
_publ_section_title
;
Structure prediction by ZEFSAII (Michael W. Deem and Ramdas Pophale) SiO2 
 PCOD8026996
Probable space group: P -1
;
_chemical_formula_sum "Si O2"
_cell_formula_units_Z 12
_cell_length_a 18.381553
_cell_length_b 7.601357
_cell_length_c 7.591762
_cell_angle_alpha 122.456662
_cell_angle_beta 49.550998
_cell_angle_gamma 131.641834
_cell_volume 592.759686
_symmetry_space_group_name_H-M "P -1"
_symmetry_group_IT_number 2
_symmetry_cell_setting 'triclinic'
loop_
_space_group_symop_operation_xyz
x,y,z
-x,-y,-z
loop_
_atom_site_type_symbol
_atom_site_label
_atom_site_fract_x
_atom_site_fract_y
_atom_site_fract_z
Si Si1 0.017852 0.354554 0.643139
Si Si2 0.733753 0.050589 0.641340
Si Si3 0.743348 0.346300 0.467650
Si Si4 0.378194 0.376821 0.196205
Si Si5 0.036357 0.833463 0.751877
Si Si6 0.214634 0.916544 0.045009
O O1 0.133553 0.425816 0.592933
O O2 0.003943 0.589255 0.775834
O O3 0.018176 0.234628 0.392196
O O4 0.914874 0.166160 0.823846
O O5 0.632096 0.784435 0.701057
O O6 0.702943 0.202866 0.639174
O O7 0.831552 0.017106 0.387304
O O8 0.776655 0.194430 0.838046
O O9 0.655087 0.424897 0.595184
O O10 0.736667 0.166382 0.231806
O O11 0.500000 0.500000 0.000000
O O12 0.290954 0.205287 0.091909
O O13 0.000000 0.000000 0.000000
#
# Coordination Sequence:
#
# PCOD8026996 Si02
#       6
#     2   2   2   2   2   2
#     4   9  19  33  55  94 123 152 196 240 296 371
#     4   8  21  42  54  93 122 147 208 245 286 366
#     4  11  21  39  66  86 122 162 190 249 315 348
#     4  10  24  44  61  87 120 158 214 253 286 353
#     4   9  17  32  58  87 127 162 185 236 305 360
#     4   9  21  40  59  91 125 152 204 246 294 366
#
# _framework density 20.244292000000002
#
# number of rings (size 3 to 8) (size 9 to 14) (size 15 to 20)
#    1.000    1.667    0.000    1.500    2.333    4.667 
#    3.000    0.833    0.000    0.000    0.000    0.000 
#    0.000    0.000    0.000    0.000    0.000    0.000 
#
# Total GULP energy -148690.626126 kJ/mol
# GULP energy per Si atom -12390.885510 kJ/mol
# Density = 2.019822 g / cm^3
# Si number density = 20.244292 Si / 1000 Ang^3
#
#
#
# Elastic Constant Matrix: (Units=GPa)
#
#
# Indices 1 2 3 4 5 6 
#
# 1 38.6386 17.7396 19.4931 -4.8351 -2.9498 -5.7640
# 2 17.7396 98.6274 40.4374 -22.7667 -7.6335 0.5256
# 3 19.4931 40.4374 77.4404 4.4377 -3.0142 7.9063
# 4 -4.8351 -22.7667 4.4377 45.8317 7.2994 1.1936
# 5 -2.9498 -7.6335 -3.0142 7.2994 25.0333 -1.9146
# 6 -5.7640 0.5256 7.9063 1.1936 -1.9146 14.5249
#
#
#
# Elastic Compliance Matrix: (Units=1/GPa)
#
#
# Indices 1 2 3 4 5 6 
#
# 1 0.035223 -0.001281 -0.010269 0.003058 0.003144 0.019777
# 2 -0.001281 0.015989 -0.008773 0.008337 0.001482 0.003199
# 3 -0.010269 -0.008773 0.022028 -0.007128 -0.000317 -0.015204
# 4 0.003058 0.008337 -0.007128 0.027877 -0.005953 0.001716
# 5 0.003144 0.001482 -0.000317 -0.005953 0.043043 0.007530
# 6 0.019777 0.003199 -0.015204 0.001716 0.007530 0.085708
#
#
# Mechanical properties :
#
#
# Convention : Reuss Voigt Hill
#
# Bulk Modulus (GPa) = 30.68213 41.11630 35.89921
# Shear Modulus (GPa) = 17.76974 26.21373 21.99174
#
# Velocity S-wave (km/s) = 2.96593 3.60233 3.29951
# Velocity P-wave (km/s) = 5.18824 6.13650 5.68218
#
# Compressibility (1/GPa) = 0.03259227
#
# Stress axis : x y z
#
# Youngs Moduli (GPa) = 28.39063 62.54375 45.39761
#
# Poissons Ratio (x) = 0.08012 0.46620
# Poissons Ratio (y) = 0.03637 0.39828
# Poissons Ratio (z) = 0.29155 0.54871
#
# Static dielectric constant tensor:
#      x y z
#    x 3.394080 -0.043700 0.151290 
#    y -0.043700 3.637330 -0.092060 
#    z 0.151290 -0.092060 3.485810 
# 
# 
# High freq. dielectric constant tensor:
#      x y z
#    x 1.755960 -0.003740 0.009850 
#    y -0.003740 1.783370 -0.002390 
#    z 0.009850 -0.002390 1.785990 
# 
# From -- ./inp_files/59695.got.cif
#   From: 2010.06.25/outbox.cif.g09.slc.cpg/sg2_30_cif.got.tgz:59695.got - 2010.06.27 13:26:56.
