data_PCOD8026684
_publ_section_title
;
Structure prediction by ZEFSAII (Michael W. Deem and Ramdas Pophale) SiO2 
 PCOD8026684
Probable space group: P -1
;
_chemical_formula_sum "Si O2"
_cell_formula_units_Z 16
_cell_length_a 15.575335
_cell_length_b 16.068839
_cell_length_c 6.392213
_cell_angle_alpha 100.079408
_cell_angle_beta 75.823724
_cell_angle_gamma 36.032075
_cell_volume 690.139868
_symmetry_space_group_name_H-M "P -1"
_symmetry_group_IT_number 2
_symmetry_cell_setting 'triclinic'
loop_
_space_group_symop_operation_xyz
x,y,z
-x,-y,-z
loop_
_atom_site_type_symbol
_atom_site_label
_atom_site_fract_x
_atom_site_fract_y
_atom_site_fract_z
Si Si1 0.892976 0.470379 0.716728
Si Si2 0.612744 0.322476 0.428074
Si Si3 0.150004 0.757013 0.499440
Si Si4 0.616592 0.563318 0.042125
Si Si5 0.947424 0.783735 0.831885
Si Si6 0.217235 0.178405 0.706002
Si Si7 0.416419 0.123984 0.908975
Si Si8 0.730377 0.102496 0.896169
O O1 0.792379 0.479872 0.908934
O O2 0.986792 0.356046 0.395470
O O3 0.065140 0.356446 0.719764
O O4 0.737177 0.674465 0.834295
O O5 0.500000 0.500000 0.500000
O O6 0.781969 0.211130 0.435096
O O7 0.706363 0.194628 0.124642
O O8 0.463037 0.386032 0.657542
O O9 0.313732 0.584615 0.165027
O O10 0.117161 0.712115 0.682008
O O11 0.060460 0.052207 0.406801
O O12 0.444184 0.752322 0.095644
O O13 0.895872 0.804418 0.111251
O O14 0.749228 0.992548 0.938724
O O15 0.293661 0.171177 0.844050
O O16 0.401403 0.989369 0.374806
O O17 0.500000 0.000000 0.000000
#
# Coordination Sequence:
#
# PCOD8026684 Si02
#       8
#     2   2   2   2   2   2   2   2
#     4  11  26  44  72  99 140 182 221 283 338 405
#     4  12  24  41  67  96 138 179 230 286 338 396
#     4   9  22  45  61  96 133 179 220 283 333 396
#     4  11  25  42  67  98 133 182 229 276 343 399
#     4   9  24  44  68  99 138 173 231 277 338 401
#     4  11  25  46  71 106 135 177 223 276 340 414
#     4  11  27  47  74 105 139 176 223 276 343 409
#     4  10  24  43  63  96 132 178 231 281 337 399
#
# _framework density 23.183706999999998
#
# number of rings (size 3 to 8) (size 9 to 14) (size 15 to 20)
#    0.750    0.750    1.250    1.875    7.000    4.500 
#    2.250    0.000    0.000    0.000    0.000    0.000 
#    0.000    0.000    0.000    0.000    0.000    0.000 
#
# Total GULP energy -198303.433488 kJ/mol
# GULP energy per Si atom -12393.964593 kJ/mol
# Density = 2.313094 g / cm^3
# Si number density = 23.183707 Si / 1000 Ang^3
#
#
#
# Elastic Constant Matrix: (Units=GPa)
#
#
# Indices 1 2 3 4 5 6 
#
# 1 58.5269 24.4374 16.4603 0.9458 4.7920 -2.5340
# 2 24.4374 137.5765 54.9977 24.5490 17.5247 -0.9059
# 3 16.4603 54.9977 83.0793 9.6033 -11.7097 12.3851
# 4 0.9458 24.5490 9.6033 33.1601 6.0002 4.4577
# 5 4.7920 17.5247 -11.7097 6.0002 30.0891 8.9165
# 6 -2.5340 -0.9059 12.3851 4.4577 8.9165 38.4074
#
#
#
# Elastic Compliance Matrix: (Units=1/GPa)
#
#
# Indices 1 2 3 4 5 6 
#
# 1 0.019532 -0.001207 -0.004733 0.002243 -0.005848 0.003884
# 2 -0.001207 0.015829 -0.012998 -0.006310 -0.015435 0.008801
# 3 -0.004733 -0.012998 0.027096 -0.000326 0.023298 -0.014727
# 4 0.002243 -0.006310 -0.000326 0.035847 -0.002959 -0.003369
# 5 -0.005848 -0.015435 0.023298 -0.002959 0.059234 -0.021671
# 6 0.003884 0.008801 -0.014727 -0.003369 -0.021671 0.036672
#
#
# Mechanical properties :
#
#
# Convention : Reuss Voigt Hill
#
# Bulk Modulus (GPa) = 40.68215 52.33038 46.50627
# Shear Modulus (GPa) = 20.80913 32.55047 26.67980
#
# Velocity S-wave (km/s) = 2.99921 3.75110 3.39602
# Velocity P-wave (km/s) = 5.43870 6.43288 5.95657
#
# Compressibility (1/GPa) = 0.02458080
#
# Stress axis : x y z
#
# Youngs Moduli (GPa) = 51.19777 63.17503 36.90632
#
# Poissons Ratio (x) = 0.07625 0.17469
# Poissons Ratio (y) = 0.06180 0.47969
# Poissons Ratio (z) = 0.24234 0.82112
#
# Static dielectric constant tensor:
#      x y z
#    x 3.537990 -0.408180 -0.292480 
#    y -0.408180 3.962640 0.173160 
#    z -0.292480 0.173160 4.209790 
# 
# 
# High freq. dielectric constant tensor:
#      x y z
#    x 1.908180 -0.006330 -0.009090 
#    y -0.006330 1.915250 0.016470 
#    z -0.009090 0.016470 1.917020 
# 
# From -- ./inp_files/98025.got.cif
#   From: 2010.06.25/outbox.cif.g09.slc.cpg/sg2_50_cif.got.tgz:98025.got - 2010.06.27 13:26:56.
