data_PCOD8026781
_publ_section_title
;
Structure prediction by ZEFSAII (Michael W. Deem and Ramdas Pophale) SiO2 
 PCOD8026781
Probable space group: P -1
;
_chemical_formula_sum "Si O2"
_cell_formula_units_Z 12
_cell_length_a 5.040401
_cell_length_b 14.960043
_cell_length_c 9.067868
_cell_angle_alpha 51.374600
_cell_angle_beta 111.278297
_cell_angle_gamma 86.391658
_cell_volume 456.724490
_symmetry_space_group_name_H-M "P -1"
_symmetry_group_IT_number 2
_symmetry_cell_setting 'triclinic'
loop_
_space_group_symop_operation_xyz
x,y,z
-x,-y,-z
loop_
_atom_site_type_symbol
_atom_site_label
_atom_site_fract_x
_atom_site_fract_y
_atom_site_fract_z
Si Si1 0.787988 0.046546 0.266538
Si Si2 0.309761 0.292955 0.015447
Si Si3 0.793203 0.806904 0.345199
Si Si4 0.571857 0.379448 0.233540
Si Si5 0.889187 0.134109 0.906042
Si Si6 0.607997 0.446759 0.735136
O O1 0.731910 0.937014 0.282189
O O2 0.454718 0.148991 0.143013
O O3 0.933175 0.117303 0.109346
O O4 0.000000 0.000000 0.500000
O O5 0.387612 0.386747 0.826718
O O6 0.942574 0.335123 0.902897
O O7 0.430304 0.293471 0.207770
O O8 0.473349 0.788039 0.292210
O O9 0.057193 0.695007 0.599948
O O10 0.910374 0.800956 0.204130
O O11 0.398617 0.433304 0.297398
O O12 0.500000 0.500000 0.000000
O O13 0.000000 0.000000 0.000000
O O14 0.500000 0.500000 0.500000
#
# Coordination Sequence:
#
# PCOD8026781 Si02
#       6
#     2   2   2   2   2   2
#     4  11  23  45  70 103 138 172 227 280 341 401
#     4  11  25  45  68 102 135 176 223 280 335 403
#     4  11  24  46  71  99 136 183 219 280 338 401
#     4  10  24  47  70  99 138 181 227 273 337 403
#     4  10  24  43  67  98 136 179 223 269 339 402
#     4  11  26  45  72  98 134 178 227 278 332 397
#
# _framework density 26.274042999999999
#
# number of rings (size 3 to 8) (size 9 to 14) (size 15 to 20)
#    0.000    1.333    1.667    3.000    4.667    8.000 
#    0.000    8.333    0.000    0.000    0.000    0.000 
#    0.000    0.000    0.000    0.000    0.000    0.000 
#
# Total GULP energy -148744.118682 kJ/mol
# GULP energy per Si atom -12395.343224 kJ/mol
# Density = 2.621424 g / cm^3
# Si number density = 26.274043 Si / 1000 Ang^3
#
#
#
# Elastic Constant Matrix: (Units=GPa)
#
#
# Indices 1 2 3 4 5 6 
#
# 1 99.2454 23.9814 29.4523 -1.5098 15.4336 -16.4401
# 2 23.9814 147.7737 69.0252 -2.9995 -7.3551 -38.3773
# 3 29.4523 69.0252 174.9990 10.5787 23.9428 -14.2610
# 4 -1.5098 -2.9995 10.5787 55.8688 -10.2741 4.6814
# 5 15.4336 -7.3551 23.9428 -10.2741 32.3507 -9.3437
# 6 -16.4401 -38.3773 -14.2610 4.6814 -9.3437 33.0406
#
#
#
# Elastic Compliance Matrix: (Units=1/GPa)
#
#
# Indices 1 2 3 4 5 6 
#
# 1 0.011756 -0.001064 -0.000611 -0.000756 -0.004738 0.003117
# 2 -0.001064 0.016010 -0.006970 0.003480 0.015919 0.019067
# 3 -0.000611 -0.006970 0.009849 -0.003845 -0.011809 -0.006944
# 4 -0.000756 0.003480 -0.003845 0.020667 0.011211 0.002249
# 5 -0.004738 0.015919 -0.011809 0.011211 0.056429 0.025405
# 6 0.003117 0.019067 -0.006944 0.002249 0.025405 0.057832
#
#
# Mechanical properties :
#
#
# Convention : Reuss Voigt Hill
#
# Bulk Modulus (GPa) = 49.20210 74.10399 61.65305
# Shear Modulus (GPa) = 25.43122 44.22263 34.82693
#
# Velocity S-wave (km/s) = 3.11452 4.10705 3.64473
# Velocity P-wave (km/s) = 5.63035 7.12432 6.42093
#
# Compressibility (1/GPa) = 0.02032433
#
# Stress axis : x y z
#
# Youngs Moduli (GPa) = 85.06194 62.45930 101.53547
#
# Poissons Ratio (x) = 0.06647 0.06201
# Poissons Ratio (y) = 0.09053 0.70775
# Poissons Ratio (z) = 0.05195 0.43537
#
# Static dielectric constant tensor:
#      x y z
#    x 4.477700 -0.642130 0.047490 
#    y -0.642130 1.599600 0.572270 
#    z 0.047490 0.572270 5.103280 
# 
# 
# High freq. dielectric constant tensor:
#      x y z
#    x 2.034230 -0.016530 0.005440 
#    y -0.016530 2.080880 0.001140 
#    z 0.005440 0.001140 2.070040 
# 
# From -- ./inp_files/138746.got.cif
#   From: 2010.06.25/outbox.cif.g09.slc.cpg/sg2_70_cif.got.tgz:138746.got - 2010.06.27 13:26:56.
