data_PCOD8026759
_publ_section_title
;
Structure prediction by ZEFSAII (Michael W. Deem and Ramdas Pophale) SiO2 
 PCOD8026759
Probable space group: P -1
;
_chemical_formula_sum "Si O2"
_cell_formula_units_Z 14
_cell_length_a 11.727913
_cell_length_b 5.148843
_cell_length_c 13.898565
_cell_angle_alpha 67.670746
_cell_angle_beta 121.040071
_cell_angle_gamma 119.449661
_cell_volume 617.121961
_symmetry_space_group_name_H-M "P -1"
_symmetry_group_IT_number 2
_symmetry_cell_setting 'triclinic'
loop_
_space_group_symop_operation_xyz
x,y,z
-x,-y,-z
loop_
_atom_site_type_symbol
_atom_site_label
_atom_site_fract_x
_atom_site_fract_y
_atom_site_fract_z
Si Si1 0.464790 0.788680 0.921709
Si Si2 0.084538 0.380539 0.128812
Si Si3 0.200295 0.674330 0.701872
Si Si4 0.639931 0.231822 0.576906
Si Si5 0.403690 0.701734 0.230711
Si Si6 0.691261 0.638823 0.370328
Si Si7 0.931523 0.252118 0.745189
O O1 0.296917 0.676547 0.836848
O O2 0.559978 0.968380 0.847371
O O3 0.500000 0.500000 0.000000
O O4 0.500000 0.000000 0.000000
O O5 0.250350 0.482742 0.154177
O O6 0.069269 0.515316 0.205472
O O7 0.020250 0.015645 0.157575
O O8 0.000000 0.500000 0.000000
O O9 0.256674 0.570656 0.645076
O O10 0.039572 0.443128 0.683384
O O11 0.203563 0.011338 0.639534
O O12 0.596169 0.285957 0.656454
O O13 0.692678 0.541903 0.495401
O O14 0.769943 0.106922 0.652489
O O15 0.500000 0.000000 0.500000
O O16 0.529948 0.587065 0.271553
#
# Coordination Sequence:
#
# PCOD8026759 Si02
#       7
#     2   2   2   2   2   2   2
#     4  11  24  39  65  92 127 178 217 271 327 389
#     4  11  25  43  69  97 134 182 225 279 337 393
#     4  11  25  44  65  99 143 170 231 274 330 413
#     4  11  23  44  74 100 136 179 227 284 341 396
#     4  10  24  43  67 103 133 170 235 278 330 407
#     4  11  23  43  70  99 135 180 220 283 337 393
#     4  11  26  44  67 101 138 177 224 281 332 406
#
# _framework density 22.685952
#
# number of rings (size 3 to 8) (size 9 to 14) (size 15 to 20)
#    0.000    1.143    0.000    6.000    4.000    9.143 
#    0.000    0.000    0.000    0.000    0.000    0.000 
#    0.000    0.000    0.000    0.000    0.000    0.000 
#
# Total GULP energy -173644.019951 kJ/mol
# GULP energy per Si atom -12403.144282 kJ/mol
# Density = 2.263432 g / cm^3
# Si number density = 22.685952 Si / 1000 Ang^3
#
#
#
# Elastic Constant Matrix: (Units=GPa)
#
#
# Indices 1 2 3 4 5 6 
#
# 1 98.8064 38.0716 29.8203 4.8318 -4.7208 14.1242
# 2 38.0716 103.3222 34.9474 -13.2727 0.4940 -2.1592
# 3 29.8203 34.9474 116.2270 -16.6898 -2.8520 6.6274
# 4 4.8318 -13.2727 -16.6898 46.0815 -0.8904 5.6902
# 5 -4.7208 0.4940 -2.8520 -0.8904 29.9346 0.1975
# 6 14.1242 -2.1592 6.6274 5.6902 0.1975 43.8465
#
#
#
# Elastic Compliance Matrix: (Units=1/GPa)
#
#
# Indices 1 2 3 4 5 6 
#
# 1 0.013365 -0.004659 -0.002199 -0.003031 0.001910 -0.003818
# 2 -0.004659 0.012612 -0.002311 0.003006 -0.001087 0.002086
# 3 -0.002199 -0.002311 0.010476 0.003554 0.000805 -0.001454
# 4 -0.003031 0.003006 0.003554 0.024503 0.000557 -0.002595
# 5 0.001910 -0.001087 0.000805 0.000557 0.033825 -0.001015
# 6 -0.003818 0.002086 -0.001454 -0.002595 -0.001015 0.024700
#
#
# Mechanical properties :
#
#
# Convention : Reuss Voigt Hill
#
# Bulk Modulus (GPa) = 55.20336 58.22601 56.71469
# Shear Modulus (GPa) = 34.75679 38.34025 36.54852
#
# Velocity S-wave (km/s) = 3.91843 4.11547 4.01816
# Velocity P-wave (km/s) = 6.69766 6.95016 6.82508
#
# Compressibility (1/GPa) = 0.01811484
#
# Stress axis : x y z
#
# Youngs Moduli (GPa) = 74.82285 79.29125 95.45782
#
# Poissons Ratio (x) = 0.36944 0.20990
# Poissons Ratio (y) = 0.34862 0.22058
# Poissons Ratio (z) = 0.16452 0.18322
#
# Static dielectric constant tensor:
#      x y z
#    x 4.183140 0.237950 0.061250 
#    y 0.237950 4.139510 -0.096870 
#    z 0.061250 -0.096870 4.478570 
# 
# 
# High freq. dielectric constant tensor:
#      x y z
#    x 1.897560 0.006040 -0.000100 
#    y 0.006040 1.897680 -0.011290 
#    z -0.000100 -0.011290 1.905460 
# 
# From -- ./inp_files/510760.got.cif
#   From: 2010.06.25/outbox.cif.g09.slc.cpg/sg2_256_cif.got.tgz:510760.got - 2010.06.27 13:26:56.
