data_PCOD8026600
_publ_section_title
;
Structure prediction by ZEFSAII (Michael W. Deem and Ramdas Pophale) SiO2 
 PCOD8026600
Probable space group: P -1
;
_chemical_formula_sum "Si O2"
_cell_formula_units_Z 10
_cell_length_a 9.854399
_cell_length_b 12.252742
_cell_length_c 9.718884
_cell_angle_alpha 129.906527
_cell_angle_beta 30.072167
_cell_angle_gamma 117.115171
_cell_volume 435.725787
_symmetry_space_group_name_H-M "P -1"
_symmetry_group_IT_number 2
_symmetry_cell_setting 'triclinic'
loop_
_space_group_symop_operation_xyz
x,y,z
-x,-y,-z
loop_
_atom_site_type_symbol
_atom_site_label
_atom_site_fract_x
_atom_site_fract_y
_atom_site_fract_z
Si Si1 0.951932 0.185698 0.318265
Si Si2 0.286798 0.648141 0.607087
Si Si3 0.551586 0.065893 0.751404
Si Si4 0.181308 0.262942 0.693060
Si Si5 0.762789 0.670040 0.609158
O O1 0.984240 0.315281 0.499662
O O2 0.882896 0.250555 0.280980
O O3 0.717407 0.109505 0.513523
O O4 0.248325 0.059490 0.951456
O O5 0.595505 0.671875 0.367933
O O6 0.323268 0.478426 0.400440
O O7 0.117638 0.690081 0.931446
O O8 0.715132 0.913195 0.551491
O O9 0.506204 0.190807 0.012449
O O10 0.134461 0.331111 0.638073
#
# Coordination Sequence:
#
# PCOD8026600 Si02
#       5
#     2   2   2   2   2
#     4  10  24  42  70  91 129 169 218 253 318 382
#     4  12  26  42  67  97 131 165 212 269 319 369
#     4  10  24  42  70  91 129 169 218 253 318 382
#     4  12  26  42  67  97 131 165 212 269 319 369
#     4  10  26  44  68  92 130 172 216 254 318 386
#
# _framework density 22.950213999999999
#
# number of rings (size 3 to 8) (size 9 to 14) (size 15 to 20)
#    1.200    0.000    0.000    4.800    5.600    6.400 
#    0.000    0.000    0.000    0.000    0.000    0.000 
#    0.000    0.000    0.000    0.000    0.000    0.000 
#
# Total GULP energy -124016.327446 kJ/mol
# GULP energy per Si atom -12401.632745 kJ/mol
# Density = 2.289798 g / cm^3
# Si number density = 22.950214 Si / 1000 Ang^3
#
#
#
# Elastic Constant Matrix: (Units=GPa)
#
#
# Indices 1 2 3 4 5 6 
#
# 1 62.7046 -3.8421 -5.4385 -4.6569 13.4107 -1.2254
# 2 -3.8421 69.0334 14.8191 -7.5658 10.3741 -1.1273
# 3 -5.4385 14.8191 68.4508 -16.4836 0.1067 9.3467
# 4 -4.6569 -7.5658 -16.4836 33.7043 -2.2283 0.3935
# 5 13.4107 10.3741 0.1067 -2.2283 20.4577 -4.2474
# 6 -1.2254 -1.1273 9.3467 0.3935 -4.2474 22.9694
#
#
#
# Elastic Compliance Matrix: (Units=1/GPa)
#
#
# Indices 1 2 3 4 5 6 
#
# 1 0.019667 0.003196 0.002065 0.003505 -0.014641 -0.002402
# 2 0.003196 0.017110 -0.002950 0.002145 -0.010473 0.000237
# 3 0.002065 -0.002950 0.018599 0.008769 -0.000634 -0.007870
# 4 0.003505 0.002145 0.008769 0.034941 -0.000447 -0.003957
# 5 -0.014641 -0.010473 -0.000634 -0.000447 0.066067 0.011187
# 6 -0.002402 0.000237 -0.007870 -0.003957 0.011187 0.048759
#
#
# Mechanical properties :
#
#
# Convention : Reuss Voigt Hill
#
# Bulk Modulus (GPa) = 16.66656 23.47398 20.07027
# Shear Modulus (GPa) = 22.67372 28.40298 25.53835
#
# Velocity S-wave (km/s) = 3.14658 3.52176 3.33944
# Velocity P-wave (km/s) = 4.52539 5.17566 4.86141
#
# Compressibility (1/GPa) = 0.06000038
#
# Stress axis : x y z
#
# Youngs Moduli (GPa) = 50.84536 58.44645 53.76591
#
# Poissons Ratio (x) = -0.18682 -0.11105
# Poissons Ratio (y) = -0.16252 0.15860
# Poissons Ratio (z) = -0.10502 0.17241
#
# Static dielectric constant tensor:
#      x y z
#    x 3.890520 0.137660 0.032570 
#    y 0.137660 4.227580 0.002850 
#    z 0.032570 0.002850 3.996020 
# 
# 
# High freq. dielectric constant tensor:
#      x y z
#    x 1.899260 0.001670 0.005840 
#    y 0.001670 1.918440 -0.004480 
#    z 0.005840 -0.004480 1.905860 
# 
# From -- ./inp_files/490.got.cif
#   From: 2010.06.25/outbox.cif.g09.slc.cpg/sg2_1_cif.got.tgz:490.got - 2010.06.27 13:26:56.
