data_PCOD8026709
_publ_section_title
;
Structure prediction by ZEFSAII (Michael W. Deem and Ramdas Pophale) SiO2 
 PCOD8026709
Probable space group: P -1
;
_chemical_formula_sum "Si O2"
_cell_formula_units_Z 16
_cell_length_a 20.845142
_cell_length_b 6.913762
_cell_length_c 19.787760
_cell_angle_alpha 70.517758
_cell_angle_beta 19.778374
_cell_angle_gamma 61.693438
_cell_volume 786.464403
_symmetry_space_group_name_H-M "P -1"
_symmetry_group_IT_number 2
_symmetry_cell_setting 'triclinic'
loop_
_space_group_symop_operation_xyz
x,y,z
-x,-y,-z
loop_
_atom_site_type_symbol
_atom_site_label
_atom_site_fract_x
_atom_site_fract_y
_atom_site_fract_z
Si Si1 0.383952 0.786603 0.017288
Si Si2 0.223223 0.444214 0.250246
Si Si3 0.370240 0.380290 0.342622
Si Si4 0.828629 0.011038 0.085623
Si Si5 0.682177 0.224826 0.345294
Si Si6 0.666055 0.487631 0.123613
Si Si7 0.862806 0.669706 0.796271
Si Si8 0.481979 0.094156 0.675026
O O1 0.236357 0.684472 0.206396
O O2 0.230737 0.060790 0.120667
O O3 0.572848 0.752708 0.886090
O O4 0.486475 0.653953 0.861384
O O5 0.238248 0.339405 0.173757
O O6 0.000000 0.500000 0.500000
O O7 0.447594 0.499690 0.308682
O O8 0.121808 0.554198 0.548389
O O9 0.394895 0.134227 0.372549
O O10 0.675397 0.117772 0.291562
O O11 0.830288 0.225951 0.019354
O O12 0.734681 0.884959 0.145729
O O13 0.075693 0.809526 0.882212
O O14 0.500000 0.500000 0.500000
O O15 0.646606 0.073778 0.455417
O O16 0.589258 0.671358 0.239115
O O17 0.800697 0.537605 0.928866
#
# Coordination Sequence:
#
# PCOD8026709 Si02
#       8
#     2   2   2   2   2   2   2   2
#     4  11  24  43  64  94 127 163 214 262 313 383
#     4  11  24  44  67  92 129 165 210 266 318 374
#     4  11  24  42  64  94 127 166 214 259 314 380
#     4  10  24  43  65  94 133 165 213 261 312 371
#     4  11  22  43  67  96 128 170 211 262 311 373
#     4  11  23  43  64  95 129 169 211 263 313 376
#     4  12  24  41  68  93 125 172 210 260 324 371
#     4  11  23  43  66  93 131 169 210 261 316 370
#
# _framework density 20.344214000000001
#
# number of rings (size 3 to 8) (size 9 to 14) (size 15 to 20)
#    0.000    1.000    5.000    1.500    0.000    4.000 
#    2.250    0.000    0.000    0.000    0.000    0.000 
#    0.000    0.000    0.000    0.000    0.000    0.000 
#
# Total GULP energy -198493.957106 kJ/mol
# GULP energy per Si atom -12405.872319 kJ/mol
# Density = 2.029791 g / cm^3
# Si number density = 20.344214 Si / 1000 Ang^3
#
#
#
# Elastic Constant Matrix: (Units=GPa)
#
#
# Indices 1 2 3 4 5 6 
#
# 1 117.7495 41.1160 40.7988 4.6021 2.1833 7.0780
# 2 41.1160 90.1575 53.7607 -0.5750 0.7014 8.8600
# 3 40.7988 53.7607 112.1116 2.0589 -0.7333 -1.4920
# 4 4.6021 -0.5750 2.0589 30.8428 -8.9514 7.5164
# 5 2.1833 0.7014 -0.7333 -8.9514 38.5734 -8.9785
# 6 7.0780 8.8600 -1.4920 7.5164 -8.9785 36.8449
#
#
#
# Elastic Compliance Matrix: (Units=1/GPa)
#
#
# Indices 1 2 3 4 5 6 
#
# 1 0.010609 -0.003374 -0.002240 -0.001539 -0.001243 -0.001306
# 2 -0.003374 0.017392 -0.007217 0.002165 -0.000799 -0.004463
# 3 -0.002240 -0.007217 0.013266 -0.001177 0.000977 0.003181
# 4 -0.001539 0.002165 -0.001177 0.036270 0.007057 -0.005952
# 5 -0.001243 -0.000799 0.000977 0.007057 0.029090 0.006120
# 6 -0.001306 -0.004463 0.003181 -0.005952 0.006120 0.031299
#
#
# Mechanical properties :
#
#
# Convention : Reuss Voigt Hill
#
# Bulk Modulus (GPa) = 64.08039 65.70772 64.89405
# Shear Modulus (GPa) = 29.62291 33.54175 31.58233
#
# Velocity S-wave (km/s) = 3.82001 4.06484 3.94432
# Velocity P-wave (km/s) = 7.14304 7.37554 7.26023
#
# Compressibility (1/GPa) = 0.01560540
#
# Stress axis : x y z
#
# Youngs Moduli (GPa) = 94.26327 57.49681 75.38250
#
# Poissons Ratio (x) = 0.19400 0.16884
# Poissons Ratio (y) = 0.31806 0.54400
# Poissons Ratio (z) = 0.21113 0.41493
#
# Static dielectric constant tensor:
#      x y z
#    x 4.002710 -0.089330 0.059660 
#    y -0.089330 3.663020 -0.134310 
#    z 0.059660 -0.134310 3.528590 
# 
# 
# High freq. dielectric constant tensor:
#      x y z
#    x 1.816700 -0.005500 0.003540 
#    y -0.005500 1.797380 -0.008130 
#    z 0.003540 -0.008130 1.791670 
# 
# From -- ./inp_files/114777.got.cif
#   From: 2010.06.25/outbox.cif.g09.slc.cpg/sg2_58_cif.got.tgz:114777.got - 2010.06.27 13:26:56.
