data_PCOD8026615
_publ_section_title
;
Structure prediction by ZEFSAII (Michael W. Deem and Ramdas Pophale) SiO2 
 PCOD8026615
Probable space group: P -1
;
_chemical_formula_sum "Si O2"
_cell_formula_units_Z 16
_cell_length_a 14.294383
_cell_length_b 14.705171
_cell_length_c 15.315138
_cell_angle_alpha 36.519919
_cell_angle_beta 35.456525
_cell_angle_gamma 20.238967
_cell_volume 633.452171
_symmetry_space_group_name_H-M "P -1"
_symmetry_group_IT_number 2
_symmetry_cell_setting 'triclinic'
loop_
_space_group_symop_operation_xyz
x,y,z
-x,-y,-z
loop_
_atom_site_type_symbol
_atom_site_label
_atom_site_fract_x
_atom_site_fract_y
_atom_site_fract_z
Si Si1 0.902698 0.170687 0.730128
Si Si2 0.714344 0.124638 0.773215
Si Si3 0.682360 0.352791 0.092354
Si Si4 0.889850 0.428711 0.184084
Si Si5 0.695912 0.963733 0.083149
Si Si6 0.877511 0.680226 0.538824
Si Si7 0.436773 0.799928 0.834575
Si Si8 0.939495 0.596527 0.749442
O O1 0.828444 0.204623 0.656519
O O2 0.622717 0.423274 0.802911
O O3 0.123181 0.134985 0.613201
O O4 0.061707 0.881425 0.853621
O O5 0.445001 0.336358 0.751956
O O6 0.605948 0.139986 0.935546
O O7 0.958383 0.835932 0.767283
O O8 0.719591 0.187434 0.122685
O O9 0.694810 0.507790 0.914451
O O10 0.942948 0.377801 0.287257
O O11 0.000000 0.500000 0.000000
O O12 0.791654 0.979120 0.087494
O O13 0.397788 0.118013 0.217452
O O14 0.944684 0.654956 0.106690
O O15 0.051221 0.525338 0.618763
O O16 0.000000 0.500000 0.500000
O O17 0.563125 0.853983 0.651698
#
# Coordination Sequence:
#
# PCOD8026615 Si02
#       8
#     2   2   2   2   2   2   2   2
#     4  12  27  46  68 105 146 192 236 289 366 426
#     4  12  23  40  68 103 146 177 225 298 363 416
#     4  11  25  43  70 102 142 181 246 297 357 407
#     4  12  22  41  71 107 139 177 237 298 363 414
#     4  11  21  37  66 102 140 168 229 286 357 405
#     4  11  26  49  73 102 148 196 243 286 355 432
#     4  10  24  42  71 104 139 188 240 301 347 422
#     4  11  25  41  68 105 134 180 235 294 345 422
#
# _framework density 25.258417999999999
#
# number of rings (size 3 to 8) (size 9 to 14) (size 15 to 20)
#    0.000    0.750    5.000    1.875    5.250    4.500 
#    0.000    1.250    0.000    0.000    0.000    0.000 
#    0.000    0.000    0.000    0.000    0.000    0.000 
#
# Total GULP energy -198223.449964 kJ/mol
# GULP energy per Si atom -12388.965623 kJ/mol
# Density = 2.520093 g / cm^3
# Si number density = 25.258418 Si / 1000 Ang^3
#
#
#
# Elastic Constant Matrix: (Units=GPa)
#
#
# Indices 1 2 3 4 5 6 
#
# 1 138.7573 21.6291 8.9439 7.1142 10.6520 23.6138
# 2 21.6291 101.4100 5.7049 -3.2454 -4.2897 0.5620
# 3 8.9439 5.7049 64.9193 7.7699 1.0641 8.0392
# 4 7.1142 -3.2454 7.7699 21.5292 7.1951 2.1787
# 5 10.6520 -4.2897 1.0641 7.1951 45.6550 1.0702
# 6 23.6138 0.5620 8.0392 2.1787 1.0702 51.5633
#
#
#
# Elastic Compliance Matrix: (Units=1/GPa)
#
#
# Indices 1 2 3 4 5 6 
#
# 1 0.008375 -0.001888 -0.000267 -0.002011 -0.001723 -0.003653
# 2 -0.001888 0.010431 -0.001027 0.002121 0.001092 0.000799
# 3 -0.000267 -0.001027 0.016511 -0.005996 0.000577 -0.002200
# 4 -0.002011 0.002121 -0.005996 0.052090 -0.007396 -0.000215
# 5 -0.001723 0.001092 0.000577 -0.007396 0.023548 0.000511
# 6 -0.003653 0.000799 -0.002200 -0.000215 0.000511 0.021399
#
#
# Mechanical properties :
#
#
# Convention : Reuss Voigt Hill
#
# Bulk Modulus (GPa) = 34.53844 41.96025 38.24934
# Shear Modulus (GPa) = 33.69936 41.67009 37.68472
#
# Velocity S-wave (km/s) = 3.65661 4.06612 3.86679
# Velocity P-wave (km/s) = 5.61529 6.22036 5.92555
#
# Compressibility (1/GPa) = 0.02895325
#
# Stress axis : x y z
#
# Youngs Moduli (GPa) = 119.39855 95.86687 60.56450
#
# Poissons Ratio (x) = 0.18102 0.01615
# Poissons Ratio (y) = 0.22546 0.06221
# Poissons Ratio (z) = 0.03185 0.09848
#
# Static dielectric constant tensor:
#      x y z
#    x 5.128760 0.134760 0.099080 
#    y 0.134760 4.297810 -0.100030 
#    z 0.099080 -0.100030 4.428330 
# 
# 
# High freq. dielectric constant tensor:
#      x y z
#    x 2.042830 0.005360 0.004450 
#    y 0.005360 2.004880 0.004170 
#    z 0.004450 0.004170 1.974480 
# 
# From -- ./inp_files/534249.got.cif
#   From: 2010.06.25/outbox.cif.g09.slc.cpg/sg2_268_cif.got.tgz:534249.got - 2010.06.27 13:26:56.
