data_PCOD8026593
_publ_section_title
;
Structure prediction by ZEFSAII (Michael W. Deem and Ramdas Pophale) SiO2 
 PCOD8026593
Probable space group: P -1
;
_chemical_formula_sum "Si O2"
_cell_formula_units_Z 14
_cell_length_a 22.112646
_cell_length_b 8.997286
_cell_length_c 15.669012
_cell_angle_alpha 28.075697
_cell_angle_beta 25.475792
_cell_angle_gamma 31.188412
_cell_volume 603.738942
_symmetry_space_group_name_H-M "P -1"
_symmetry_group_IT_number 2
_symmetry_cell_setting 'triclinic'
loop_
_space_group_symop_operation_xyz
x,y,z
-x,-y,-z
loop_
_atom_site_type_symbol
_atom_site_label
_atom_site_fract_x
_atom_site_fract_y
_atom_site_fract_z
Si Si1 0.403548 0.191355 0.448724
Si Si2 0.928073 0.646636 0.210966
Si Si3 0.522720 0.169793 0.974499
Si Si4 0.107729 0.251541 0.054083
Si Si5 0.198995 0.517271 0.243277
Si Si6 0.571924 0.791258 0.277571
Si Si7 0.020030 0.246897 0.728699
O O1 0.241609 0.162667 0.688053
O O2 0.378924 0.584615 0.288848
O O3 0.500000 0.000000 0.500000
O O4 0.466503 0.048989 0.347765
O O5 0.005478 0.297570 0.245010
O O6 0.946770 0.563037 0.328434
O O7 0.024730 0.878203 0.935584
O O8 0.371401 0.416450 0.074755
O O9 0.500000 0.000000 0.000000
O O10 0.586656 0.929651 0.093643
O O11 0.135604 0.876709 0.182321
O O12 0.264098 0.329921 0.829695
O O13 0.000000 0.500000 0.000000
O O14 0.138517 0.539429 0.212721
O O15 0.145404 0.241128 0.502083
O O16 0.500000 0.500000 0.500000
#
# Coordination Sequence:
#
# PCOD8026593 Si02
#       7
#     2   2   2   2   2   2   2
#     4  12  25  48  76 110 151 198 251 311 379 451
#     4  11  25  42  72 103 148 183 250 297 370 444
#     4  12  28  49  76 108 151 198 262 308 378 450
#     4  12  26  47  73 109 149 195 248 305 378 446
#     4  11  24  47  73 103 149 189 245 307 374 437
#     4  12  29  48  78 110 156 204 254 314 386 450
#     4  10  24  42  70 104 140 189 236 304 369 436
#
# _framework density 23.188831
#
# number of rings (size 3 to 8) (size 9 to 14) (size 15 to 20)
#    0.000    0.571    2.857    3.857   10.000    2.857 
#    0.000    0.000    0.000    0.000    0.000    0.000 
#    0.000    0.000    0.000    0.000    0.000    0.000 
#
# Total GULP energy -173521.333815 kJ/mol
# GULP energy per Si atom -12394.380987 kJ/mol
# Density = 2.313605 g / cm^3
# Si number density = 23.188831 Si / 1000 Ang^3
#
#
#
# Elastic Constant Matrix: (Units=GPa)
#
#
# Indices 1 2 3 4 5 6 
#
# 1 150.6791 55.0255 39.2705 -6.1428 -3.1157 2.7653
# 2 55.0255 114.4403 35.7940 13.3171 -7.6149 0.3577
# 3 39.2705 35.7940 96.6017 -11.9447 -4.4928 -2.6135
# 4 -6.1428 13.3171 -11.9447 43.8354 -7.3646 -1.3753
# 5 -3.1157 -7.6149 -4.4928 -7.3646 38.1280 1.8393
# 6 2.7653 0.3577 -2.6135 -1.3753 1.8393 33.9184
#
#
#
# Elastic Compliance Matrix: (Units=1/GPa)
#
#
# Indices 1 2 3 4 5 6 
#
# 1 0.008585 -0.003737 -0.001895 0.001819 0.000119 -0.000739
# 2 -0.003737 0.012331 -0.003662 -0.005153 0.000748 -0.000357
# 3 -0.001895 -0.003662 0.013170 0.004732 0.001516 0.001318
# 4 0.001819 -0.005153 0.004732 0.026762 0.004793 0.001096
# 5 0.000119 0.000748 0.001516 0.004793 0.027549 -0.001200
# 6 -0.000739 -0.000357 0.001318 0.001096 -0.001200 0.029758
#
#
# Mechanical properties :
#
#
# Convention : Reuss Voigt Hill
#
# Bulk Modulus (GPa) = 64.52106 69.10011 66.81058
# Shear Modulus (GPa) = 35.23396 38.61845 36.92620
#
# Velocity S-wave (km/s) = 3.90222 4.08535 3.99483
# Velocity P-wave (km/s) = 6.94174 7.21921 7.08183
#
# Compressibility (1/GPa) = 0.01549882
#
# Stress axis : x y z
#
# Youngs Moduli (GPa) = 116.47861 81.09813 75.92840
#
# Poissons Ratio (x) = 0.30304 0.14389
# Poissons Ratio (y) = 0.43524 0.27805
# Poissons Ratio (z) = 0.22074 0.29698
#
# Static dielectric constant tensor:
#      x y z
#    x 4.977580 0.591850 0.315410 
#    y 0.591850 5.108620 0.758590 
#    z 0.315410 0.758590 4.644620 
# 
# 
# High freq. dielectric constant tensor:
#      x y z
#    x 1.943110 -0.000180 -0.001260 
#    y -0.000180 1.908260 0.005270 
#    z -0.001260 0.005270 1.922490 
# 
# From -- ./inp_files/540368.got.cif
#   From: 2010.06.25/outbox.cif.g09.slc.cpg/sg2_271_cif.got.tgz:540368.got - 2010.06.27 13:26:56.
