data_PCOD8026137
_publ_section_title
;
Structure prediction by ZEFSAII (Michael W. Deem and Ramdas Pophale) SiO2 
 PCOD8026137
Probable space group: P -1
;
_chemical_formula_sum "Si O2"
_cell_formula_units_Z 14
_cell_length_a 17.849501
_cell_length_b 17.941559
_cell_length_c 11.879108
_cell_angle_alpha 150.778847
_cell_angle_beta 153.008193
_cell_angle_gamma 22.303862
_cell_volume 628.951507
_symmetry_space_group_name_H-M "P -1"
_symmetry_group_IT_number 2
_symmetry_cell_setting 'triclinic'
loop_
_space_group_symop_operation_xyz
x,y,z
-x,-y,-z
loop_
_atom_site_type_symbol
_atom_site_label
_atom_site_fract_x
_atom_site_fract_y
_atom_site_fract_z
Si Si1 0.392994 0.231299 0.667798
Si Si2 0.400141 0.026480 0.021408
Si Si3 0.205972 0.360463 0.821928
Si Si4 0.791568 0.291451 0.719303
Si Si5 0.947111 0.143914 0.503271
Si Si6 0.413160 0.567644 0.752255
Si Si7 0.268082 0.398049 0.474009
O O1 0.221415 0.318474 0.654347
O O2 0.277550 0.346308 0.548726
O O3 0.500000 0.000000 0.500000
O O4 0.556218 0.272464 0.968945
O O5 0.166182 0.089421 0.772849
O O6 0.369650 0.202589 0.277372
O O7 0.500000 0.000000 0.000000
O O8 0.572151 0.816928 0.046727
O O9 0.990004 0.406484 0.641019
O O10 0.139158 0.577769 0.030308
O O11 0.763241 0.243649 0.489910
O O12 0.585352 0.398026 0.666872
O O13 0.991972 0.063206 0.735045
O O14 0.831183 0.305481 0.460227
O O15 0.412470 0.461096 0.721852
#
# Coordination Sequence:
#
# PCOD8026137 Si02
#       7
#     2   2   2   2   2   2   2
#     4  11  25  48  75  96 136 185 241 284 337 408
#     4  12  26  41  69 107 144 180 226 284 349 414
#     4  11  25  44  73 100 136 190 231 281 348 407
#     4  10  24  38  66  99 138 178 230 272 339 416
#     4  11  24  40  68 102 144 179 230 276 342 419
#     4  11  26  44  70 102 140 180 227 288 352 397
#     4  12  25  47  70 103 141 182 231 289 343 406
#
# _framework density 22.259267999999999
#
# number of rings (size 3 to 8) (size 9 to 14) (size 15 to 20)
#    0.000    0.857    2.857    3.000   14.000    1.143 
#    0.000    0.714    0.000    0.000    0.000    0.000 
#    0.000    0.000    0.000    0.000    0.000    0.000 
#
# Total GULP energy -173448.025859 kJ/mol
# GULP energy per Si atom -12389.144704 kJ/mol
# Density = 2.220861 g / cm^3
# Si number density = 22.259268 Si / 1000 Ang^3
#
#
#
# Elastic Constant Matrix: (Units=GPa)
#
#
# Indices 1 2 3 4 5 6 
#
# 1 140.0426 59.2480 48.7545 8.2893 -1.4264 -0.2477
# 2 59.2480 115.4496 64.3153 15.4780 -8.1932 -7.5231
# 3 48.7545 64.3153 98.6572 22.0799 0.4491 -11.1940
# 4 8.2893 15.4780 22.0799 43.1457 3.6616 -2.5985
# 5 -1.4264 -8.1932 0.4491 3.6616 38.3862 -0.5848
# 6 -0.2477 -7.5231 -11.1940 -2.5985 -0.5848 25.4992
#
#
#
# Elastic Compliance Matrix: (Units=1/GPa)
#
#
# Indices 1 2 3 4 5 6 
#
# 1 0.009600 -0.003663 -0.002777 0.000804 -0.000502 -0.002136
# 2 -0.003663 0.015374 -0.007890 -0.000997 0.003348 0.001012
# 3 -0.002777 -0.007890 0.018516 -0.005683 -0.001383 0.005163
# 4 0.000804 -0.000997 -0.005683 0.026505 -0.002647 -0.000141
# 5 -0.000502 0.003348 -0.001383 -0.002647 0.027027 0.000726
# 6 -0.002136 0.001012 0.005163 -0.000141 0.000726 0.041763
#
#
# Mechanical properties :
#
#
# Convention : Reuss Voigt Hill
#
# Bulk Modulus (GPa) = 67.42168 77.64277 72.53223
# Shear Modulus (GPa) = 29.00455 33.52835 31.26645
#
# Velocity S-wave (km/s) = 3.61367 3.88527 3.75193
# Velocity P-wave (km/s) = 6.91133 7.42186 7.17114
#
# Compressibility (1/GPa) = 0.01483202
#
# Stress axis : x y z
#
# Youngs Moduli (GPa) = 104.16197 65.04566 54.00860
#
# Poissons Ratio (x) = 0.23824 0.14997
# Poissons Ratio (y) = 0.38151 0.42610
# Poissons Ratio (z) = 0.28923 0.51318
#
# Static dielectric constant tensor:
#      x y z
#    x 4.247690 -0.147240 -0.097890 
#    y -0.147240 4.497830 0.308190 
#    z -0.097890 0.308190 4.098330 
# 
# 
# High freq. dielectric constant tensor:
#      x y z
#    x 1.891840 -0.002850 0.000590 
#    y -0.002850 1.885440 0.017880 
#    z 0.000590 0.017880 1.866830 
# 
# From -- ./inp_files/84343.got.cif
#   From: 2010.06.25/outbox.cif.g09.slc.cpg/sg2_43_cif.got.tgz:84343.got - 2010.06.27 13:26:56.
