data_PCOD8026728
_publ_section_title
;
Structure prediction by ZEFSAII (Michael W. Deem and Ramdas Pophale) SiO2 
 PCOD8026728
Probable space group: P -1
;
_chemical_formula_sum "Si O2"
_cell_formula_units_Z 14
_cell_length_a 12.922460
_cell_length_b 9.568407
_cell_length_c 8.822801
_cell_angle_alpha 67.609034
_cell_angle_beta 110.300517
_cell_angle_gamma 59.281714
_cell_volume 634.771717
_symmetry_space_group_name_H-M "P -1"
_symmetry_group_IT_number 2
_symmetry_cell_setting 'triclinic'
loop_
_space_group_symop_operation_xyz
x,y,z
-x,-y,-z
loop_
_atom_site_type_symbol
_atom_site_label
_atom_site_fract_x
_atom_site_fract_y
_atom_site_fract_z
Si Si1 0.563942 0.975299 0.878295
Si Si2 0.504361 0.753315 0.766621
Si Si3 0.920745 0.244180 0.878901
Si Si4 0.174421 0.000762 0.647026
Si Si5 0.866288 0.297828 0.173364
Si Si6 0.107215 0.285710 0.748694
Si Si7 0.446856 0.383243 0.497115
O O1 0.532132 0.183888 0.740769
O O2 0.480225 0.954629 0.715424
O O3 0.500000 0.000000 0.000000
O O4 0.761225 0.750033 0.074367
O O5 0.512735 0.718018 0.607539
O O6 0.344686 0.821396 0.712929
O O7 0.678082 0.531768 0.026275
O O8 0.743334 0.421336 0.640719
O O9 0.010177 0.286992 0.820147
O O10 0.909646 0.303668 0.023208
O O11 0.000000 0.000000 0.000000
O O12 0.208652 0.073877 0.775572
O O13 0.012162 0.223563 0.379844
O O14 0.124972 0.890552 0.734284
O O15 0.000000 0.500000 0.500000
O O16 0.500000 0.500000 0.500000
#
# Coordination Sequence:
#
# PCOD8026728 Si02
#       7
#     2   2   2   2   2   2   2
#     4  12  25  46  69 103 142 180 232 290 352 413
#     4  11  25  45  69 103 143 179 238 287 353 414
#     4  11  23  44  68  99 138 177 235 290 342 413
#     4  11  23  42  71  99 142 182 234 285 354 410
#     4  10  24  43  66 105 135 186 228 294 346 418
#     4  12  25  43  69 101 139 184 232 284 352 416
#     4  11  27  45  73 104 136 188 234 287 351 419
#
# _framework density 22.055171999999999
#
# number of rings (size 3 to 8) (size 9 to 14) (size 15 to 20)
#    0.000    0.857    2.857    3.429    6.000    1.143 
#    0.000    2.143    0.000    0.000    0.000    0.000 
#    0.000    0.000    0.000    0.000    0.000    0.000 
#
# Total GULP energy -173563.084816 kJ/mol
# GULP energy per Si atom -12397.363201 kJ/mol
# Density = 2.200497 g / cm^3
# Si number density = 22.055172 Si / 1000 Ang^3
#
#
#
# Elastic Constant Matrix: (Units=GPa)
#
#
# Indices 1 2 3 4 5 6 
#
# 1 162.2713 43.6091 68.8382 4.9302 -3.0393 -13.6939
# 2 43.6091 80.4820 25.0740 9.0444 -1.5379 -2.4333
# 3 68.8382 25.0740 132.8169 -7.7574 4.1609 -7.8155
# 4 4.9302 9.0444 -7.7574 34.4797 1.0838 8.8831
# 5 -3.0393 -1.5379 4.1609 1.0838 46.3205 -7.9562
# 6 -13.6939 -2.4333 -7.8155 8.8831 -7.9562 43.7709
#
#
#
# Elastic Compliance Matrix: (Units=1/GPa)
#
#
# Indices 1 2 3 4 5 6 
#
# 1 0.009101 -0.003317 -0.004101 -0.002065 0.001349 0.002595
# 2 -0.003317 0.015111 -0.001354 -0.003932 0.000577 0.000463
# 3 -0.004101 -0.001354 0.010123 0.003389 -0.001387 -0.000491
# 4 -0.002065 -0.003932 0.003389 0.033094 -0.002625 -0.007453
# 5 0.001349 0.000577 -0.001387 -0.002625 0.022719 0.004869
# 6 0.002595 0.000463 -0.000491 -0.007453 0.004869 0.025994
#
#
# Mechanical properties :
#
#
# Convention : Reuss Voigt Hill
#
# Bulk Modulus (GPa) = 59.55686 72.29033 65.92359
# Shear Modulus (GPa) = 35.89846 40.78415 38.34131
#
# Velocity S-wave (km/s) = 4.03881 4.30488 4.17397
# Velocity P-wave (km/s) = 6.98653 7.58667 7.29277
#
# Compressibility (1/GPa) = 0.01679068
#
# Stress axis : x y z
#
# Youngs Moduli (GPa) = 109.88313 66.17563 98.78849
#
# Poissons Ratio (x) = 0.21953 0.40510
# Poissons Ratio (y) = 0.36452 0.13375
# Poissons Ratio (z) = 0.45060 0.08960
#
# Static dielectric constant tensor:
#      x y z
#    x 4.039570 0.029360 0.167440 
#    y 0.029360 4.000410 -0.016090 
#    z 0.167440 -0.016090 4.182580 
# 
# 
# High freq. dielectric constant tensor:
#      x y z
#    x 1.881010 -0.001810 0.008360 
#    y -0.001810 1.868750 -0.001730 
#    z 0.008360 -0.001730 1.878150 
# 
# From -- ./inp_files/158610.got.cif
#   From: 2010.06.25/outbox.cif.g09.slc.cpg/sg2_80_cif.got.tgz:158610.got - 2010.06.27 13:26:56.
