data_PCOD8026542
_publ_section_title
;
Structure prediction by ZEFSAII (Michael W. Deem and Ramdas Pophale) SiO2 
 PCOD8026542
Probable space group: P -1
;
_chemical_formula_sum "Si O2"
_cell_formula_units_Z 14
_cell_length_a 26.696384
_cell_length_b 5.015941
_cell_length_c 15.812924
_cell_angle_alpha 87.371757
_cell_angle_beta 162.449599
_cell_angle_gamma 100.295219
_cell_volume 570.197809
_symmetry_space_group_name_H-M "P -1"
_symmetry_group_IT_number 2
_symmetry_cell_setting 'triclinic'
loop_
_space_group_symop_operation_xyz
x,y,z
-x,-y,-z
loop_
_atom_site_type_symbol
_atom_site_label
_atom_site_fract_x
_atom_site_fract_y
_atom_site_fract_z
Si Si1 0.155167 0.326249 0.551344
Si Si2 0.414573 0.155159 0.547923
Si Si3 0.822072 0.556993 0.223540
Si Si4 0.615553 0.332812 0.608001
Si Si5 0.216761 0.177353 0.006839
Si Si6 0.123543 0.837960 0.221397
Si Si7 0.288716 0.935601 0.671143
O O1 0.202279 0.327469 0.725779
O O2 0.185318 0.651916 0.568816
O O3 0.283156 0.220013 0.703425
O O4 0.939154 0.103779 0.192011
O O5 0.383207 0.438494 0.466514
O O6 0.325368 0.901635 0.335941
O O7 0.316756 0.009098 0.480216
O O8 0.634301 0.252370 0.908145
O O9 0.843041 0.811388 0.186164
O O10 0.000000 0.500000 0.500000
O O11 0.758119 0.519881 0.908807
O O12 0.410659 0.155479 0.323023
O O13 0.177167 0.862252 0.405249
O O14 0.000000 0.500000 0.000000
O O15 0.000000 0.000000 0.000000
O O16 0.500000 0.000000 0.000000
#
# Coordination Sequence:
#
# PCOD8026542 Si02
#       7
#     2   2   2   2   2   2   2
#     4  12  26  44  77 105 149 190 246 299 373 434
#     4  11  25  45  73  99 146 186 240 296 371 423
#     4  11  24  46  72 110 146 193 241 300 365 451
#     4  10  24  43  70 103 142 186 229 289 358 437
#     4  10  24  42  68 106 146 183 238 287 359 437
#     4  12  28  49  75 109 146 193 254 314 368 440
#     4  12  29  51  75 110 148 199 255 315 374 442
#
# _framework density 24.552882
#
# number of rings (size 3 to 8) (size 9 to 14) (size 15 to 20)
#    0.000    0.857    0.000    5.143    6.000   14.286 
#    0.000    0.000    0.000    0.000    0.000    0.000 
#    0.000    0.000    0.000    0.000    0.000    0.000 
#
# Total GULP energy -173678.362029 kJ/mol
# GULP energy per Si atom -12405.597288 kJ/mol
# Density = 2.449700 g / cm^3
# Si number density = 24.552882 Si / 1000 Ang^3
#
#
#
# Elastic Constant Matrix: (Units=GPa)
#
#
# Indices 1 2 3 4 5 6 
#
# 1 135.8159 19.8378 39.5538 1.7215 -12.5164 -3.1303
# 2 19.8378 87.0325 24.6581 3.4895 2.5204 -6.1218
# 3 39.5538 24.6581 111.2615 1.4130 -6.3346 15.5487
# 4 1.7215 3.4895 1.4130 35.0830 6.9114 -0.1741
# 5 -12.5164 2.5204 -6.3346 6.9114 50.6534 13.3836
# 6 -3.1303 -6.1218 15.5487 -0.1741 13.3836 43.8913
#
#
#
# Elastic Compliance Matrix: (Units=1/GPa)
#
#
# Indices 1 2 3 4 5 6 
#
# 1 0.008524 -0.001103 -0.002820 -0.000510 0.001626 0.000955
# 2 -0.001103 0.012944 -0.003072 -0.000674 -0.002123 0.003460
# 3 -0.002820 -0.003072 0.011581 -0.000527 0.002422 -0.005473
# 4 -0.000510 -0.000674 -0.000527 0.029532 -0.004605 0.001577
# 5 0.001626 -0.002123 0.002422 -0.004605 0.023340 -0.008173
# 6 0.000955 0.003460 -0.005473 0.001577 -0.008173 0.027772
#
#
# Mechanical properties :
#
#
# Convention : Reuss Voigt Hill
#
# Bulk Modulus (GPa) = 52.47459 55.80102 54.13781
# Shear Modulus (GPa) = 37.30360 42.59623 39.94991
#
# Velocity S-wave (km/s) = 3.90207 4.16970 4.03810
# Velocity P-wave (km/s) = 6.45910 6.77924 6.62111
#
# Compressibility (1/GPa) = 0.01905684
#
# Stress axis : x y z
#
# Youngs Moduli (GPa) = 117.32036 77.25760 86.35064
#
# Poissons Ratio (x) = 0.08523 0.24352
# Poissons Ratio (y) = 0.12943 0.26529
# Poissons Ratio (z) = 0.33086 0.23735
#
# Static dielectric constant tensor:
#      x y z
#    x 4.597760 0.061170 -0.036320 
#    y 0.061170 4.350420 0.233440 
#    z -0.036320 0.233440 4.528800 
# 
# 
# High freq. dielectric constant tensor:
#      x y z
#    x 1.990800 0.007300 -0.002660 
#    y 0.007300 1.981530 0.010970 
#    z -0.002660 0.010970 1.986080 
# 
# From -- ./inp_files/542223.got.cif
#   From: 2010.06.25/outbox.cif.g09.slc.cpg/sg2_272_cif.got.tgz:542223.got - 2010.06.27 13:26:56.
