data_PCOD8026697
_publ_section_title
;
Structure prediction by ZEFSAII (Michael W. Deem and Ramdas Pophale) SiO2 
 PCOD8026697
Probable space group: P -1
;
_chemical_formula_sum "Si O2"
_cell_formula_units_Z 16
_cell_length_a 13.583616
_cell_length_b 13.484163
_cell_length_c 16.863316
_cell_angle_alpha 142.522143
_cell_angle_beta 156.497465
_cell_angle_gamma 47.551694
_cell_volume 731.491063
_symmetry_space_group_name_H-M "P -1"
_symmetry_group_IT_number 2
_symmetry_cell_setting 'triclinic'
loop_
_space_group_symop_operation_xyz
x,y,z
-x,-y,-z
loop_
_atom_site_type_symbol
_atom_site_label
_atom_site_fract_x
_atom_site_fract_y
_atom_site_fract_z
Si Si1 0.021718 0.455121 0.697165
Si Si2 0.415374 0.369562 0.528735
Si Si3 0.225868 0.336033 0.928804
Si Si4 0.486836 0.134591 0.887683
Si Si5 0.507987 0.283688 0.837710
Si Si6 0.750276 0.193269 0.580325
Si Si7 0.003498 0.673230 0.566687
Si Si8 0.530841 0.959269 0.586442
O O1 0.053109 0.372818 0.751989
O O2 0.831134 0.575923 0.650904
O O3 0.906936 0.331747 0.462497
O O4 0.291693 0.543689 0.914457
O O5 0.592751 0.341113 0.566848
O O6 0.316645 0.188826 0.385255
O O7 0.573200 0.499877 0.791207
O O8 0.364123 0.189108 0.911853
O O9 0.040558 0.268145 0.821713
O O10 0.411693 0.252987 0.837768
O O11 0.382092 0.938990 0.668642
O O12 0.791957 0.176848 0.147092
O O13 0.656044 0.136751 0.831566
O O14 0.271705 0.282069 0.603278
O O15 0.733970 0.103296 0.598342
O O16 0.000000 0.500000 0.500000
O O17 0.500000 0.000000 0.500000
#
# Coordination Sequence:
#
# PCOD8026697 Si02
#       8
#     2   2   2   2   2   2   2   2
#     4  12  24  37  66  98 129 169 215 263 321 385
#     4  10  24  43  64  97 129 169 217 263 320 379
#     4  12  22  43  70  91 130 173 218 266 317 377
#     4  11  22  43  66  92 133 168 211 272 318 374
#     4  11  23  41  62  97 129 167 215 261 327 382
#     4   9  24  44  65  95 128 174 215 263 320 384
#     4  12  23  37  63  96 131 166 212 267 320 378
#     4   9  21  41  64  91 126 168 209 258 324 380
#
# _framework density 21.873131000000001
#
# number of rings (size 3 to 8) (size 9 to 14) (size 15 to 20)
#    0.750    0.500    3.750    2.625    1.750    1.000 
#    4.500    3.125    0.000    0.000    0.000    0.000 
#    0.000    0.000    0.000    0.000    0.000    0.000 
#
# Total GULP energy -198240.250615 kJ/mol
# GULP energy per Si atom -12390.015663 kJ/mol
# Density = 2.182335 g / cm^3
# Si number density = 21.873131 Si / 1000 Ang^3
#
#
#
# Elastic Constant Matrix: (Units=GPa)
#
#
# Indices 1 2 3 4 5 6 
#
# 1 95.5941 18.7525 11.4872 -4.4383 3.4192 -6.4135
# 2 18.7525 62.4468 36.5167 -0.3649 -12.0799 -11.8865
# 3 11.4872 36.5167 81.5008 -14.3702 0.0166 -5.2815
# 4 -4.4383 -0.3649 -14.3702 28.7378 -5.5303 -4.9282
# 5 3.4192 -12.0799 0.0166 -5.5303 29.0242 4.3334
# 6 -6.4135 -11.8865 -5.2815 -4.9282 4.3334 39.0971
#
#
#
# Elastic Compliance Matrix: (Units=1/GPa)
#
#
# Indices 1 2 3 4 5 6 
#
# 1 0.011462 -0.004115 0.000604 0.001670 -0.002931 0.001246
# 2 -0.004115 0.027001 -0.011850 -0.003469 0.010420 0.004341
# 3 0.000604 -0.011850 0.019110 0.008945 -0.003397 0.000582
# 4 0.001670 -0.003469 0.008945 0.041405 0.005492 0.005038
# 5 -0.002931 0.010420 -0.003397 0.005492 0.040417 -0.001559
# 6 0.001246 0.004341 0.000582 0.005038 -0.001559 0.027988
#
#
# Mechanical properties :
#
#
# Convention : Reuss Voigt Hill
#
# Bulk Modulus (GPa) = 37.24479 41.45049 39.34764
# Shear Modulus (GPa) = 24.14828 30.89087 27.51957
#
# Velocity S-wave (km/s) = 3.32628 3.76210 3.55088
# Velocity P-wave (km/s) = 5.64064 6.15327 5.90252
#
# Compressibility (1/GPa) = 0.02684939
#
# Stress axis : x y z
#
# Youngs Moduli (GPa) = 87.24843 37.03608 52.32950
#
# Poissons Ratio (x) = 0.15241 -0.03161
# Poissons Ratio (y) = 0.35904 0.62011
# Poissons Ratio (z) = -0.05271 0.43888
#
# Static dielectric constant tensor:
#      x y z
#    x 4.148250 -0.309310 -0.224930 
#    y -0.309310 3.945450 0.145490 
#    z -0.224930 0.145490 3.802790 
# 
# 
# High freq. dielectric constant tensor:
#      x y z
#    x 1.861550 -0.020250 -0.008500 
#    y -0.020250 1.851850 0.008500 
#    z -0.008500 0.008500 1.841990 
# 
# From -- ./inp_files/573988.got.cif
#   From: 2010.06.25/outbox.cif.g09.slc.cpg/sg2_287_cif.got.tgz:573988.got - 2010.06.27 13:26:56.
