data_PCOD8026061
_publ_section_title
;
Structure prediction by ZEFSAII (Michael W. Deem and Ramdas Pophale) SiO2 
 PCOD8026061
Probable space group: P -1
;
_chemical_formula_sum "Si O2"
_cell_formula_units_Z 16
_cell_length_a 24.613929
_cell_length_b 18.316122
_cell_length_c 14.246056
_cell_angle_alpha 20.877810
_cell_angle_beta 29.264398
_cell_angle_gamma 18.426620
_cell_volume 717.821414
_symmetry_space_group_name_H-M "P -1"
_symmetry_group_IT_number 2
_symmetry_cell_setting 'triclinic'
loop_
_space_group_symop_operation_xyz
x,y,z
-x,-y,-z
loop_
_atom_site_type_symbol
_atom_site_label
_atom_site_fract_x
_atom_site_fract_y
_atom_site_fract_z
Si Si1 0.992322 0.148588 0.741175
Si Si2 0.321363 0.241522 0.223400
Si Si3 0.148801 0.122648 0.239892
Si Si4 0.608408 0.878899 0.075107
Si Si5 0.350094 0.754366 0.727121
Si Si6 0.274203 0.720948 0.350031
Si Si7 0.336941 0.336298 0.299026
Si Si8 0.011748 0.922907 0.793631
O O1 0.829025 0.526731 0.560202
O O2 0.179263 0.989438 0.633776
O O3 0.934823 0.100356 0.795823
O O4 0.000000 0.000000 0.000000
O O5 0.321876 0.351098 0.191222
O O6 0.492662 0.052126 0.134785
O O7 0.322352 0.998458 0.536254
O O8 0.156357 0.543849 0.047102
O O9 0.214534 0.952719 0.244467
O O10 0.095572 0.002284 0.523976
O O11 0.298952 0.032495 0.177326
O O12 0.000000 0.500000 0.000000
O O13 0.743221 0.496978 0.337063
O O14 0.500000 0.000000 0.000000
O O15 0.525200 0.514410 0.690681
O O16 0.354021 0.556037 0.030102
O O17 0.146119 0.947435 0.184065
O O18 0.500000 0.000000 0.500000
#
# Coordination Sequence:
#
# PCOD8026061 Si02
#       8
#     2   2   2   2   2   2   2   2
#     4  10  23  48  69 102 143 183 241 295 352 417
#     4  11  25  44  71 104 139 183 239 286 357 427
#     4  12  27  44  72 105 146 187 234 290 366 419
#     4  11  26  45  72 103 143 186 235 293 353 435
#     4  10  24  46  71 100 139 182 238 285 362 415
#     4  11  26  47  69 107 144 183 242 291 354 435
#     4  11  25  46  73 103 146 182 236 301 354 421
#     4  12  25  44  75 101 144 190 237 299 353 429
#
# _framework density 22.289666
#
# number of rings (size 3 to 8) (size 9 to 14) (size 15 to 20)
#    0.000    1.000    3.750    1.875    8.750    4.000 
#    2.250    0.000    0.000    0.000    0.000    0.000 
#    0.000    0.000    0.000    0.000    0.000    0.000 
#
# Total GULP energy -198318.135480 kJ/mol
# GULP energy per Si atom -12394.883467 kJ/mol
# Density = 2.223893 g / cm^3
# Si number density = 22.289666 Si / 1000 Ang^3
#
#
#
# Elastic Constant Matrix: (Units=GPa)
#
#
# Indices 1 2 3 4 5 6 
#
# 1 138.6059 66.5165 38.8545 -1.4649 -1.6321 -2.8885
# 2 66.5165 152.4450 62.9146 -17.0334 -9.3084 -5.7588
# 3 38.8545 62.9146 110.0142 -13.7854 2.2936 -9.7772
# 4 -1.4649 -17.0334 -13.7854 39.2984 -6.7232 1.6259
# 5 -1.6321 -9.3084 2.2936 -6.7232 32.6775 -6.4010
# 6 -2.8885 -5.7588 -9.7772 1.6259 -6.4010 36.6568
#
#
#
# Elastic Compliance Matrix: (Units=1/GPa)
#
#
# Indices 1 2 3 4 5 6 
#
# 1 0.009397 -0.003817 -0.001387 -0.001946 -0.000982 -0.000314
# 2 -0.003817 0.010695 -0.004328 0.003637 0.004059 0.000772
# 3 -0.001387 -0.004328 0.012551 0.002160 -0.001301 0.002235
# 4 -0.001946 0.003637 0.002160 0.028851 0.006904 0.000920
# 5 -0.000982 0.004059 -0.001301 0.006904 0.034379 0.005910
# 6 -0.000314 0.000772 0.002235 0.000920 0.005910 0.028964
#
#
# Mechanical properties :
#
#
# Convention : Reuss Voigt Hill
#
# Bulk Modulus (GPa) = 73.64739 81.95958 77.80349
# Shear Modulus (GPa) = 33.68645 37.24519 35.46582
#
# Velocity S-wave (km/s) = 3.89177 4.09218 3.99323
# Velocity P-wave (km/s) = 7.30118 7.69272 7.49950
#
# Compressibility (1/GPa) = 0.01357821
#
# Stress axis : x y z
#
# Youngs Moduli (GPa) = 106.42227 93.50226 79.67237
#
# Poissons Ratio (x) = 0.35688 0.11052
# Poissons Ratio (y) = 0.40619 0.34485
# Poissons Ratio (z) = 0.14763 0.40471
#
# Static dielectric constant tensor:
#      x y z
#    x 3.893400 -0.291310 -0.003120 
#    y -0.291310 4.562510 0.148290 
#    z -0.003120 0.148290 4.166140 
# 
# 
# High freq. dielectric constant tensor:
#      x y z
#    x 1.875090 -0.002520 -0.005410 
#    y -0.002520 1.897610 -0.014280 
#    z -0.005410 -0.014280 1.876150 
# 
# From -- ./inp_files/543122.got.cif
#   From: 2010.06.25/outbox.cif.g09.slc.cpg/sg2_272_cif.got.tgz:543122.got - 2010.06.27 13:26:56.
