data_PCOD8026272
_publ_section_title
;
Structure prediction by ZEFSAII (Michael W. Deem and Ramdas Pophale) SiO2 
 PCOD8026272
Probable space group: P -1
;
_chemical_formula_sum "Si O2"
_cell_formula_units_Z 14
_cell_length_a 5.261934
_cell_length_b 9.281046
_cell_length_c 18.660380
_cell_angle_alpha 41.390310
_cell_angle_beta 60.226720
_cell_angle_gamma 61.343747
_cell_volume 513.829813
_symmetry_space_group_name_H-M "P -1"
_symmetry_group_IT_number 2
_symmetry_cell_setting 'triclinic'
loop_
_space_group_symop_operation_xyz
x,y,z
-x,-y,-z
loop_
_atom_site_type_symbol
_atom_site_label
_atom_site_fract_x
_atom_site_fract_y
_atom_site_fract_z
Si Si1 0.546272 0.531919 0.697829
Si Si2 0.912238 0.345460 0.161435
Si Si3 0.497331 0.921530 0.750518
Si Si4 0.445517 0.247680 0.523570
Si Si5 0.065271 0.158500 0.037963
Si Si6 0.811348 0.614610 0.354377
Si Si7 0.603561 0.915356 0.130381
O O1 0.369596 0.628852 0.755590
O O2 0.618389 0.727746 0.561830
O O3 0.870550 0.391957 0.727164
O O4 0.372601 0.349677 0.751609
O O5 0.785049 0.213345 0.162146
O O6 0.979408 0.578763 0.039020
O O7 0.200721 0.217065 0.209388
O O8 0.553334 0.995049 0.632111
O O9 0.420929 0.153912 0.721552
O O10 0.710714 0.382799 0.444993
O O11 0.162069 0.353722 0.574010
O O12 0.233441 0.091288 0.965605
O O13 0.263523 0.040374 0.120685
O O14 0.750587 0.072052 0.106978
#
# Coordination Sequence:
#
# PCOD8026272 Si02
#       7
#     2   2   2   2   2   2   2
#     4  11  23  35  66  93 122 151 215 257 293 351
#     4  11  24  39  63  95 124 159 198 255 310 358
#     4  10  24  41  61  88 126 171 194 237 319 366
#     4   9  22  39  63  86 124 164 209 243 293 368
#     4   9  18  37  55  84 124 152 192 243 310 361
#     4   9  22  41  62  84 122 170 209 242 290 367
#     4   9  19  33  60  87 114 155 196 250 298 347
#
# _framework density 27.246376000000001
#
# number of rings (size 3 to 8) (size 9 to 14) (size 15 to 20)
#    0.857    1.429    0.000    1.286    8.000    3.429 
#    0.000    0.000    0.000    5.143    0.000    0.000 
#    0.000    0.000    0.000    0.000    0.000    0.000 
#
# Total GULP energy -173479.543990 kJ/mol
# GULP energy per Si atom -12391.395999 kJ/mol
# Density = 2.718436 g / cm^3
# Si number density = 27.246376 Si / 1000 Ang^3
#
#
#
# Elastic Constant Matrix: (Units=GPa)
#
#
# Indices 1 2 3 4 5 6 
#
# 1 152.3931 57.2534 56.8049 -23.1890 -14.4781 -16.5191
# 2 57.2534 91.9092 22.3716 -1.0245 -12.1510 -15.7565
# 3 56.8049 22.3716 167.2941 -14.9999 -4.5834 -5.4292
# 4 -23.1890 -1.0245 -14.9999 47.7109 -2.5128 -3.0379
# 5 -14.4781 -12.1510 -4.5834 -2.5128 46.1482 -1.7295
# 6 -16.5191 -15.7565 -5.4292 -3.0379 -1.7295 55.1664
#
#
#
# Elastic Compliance Matrix: (Units=1/GPa)
#
#
# Indices 1 2 3 4 5 6 
#
# 1 0.010500 -0.005375 -0.002338 0.004463 0.001953 0.001686
# 2 -0.005375 0.015001 -0.000221 -0.002077 0.002226 0.002609
# 3 -0.002338 -0.000221 0.006890 0.001020 -0.000053 -0.000031
# 4 0.004463 -0.002077 0.001020 0.023669 0.002327 0.002220
# 5 0.001953 0.002226 -0.000053 0.002327 0.023067 0.002067
# 6 0.001686 0.002609 -0.000031 0.002220 0.002067 0.019561
#
#
# Mechanical properties :
#
#
# Convention : Reuss Voigt Hill
#
# Bulk Modulus (GPa) = 60.52538 76.05068 68.28803
# Shear Modulus (GPa) = 41.64425 48.14953 44.89689
#
# Velocity S-wave (km/s) = 3.91376 4.20836 4.06373
# Velocity P-wave (km/s) = 6.53343 7.18237 6.86557
#
# Compressibility (1/GPa) = 0.01652199
#
# Stress axis : x y z
#
# Youngs Moduli (GPa) = 95.23519 66.66319 145.13619
#
# Poissons Ratio (x) = 0.35831 0.33936
# Poissons Ratio (y) = 0.51188 0.03215
# Poissons Ratio (z) = 0.22268 0.01477
#
# Static dielectric constant tensor:
#      x y z
#    x 4.857670 0.281610 0.078230 
#    y 0.281610 4.910480 0.332870 
#    z 0.078230 0.332870 5.521990 
# 
# 
# High freq. dielectric constant tensor:
#      x y z
#    x 2.096240 0.025300 0.006860 
#    y 0.025300 2.107680 0.025940 
#    z 0.006860 0.025940 2.139900 
# 
# From -- ./inp_files/43695.got.cif
#   From: 2010.06.25/outbox.cif.g09.slc.cpg/sg2_22_cif.got.tgz:43695.got - 2010.06.27 13:26:56.
