data_PCOD8026191
_publ_section_title
;
Structure prediction by ZEFSAII (Michael W. Deem and Ramdas Pophale) SiO2 
 PCOD8026191
Probable space group: P -1
;
_chemical_formula_sum "Si O2"
_cell_formula_units_Z 10
_cell_length_a 11.584969
_cell_length_b 8.893646
_cell_length_c 6.763840
_cell_angle_alpha 128.790047
_cell_angle_beta 66.312861
_cell_angle_gamma 110.717279
_cell_volume 492.317908
_symmetry_space_group_name_H-M "P -1"
_symmetry_group_IT_number 2
_symmetry_cell_setting 'triclinic'
loop_
_space_group_symop_operation_xyz
x,y,z
-x,-y,-z
loop_
_atom_site_type_symbol
_atom_site_label
_atom_site_fract_x
_atom_site_fract_y
_atom_site_fract_z
Si Si1 0.988123 0.745452 0.004242
Si Si2 0.442819 0.681298 0.777323
Si Si3 0.572079 0.974201 0.228059
Si Si4 0.823145 0.354324 0.883529
Si Si5 0.835772 0.082274 0.307665
O O1 0.076475 0.737769 0.127257
O O2 0.913187 0.928373 0.231330
O O3 0.886793 0.551942 0.899406
O O4 0.070754 0.767104 0.765527
O O5 0.500000 0.500000 0.500000
O O6 0.450412 0.845666 0.742740
O O7 0.297358 0.605391 0.872702
O O8 0.521675 0.769184 0.987528
O O9 0.721758 0.973145 0.163057
O O10 0.500000 0.000000 0.500000
O O11 0.775893 0.200864 0.618107
#
# Coordination Sequence:
#
# PCOD8026191 Si02
#       5
#     2   2   2   2   2
#     4  10  24  40  63  96 124 167 204 257 318 368
#     4  11  26  43  65  95 128 168 211 261 318 372
#     4  11  24  44  66  91 128 168 213 263 313 373
#     4  11  22  43  64  92 130 161 210 261 308 375
#     4  11  22  43  66  93 125 164 211 258 312 375
#
# _framework density 20.312076999999999
#
# number of rings (size 3 to 8) (size 9 to 14) (size 15 to 20)
#    0.000    1.200    4.000    1.200    2.800    2.400 
#   14.400    0.000    0.000    0.000    0.000    0.000 
#    0.000    0.000    0.000    0.000    0.000    0.000 
#
# Total GULP energy -124051.629153 kJ/mol
# GULP energy per Si atom -12405.162915 kJ/mol
# Density = 2.026585 g / cm^3
# Si number density = 20.312077 Si / 1000 Ang^3
#
#
#
# Elastic Constant Matrix: (Units=GPa)
#
#
# Indices 1 2 3 4 5 6 
#
# 1 96.7321 55.5480 51.4934 1.0932 2.0469 23.4469
# 2 55.5480 119.9802 50.8978 -1.5487 -3.4012 3.5303
# 3 51.4934 50.8978 142.8400 4.2630 -4.9300 7.6822
# 4 1.0932 -1.5487 4.2630 24.6634 5.2631 3.8437
# 5 2.0469 -3.4012 -4.9300 5.2631 34.8735 -1.6246
# 6 23.4469 3.5303 7.6822 3.8437 -1.6246 23.9781
#
#
#
# Elastic Compliance Matrix: (Units=1/GPa)
#
#
# Indices 1 2 3 4 5 6 
#
# 1 0.021959 -0.007836 -0.004299 0.003221 -0.004066 -0.019733
# 2 -0.007836 0.012661 -0.001982 0.000104 0.001703 0.006532
# 3 -0.004299 -0.001982 0.009278 -0.002234 0.001801 0.002003
# 4 0.003221 0.000104 -0.002234 0.043978 -0.007598 -0.010013
# 5 -0.004066 0.001703 0.001801 -0.007598 0.030782 0.006452
# 6 -0.019733 0.006532 0.002003 -0.010013 0.006452 0.061439
#
#
# Mechanical properties :
#
#
# Convention : Reuss Voigt Hill
#
# Bulk Modulus (GPa) = 63.84295 75.04785 69.44540
# Shear Modulus (GPa) = 23.41349 30.14385 26.77867
#
# Velocity S-wave (km/s) = 3.39881 3.85650 3.63486
# Velocity P-wave (km/s) = 6.84849 7.54041 7.20276
#
# Compressibility (1/GPa) = 0.01566344
#
# Stress axis : x y z
#
# Youngs Moduli (GPa) = 45.53992 78.98419 107.78057
#
# Poissons Ratio (x) = 0.61889 0.46337
# Poissons Ratio (y) = 0.35684 0.21365
# Poissons Ratio (z) = 0.19578 0.15657
#
# Static dielectric constant tensor:
#      x y z
#    x 3.830280 0.088680 0.111550 
#    y 0.088680 3.841210 -0.079950 
#    z 0.111550 -0.079950 3.564330 
# 
# 
# High freq. dielectric constant tensor:
#      x y z
#    x 1.804500 0.005710 0.002280 
#    y 0.005710 1.804800 -0.010150 
#    z 0.002280 -0.010150 1.792280 
# 
# From -- ./inp_files/1492.got.cif
#   From: 2010.06.25/outbox.cif.g09.slc.cpg/sg2_1_cif.got.tgz:1492.got - 2010.06.27 13:26:56.
