data_PCOD8026259
_publ_section_title
;
Structure prediction by ZEFSAII (Michael W. Deem and Ramdas Pophale) SiO2 
 PCOD8026259
Probable space group: P -1
;
_chemical_formula_sum "Si O2"
_cell_formula_units_Z 14
_cell_length_a 14.780546
_cell_length_b 12.574656
_cell_length_c 8.617407
_cell_angle_alpha 127.602166
_cell_angle_beta 32.148795
_cell_angle_gamma 136.410717
_cell_volume 587.599870
_symmetry_space_group_name_H-M "P -1"
_symmetry_group_IT_number 2
_symmetry_cell_setting 'triclinic'
loop_
_space_group_symop_operation_xyz
x,y,z
-x,-y,-z
loop_
_atom_site_type_symbol
_atom_site_label
_atom_site_fract_x
_atom_site_fract_y
_atom_site_fract_z
Si Si1 0.742101 0.173157 0.830526
Si Si2 0.905626 0.950483 0.425021
Si Si3 0.712892 0.590164 0.348024
Si Si4 0.513210 0.039609 0.758104
Si Si5 0.401531 0.577383 0.314191
Si Si6 0.988822 0.491597 0.323999
Si Si7 0.303864 0.085600 0.838111
O O1 0.626265 0.169885 0.840268
O O2 0.932360 0.338486 0.714374
O O3 0.775314 0.026860 0.640941
O O4 0.608893 0.133336 0.143075
O O5 0.775606 0.768055 0.432656
O O6 0.000000 0.000000 0.500000
O O7 0.074162 0.021615 0.113245
O O8 0.500000 0.500000 0.500000
O O9 0.701973 0.521618 0.472428
O O10 0.878851 0.578313 0.995687
O O11 0.370090 0.087722 0.922581
O O12 0.665395 0.038041 0.413873
O O13 0.578017 0.744377 0.254667
O O14 0.238373 0.601695 0.479504
O O15 0.500000 0.500000 0.000000
O O16 0.000000 0.500000 0.500000
#
# Coordination Sequence:
#
# PCOD8026259 Si02
#       7
#     2   2   2   2   2   2   2
#     4  11  24  44  72  99 142 187 245 288 362 430
#     4  12  26  46  75 105 144 191 247 297 361 435
#     4  12  30  49  74 111 155 196 246 312 375 438
#     4  10  24  40  71  98 135 181 241 293 347 423
#     4  12  26  46  74 107 151 191 241 305 377 438
#     4  12  27  47  76 108 151 196 247 304 381 444
#     4  11  24  43  71 100 141 179 243 289 359 428
#
# _framework density 23.825738000000001
#
# number of rings (size 3 to 8) (size 9 to 14) (size 15 to 20)
#    0.000    0.571    1.429    5.571   12.000    0.571 
#    0.000    0.000    0.000    0.000    0.000    0.000 
#    0.000    0.000    0.000    0.000    0.000    0.000 
#
# Total GULP energy -173613.733644 kJ/mol
# GULP energy per Si atom -12400.980975 kJ/mol
# Density = 2.377151 g / cm^3
# Si number density = 23.825738 Si / 1000 Ang^3
#
#
#
# Elastic Constant Matrix: (Units=GPa)
#
#
# Indices 1 2 3 4 5 6 
#
# 1 84.7837 7.2179 37.0569 3.1435 0.4350 -2.0526
# 2 7.2179 129.8195 12.2536 -6.5722 -4.7550 11.3284
# 3 37.0569 12.2536 120.8385 5.4006 -5.0177 9.5614
# 4 3.1435 -6.5722 5.4006 44.5318 -0.1315 -5.4396
# 5 0.4350 -4.7550 -5.0177 -0.1315 36.8146 -6.1612
# 6 -2.0526 11.3284 9.5614 -5.4396 -6.1612 28.9402
#
#
#
# Elastic Compliance Matrix: (Units=1/GPa)
#
#
# Indices 1 2 3 4 5 6 
#
# 1 0.013837 -0.000603 -0.004390 -0.000225 -0.000416 0.002537
# 2 -0.000603 0.008087 -0.000436 0.000952 0.000532 -0.002772
# 3 -0.004390 -0.000436 0.010042 -0.001405 0.000763 -0.003560
# 4 -0.000225 0.000952 -0.001405 0.023351 0.000793 0.004634
# 5 -0.000416 0.000532 0.000763 0.000793 0.028295 0.005683
# 6 0.002537 -0.002772 -0.003560 0.004634 0.005683 0.039076
#
#
# Mechanical properties :
#
#
# Convention : Reuss Voigt Hill
#
# Bulk Modulus (GPa) = 47.37633 49.83316 48.60474
# Shear Modulus (GPa) = 35.56634 40.65155 38.10894
#
# Velocity S-wave (km/s) = 3.86783 4.13510 4.00370
# Velocity P-wave (km/s) = 6.31462 6.61512 6.46662
#
# Compressibility (1/GPa) = 0.02110759
#
# Stress axis : x y z
#
# Youngs Moduli (GPa) = 72.27143 123.65090 99.57968
#
# Poissons Ratio (x) = 0.07455 0.43716
# Poissons Ratio (y) = 0.04358 0.04345
# Poissons Ratio (z) = 0.31728 0.05395
#
# Static dielectric constant tensor:
#      x y z
#    x 4.351750 -0.118790 0.045110 
#    y -0.118790 4.260970 -0.153280 
#    z 0.045110 -0.153280 4.667040 
# 
# 
# High freq. dielectric constant tensor:
#      x y z
#    x 1.944930 -0.002620 0.004440 
#    y -0.002620 1.944000 -0.011380 
#    z 0.004440 -0.011380 1.968990 
# 
# From -- ./inp_files/240784.got.cif
#   From: 2010.06.25/outbox.cif.g09.slc.cpg/sg2_121_cif.got.tgz:240784.got - 2010.06.27 13:26:56.
