data_PCOD8026132
_publ_section_title
;
Structure prediction by ZEFSAII (Michael W. Deem and Ramdas Pophale) SiO2 
 PCOD8026132
Probable space group: P -1
;
_chemical_formula_sum "Si O2"
_cell_formula_units_Z 16
_cell_length_a 9.714786
_cell_length_b 11.272614
_cell_length_c 6.108423
_cell_angle_alpha 98.963915
_cell_angle_beta 97.366801
_cell_angle_gamma 61.043207
_cell_volume 577.084416
_symmetry_space_group_name_H-M "P -1"
_symmetry_group_IT_number 2
_symmetry_cell_setting 'triclinic'
loop_
_space_group_symop_operation_xyz
x,y,z
-x,-y,-z
loop_
_atom_site_type_symbol
_atom_site_label
_atom_site_fract_x
_atom_site_fract_y
_atom_site_fract_z
Si Si1 0.824411 0.960988 0.729614
Si Si2 0.495579 0.208813 0.734784
Si Si3 0.376640 0.694330 0.863901
Si Si4 0.394155 0.596330 0.302576
Si Si5 0.174076 0.220514 0.737445
Si Si6 0.891078 0.678775 0.759940
Si Si7 0.116393 0.981856 0.757772
Si Si8 0.136864 0.561192 0.467227
O O1 0.846830 0.810272 0.626843
O O2 0.942104 0.008472 0.646207
O O3 0.642683 0.061996 0.684043
O O4 0.887819 0.953854 0.987746
O O5 0.517299 0.313189 0.600418
O O6 0.334980 0.205785 0.663079
O O7 0.504703 0.253068 0.001561
O O8 0.472633 0.563027 0.689773
O O9 0.234420 0.818138 0.740795
O O10 0.321186 0.638216 0.052238
O O11 0.253286 0.622046 0.449293
O O12 0.026551 0.357971 0.669914
O O13 0.172476 0.073900 0.646148
O O14 0.168892 0.251978 0.002233
O O15 0.799003 0.595571 0.642490
O O16 0.082746 0.585697 0.722915
#
# Coordination Sequence:
#
# PCOD8026132 Si02
#       8
#     2   2   2   2   2   2   2   2
#     4   9  18  35  57  84 120 158 197 249 296 353
#     4   9  18  33  56  90 119 154 203 245 299 363
#     4   8  17  30  56  89 117 153 203 246 294 359
#     4   9  18  34  58  86 121 160 199 247 301 357
#     4  11  22  37  65  91 121 163 199 250 306 354
#     4  10  24  38  61  91 122 158 203 254 300 356
#     4   9  18  32  59  89 119 153 204 249 287 367
#     4  11  23  41  61  90 123 159 206 249 297 366
#
# _framework density 27.725580999999998
#
# number of rings (size 3 to 8) (size 9 to 14) (size 15 to 20)
#    0.750    1.750    0.000    1.875    3.500    6.500 
#    0.000    3.125    0.000   14.250    0.000    0.000 
#    0.000    0.000    0.000    0.000    0.000    0.000 
#
# Total GULP energy -198230.197332 kJ/mol
# GULP energy per Si atom -12389.387333 kJ/mol
# Density = 2.766248 g / cm^3
# Si number density = 27.725581 Si / 1000 Ang^3
#
#
#
# Elastic Constant Matrix: (Units=GPa)
#
#
# Indices 1 2 3 4 5 6 
#
# 1 230.5142 80.1981 54.7321 0.9546 -17.3344 27.7082
# 2 80.1981 190.7688 36.5054 15.6154 0.1694 21.0296
# 3 54.7321 36.5054 59.7886 7.1464 -14.1645 23.4728
# 4 0.9546 15.6154 7.1464 49.4445 5.7235 7.1861
# 5 -17.3344 0.1694 -14.1645 5.7235 38.4812 -4.0121
# 6 27.7082 21.0296 23.4728 7.1861 -4.0121 43.2562
#
#
#
# Elastic Compliance Matrix: (Units=1/GPa)
#
#
# Indices 1 2 3 4 5 6 
#
# 1 0.006093 -0.001778 -0.004003 0.001041 0.001026 -0.000944
# 2 -0.001778 0.006635 -0.002335 -0.001439 -0.001551 -0.000725
# 3 -0.004003 -0.002335 0.028058 -0.002644 0.007848 -0.010359
# 4 0.001041 -0.001439 -0.002644 0.021875 -0.004016 -0.002539
# 5 0.001026 -0.001551 0.007848 -0.004016 0.029866 -0.000724
# 6 -0.000944 -0.000725 -0.010359 -0.002539 -0.000724 0.030051
#
#
# Mechanical properties :
#
#
# Convention : Reuss Voigt Hill
#
# Bulk Modulus (GPa) = 40.72475 91.54922 66.13699
# Shear Modulus (GPa) = 34.01455 46.87879 40.44667
#
# Velocity S-wave (km/s) = 3.50641 4.11641 3.82360
# Velocity P-wave (km/s) = 5.57796 7.46221 6.58780
#
# Compressibility (1/GPa) = 0.02455509
#
# Stress axis : x y z
#
# Youngs Moduli (GPa) = 164.11043 150.71402 35.64024
#
# Poissons Ratio (x) = 0.26791 0.14268
# Poissons Ratio (y) = 0.29172 0.08321
# Poissons Ratio (z) = 0.65700 0.35189
#
# Static dielectric constant tensor:
#      x y z
#    x 4.801830 0.375900 -0.294770 
#    y 0.375900 5.269430 -0.099650 
#    z -0.294770 -0.099650 5.791760 
# 
# 
# High freq. dielectric constant tensor:
#      x y z
#    x 2.101770 0.018700 0.005170 
#    y 0.018700 2.135270 -0.002770 
#    z 0.005170 -0.002770 2.168820 
# 
# From -- ./inp_files/188429.got.cif
#   From: 2010.06.25/outbox.cif.g09.slc.cpg/sg2_95_cif.got.tgz:188429.got - 2010.06.27 13:26:56.
