data_PCOD8026699
_publ_section_title
;
Structure prediction by ZEFSAII (Michael W. Deem and Ramdas Pophale) SiO2 
 PCOD8026699
Probable space group: P -1
;
_chemical_formula_sum "Si O2"
_cell_formula_units_Z 14
_cell_length_a 21.128151
_cell_length_b 4.957280
_cell_length_c 18.127975
_cell_angle_alpha 97.992368
_cell_angle_beta 19.263635
_cell_angle_gamma 90.061842
_cell_volume 568.954440
_symmetry_space_group_name_H-M "P -1"
_symmetry_group_IT_number 2
_symmetry_cell_setting 'triclinic'
loop_
_space_group_symop_operation_xyz
x,y,z
-x,-y,-z
loop_
_atom_site_type_symbol
_atom_site_label
_atom_site_fract_x
_atom_site_fract_y
_atom_site_fract_z
Si Si1 0.557384 0.692300 0.386192
Si Si2 0.141650 0.118465 0.116920
Si Si3 0.060671 0.534983 0.351873
Si Si4 0.987332 0.362924 0.826625
Si Si5 0.584522 0.100398 0.604198
Si Si6 0.501151 0.508905 0.847863
Si Si7 0.359095 0.032180 0.226999
O O1 0.500000 0.500000 0.500000
O O2 0.417517 0.754681 0.468082
O O3 0.500000 0.000000 0.500000
O O4 0.804537 0.521028 0.092388
O O5 0.110020 0.229905 0.240655
O O6 0.992349 0.383333 0.237986
O O7 0.073806 0.845960 0.170277
O O8 0.386115 0.008207 0.822321
O O9 0.000000 0.500000 0.500000
O O10 0.880499 0.808627 0.522649
O O11 0.256435 0.627083 0.138671
O O12 0.201538 0.185765 0.628001
O O13 0.558532 0.360212 0.699885
O O14 0.571036 0.784716 0.781748
O O15 0.619884 0.279321 0.773665
O O16 0.500000 0.000000 0.000000
#
# Coordination Sequence:
#
# PCOD8026699 Si02
#       7
#     2   2   2   2   2   2   2
#     4  11  25  44  67 104 138 163 212 273 325 397
#     4  10  24  43  64  99 132 171 229 278 314 392
#     4  11  24  42  65  95 132 179 222 280 340 379
#     4  11  23  45  71  95 132 176 216 266 329 390
#     4  10  24  44  72  96 131 180 221 263 331 397
#     4  11  26  45  66  96 130 177 229 273 325 396
#     4  12  25  43  63  94 134 169 225 285 326 383
#
# _framework density 24.606538
#
# number of rings (size 3 to 8) (size 9 to 14) (size 15 to 20)
#    0.000    1.143    1.429    3.857    0.000   14.286 
#    0.000    0.000    0.000    0.000    0.000    0.000 
#    0.000    0.000    0.000    0.000    0.000    0.000 
#
# Total GULP energy -173663.533065 kJ/mol
# GULP energy per Si atom -12404.538076 kJ/mol
# Density = 2.455053 g / cm^3
# Si number density = 24.606538 Si / 1000 Ang^3
#
#
#
# Elastic Constant Matrix: (Units=GPa)
#
#
# Indices 1 2 3 4 5 6 
#
# 1 135.2340 21.8495 63.0279 14.3978 4.6716 -22.0596
# 2 21.8495 82.6206 16.5991 15.1291 1.6961 -2.5326
# 3 63.0279 16.5991 145.7581 30.8091 -20.3475 -11.3700
# 4 14.3978 15.1291 30.8091 22.7436 -5.6117 -0.5417
# 5 4.6716 1.6961 -20.3475 -5.6117 63.0472 0.3373
# 6 -22.0596 -2.5326 -11.3700 -0.5417 0.3373 29.1089
#
#
#
# Elastic Compliance Matrix: (Units=1/GPa)
#
#
# Indices 1 2 3 4 5 6 
#
# 1 0.010784 -0.001694 -0.004187 -0.000412 -0.002176 0.006407
# 2 -0.001694 0.014197 0.001168 -0.010141 -0.000783 0.000228
# 3 -0.004187 0.001168 0.011897 -0.013494 0.002911 0.001291
# 4 -0.000412 -0.010141 -0.013494 0.069668 0.002177 -0.005194
# 5 -0.002176 -0.000783 0.002911 0.002177 0.017180 -0.000739
# 6 0.006407 0.000228 0.001291 -0.005194 -0.000739 0.039645
#
#
# Mechanical properties :
#
#
# Convention : Reuss Voigt Hill
#
# Bulk Modulus (GPa) = 36.42763 62.95174 49.68968
# Shear Modulus (GPa) = 27.48013 40.45568 33.96790
#
# Velocity S-wave (km/s) = 3.34545 4.05915 3.71946
# Velocity P-wave (km/s) = 5.45517 6.89984 6.21960
#
# Compressibility (1/GPa) = 0.02745169
#
# Stress axis : x y z
#
# Youngs Moduli (GPa) = 92.73095 70.43737 84.05150
#
# Poissons Ratio (x) = 0.11933 0.35192
# Poissons Ratio (y) = 0.15710 -0.09815
# Poissons Ratio (z) = 0.38826 -0.08225
#
# Static dielectric constant tensor:
#      x y z
#    x 4.466970 -0.012740 0.338490 
#    y -0.012740 4.274430 0.088120 
#    z 0.338490 0.088120 4.827350 
# 
# 
# High freq. dielectric constant tensor:
#      x y z
#    x 1.983860 -0.009400 -0.002540 
#    y -0.009400 1.979120 0.009350 
#    z -0.002540 0.009350 1.997680 
# 
# From -- ./inp_files/576618.got.cif
#   From: 2010.06.25/outbox.cif.g09.slc.cpg/sg2_289_cif.got.tgz:576618.got - 2010.06.27 13:26:56.
