data_PCOD8026719
_publ_section_title
;
Structure prediction by ZEFSAII (Michael W. Deem and Ramdas Pophale) SiO2 
 PCOD8026719
Probable space group: P -1
;
_chemical_formula_sum "Si O2"
_cell_formula_units_Z 16
_cell_length_a 16.340291
_cell_length_b 11.052142
_cell_length_c 8.013963
_cell_angle_alpha 39.006299
_cell_angle_beta 100.447069
_cell_angle_gamma 121.359657
_cell_volume 707.695774
_symmetry_space_group_name_H-M "P -1"
_symmetry_group_IT_number 2
_symmetry_cell_setting 'triclinic'
loop_
_space_group_symop_operation_xyz
x,y,z
-x,-y,-z
loop_
_atom_site_type_symbol
_atom_site_label
_atom_site_fract_x
_atom_site_fract_y
_atom_site_fract_z
Si Si1 0.702985 0.607990 0.368159
Si Si2 0.065230 0.277251 0.284081
Si Si3 0.470544 0.978911 0.742270
Si Si4 0.356585 0.909736 0.099642
Si Si5 0.843458 0.130378 0.874861
Si Si6 0.022608 0.527424 0.735426
Si Si7 0.587445 0.487856 0.117988
Si Si8 0.296081 0.450601 0.203759
O O1 0.707492 0.383738 0.597363
O O2 0.625784 0.581791 0.222141
O O3 0.667107 0.603536 0.552563
O O4 0.819677 0.870722 0.105521
O O5 0.178921 0.360623 0.286819
O O6 0.009472 0.307244 0.385580
O O7 0.078564 0.463686 0.952581
O O8 0.000000 0.000000 0.500000
O O9 0.559866 0.955596 0.863515
O O10 0.526916 0.198223 0.397204
O O11 0.424226 0.032232 0.825657
O O12 0.372540 0.735355 0.883987
O O13 0.272555 0.958936 0.028221
O O14 0.891356 0.315439 0.541883
O O15 0.920097 0.265687 0.915285
O O16 0.500000 0.500000 0.000000
O O17 0.688297 0.650070 0.853484
#
# Coordination Sequence:
#
# PCOD8026719 Si02
#       8
#     2   2   2   2   2   2   2   2
#     4  10  24  43  65  99 134 177 227 271 337 409
#     4  11  25  47  70  98 138 178 225 293 339 404
#     4   9  20  41  61  95 133 176 223 270 326 415
#     4   9  20  39  67  94 134 178 220 270 341 399
#     4  11  23  41  71  98 134 181 218 292 340 403
#     4  10  25  43  66 104 131 173 240 275 349 409
#     4  11  26  40  64 106 135 175 232 275 334 415
#     4  11  24  44  70  93 134 187 220 277 354 392
#
# _framework density 22.608585000000001
#
# number of rings (size 3 to 8) (size 9 to 14) (size 15 to 20)
#    0.000    1.750    0.000    3.375    8.750    1.500 
#    2.250    3.125    0.000    0.000    0.000    0.000 
#    0.000    0.000    0.000    0.000    0.000    0.000 
#
# Total GULP energy -198234.869642 kJ/mol
# GULP energy per Si atom -12389.679353 kJ/mol
# Density = 2.255713 g / cm^3
# Si number density = 22.608585 Si / 1000 Ang^3
#
#
#
# Elastic Constant Matrix: (Units=GPa)
#
#
# Indices 1 2 3 4 5 6 
#
# 1 84.9282 23.0797 21.1784 20.5438 -5.8826 11.2277
# 2 23.0797 110.9379 43.6609 3.5451 -1.5733 12.0958
# 3 21.1784 43.6609 87.2227 6.1422 -5.1726 3.5193
# 4 20.5438 3.5451 6.1422 58.5761 -1.4638 -1.0036
# 5 -5.8826 -1.5733 -5.1726 -1.4638 22.5655 -3.9853
# 6 11.2277 12.0958 3.5193 -1.0036 -3.9853 23.6590
#
#
#
# Elastic Compliance Matrix: (Units=1/GPa)
#
#
# Indices 1 2 3 4 5 6 
#
# 1 0.014802 -0.001387 -0.002203 -0.004930 0.001899 -0.005877
# 2 -0.001387 0.012008 -0.005590 0.000220 -0.001660 -0.004920
# 3 -0.002203 -0.005590 0.014902 -0.000345 0.002808 0.002145
# 4 -0.004930 0.000220 -0.000345 0.018888 0.000433 0.003152
# 5 0.001899 -0.001660 0.002808 0.000433 0.046675 0.007410
# 6 -0.005877 -0.004920 0.002145 0.003152 0.007410 0.048634
#
#
# Mechanical properties :
#
#
# Convention : Reuss Voigt Hill
#
# Bulk Modulus (GPa) = 42.82095 50.99187 46.90641
# Shear Modulus (GPa) = 27.46438 33.97144 30.71791
#
# Velocity S-wave (km/s) = 3.48915 3.88053 3.69003
# Velocity P-wave (km/s) = 5.93409 6.53308 6.24078
#
# Compressibility (1/GPa) = 0.02335305
#
# Stress axis : x y z
#
# Youngs Moduli (GPa) = 67.55913 83.27515 67.10500
#
# Poissons Ratio (x) = 0.11553 0.14781
# Poissons Ratio (y) = 0.09373 0.37509
# Poissons Ratio (z) = 0.14881 0.46548
#
# Static dielectric constant tensor:
#      x y z
#    x 3.791320 -0.060430 -0.163520 
#    y -0.060430 4.460340 0.174800 
#    z -0.163520 0.174800 4.378520 
# 
# 
# High freq. dielectric constant tensor:
#      x y z
#    x 1.864110 0.003210 -0.006620 
#    y 0.003210 1.903220 0.004630 
#    z -0.006620 0.004630 1.905660 
# 
# From -- ./inp_files/306272.got.cif
#   From: 2010.06.25/outbox.cif.g09.slc.cpg/sg2_154_cif.got.tgz:306272.got - 2010.06.27 13:26:56.
