data_PCOD8026109
_publ_section_title
;
Structure prediction by ZEFSAII (Michael W. Deem and Ramdas Pophale) SiO2 
 PCOD8026109
Probable space group: P -1
;
_chemical_formula_sum "Si O2"
_cell_formula_units_Z 14
_cell_length_a 15.194543
_cell_length_b 8.891468
_cell_length_c 12.071447
_cell_angle_alpha 49.059561
_cell_angle_beta 27.909528
_cell_angle_gamma 59.031299
_cell_volume 566.974194
_symmetry_space_group_name_H-M "P -1"
_symmetry_group_IT_number 2
_symmetry_cell_setting 'triclinic'
loop_
_space_group_symop_operation_xyz
x,y,z
-x,-y,-z
loop_
_atom_site_type_symbol
_atom_site_label
_atom_site_fract_x
_atom_site_fract_y
_atom_site_fract_z
Si Si1 0.637537 0.661249 0.905721
Si Si2 0.794529 0.047096 0.678623
Si Si3 0.294172 0.330448 0.426250
Si Si4 0.273394 0.006249 0.979799
Si Si5 0.132208 0.659004 0.135506
Si Si6 0.684913 0.099322 0.382753
Si Si7 0.045064 0.732547 0.805006
O O1 0.657138 0.858949 0.863716
O O2 0.633438 0.716260 0.754560
O O3 0.819443 0.551990 0.774470
O O4 0.442162 0.511619 0.229892
O O5 0.828153 0.236581 0.464155
O O6 0.696464 0.086069 0.886071
O O7 0.000000 0.000000 0.500000
O O8 0.086558 0.386634 0.637260
O O9 0.301332 0.118578 0.583291
O O10 0.475234 0.107443 0.656303
O O11 0.151055 0.184812 0.036013
O O12 0.162880 0.820846 0.121426
O O13 0.267664 0.732786 0.845537
O O14 0.840919 0.138050 0.286943
O O15 0.000000 0.500000 0.000000
#
# Coordination Sequence:
#
# PCOD8026109 Si02
#       7
#     2   2   2   2   2   2   2
#     4  11  24  45  72 108 138 183 243 291 351 428
#     4  10  23  49  73 101 146 184 233 292 352 425
#     4  11  23  44  72 105 140 184 244 288 353 420
#     4  11  25  47  74 103 144 188 232 295 354 417
#     4  12  25  44  75 103 146 188 233 297 355 413
#     4  12  25  46  69 106 145 185 240 294 353 415
#     4  11  26  49  71 104 144 189 236 285 357 430
#
# _framework density 24.692481000000001
#
# number of rings (size 3 to 8) (size 9 to 14) (size 15 to 20)
#    0.000    0.857    4.286    2.143    4.000    1.143 
#    2.571    0.000    0.000    0.000    0.000    0.000 
#    0.000    0.000    0.000    0.000    0.000    0.000 
#
# Total GULP energy -173673.323793 kJ/mol
# GULP energy per Si atom -12405.237414 kJ/mol
# Density = 2.463628 g / cm^3
# Si number density = 24.692481 Si / 1000 Ang^3
#
#
#
# Elastic Constant Matrix: (Units=GPa)
#
#
# Indices 1 2 3 4 5 6 
#
# 1 88.8809 21.6059 40.2755 -6.6893 1.4070 12.1035
# 2 21.6059 74.8098 46.0828 -6.1892 1.4314 -6.1381
# 3 40.2755 46.0828 135.0677 -6.8112 -13.9490 12.5227
# 4 -6.6893 -6.1892 -6.8112 40.1219 -2.5306 3.9042
# 5 1.4070 1.4314 -13.9490 -2.5306 48.4418 -0.9864
# 6 12.1035 -6.1381 12.5227 3.9042 -0.9864 25.8924
#
#
#
# Elastic Compliance Matrix: (Units=1/GPa)
#
#
# Indices 1 2 3 4 5 6 
#
# 1 0.014182 -0.002749 -0.002721 0.002021 -0.001137 -0.006313
# 2 -0.002749 0.019121 -0.006747 0.000335 -0.002228 0.008946
# 3 -0.002721 -0.006747 0.011496 0.001258 0.003534 -0.005943
# 4 0.002021 0.000335 0.001258 0.026145 0.001550 -0.005357
# 5 -0.001137 -0.002228 0.003534 0.001550 0.021818 -0.001108
# 6 -0.006313 0.008946 -0.005943 -0.005357 -0.001108 0.047333
#
#
# Mechanical properties :
#
#
# Convention : Reuss Voigt Hill
#
# Bulk Modulus (GPa) = 49.10086 57.18743 53.14415
# Shear Modulus (GPa) = 29.18534 35.61085 32.39809
#
# Velocity S-wave (km/s) = 3.44168 3.80172 3.62617
# Velocity P-wave (km/s) = 5.97676 6.51773 6.25310
#
# Compressibility (1/GPa) = 0.02036624
#
# Stress axis : x y z
#
# Youngs Moduli (GPa) = 70.51130 52.29721 86.98333
#
# Poissons Ratio (x) = 0.14374 0.23672
# Poissons Ratio (y) = 0.19381 0.58687
# Poissons Ratio (z) = 0.19189 0.35285
#
# Static dielectric constant tensor:
#      x y z
#    x 4.878810 -0.016080 0.093600 
#    y -0.016080 4.169800 -0.093700 
#    z 0.093600 -0.093700 4.798880 
# 
# 
# High freq. dielectric constant tensor:
#      x y z
#    x 1.994390 -0.008850 -0.004460 
#    y -0.008850 1.966690 -0.005370 
#    z -0.004460 -0.005370 1.998950 
# 
# From -- ./inp_files/403520.got.cif
#   From: 2010.06.25/outbox.cif.g09.slc.cpg/sg2_202_cif.got.tgz:403520.got - 2010.06.27 13:26:56.
