data_PCOD8026946
_publ_section_title
;
Structure prediction by ZEFSAII (Michael W. Deem and Ramdas Pophale) SiO2 
 PCOD8026946
Probable space group: P -1
;
_chemical_formula_sum "Si O2"
_cell_formula_units_Z 12
_cell_length_a 11.586018
_cell_length_b 14.669583
_cell_length_c 14.555670
_cell_angle_alpha 152.881628
_cell_angle_beta 46.360529
_cell_angle_gamma 150.470674
_cell_volume 515.157989
_symmetry_space_group_name_H-M "P -1"
_symmetry_group_IT_number 2
_symmetry_cell_setting 'triclinic'
loop_
_space_group_symop_operation_xyz
x,y,z
-x,-y,-z
loop_
_atom_site_type_symbol
_atom_site_label
_atom_site_fract_x
_atom_site_fract_y
_atom_site_fract_z
Si Si1 0.648659 0.284051 0.603049
Si Si2 0.449401 0.906299 0.195046
Si Si3 0.133233 0.717741 0.834947
Si Si4 0.400794 0.398889 0.751777
Si Si5 0.002359 0.290646 0.672950
Si Si6 0.531899 0.639066 0.705228
O O1 0.534029 0.394985 0.753498
O O2 0.936397 0.599055 0.759554
O O3 0.500000 0.000000 0.500000
O O4 0.629685 0.158228 0.402945
O O5 0.183129 0.766192 0.208220
O O6 0.604716 0.097974 0.189115
O O7 0.397030 0.622124 0.987620
O O8 0.005386 0.412031 0.684255
O O9 0.214746 0.978667 0.093027
O O10 0.544393 0.508640 0.671658
O O11 0.112491 0.041296 0.578976
O O12 0.286695 0.540569 0.776923
O O13 0.500000 0.500000 0.500000
#
# Coordination Sequence:
#
# PCOD8026946 Si02
#       6
#     2   2   2   2   2   2
#     4  11  22  46  72 105 141 179 235 289 356 409
#     4  10  24  43  72 105 140 183 229 288 350 414
#     4  11  24  47  70 104 138 190 230 287 353 408
#     4  10  24  46  72 105 137 188 230 287 353 409
#     4  11  24  46  70 100 146 183 231 283 349 410
#     4  11  27  45  72 107 141 186 239 284 343 421
#
# _framework density 23.293825999999999
#
# number of rings (size 3 to 8) (size 9 to 14) (size 15 to 20)
#    0.000    1.333    3.333    1.500    7.000    6.000 
#    3.000    0.000    0.000    0.000    0.000    0.000 
#    0.000    0.000    0.000    0.000    0.000    0.000 
#
# Total GULP energy -148732.769133 kJ/mol
# GULP energy per Si atom -12394.397428 kJ/mol
# Density = 2.324081 g / cm^3
# Si number density = 23.293826 Si / 1000 Ang^3
#
#
#
# Elastic Constant Matrix: (Units=GPa)
#
#
# Indices 1 2 3 4 5 6 
#
# 1 75.6758 13.2441 8.9927 -1.1784 6.7398 14.7443
# 2 13.2441 85.8798 18.9042 0.6379 1.8413 12.4816
# 3 8.9927 18.9042 145.1874 3.5534 8.2271 12.7619
# 4 -1.1784 0.6379 3.5534 35.5803 1.6040 -1.4826
# 5 6.7398 1.8413 8.2271 1.6040 39.5220 3.4544
# 6 14.7443 12.4816 12.7619 -1.4826 3.4544 37.7668
#
#
#
# Elastic Compliance Matrix: (Units=1/GPa)
#
#
# Indices 1 2 3 4 5 6 
#
# 1 0.014642 -0.001456 -0.000178 0.000410 -0.001974 -0.004978
# 2 -0.001456 0.012612 -0.001276 -0.000290 0.000218 -0.003200
# 3 -0.000178 -0.001276 0.007320 -0.000737 -0.001238 -0.001898
# 4 0.000410 -0.000290 -0.000737 0.028309 -0.001175 0.001404
# 5 -0.001974 0.000218 -0.001238 -0.001175 0.026049 -0.001312
# 6 -0.004978 -0.003200 -0.001898 0.001404 -0.001312 0.030296
#
#
# Mechanical properties :
#
#
# Convention : Reuss Voigt Hill
#
# Bulk Modulus (GPa) = 34.77729 43.22500 39.00114
# Shear Modulus (GPa) = 37.13794 40.28063 38.70928
#
# Velocity S-wave (km/s) = 3.99723 4.16293 4.08092
# Velocity P-wave (km/s) = 6.02213 6.45781 6.24377
#
# Compressibility (1/GPa) = 0.02875440
#
# Stress axis : x y z
#
# Youngs Moduli (GPa) = 68.29487 79.28861 136.61496
#
# Poissons Ratio (x) = 0.11545 0.02431
# Poissons Ratio (y) = 0.09944 0.17431
# Poissons Ratio (z) = 0.01215 0.10117
#
# Static dielectric constant tensor:
#      x y z
#    x 4.404970 -0.003040 0.144180 
#    y -0.003040 4.120750 0.208800 
#    z 0.144180 0.208800 4.398860 
# 
# 
# High freq. dielectric constant tensor:
#      x y z
#    x 1.923550 -0.009120 0.003040 
#    y -0.009120 1.914060 0.017770 
#    z 0.003040 0.017770 1.931640 
# 
# From -- ./inp_files/258163.got.cif
#   From: 2010.06.25/outbox.cif.g09.slc.cpg/sg2_130_cif.got.tgz:258163.got - 2010.06.27 13:26:56.
