data_PCOD8026768
_publ_section_title
;
Structure prediction by ZEFSAII (Michael W. Deem and Ramdas Pophale) SiO2 
 PCOD8026768
Probable space group: P -1
;
_chemical_formula_sum "Si O2"
_cell_formula_units_Z 14
_cell_length_a 23.151805
_cell_length_b 9.661774
_cell_length_c 4.916110
_cell_angle_alpha 80.211896
_cell_angle_beta 85.195433
_cell_angle_gamma 144.032386
_cell_volume 588.081309
_symmetry_space_group_name_H-M "P -1"
_symmetry_group_IT_number 2
_symmetry_cell_setting 'triclinic'
loop_
_space_group_symop_operation_xyz
x,y,z
-x,-y,-z
loop_
_atom_site_type_symbol
_atom_site_label
_atom_site_fract_x
_atom_site_fract_y
_atom_site_fract_z
Si Si1 0.362249 0.628421 0.218273
Si Si2 0.418635 0.048982 0.062263
Si Si3 0.400152 0.200427 0.540839
Si Si4 0.253773 0.305363 0.872290
Si Si5 0.030454 0.923584 0.173374
Si Si6 0.182832 0.891341 0.810724
Si Si7 0.009636 0.334470 0.222020
O O1 0.476758 0.797038 0.185769
O O2 0.273565 0.376901 0.523284
O O3 0.350720 0.555504 0.934081
O O4 0.350081 0.769725 0.238503
O O5 0.361891 0.028803 0.866784
O O6 0.438164 0.181615 0.279883
O O7 0.500000 0.500000 0.500000
O O8 0.290128 0.057363 0.554150
O O9 0.156172 0.195446 0.065708
O O10 0.226666 0.085604 0.962624
O O11 0.016510 0.213070 0.464290
O O12 0.995796 0.723898 0.068136
O O13 0.000000 0.000000 0.000000
O O14 0.099443 0.794076 0.658560
O O15 0.118643 0.644060 0.093512
#
# Coordination Sequence:
#
# PCOD8026768 Si02
#       7
#     2   2   2   2   2   2   2
#     4  11  23  43  65  90 129 171 221 264 321 399
#     4  11  25  42  63  94 129 172 216 270 326 380
#     4  12  25  41  66  99 133 168 216 272 327 384
#     4  11  23  40  67  93 124 173 215 265 329 389
#     4  11  24  42  65  97 130 165 218 276 329 388
#     4  10  24  43  67  98 134 175 222 267 327 398
#     4  10  24  43  67  94 131 177 217 267 329 392
#
# _framework density 23.806229999999999
#
# number of rings (size 3 to 8) (size 9 to 14) (size 15 to 20)
#    0.000    1.143    0.000    6.000    0.000   16.571 
#    0.000    0.000    0.000    0.000    0.000    0.000 
#    0.000    0.000    0.000    0.000    0.000    0.000 
#
# Total GULP energy -173454.001428 kJ/mol
# GULP energy per Si atom -12389.571531 kJ/mol
# Density = 2.375205 g / cm^3
# Si number density = 23.806230 Si / 1000 Ang^3
#
#
#
# Elastic Constant Matrix: (Units=GPa)
#
#
# Indices 1 2 3 4 5 6 
#
# 1 83.1575 26.3213 18.0720 -12.2110 3.4524 -0.4824
# 2 26.3213 116.4159 30.0682 -5.5393 -3.2544 -11.9080
# 3 18.0720 30.0682 98.8172 -1.1782 9.9032 0.4229
# 4 -12.2110 -5.5393 -1.1782 44.2382 0.4082 -5.0166
# 5 3.4524 -3.2544 9.9032 0.4082 38.8859 0.0967
# 6 -0.4824 -11.9080 0.4229 -5.0166 0.0967 26.2829
#
#
#
# Elastic Compliance Matrix: (Units=1/GPa)
#
#
# Indices 1 2 3 4 5 6 
#
# 1 0.013731 -0.002591 -0.001574 0.003406 -0.001070 -0.000242
# 2 -0.002591 0.010543 -0.002926 0.001074 0.001834 0.004974
# 3 -0.001574 -0.002926 0.011603 -0.000651 -0.003049 -0.001655
# 4 0.003406 0.001074 -0.000651 0.024254 -0.000314 0.005190
# 5 -0.001070 0.001834 -0.003049 -0.000314 0.026743 0.000702
# 6 -0.000242 0.004974 -0.001655 0.005190 0.000702 0.041312
#
#
# Mechanical properties :
#
#
# Convention : Reuss Voigt Hill
#
# Bulk Modulus (GPa) = 46.09507 49.70149 47.89828
# Shear Modulus (GPa) = 33.42301 36.81000 35.11651
#
# Velocity S-wave (km/s) = 3.75101 3.93648 3.84487
# Velocity P-wave (km/s) = 6.17776 6.44857 6.31462
#
# Compressibility (1/GPa) = 0.02169429
#
# Stress axis : x y z
#
# Youngs Moduli (GPa) = 72.83009 94.85272 86.18537
#
# Poissons Ratio (x) = 0.24572 0.13565
# Poissons Ratio (y) = 0.18867 0.25222
# Poissons Ratio (z) = 0.11463 0.27758
#
# Static dielectric constant tensor:
#      x y z
#    x 4.440580 -0.107390 0.002070 
#    y -0.107390 4.384490 -0.080440 
#    z 0.002070 -0.080440 4.058650 
# 
# 
# High freq. dielectric constant tensor:
#      x y z
#    x 1.940650 -0.006030 0.003050 
#    y -0.006030 1.951470 -0.006050 
#    z 0.003050 -0.006050 1.938180 
# 
# From -- ./inp_files/122513.got.cif
#   From: 2010.06.25/outbox.cif.g09.slc.cpg/sg2_62_cif.got.tgz:122513.got - 2010.06.27 13:26:56.
