data_PCOD8026575
_publ_section_title
;
Structure prediction by ZEFSAII (Michael W. Deem and Ramdas Pophale) SiO2 
 PCOD8026575
Probable space group: P -1
;
_chemical_formula_sum "Si O2"
_cell_formula_units_Z 16
_cell_length_a 18.190324
_cell_length_b 8.452027
_cell_length_c 20.763797
_cell_angle_alpha 49.273546
_cell_angle_beta 20.190124
_cell_angle_gamma 59.640890
_cell_volume 761.995124
_symmetry_space_group_name_H-M "P -1"
_symmetry_group_IT_number 2
_symmetry_cell_setting 'triclinic'
loop_
_space_group_symop_operation_xyz
x,y,z
-x,-y,-z
loop_
_atom_site_type_symbol
_atom_site_label
_atom_site_fract_x
_atom_site_fract_y
_atom_site_fract_z
Si Si1 0.638390 0.536214 0.658819
Si Si2 0.674110 0.279664 0.211194
Si Si3 0.208240 0.531633 0.675453
Si Si4 0.978643 0.730821 0.438504
Si Si5 0.772148 0.823631 0.833112
Si Si6 0.508797 0.756368 0.489850
Si Si7 0.744655 0.216601 0.556635
Si Si8 0.655266 0.769397 0.800116
O O1 0.528346 0.678442 0.670789
O O2 0.853681 0.712592 0.477574
O O3 0.728852 0.390387 0.576989
O O4 0.456521 0.388949 0.900518
O O5 0.647790 0.315474 0.298558
O O6 0.638388 0.022293 0.297784
O O7 0.929058 0.447151 0.931711
O O8 0.321682 0.643896 0.618618
O O9 0.280104 0.322826 0.658159
O O10 0.318262 0.718055 0.478947
O O11 0.873001 0.796474 0.570980
O O12 0.000000 0.500000 0.500000
O O13 0.212666 0.967292 0.185769
O O14 0.728434 0.873779 0.782455
O O15 0.988321 0.751340 0.675532
O O16 0.566631 0.950967 0.790630
O O17 0.500000 0.500000 0.000000
#
# Coordination Sequence:
#
# PCOD8026575 Si02
#       8
#     2   2   2   2   2   2   2   2
#     4  12  24  41  67  94 131 172 213 273 319 375
#     4  11  23  42  68  98 130 165 215 265 325 384
#     4  11  22  44  67  95 132 171 210 263 328 385
#     4  11  24  41  64  93 124 170 222 263 319 382
#     4  11  24  44  64  90 130 170 214 270 321 377
#     4  10  24  42  69  96 130 168 211 265 324 395
#     4  11  24  42  63  94 134 165 221 266 316 388
#     4  11  23  41  65  91 127 172 215 268 323 376
#
# _framework density 20.997506999999999
#
# number of rings (size 3 to 8) (size 9 to 14) (size 15 to 20)
#    0.000    1.000    3.750    3.750    5.250    1.000 
#    0.000    0.000    0.000    0.000    0.000    0.000 
#    0.000    0.000    0.000    0.000    0.000    0.000 
#
# Total GULP energy -198267.181773 kJ/mol
# GULP energy per Si atom -12391.698861 kJ/mol
# Density = 2.094972 g / cm^3
# Si number density = 20.997507 Si / 1000 Ang^3
#
#
#
# Elastic Constant Matrix: (Units=GPa)
#
#
# Indices 1 2 3 4 5 6 
#
# 1 209.7412 54.2097 36.7009 -4.9605 5.1365 14.5778
# 2 54.2097 150.5789 29.3753 -11.7112 -2.6323 -10.2188
# 3 36.7009 29.3753 52.3778 -6.7799 1.3045 6.4532
# 4 -4.9605 -11.7112 -6.7799 35.1931 -1.3148 5.5818
# 5 5.1365 -2.6323 1.3045 -1.3148 32.3765 0.9715
# 6 14.5778 -10.2188 6.4532 5.5818 0.9715 40.9763
#
#
#
# Elastic Compliance Matrix: (Units=1/GPa)
#
#
# Indices 1 2 3 4 5 6 
#
# 1 0.005878 -0.001707 -0.002888 -0.000006 -0.000894 -0.002040
# 2 -0.001707 0.008307 -0.003687 0.001369 0.001059 0.003048
# 3 -0.002888 -0.003687 0.024188 0.003670 -0.000541 -0.004188
# 4 -0.000006 0.001369 0.003670 0.030323 0.001328 -0.004396
# 5 -0.000894 0.001059 -0.000541 0.001328 0.031198 -0.000253
# 6 -0.002040 0.003048 -0.004188 -0.004396 -0.000253 0.027155
#
#
# Mechanical properties :
#
#
# Convention : Reuss Voigt Hill
#
# Bulk Modulus (GPa) = 45.85538 72.58551 59.22044
# Shear Modulus (GPa) = 33.13808 41.20330 37.17069
#
# Velocity S-wave (km/s) = 3.97696 4.43459 4.21199
# Velocity P-wave (km/s) = 6.55547 7.80156 7.20550
#
# Compressibility (1/GPa) = 0.02180769
#
# Stress axis : x y z
#
# Youngs Moduli (GPa) = 170.12658 120.38331 41.34222
#
# Poissons Ratio (x) = 0.20552 0.11941
# Poissons Ratio (y) = 0.29044 0.15244
# Poissons Ratio (z) = 0.49139 0.44387
#
# Static dielectric constant tensor:
#      x y z
#    x 3.825080 0.276650 0.069630 
#    y 0.276650 4.054210 -0.402220 
#    z 0.069630 -0.402220 4.138940 
# 
# 
# High freq. dielectric constant tensor:
#      x y z
#    x 1.833310 0.002490 0.012210 
#    y 0.002490 1.842940 -0.001870 
#    z 0.012210 -0.001870 1.813230 
# 
# From -- ./inp_files/529874.got.cif
#   From: 2010.06.25/outbox.cif.g09.slc.cpg/sg2_265_cif.got.tgz:529874.got - 2010.06.27 13:26:56.
