data_PCOD8026959
_publ_section_title
;
Structure prediction by ZEFSAII (Michael W. Deem and Ramdas Pophale) SiO2 
 PCOD8026959
Probable space group: P -1
;
_chemical_formula_sum "Si O2"
_cell_formula_units_Z 12
_cell_length_a 8.964979
_cell_length_b 8.822529
_cell_length_c 12.083528
_cell_angle_alpha 100.541650
_cell_angle_beta 129.911852
_cell_angle_gamma 51.861780
_cell_volume 539.348192
_symmetry_space_group_name_H-M "P -1"
_symmetry_group_IT_number 2
_symmetry_cell_setting 'triclinic'
loop_
_space_group_symop_operation_xyz
x,y,z
-x,-y,-z
loop_
_atom_site_type_symbol
_atom_site_label
_atom_site_fract_x
_atom_site_fract_y
_atom_site_fract_z
Si Si1 0.443913 0.449070 0.703260
Si Si2 0.261542 0.424781 0.062944
Si Si3 0.553674 0.792320 0.497218
Si Si4 0.163699 0.444401 0.762869
Si Si5 0.161599 0.823267 0.463597
Si Si6 0.339763 0.032231 0.822944
O O1 0.685864 0.430749 0.848006
O O2 0.537201 0.237079 0.666822
O O3 0.267571 0.518440 0.737496
O O4 0.278806 0.610367 0.547308
O O5 0.490897 0.190408 0.185814
O O6 0.256959 0.434226 0.929580
O O7 0.000000 0.500000 0.000000
O O8 0.389810 0.804523 0.519631
O O9 0.855240 0.602863 0.635843
O O10 0.500000 0.000000 0.500000
O O11 0.287342 0.215272 0.751120
O O12 0.949242 0.883378 0.276813
O O13 0.000000 0.000000 0.500000
O O14 0.500000 0.000000 0.000000
#
# Coordination Sequence:
#
# PCOD8026959 Si02
#       6
#     2   2   2   2   2   2
#     4  12  25  44  73 100 142 187 230 289 350 412
#     4  11  25  46  73 104 140 186 234 285 350 418
#     4  12  28  44  70 104 141 181 241 290 344 416
#     4  11  25  46  69 105 145 181 231 289 350 413
#     4  12  24  44  72 101 138 183 235 288 352 413
#     4  10  24  43  72  97 142 179 230 283 352 407
#
# _framework density 22.249078000000001
#
# number of rings (size 3 to 8) (size 9 to 14) (size 15 to 20)
#    0.000    0.667    3.333    3.500    7.000    0.000 
#    0.000    1.667    0.000    0.000    0.000    0.000 
#    0.000    0.000    0.000    0.000    0.000    0.000 
#
# Total GULP energy -148739.691428 kJ/mol
# GULP energy per Si atom -12394.974286 kJ/mol
# Density = 2.219844 g / cm^3
# Si number density = 22.249078 Si / 1000 Ang^3
#
#
#
# Elastic Constant Matrix: (Units=GPa)
#
#
# Indices 1 2 3 4 5 6 
#
# 1 187.4992 63.6336 77.2861 -5.7384 17.3046 -3.3161
# 2 63.6336 140.4554 58.1733 12.5149 6.8876 15.6426
# 3 77.2861 58.1733 123.6877 9.2056 20.0835 10.4285
# 4 -5.7384 12.5149 9.2056 42.2365 2.4783 -0.3906
# 5 17.3046 6.8876 20.0835 2.4783 38.9670 4.2466
# 6 -3.3161 15.6426 10.4285 -0.3906 4.2466 33.7725
#
#
#
# Elastic Compliance Matrix: (Units=1/GPa)
#
#
# Indices 1 2 3 4 5 6 
#
# 1 0.008232 -0.002569 -0.004189 0.002920 -0.001613 0.003528
# 2 -0.002569 0.010108 -0.002811 -0.002856 0.001451 -0.004281
# 3 -0.004189 -0.002811 0.013066 -0.002378 -0.003934 -0.002677
# 4 0.002920 -0.002856 -0.002378 0.025552 -0.001500 0.002828
# 5 -0.001613 0.001451 -0.003934 -0.001500 0.028598 -0.003229
# 6 0.003528 -0.004281 -0.002677 0.002828 -0.003229 0.033205
#
#
# Mechanical properties :
#
#
# Convention : Reuss Voigt Hill
#
# Bulk Modulus (GPa) = 81.50568 94.42536 87.96552
# Shear Modulus (GPa) = 35.21475 39.83184 37.52330
#
# Velocity S-wave (km/s) = 3.98270 4.23575 4.11117
# Velocity P-wave (km/s) = 7.60671 8.15195 7.88404
#
# Compressibility (1/GPa) = 0.01226908
#
# Stress axis : x y z
#
# Youngs Moduli (GPa) = 121.47210 98.93266 76.53679
#
# Poissons Ratio (x) = 0.25414 0.32058
# Poissons Ratio (y) = 0.31204 0.21514
# Poissons Ratio (z) = 0.50880 0.27809
#
# Static dielectric constant tensor:
#      x y z
#    x 3.922360 -0.004610 0.189310 
#    y -0.004610 4.115530 0.005730 
#    z 0.189310 0.005730 4.302260 
# 
# 
# High freq. dielectric constant tensor:
#      x y z
#    x 1.869420 0.009800 0.016550 
#    y 0.009800 1.887850 0.009560 
#    z 0.016550 0.009560 1.888280 
# 
# From -- ./inp_files/155036.got.cif
#   From: 2010.06.25/outbox.cif.g09.slc.cpg/sg2_78_cif.got.tgz:155036.got - 2010.06.27 13:26:56.
