data_PCOD8026189
_publ_section_title
;
Structure prediction by ZEFSAII (Michael W. Deem and Ramdas Pophale) SiO2 
 PCOD8026189
Probable space group: P -1
;
_chemical_formula_sum "Si O2"
_cell_formula_units_Z 14
_cell_length_a 9.268665
_cell_length_b 14.539577
_cell_length_c 7.460243
_cell_angle_alpha 109.615932
_cell_angle_beta 131.902798
_cell_angle_gamma 51.191461
_cell_volume 577.103968
_symmetry_space_group_name_H-M "P -1"
_symmetry_group_IT_number 2
_symmetry_cell_setting 'triclinic'
loop_
_space_group_symop_operation_xyz
x,y,z
-x,-y,-z
loop_
_atom_site_type_symbol
_atom_site_label
_atom_site_fract_x
_atom_site_fract_y
_atom_site_fract_z
Si Si1 0.614169 0.853774 0.532541
Si Si2 0.383175 0.276934 0.037653
Si Si3 0.729682 0.039651 0.021169
Si Si4 0.262249 0.385338 0.623991
Si Si5 0.844094 0.950371 0.603289
Si Si6 0.526370 0.384418 0.519174
Si Si7 0.942639 0.805885 0.238998
O O1 0.747756 0.712920 0.563026
O O2 0.806852 0.886014 0.699520
O O3 0.416173 0.925283 0.571433
O O4 0.465879 0.902224 0.256374
O O5 0.375586 0.338706 0.883469
O O6 0.150178 0.277022 0.865428
O O7 0.615056 0.140244 0.148412
O O8 0.384010 0.353509 0.249302
O O9 0.979879 0.016442 0.162386
O O10 0.771023 0.916160 0.037116
O O11 0.420144 0.412227 0.651069
O O12 0.000000 0.500000 0.500000
O O13 0.951785 0.860873 0.469135
O O14 0.500000 0.500000 0.500000
O O15 0.798672 0.274282 0.683096
#
# Coordination Sequence:
#
# PCOD8026189 Si02
#       7
#     2   2   2   2   2   2   2
#     4  10  24  40  63 105 141 182 236 281 354 414
#     4  11  26  48  73 104 145 183 234 292 354 421
#     4  11  22  38  68 103 143 182 227 283 350 413
#     4  11  25  48  74 100 142 187 237 291 350 414
#     4  11  21  38  66  97 144 181 224 286 342 417
#     4  12  29  49  75 104 138 186 242 292 352 419
#     4  12  24  43  69 107 144 186 231 288 355 416
#
# _framework density 24.259059000000001
#
# number of rings (size 3 to 8) (size 9 to 14) (size 15 to 20)
#    0.000    0.857    4.286    3.000    2.000    5.143 
#    0.000    1.429    0.000    0.000    0.000    0.000 
#    0.000    0.000    0.000    0.000    0.000    0.000 
#
# Total GULP energy -173542.915729 kJ/mol
# GULP energy per Si atom -12395.922552 kJ/mol
# Density = 2.420384 g / cm^3
# Si number density = 24.259059 Si / 1000 Ang^3
#
#
#
# Elastic Constant Matrix: (Units=GPa)
#
#
# Indices 1 2 3 4 5 6 
#
# 1 166.9390 43.0449 34.7502 -10.9643 -1.7963 -0.3444
# 2 43.0449 145.3383 8.1321 -14.9866 -2.8111 -4.7878
# 3 34.7502 8.1321 36.5631 1.2313 -16.9251 6.7188
# 4 -10.9643 -14.9866 1.2313 35.4054 0.1965 8.5667
# 5 -1.7963 -2.8111 -16.9251 0.1965 33.7817 -1.2566
# 6 -0.3444 -4.7878 6.7188 8.5667 -1.2566 52.0614
#
#
#
# Elastic Compliance Matrix: (Units=1/GPa)
#
#
# Indices 1 2 3 4 5 6 
#
# 1 0.008702 -0.001851 -0.010309 0.002114 -0.004841 0.000753
# 2 -0.001851 0.007708 0.000207 0.002617 0.000641 0.000255
# 3 -0.010309 0.000207 0.049292 -0.003688 0.023992 -0.005225
# 4 0.002114 0.002617 -0.003688 0.031223 -0.001865 -0.004452
# 5 -0.004841 0.000641 0.023992 -0.001865 0.041363 -0.001764
# 6 0.000753 0.000255 -0.005225 -0.004452 -0.001764 0.020601
#
#
# Mechanical properties :
#
#
# Convention : Reuss Voigt Hill
#
# Bulk Modulus (GPa) = 23.92627 57.85497 40.89062
# Shear Modulus (GPa) = 25.41599 41.77725 33.59662
#
# Velocity S-wave (km/s) = 3.24032 4.15436 3.72548
# Velocity P-wave (km/s) = 4.88710 6.84925 5.94962
#
# Compressibility (1/GPa) = 0.04179507
#
# Stress axis : x y z
#
# Youngs Moduli (GPa) = 114.91918 129.73824 20.28728
#
# Poissons Ratio (x) = 0.24017 0.20914
# Poissons Ratio (y) = 0.21274 -0.00419
# Poissons Ratio (z) = 1.18468 -0.02682
#
# Static dielectric constant tensor:
#      x y z
#    x 4.733020 -0.158990 0.008090 
#    y -0.158990 4.700800 0.246590 
#    z 0.008090 0.246590 4.137780 
# 
# 
# High freq. dielectric constant tensor:
#      x y z
#    x 1.984130 -0.006670 0.001500 
#    y -0.006670 1.967560 0.014670 
#    z 0.001500 0.014670 1.949820 
# 
# From -- ./inp_files/203312.got.cif
#   From: 2010.06.25/outbox.cif.g09.slc.cpg/sg2_102_cif.got.tgz:203312.got - 2010.06.27 13:26:56.
