data_PCOD8026447
_publ_section_title
;
Structure prediction by ZEFSAII (Michael W. Deem and Ramdas Pophale) SiO2 
 PCOD8026447
Probable space group: P -1
;
_chemical_formula_sum "Si O2"
_cell_formula_units_Z 16
_cell_length_a 13.833113
_cell_length_b 11.101885
_cell_length_c 16.339282
_cell_angle_alpha 70.541548
_cell_angle_beta 45.367751
_cell_angle_gamma 32.874871
_cell_volume 723.793701
_symmetry_space_group_name_H-M "P -1"
_symmetry_group_IT_number 2
_symmetry_cell_setting 'triclinic'
loop_
_space_group_symop_operation_xyz
x,y,z
-x,-y,-z
loop_
_atom_site_type_symbol
_atom_site_label
_atom_site_fract_x
_atom_site_fract_y
_atom_site_fract_z
Si Si1 0.447722 0.763706 0.679606
Si Si2 0.764407 0.672229 0.401689
Si Si3 0.291523 0.182429 0.938966
Si Si4 0.170916 0.553292 0.149601
Si Si5 0.657402 0.430591 0.238157
Si Si6 0.116758 0.615855 0.738161
Si Si7 0.403533 0.834375 0.171743
Si Si8 0.371021 0.859186 0.891599
O O1 0.751728 0.585002 0.505990
O O2 0.469589 0.603764 0.665521
O O3 0.467345 0.735955 0.771653
O O4 0.130976 0.099135 0.757252
O O5 0.089047 0.475460 0.241853
O O6 0.692912 0.651496 0.366408
O O7 0.500000 0.000000 0.500000
O O8 0.553921 0.063448 0.833319
O O9 0.417373 0.973045 0.845267
O O10 0.177145 0.200203 0.081721
O O11 0.000000 0.500000 0.000000
O O12 0.406528 0.403073 0.114953
O O13 0.329900 0.416286 0.997751
O O14 0.425343 0.702058 0.253569
O O15 0.645012 0.515661 0.312617
O O16 0.011353 0.124084 0.061623
O O17 0.948948 0.864200 0.723829
#
# Coordination Sequence:
#
# PCOD8026447 Si02
#       8
#     2   2   2   2   2   2   2   2
#     4  11  25  43  58  85 135 167 205 240 297 377
#     4  10  24  42  65  88 123 169 197 249 306 371
#     4  11  18  32  60  93 120 147 190 258 313 347
#     4  11  21  39  65  94 120 158 206 255 311 356
#     4  11  24  39  62  95 121 167 200 254 308 350
#     4  11  22  39  62  95 121 156 210 249 307 361
#     4  12  20  36  65  97 124 149 201 269 310 351
#     4  11  22  36  62  95 122 155 201 259 310 352
#
# _framework density 22.105746
#
# number of rings (size 3 to 8) (size 9 to 14) (size 15 to 20)
#    0.000    1.000    7.500    1.500    1.750    2.500 
#    0.000    3.125    0.000    0.000    0.000    0.000 
#    0.000    0.000    0.000    0.000    0.000    0.000 
#
# Total GULP energy -198384.509734 kJ/mol
# GULP energy per Si atom -12399.031858 kJ/mol
# Density = 2.205543 g / cm^3
# Si number density = 22.105746 Si / 1000 Ang^3
#
#
#
# Elastic Constant Matrix: (Units=GPa)
#
#
# Indices 1 2 3 4 5 6 
#
# 1 93.4038 45.5889 34.1406 -10.6255 20.4154 7.9703
# 2 45.5889 127.3635 10.4630 -12.9256 -4.0757 -5.1630
# 3 34.1406 10.4630 44.6827 -5.4753 13.6489 6.6091
# 4 -10.6255 -12.9256 -5.4753 21.4640 7.8793 1.3824
# 5 20.4154 -4.0757 13.6489 7.8793 27.1359 -3.3149
# 6 7.9703 -5.1630 6.6091 1.3824 -3.3149 43.5336
#
#
#
# Elastic Compliance Matrix: (Units=1/GPa)
#
#
# Indices 1 2 3 4 5 6 
#
# 1 0.023092 -0.007198 -0.007861 0.012354 -0.018785 -0.005711
# 2 -0.007198 0.010772 0.000349 0.000177 0.007183 0.003084
# 3 -0.007861 0.000349 0.035353 0.011495 -0.015819 -0.005456
# 4 0.012354 0.000177 0.011495 0.069676 -0.036377 -0.008968
# 5 -0.018785 0.007183 -0.015819 -0.036377 0.072212 0.013346
# 6 -0.005711 0.003084 -0.005456 -0.008968 0.013346 0.026511
#
#
# Mechanical properties :
#
#
# Convention : Reuss Voigt Hill
#
# Bulk Modulus (GPa) = 25.12893 49.53721 37.33307
# Shear Modulus (GPa) = 17.83782 30.11054 23.97418
#
# Velocity S-wave (km/s) = 2.84374 3.69469 3.29678
# Velocity P-wave (km/s) = 4.70900 6.37642 5.60507
#
# Compressibility (1/GPa) = 0.03979477
#
# Stress axis : x y z
#
# Youngs Moduli (GPa) = 43.30576 92.83009 28.28632
#
# Poissons Ratio (x) = 0.66823 0.22237
# Poissons Ratio (y) = 0.31174 -0.00987
# Poissons Ratio (z) = 0.34044 -0.03239
#
# Static dielectric constant tensor:
#      x y z
#    x 4.220280 0.111920 -0.011940 
#    y 0.111920 4.066520 -0.202740 
#    z -0.011940 -0.202740 3.987550 
# 
# 
# High freq. dielectric constant tensor:
#      x y z
#    x 1.865730 0.002500 0.015660 
#    y 0.002500 1.877590 -0.005230 
#    z 0.015660 -0.005230 1.846700 
# 
# From -- ./inp_files/438643.got.cif
#   From: 2010.06.25/outbox.cif.g09.slc.cpg/sg2_220_cif.got.tgz:438643.got - 2010.06.27 13:26:56.
