data_PCOD8026750
_publ_section_title
;
Structure prediction by ZEFSAII (Michael W. Deem and Ramdas Pophale) SiO2 
 PCOD8026750
Probable space group: P -1
;
_chemical_formula_sum "Si O2"
_cell_formula_units_Z 14
_cell_length_a 5.444390
_cell_length_b 18.868933
_cell_length_c 8.153874
_cell_angle_alpha 132.872110
_cell_angle_beta 67.950871
_cell_angle_gamma 95.834011
_cell_volume 554.221356
_symmetry_space_group_name_H-M "P -1"
_symmetry_group_IT_number 2
_symmetry_cell_setting 'triclinic'
loop_
_space_group_symop_operation_xyz
x,y,z
-x,-y,-z
loop_
_atom_site_type_symbol
_atom_site_label
_atom_site_fract_x
_atom_site_fract_y
_atom_site_fract_z
Si Si1 0.572245 0.841365 0.471292
Si Si2 0.561627 0.332301 0.919854
Si Si3 0.835369 0.129062 0.111052
Si Si4 0.056626 0.940871 0.559591
Si Si5 0.759406 0.461039 0.581872
Si Si6 0.433889 0.703600 0.773067
Si Si7 0.985205 0.707850 0.497989
O O1 0.604395 0.722480 0.252375
O O2 0.441444 0.875060 0.733116
O O3 0.870591 0.861579 0.451450
O O4 0.373625 0.891343 0.446509
O O5 0.878102 0.311664 0.747887
O O6 0.445357 0.449930 0.136056
O O7 0.513932 0.281898 0.026314
O O8 0.794430 0.200237 0.072130
O O9 0.013649 0.178682 0.271248
O O10 0.972414 0.017152 0.851534
O O11 0.000000 0.000000 0.500000
O O12 0.632273 0.405761 0.382786
O O13 0.839848 0.373392 0.554094
O O14 0.000000 0.500000 0.500000
O O15 0.678191 0.697523 0.572137
#
# Coordination Sequence:
#
# PCOD8026750 Si02
#       7
#     2   2   2   2   2   2   2
#     4  11  27  45  70 106 137 189 236 287 358 419
#     4  11  24  44  70  99 140 182 237 293 351 422
#     4  10  25  44  69  96 141 175 235 294 348 422
#     4  12  26  45  72 106 140 186 236 290 354 424
#     4  11  23  44  65 101 139 184 233 291 354 422
#     4  11  24  44  68 101 134 185 232 290 357 418
#     4  10  24  43  67 100 136 182 237 286 359 419
#
# _framework density 25.260666000000001
#
# number of rings (size 3 to 8) (size 9 to 14) (size 15 to 20)
#    0.000    1.143    1.429    3.000    8.000    1.714 
#    5.143    0.000    0.000    0.000    0.000    0.000 
#    0.000    0.000    0.000    0.000    0.000    0.000 
#
# Total GULP energy -173441.940930 kJ/mol
# GULP energy per Si atom -12388.710066 kJ/mol
# Density = 2.520317 g / cm^3
# Si number density = 25.260666 Si / 1000 Ang^3
#
#
#
# Elastic Constant Matrix: (Units=GPa)
#
#
# Indices 1 2 3 4 5 6 
#
# 1 94.9235 21.8546 26.6942 3.9424 5.4939 11.2504
# 2 21.8546 77.8533 23.2175 -1.3932 -1.3236 17.8708
# 3 26.6942 23.2175 129.6548 10.4228 2.5061 7.8068
# 4 3.9424 -1.3932 10.4228 48.4066 6.0008 -0.3776
# 5 5.4939 -1.3236 2.5061 6.0008 16.0014 -1.3145
# 6 11.2504 17.8708 7.8068 -0.3776 -1.3145 50.4355
#
#
#
# Elastic Compliance Matrix: (Units=1/GPa)
#
#
# Indices 1 2 3 4 5 6 
#
# 1 0.012076 -0.002543 -0.001841 -0.000160 -0.004141 -0.001617
# 2 -0.002543 0.015236 -0.002037 0.000829 0.001775 -0.004463
# 3 -0.001841 -0.002037 0.008614 -0.001734 -0.000254 -0.000221
# 4 -0.000160 0.000829 -0.001734 0.022044 -0.007875 -0.000030
# 5 -0.004141 0.001775 -0.000254 -0.007875 0.067223 0.002027
# 6 -0.001617 -0.004463 -0.000221 -0.000030 0.002027 0.021856
#
#
# Mechanical properties :
#
#
# Convention : Reuss Voigt Hill
#
# Bulk Modulus (GPa) = 43.31956 49.55155 46.43556
# Shear Modulus (GPa) = 29.83564 38.34638 34.09101
#
# Velocity S-wave (km/s) = 3.44046 3.90041 3.67763
# Velocity P-wave (km/s) = 5.74183 6.32005 6.03786
#
# Compressibility (1/GPa) = 0.02308426
#
# Stress axis : x y z
#
# Youngs Moduli (GPa) = 82.80983 65.63588 116.08926
#
# Poissons Ratio (x) = 0.16692 0.21368
# Poissons Ratio (y) = 0.21059 0.23646
# Poissons Ratio (z) = 0.15242 0.13369
#
# Static dielectric constant tensor:
#      x y z
#    x 4.434910 -0.060680 0.046120 
#    y -0.060680 4.921580 0.130570 
#    z 0.046120 0.130570 4.816770 
# 
# 
# High freq. dielectric constant tensor:
#      x y z
#    x 1.990280 -0.010090 0.007340 
#    y -0.010090 2.027580 0.006490 
#    z 0.007340 0.006490 2.018140 
# 
# From -- ./inp_files/43536.got.cif
#   From: 2010.06.25/outbox.cif.g09.slc.cpg/sg2_22_cif.got.tgz:43536.got - 2010.06.27 13:26:56.
