data_PCOD8026551
_publ_section_title
;
Structure prediction by ZEFSAII (Michael W. Deem and Ramdas Pophale) SiO2 
 PCOD8026551
Probable space group: P -1
;
_chemical_formula_sum "Si O2"
_cell_formula_units_Z 16
_cell_length_a 9.943248
_cell_length_b 20.676488
_cell_length_c 9.703761
_cell_angle_alpha 110.841002
_cell_angle_beta 107.359034
_cell_angle_gamma 130.994959
_cell_volume 924.647754
_symmetry_space_group_name_H-M "P -1"
_symmetry_group_IT_number 2
_symmetry_cell_setting 'triclinic'
loop_
_space_group_symop_operation_xyz
x,y,z
-x,-y,-z
loop_
_atom_site_type_symbol
_atom_site_label
_atom_site_fract_x
_atom_site_fract_y
_atom_site_fract_z
Si Si1 0.483164 0.266697 0.749120
Si Si2 0.492090 0.076176 0.889762
Si Si3 0.379113 0.088218 0.447584
Si Si4 0.649211 0.482734 0.878205
Si Si5 0.175626 0.711756 0.060708
Si Si6 0.125511 0.328667 0.685063
Si Si7 0.545329 0.098847 0.229881
Si Si8 0.988330 0.129458 0.616941
O O1 0.334568 0.151535 0.509405
O O2 0.610063 0.384012 0.795046
O O3 0.724918 0.326895 0.946990
O O4 0.261968 0.199987 0.740431
O O5 0.753676 0.221521 0.010465
O O6 0.551876 0.019943 0.865701
O O7 0.222243 0.982462 0.651457
O O8 0.457017 0.088726 0.044804
O O9 0.660755 0.183153 0.681800
O O10 0.398343 0.084228 0.287673
O O11 0.136326 0.939867 0.324217
O O12 0.361747 0.400909 0.708015
O O13 0.777302 0.562401 0.122171
O O14 0.854092 0.583659 0.891334
O O15 0.870519 0.240774 0.446696
O O16 0.054380 0.238483 0.705745
#
# Coordination Sequence:
#
# PCOD8026551 Si02
#       8
#     2   2   2   2   2   2   2   2
#     4   9  18  30  49  71 101 122 152 198 234 272
#     4   9  20  30  50  67 100 125 152 197 237 285
#     4   9  18  27  52  69  94 121 156 195 230 283
#     4  10  17  30  47  76  94 121 161 191 236 271
#     4   9  18  29  49  72  89 125 157 193 227 281
#     4   9  18  28  50  71  97 121 151 206 229 275
#     4  10  18  34  45  72  96 128 153 192 246 272
#     4   9  17  31  49  75  95 119 157 195 242 270
#
# _framework density 17.303888000000001
#
# number of rings (size 3 to 8) (size 9 to 14) (size 15 to 20)
#    0.750    2.000    1.250    0.750    1.750    1.500 
#    0.000    1.250    0.000    3.000    0.000    0.000 
#    0.000    0.000    0.000    0.000    0.000    0.000 
#
# Total GULP energy -198305.358599 kJ/mol
# GULP energy per Si atom -12394.084912 kJ/mol
# Density = 1.726450 g / cm^3
# Si number density = 17.303888 Si / 1000 Ang^3
#
#
#
# Elastic Constant Matrix: (Units=GPa)
#
#
# Indices 1 2 3 4 5 6 
#
# 1 57.8702 28.3054 14.9371 2.4388 -0.6709 12.0282
# 2 28.3054 99.7682 25.5383 7.3642 -0.6496 23.1359
# 3 14.9371 25.5383 38.5339 -1.1194 -2.9996 8.1944
# 4 2.4388 7.3642 -1.1194 28.0669 6.4240 1.0968
# 5 -0.6709 -0.6496 -2.9996 6.4240 24.7762 6.8070
# 6 12.0282 23.1359 8.1944 1.0968 6.8070 23.7307
#
#
#
# Elastic Compliance Matrix: (Units=1/GPa)
#
#
# Indices 1 2 3 4 5 6 
#
# 1 0.021547 -0.003250 -0.004649 -0.001435 0.002147 -0.006697
# 2 -0.003250 0.015874 -0.006382 -0.004609 0.004218 -0.012621
# 3 -0.004649 -0.006382 0.033292 0.002604 0.004230 -0.004252
# 4 -0.001435 -0.004609 0.002604 0.039516 -0.011698 0.005851
# 5 0.002147 0.004218 0.004230 -0.011698 0.049671 -0.020369
# 6 -0.006697 -0.012621 -0.004252 0.005851 -0.020369 0.064879
#
#
# Mechanical properties :
#
#
# Convention : Reuss Voigt Hill
#
# Bulk Modulus (GPa) = 23.72435 37.08155 30.40295
# Shear Modulus (GPa) = 18.69928 23.80754 21.25341
#
# Velocity S-wave (km/s) = 3.29088 3.71327 3.50843
# Velocity P-wave (km/s) = 5.30848 6.31353 5.83269
#
# Compressibility (1/GPa) = 0.04215078
#
# Stress axis : x y z
#
# Youngs Moduli (GPa) = 46.41016 62.99800 30.03751
#
# Poissons Ratio (x) = 0.20477 0.13963
# Poissons Ratio (y) = 0.15085 0.19169
# Poissons Ratio (z) = 0.21574 0.40204
#
# Static dielectric constant tensor:
#      x y z
#    x 3.126630 0.079440 -0.023000 
#    y 0.079440 3.182180 0.281680 
#    z -0.023000 0.281680 3.009170 
# 
# 
# High freq. dielectric constant tensor:
#      x y z
#    x 1.666190 0.009620 -0.004380 
#    y 0.009620 1.661200 0.030880 
#    z -0.004380 0.030880 1.628940 
# 
# From -- ./inp_files/281106.got.cif
#   From: 2010.06.25/outbox.cif.g09.slc.cpg/sg2_141_cif.got.tgz:281106.got - 2010.06.27 13:26:56.
