data_PCOD8026569
_publ_section_title
;
Structure prediction by ZEFSAII (Michael W. Deem and Ramdas Pophale) SiO2 
 PCOD8026569
Probable space group: P -1
;
_chemical_formula_sum "Si O2"
_cell_formula_units_Z 16
_cell_length_a 13.133559
_cell_length_b 10.652796
_cell_length_c 8.709329
_cell_angle_alpha 116.844135
_cell_angle_beta 48.744870
_cell_angle_gamma 83.983644
_cell_volume 653.762628
_symmetry_space_group_name_H-M "P -1"
_symmetry_group_IT_number 2
_symmetry_cell_setting 'triclinic'
loop_
_space_group_symop_operation_xyz
x,y,z
-x,-y,-z
loop_
_atom_site_type_symbol
_atom_site_label
_atom_site_fract_x
_atom_site_fract_y
_atom_site_fract_z
Si Si1 0.991677 0.197710 0.766860
Si Si2 0.205961 0.218799 0.123176
Si Si3 0.749826 0.160297 0.825853
Si Si4 0.649804 0.309627 0.685327
Si Si5 0.939665 0.275430 0.191962
Si Si6 0.490816 0.162811 0.268823
Si Si7 0.140852 0.361812 0.584379
Si Si8 0.446777 0.196664 0.665019
O O1 0.004319 0.358241 0.816691
O O2 0.811695 0.245171 0.924223
O O3 0.126037 0.051352 0.428100
O O4 0.016537 0.144494 0.894556
O O5 0.106802 0.353948 0.434030
O O6 0.082423 0.192307 0.136113
O O7 0.269432 0.305106 0.994324
O O8 0.365376 0.037917 0.938047
O O9 0.755297 0.211791 0.676773
O O10 0.567998 0.229900 0.112763
O O11 0.770091 0.308950 0.441550
O O12 0.582442 0.206713 0.623830
O O13 0.500000 0.500000 0.000000
O O14 0.886105 0.456330 0.269164
O O15 0.329971 0.196180 0.360077
O O16 0.423382 0.271446 0.556916
O O17 0.500000 0.000000 0.500000
#
# Coordination Sequence:
#
# PCOD8026569 Si02
#       8
#     2   2   2   2   2   2   2   2
#     4  11  26  44  70 103 137 184 239 287 345 415
#     4  11  23  42  68 106 141 181 236 287 349 416
#     4  11  25  45  71  99 140 184 236 290 346 417
#     4  12  27  47  72 103 146 186 229 292 361 420
#     4  12  27  45  71 104 144 184 228 294 353 417
#     4  11  23  42  70 102 135 185 237 289 340 416
#     4  12  24  45  71 102 144 186 232 286 354 418
#     4  10  24  42  69 107 141 183 237 291 344 419
#
# _framework density 24.473714999999999
#
# number of rings (size 3 to 8) (size 9 to 14) (size 15 to 20)
#    0.000    0.750    1.250    5.625    8.750    2.500 
#    0.000    2.500    0.000    0.000    0.000    0.000 
#    0.000    0.000    0.000    0.000    0.000    0.000 
#
# Total GULP energy -198343.751342 kJ/mol
# GULP energy per Si atom -12396.484459 kJ/mol
# Density = 2.441801 g / cm^3
# Si number density = 24.473715 Si / 1000 Ang^3
#
#
#
# Elastic Constant Matrix: (Units=GPa)
#
#
# Indices 1 2 3 4 5 6 
#
# 1 178.5394 33.3115 44.9588 -16.7071 15.0435 9.7484
# 2 33.3115 90.0243 29.5403 -19.7547 2.3269 12.4270
# 3 44.9588 29.5403 97.8932 -38.0998 11.7095 -3.0596
# 4 -16.7071 -19.7547 -38.0998 42.4878 -8.9199 3.6375
# 5 15.0435 2.3269 11.7095 -8.9199 32.0430 -12.3780
# 6 9.7484 12.4270 -3.0596 3.6375 -12.3780 33.2257
#
#
#
# Elastic Compliance Matrix: (Units=1/GPa)
#
#
# Indices 1 2 3 4 5 6 
#
# 1 0.006935 -0.001335 -0.002798 -0.000890 -0.003550 -0.003018
# 2 -0.001335 0.014072 -0.001928 0.004652 -0.000634 -0.005794
# 3 -0.002798 -0.001928 0.017398 0.013348 -0.000629 0.001449
# 4 -0.000890 0.004652 0.013348 0.038578 0.004921 -0.002640
# 5 -0.003550 -0.000634 -0.000629 0.004921 0.040631 0.015819
# 6 -0.003018 -0.005794 0.001449 -0.002640 0.015819 0.039466
#
#
# Mechanical properties :
#
#
# Convention : Reuss Voigt Hill
#
# Bulk Modulus (GPa) = 38.04823 64.67535 51.36179
# Shear Modulus (GPa) = 28.09572 38.79438 33.44505
#
# Velocity S-wave (km/s) = 3.39188 3.98571 3.70073
# Velocity P-wave (km/s) = 5.56059 6.90398 6.26838
#
# Compressibility (1/GPa) = 0.02628243
#
# Stress axis : x y z
#
# Youngs Moduli (GPa) = 144.18759 71.06436 57.47873
#
# Poissons Ratio (x) = 0.09486 0.16085
# Poissons Ratio (y) = 0.19247 0.11082
# Poissons Ratio (z) = 0.40349 0.13701
#
# Static dielectric constant tensor:
#      x y z
#    x 4.437210 -0.026670 0.301570 
#    y -0.026670 4.109760 -0.686580 
#    z 0.301570 -0.686580 4.712340 
# 
# 
# High freq. dielectric constant tensor:
#      x y z
#    x 1.983790 -0.000750 0.012790 
#    y -0.000750 1.961120 -0.027820 
#    z 0.012790 -0.027820 1.983330 
# 
# From -- ./inp_files/262921.got.cif
#   From: 2010.06.25/outbox.cif.g09.slc.cpg/sg2_132_cif.got.tgz:262921.got - 2010.06.27 13:26:56.
