data_PCOD8026076
_publ_section_title
;
Structure prediction by ZEFSAII (Michael W. Deem and Ramdas Pophale) SiO2 
 PCOD8026076
Probable space group: P -1
;
_chemical_formula_sum "Si O2"
_cell_formula_units_Z 16
_cell_length_a 13.020776
_cell_length_b 11.951476
_cell_length_c 12.077320
_cell_angle_alpha 79.324889
_cell_angle_beta 71.491915
_cell_angle_gamma 142.195387
_cell_volume 722.381295
_symmetry_space_group_name_H-M "P -1"
_symmetry_group_IT_number 2
_symmetry_cell_setting 'triclinic'
loop_
_space_group_symop_operation_xyz
x,y,z
-x,-y,-z
loop_
_atom_site_type_symbol
_atom_site_label
_atom_site_fract_x
_atom_site_fract_y
_atom_site_fract_z
Si Si1 0.107232 0.860990 0.624876
Si Si2 0.410030 0.155897 0.684280
Si Si3 0.690425 0.044271 0.837110
Si Si4 0.048886 0.175673 0.972114
Si Si5 0.203346 0.209872 0.198184
Si Si6 0.433884 0.244835 0.243792
Si Si7 0.130832 0.296537 0.685777
Si Si8 0.674237 0.291308 0.769159
O O1 0.912033 0.780003 0.728092
O O2 0.939406 0.607191 0.661412
O O3 0.235935 0.935854 0.682419
O O4 0.355512 0.131618 0.414562
O O5 0.589752 0.428952 0.521816
O O6 0.583416 0.235017 0.684874
O O7 0.222127 0.031979 0.859539
O O8 0.740103 0.221617 0.756426
O O9 0.964350 0.240935 0.703816
O O10 0.523328 0.822803 0.838739
O O11 0.554075 0.899955 0.029519
O O12 0.287001 0.422931 0.930291
O O13 0.157705 0.346590 0.796823
O O14 0.000000 0.000000 0.000000
O O15 0.209056 0.121319 0.310940
O O16 0.500000 0.500000 0.000000
O O17 0.999951 0.955295 0.229267
#
# Coordination Sequence:
#
# PCOD8026076 Si02
#       8
#     2   2   2   2   2   2   2   2
#     4  12  25  43  67 104 140 180 234 282 350 416
#     4  12  26  44  70 105 139 183 235 284 347 417
#     4  10  23  48  71 100 136 181 237 287 347 415
#     4  12  25  41  67 101 143 182 227 284 346 410
#     4  11  23  41  67  97 136 184 230 285 344 416
#     4  11  24  43  67  97 141 180 230 291 342 416
#     4  11  23  44  67 100 141 177 232 282 346 411
#     4  11  24  46  76  99 137 186 231 292 349 406
#
# _framework density 22.148966999999999
#
# number of rings (size 3 to 8) (size 9 to 14) (size 15 to 20)
#    0.000    0.750    2.500    6.375    3.500    3.000 
#    2.250    3.125    0.000    0.000    0.000    0.000 
#    0.000    0.000    0.000    0.000    0.000    0.000 
#
# Total GULP energy -198296.481308 kJ/mol
# GULP energy per Si atom -12393.530082 kJ/mol
# Density = 2.209855 g / cm^3
# Si number density = 22.148967 Si / 1000 Ang^3
#
#
#
# Elastic Constant Matrix: (Units=GPa)
#
#
# Indices 1 2 3 4 5 6 
#
# 1 78.7818 67.8235 23.4834 -1.4363 9.7361 -11.3152
# 2 67.8235 143.4494 39.9368 -8.2252 5.3728 -2.2750
# 3 23.4834 39.9368 109.7320 -6.5919 8.1968 -0.9060
# 4 -1.4363 -8.2252 -6.5919 38.9540 8.5958 4.7624
# 5 9.7361 5.3728 8.1968 8.5958 23.6512 6.4027
# 6 -11.3152 -2.2750 -0.9060 4.7624 6.4027 34.9122
#
#
#
# Elastic Compliance Matrix: (Units=1/GPa)
#
#
# Indices 1 2 3 4 5 6 
#
# 1 0.025037 -0.011210 -0.000488 -0.000468 -0.009926 0.009256
# 2 -0.011210 0.012880 -0.002433 0.001698 0.002894 -0.003619
# 3 -0.000488 -0.002433 0.010505 0.002023 -0.003720 0.000362
# 4 -0.000468 0.001698 0.002023 0.029000 -0.010908 -0.001944
# 5 -0.009926 0.002894 -0.003720 -0.010908 0.054092 -0.011557
# 6 0.009256 -0.003619 0.000362 -0.001944 -0.011557 0.033801
#
#
# Mechanical properties :
#
#
# Convention : Reuss Voigt Hill
#
# Bulk Modulus (GPa) = 49.60220 66.05008 57.82614
# Shear Modulus (GPa) = 24.96279 32.88479 28.92379
#
# Velocity S-wave (km/s) = 3.36078 3.85737 3.61761
# Velocity P-wave (km/s) = 6.12399 7.05157 6.60409
#
# Compressibility (1/GPa) = 0.02016040
#
# Stress axis : x y z
#
# Youngs Moduli (GPa) = 39.94082 77.63959 95.18874
#
# Poissons Ratio (x) = 0.87033 0.04650
# Poissons Ratio (y) = 0.44773 0.23157
# Poissons Ratio (z) = 0.01951 0.18888
#
# Static dielectric constant tensor:
#      x y z
#    x 3.735910 0.343990 0.241430 
#    y 0.343990 5.067120 0.292830 
#    z 0.241430 0.292830 4.033720 
# 
# 
# High freq. dielectric constant tensor:
#      x y z
#    x 1.856150 0.015690 0.008230 
#    y 0.015690 1.880520 0.002880 
#    z 0.008230 0.002880 1.890190 
# 
# From -- ./inp_files/427991.got.cif
#   From: 2010.06.25/outbox.cif.g09.slc.cpg/sg2_214_cif.got.tgz:427991.got - 2010.06.27 13:26:56.
