data_PCOD8026183
_publ_section_title
;
Structure prediction by ZEFSAII (Michael W. Deem and Ramdas Pophale) SiO2 
 PCOD8026183
Probable space group: P -1
;
_chemical_formula_sum "Si O2"
_cell_formula_units_Z 14
_cell_length_a 5.026607
_cell_length_b 17.922217
_cell_length_c 7.759362
_cell_angle_alpha 105.828493
_cell_angle_beta 111.840867
_cell_angle_gamma 53.490515
_cell_volume 520.278171
_symmetry_space_group_name_H-M "P -1"
_symmetry_group_IT_number 2
_symmetry_cell_setting 'triclinic'
loop_
_space_group_symop_operation_xyz
x,y,z
-x,-y,-z
loop_
_atom_site_type_symbol
_atom_site_label
_atom_site_fract_x
_atom_site_fract_y
_atom_site_fract_z
Si Si1 0.215837 0.850060 0.391946
Si Si2 0.827185 0.987608 0.661708
Si Si3 0.411235 0.649429 0.678869
Si Si4 0.087677 0.835579 0.879459
Si Si5 0.202226 0.357387 0.556515
Si Si6 0.181733 0.215947 0.913979
Si Si7 0.518489 0.406176 0.952435
O O1 0.578259 0.752592 0.419759
O O2 0.165483 0.910632 0.586464
O O3 0.197740 0.915087 0.269058
O O4 0.910970 0.831734 0.288774
O O5 0.885196 0.942378 0.835711
O O6 0.500000 0.000000 0.500000
O O7 0.182433 0.762740 0.699088
O O8 0.710755 0.616826 0.590814
O O9 0.191204 0.609883 0.531474
O O10 0.556697 0.612135 0.882744
O O11 0.447804 0.801795 0.041553
O O12 0.828405 0.829721 0.938629
O O13 0.236111 0.411870 0.758012
O O14 0.895771 0.325930 0.924496
O O15 0.500000 0.500000 0.000000
#
# Coordination Sequence:
#
# PCOD8026183 Si02
#       7
#     2   2   2   2   2   2   2
#     4  10  24  40  61  95 130 172 228 269 333 401
#     4  11  24  38  64  94 131 172 222 281 321 394
#     4  11  23  44  71 100 139 182 231 275 347 413
#     4  11  23  43  67  93 133 176 221 274 332 401
#     4  11  24  45  73  99 138 193 222 277 353 412
#     4  10  25  44  67  92 129 179 216 273 345 398
#     4  10  25  46  72 108 141 173 235 293 337 415
#
# _framework density 26.908681000000001
#
# number of rings (size 3 to 8) (size 9 to 14) (size 15 to 20)
#    0.000    1.429    1.429    2.571    6.000    9.143 
#    0.000   10.000    0.000    0.000    0.000    0.000 
#    0.000    0.000    0.000    0.000    0.000    0.000 
#
# Total GULP energy -173618.372041 kJ/mol
# GULP energy per Si atom -12401.312289 kJ/mol
# Density = 2.684744 g / cm^3
# Si number density = 26.908681 Si / 1000 Ang^3
#
#
#
# Elastic Constant Matrix: (Units=GPa)
#
#
# Indices 1 2 3 4 5 6 
#
# 1 59.2478 29.7321 15.2554 7.5013 10.3845 22.6250
# 2 29.7321 118.5164 39.6348 17.1073 -5.4521 38.5725
# 3 15.2554 39.6348 118.3257 12.0044 4.9703 12.9335
# 4 7.5013 17.1073 12.0044 36.5398 7.2549 -2.0843
# 5 10.3845 -5.4521 4.9703 7.2549 40.1025 -1.3127
# 6 22.6250 38.5725 12.9335 -2.0843 -1.3127 32.2188
#
#
#
# Elastic Compliance Matrix: (Units=1/GPa)
#
#
# Indices 1 2 3 4 5 6 
#
# 1 0.025812 0.000291 -0.000590 -0.005070 -0.006270 -0.018821
# 2 0.000291 0.017456 -0.002878 -0.009174 0.003647 -0.020392
# 3 -0.000590 -0.002878 0.009713 -0.001499 -0.001177 -0.000184
# 4 -0.005070 -0.009174 -0.001499 0.035283 -0.005569 0.017201
# 5 -0.006270 0.003647 -0.001177 -0.005569 0.028251 0.001300
# 6 -0.018821 -0.020392 -0.000184 0.017201 0.001300 0.069907
#
#
# Mechanical properties :
#
#
# Convention : Reuss Voigt Hill
#
# Bulk Modulus (GPa) = 21.44735 51.70385 36.57560
# Shear Modulus (GPa) = 24.00147 35.87005 29.93576
#
# Velocity S-wave (km/s) = 2.98981 3.65503 3.33903
# Velocity P-wave (km/s) = 4.46165 6.08840 5.33736
#
# Compressibility (1/GPa) = 0.04662581
#
# Stress axis : x y z
#
# Youngs Moduli (GPa) = 38.74105 57.28654 102.95423
#
# Poissons Ratio (x) = -0.01665 0.06078
# Poissons Ratio (y) = -0.01126 0.29632
# Poissons Ratio (z) = 0.02287 0.16488
#
# Static dielectric constant tensor:
#      x y z
#    x 4.657690 0.264060 -0.066950 
#    y 0.264060 5.045690 0.111020 
#    z -0.066950 0.111020 4.927880 
# 
# 
# High freq. dielectric constant tensor:
#      x y z
#    x 2.075090 0.018210 -0.003710 
#    y 0.018210 2.083340 0.009140 
#    z -0.003710 0.009140 2.086080 
# 
# From -- ./inp_files/128825.got.cif
#   From: 2010.06.25/outbox.cif.g09.slc.cpg/sg2_65_cif.got.tgz:128825.got - 2010.06.27 13:26:56.
