data_PCOD8026439
_publ_section_title
;
Structure prediction by ZEFSAII (Michael W. Deem and Ramdas Pophale) SiO2 
 PCOD8026439
Probable space group: P -1
;
_chemical_formula_sum "Si O2"
_cell_formula_units_Z 14
_cell_length_a 18.566683
_cell_length_b 7.933578
_cell_length_c 16.516321
_cell_angle_alpha 133.524186
_cell_angle_beta 21.545721
_cell_angle_gamma 134.805817
_cell_volume 628.737405
_symmetry_space_group_name_H-M "P -1"
_symmetry_group_IT_number 2
_symmetry_cell_setting 'triclinic'
loop_
_space_group_symop_operation_xyz
x,y,z
-x,-y,-z
loop_
_atom_site_type_symbol
_atom_site_label
_atom_site_fract_x
_atom_site_fract_y
_atom_site_fract_z
Si Si1 0.884268 0.578794 0.397875
Si Si2 0.038777 0.331705 0.473291
Si Si3 0.736119 0.030415 0.934940
Si Si4 0.742648 0.771121 0.266295
Si Si5 0.380406 0.760591 0.730426
Si Si6 0.189729 0.834111 0.791130
Si Si7 0.627906 0.936599 0.772469
O O1 0.913041 0.527248 0.445845
O O2 0.851629 0.338151 0.300813
O O3 0.682684 0.679439 0.633712
O O4 0.088854 0.759451 0.214410
O O5 0.228991 0.223809 0.213390
O O6 0.000000 0.500000 0.500000
O O7 0.842086 0.119931 0.613793
O O8 0.509529 0.052760 0.157954
O O9 0.723162 0.050528 0.053213
O O10 0.623870 0.848528 0.493447
O O11 0.675297 0.481909 0.237838
O O12 0.692995 0.902382 0.278251
O O13 0.981679 0.857123 0.058362
O O14 0.306055 0.726771 0.703571
O O15 0.500000 0.000000 0.000000
#
# Coordination Sequence:
#
# PCOD8026439 Si02
#       7
#     2   2   2   2   2   2   2
#     4  11  23  41  68  97 130 173 220 267 334 390
#     4  11  25  44  65 101 134 163 217 279 331 390
#     4  11  23  43  68  97 128 177 218 269 327 397
#     4  10  24  42  64  95 134 176 223 267 325 391
#     4  11  24  43  67  98 134 174 227 264 328 398
#     4  11  24  43  67  97 138 174 216 276 331 387
#     4  11  21  43  69  86 128 176 218 260 324 391
#
# _framework density 22.266848
#
# number of rings (size 3 to 8) (size 9 to 14) (size 15 to 20)
#    0.000    1.143    4.286    1.714    4.000    5.143 
#    2.571    0.000    0.000    0.000    0.000    0.000 
#    0.000    0.000    0.000    0.000    0.000    0.000 
#
# Total GULP energy -173479.784461 kJ/mol
# GULP energy per Si atom -12391.413176 kJ/mol
# Density = 2.221617 g / cm^3
# Si number density = 22.266848 Si / 1000 Ang^3
#
#
#
# Elastic Constant Matrix: (Units=GPa)
#
#
# Indices 1 2 3 4 5 6 
#
# 1 141.8692 52.3603 56.0621 17.5382 7.7614 -5.8566
# 2 52.3603 74.1489 34.8450 3.9368 8.1226 -12.9049
# 3 56.0621 34.8450 146.2541 8.9991 15.3392 -3.6031
# 4 17.5382 3.9368 8.9991 25.2278 -0.6059 3.9600
# 5 7.7614 8.1226 15.3392 -0.6059 43.6057 5.5816
# 6 -5.8566 -12.9049 -3.6031 3.9600 5.5816 34.8308
#
#
#
# Elastic Compliance Matrix: (Units=1/GPa)
#
#
# Indices 1 2 3 4 5 6 
#
# 1 0.011064 -0.006410 -0.002355 -0.005837 -0.000016 -0.000092
# 2 -0.006410 0.020357 -0.001993 0.000887 -0.002783 0.006603
# 3 -0.002355 -0.001993 0.008531 -0.001188 -0.002258 0.000245
# 4 -0.005837 0.000887 -0.001188 0.045042 0.002728 -0.006334
# 5 -0.000016 -0.002783 -0.002258 0.002728 0.025001 -0.005584
# 6 -0.000092 0.006603 0.000245 -0.006334 -0.005584 0.032781
#
#
# Mechanical properties :
#
#
# Convention : Reuss Voigt Hill
#
# Bulk Modulus (GPa) = 54.24559 72.08967 63.16763
# Shear Modulus (GPa) = 29.33629 35.33318 32.33473
#
# Velocity S-wave (km/s) = 3.63366 3.98780 3.81484
# Velocity P-wave (km/s) = 6.48222 7.32455 6.91622
#
# Compressibility (1/GPa) = 0.01843468
#
# Stress axis : x y z
#
# Youngs Moduli (GPa) = 90.38276 49.12430 117.22014
#
# Poissons Ratio (x) = 0.31491 0.27608
# Poissons Ratio (y) = 0.57940 0.23359
# Poissons Ratio (z) = 0.21287 0.09789
#
# Static dielectric constant tensor:
#      x y z
#    x 4.315050 -0.051820 -0.225250 
#    y -0.051820 3.840460 0.082040 
#    z -0.225250 0.082040 4.653100 
# 
# 
# High freq. dielectric constant tensor:
#      x y z
#    x 1.870450 -0.009500 0.001400 
#    y -0.009500 1.850000 0.001780 
#    z 0.001400 0.001780 1.910370 
# 
# From -- ./inp_files/313504.got.cif
#   From: 2010.06.25/outbox.cif.g09.slc.cpg/sg2_157_cif.got.tgz:313504.got - 2010.06.27 13:26:56.
