data_PCOD8026389
_publ_section_title
;
Structure prediction by ZEFSAII (Michael W. Deem and Ramdas Pophale) SiO2 
 PCOD8026389
Probable space group: P -1
;
_chemical_formula_sum "Si O2"
_cell_formula_units_Z 14
_cell_length_a 14.200739
_cell_length_b 11.826864
_cell_length_c 19.318307
_cell_angle_alpha 31.368866
_cell_angle_beta 19.236114
_cell_angle_gamma 40.489527
_cell_volume 536.369722
_symmetry_space_group_name_H-M "P -1"
_symmetry_group_IT_number 2
_symmetry_cell_setting 'triclinic'
loop_
_space_group_symop_operation_xyz
x,y,z
-x,-y,-z
loop_
_atom_site_type_symbol
_atom_site_label
_atom_site_fract_x
_atom_site_fract_y
_atom_site_fract_z
Si Si1 0.639213 0.283341 0.177845
Si Si2 0.740782 0.397048 0.419383
Si Si3 0.334322 0.636827 0.139803
Si Si4 0.212749 0.719797 0.326126
Si Si5 0.651710 0.675177 0.151430
Si Si6 0.685338 0.202369 0.348398
Si Si7 0.869055 0.964930 0.532611
O O1 0.434527 0.430945 0.212540
O O2 0.609075 0.256531 0.294938
O O3 0.533869 0.031606 0.349737
O O4 0.976408 0.402125 0.861420
O O5 0.500000 0.500000 0.500000
O O6 0.594383 0.265928 0.658503
O O7 0.823468 0.206340 0.413026
O O8 0.280653 0.792821 0.160049
O O9 0.021569 0.526917 0.376338
O O10 0.557575 0.771682 0.856114
O O11 0.533091 0.714411 0.137152
O O12 0.081914 0.902528 0.360594
O O13 0.647551 0.414930 0.307265
O O14 0.981256 0.825570 0.860629
O O15 0.000000 0.000000 0.500000
#
# Coordination Sequence:
#
# PCOD8026389 Si02
#       7
#     2   2   2   2   2   2   2
#     4  11  22  46  67 101 145 188 238 296 361 435
#     4  12  26  45  72 106 145 189 240 299 372 435
#     4  11  25  47  73 108 145 198 244 302 368 433
#     4  11  25  46  74 106 147 191 250 299 366 438
#     4  11  22  45  71 107 141 191 246 299 362 442
#     4  10  24  41  72 101 145 186 238 302 357 431
#     4  12  25  47  74 106 149 191 245 310 360 442
#
# _framework density 26.101400000000002
#
# number of rings (size 3 to 8) (size 9 to 14) (size 15 to 20)
#    0.000    0.857    5.714    0.429    0.000    5.714 
#    5.143    0.000    0.000    0.000    0.000    0.000 
#    0.000    0.000    0.000    0.000    0.000    0.000 
#
# Total GULP energy -173601.758561 kJ/mol
# GULP energy per Si atom -12400.125612 kJ/mol
# Density = 2.604199 g / cm^3
# Si number density = 26.101400 Si / 1000 Ang^3
#
#
#
# Elastic Constant Matrix: (Units=GPa)
#
#
# Indices 1 2 3 4 5 6 
#
# 1 58.4334 34.1095 14.4585 -8.5121 -9.9505 -12.6726
# 2 34.1095 146.9352 40.7884 -2.4063 -0.7738 -1.4238
# 3 14.4585 40.7884 161.7598 -12.9141 -21.0358 -16.9002
# 4 -8.5121 -2.4063 -12.9141 33.7234 -0.2957 0.0138
# 5 -9.9505 -0.7738 -21.0358 -0.2957 31.8004 -1.5060
# 6 -12.6726 -1.4238 -16.9002 0.0138 -1.5060 34.4229
#
#
#
# Elastic Compliance Matrix: (Units=1/GPa)
#
#
# Indices 1 2 3 4 5 6 
#
# 1 0.025099 -0.006179 0.002222 0.006826 0.009734 0.010499
# 2 -0.006179 0.008900 -0.002680 -0.001982 -0.003668 -0.003382
# 3 0.002222 -0.002680 0.008308 0.003605 0.006400 0.005065
# 4 0.006826 -0.001982 0.003605 0.032657 0.004985 0.004406
# 5 0.009734 -0.003668 0.006400 0.004985 0.039075 0.008281
# 6 0.010499 -0.003382 0.005065 0.004406 0.008281 0.035623
#
#
# Mechanical properties :
#
#
# Convention : Reuss Voigt Hill
#
# Bulk Modulus (GPa) = 34.44287 60.64903 47.54595
# Shear Modulus (GPa) = 28.96651 38.50746 33.73699
#
# Velocity S-wave (km/s) = 3.33493 3.84513 3.59909
# Velocity P-wave (km/s) = 5.29655 6.55742 5.96042
#
# Compressibility (1/GPa) = 0.02903359
#
# Stress axis : x y z
#
# Youngs Moduli (GPa) = 39.84193 112.36522 120.35907
#
# Poissons Ratio (x) = 0.69426 -0.26747
# Poissons Ratio (y) = 0.24617 0.32261
# Poissons Ratio (z) = -0.08854 0.30119
#
# Static dielectric constant tensor:
#      x y z
#    x 4.717090 0.110730 -0.285470 
#    y 0.110730 5.193020 -0.331230 
#    z -0.285470 -0.331230 4.775040 
# 
# 
# High freq. dielectric constant tensor:
#      x y z
#    x 2.042760 -0.003050 -0.009000 
#    y -0.003050 2.049020 -0.000750 
#    z -0.009000 -0.000750 2.056440 
# 
# From -- ./inp_files/597920.got.cif
#   From: 2010.06.25/outbox.cif.g09.slc.cpg/sg2_299_cif.got.tgz:597920.got - 2010.06.27 13:26:56.
