data_PCOD8026841
_publ_section_title
;
Structure prediction by ZEFSAII (Michael W. Deem and Ramdas Pophale) SiO2 
 PCOD8026841
Probable space group: P -1
;
_chemical_formula_sum "Si O2"
_cell_formula_units_Z 16
_cell_length_a 8.452525
_cell_length_b 14.131846
_cell_length_c 9.441683
_cell_angle_alpha 65.396736
_cell_angle_beta 132.863433
_cell_angle_gamma 99.279173
_cell_volume 738.912171
_symmetry_space_group_name_H-M "P -1"
_symmetry_group_IT_number 2
_symmetry_cell_setting 'triclinic'
loop_
_space_group_symop_operation_xyz
x,y,z
-x,-y,-z
loop_
_atom_site_type_symbol
_atom_site_label
_atom_site_fract_x
_atom_site_fract_y
_atom_site_fract_z
Si Si1 0.421092 0.204356 0.552054
Si Si2 0.946347 0.936680 0.638037
Si Si3 0.628124 0.093048 0.503149
Si Si4 0.824810 0.448238 0.842876
Si Si5 0.325570 0.756143 0.048549
Si Si6 0.043946 0.589819 0.362214
Si Si7 0.417524 0.286169 0.055933
Si Si8 0.506714 0.611015 0.690549
O O1 0.226452 0.137819 0.465321
O O2 0.634718 0.146342 0.628451
O O3 0.483176 0.227502 0.735851
O O4 0.354342 0.315369 0.359791
O O5 0.866685 0.033296 0.638457
O O6 0.000000 0.000000 0.500000
O O7 0.169450 0.869196 0.873818
O O8 0.495907 0.176806 0.256950
O O9 0.500000 0.000000 0.500000
O O10 0.830412 0.323138 0.942281
O O11 0.585254 0.498226 0.731467
O O12 0.873770 0.469679 0.696465
O O13 0.000000 0.500000 0.000000
O O14 0.431653 0.715550 0.988846
O O15 0.000000 0.500000 0.500000
O O16 0.243700 0.644355 0.503239
O O17 0.838332 0.687444 0.162132
O O18 0.437980 0.384593 0.111494
#
# Coordination Sequence:
#
# PCOD8026841 Si02
#       8
#     2   2   2   2   2   2   2   2
#     4  10  24  43  69 103 133 180 225 283 338 416
#     4  11  23  46  71 102 135 178 224 284 351 405
#     4   9  21  44  71  93 137 177 222 278 344 410
#     4  12  25  45  70  99 137 188 226 280 342 405
#     4  12  26  43  70 101 140 178 232 286 340 409
#     4  12  27  42  67  99 134 180 234 278 334 404
#     4  11  25  45  64 103 137 178 227 285 338 403
#     4  11  24  46  69  96 143 182 228 276 342 407
#
# _framework density 21.653454
#
# number of rings (size 3 to 8) (size 9 to 14) (size 15 to 20)
#    0.000    1.000    3.750    1.875    7.000    3.000 
#    0.000    0.000    0.000    0.000    0.000    0.000 
#    0.000    0.000    0.000    0.000    0.000    0.000 
#
# Total GULP energy -198220.180142 kJ/mol
# GULP energy per Si atom -12388.761259 kJ/mol
# Density = 2.160417 g / cm^3
# Si number density = 21.653454 Si / 1000 Ang^3
#
#
#
# Elastic Constant Matrix: (Units=GPa)
#
#
# Indices 1 2 3 4 5 6 
#
# 1 119.9524 28.2177 44.1523 -1.0913 -13.6327 -16.1911
# 2 28.2177 65.1316 23.2229 -5.2253 -12.6146 -6.6259
# 3 44.1523 23.2229 90.0518 0.4393 -4.6260 -7.9148
# 4 -1.0913 -5.2253 0.4393 39.3005 -5.5426 3.3008
# 5 -13.6327 -12.6146 -4.6260 -5.5426 47.4029 1.1189
# 6 -16.1911 -6.6259 -7.9148 3.3008 1.1189 53.8516
#
#
#
# Elastic Compliance Matrix: (Units=1/GPa)
#
#
# Indices 1 2 3 4 5 6 
#
# 1 0.011143 -0.002588 -0.004488 0.000107 0.002036 0.002323
# 2 -0.002588 0.018800 -0.003306 0.003002 0.004269 0.000776
# 3 -0.004488 -0.003306 0.014151 -0.000883 -0.000902 0.000397
# 4 0.000107 0.003002 -0.000883 0.026524 0.003879 -0.001435
# 5 0.002036 0.004269 -0.000902 0.003879 0.023176 0.000285
# 6 0.002323 0.000776 0.000397 -0.001435 0.000285 0.019504
#
#
# Mechanical properties :
#
#
# Convention : Reuss Voigt Hill
#
# Bulk Modulus (GPa) = 42.86477 51.81351 47.33914
# Shear Modulus (GPa) = 35.25100 40.08053 37.66576
#
# Velocity S-wave (km/s) = 4.03918 4.30699 4.17523
# Velocity P-wave (km/s) = 6.44919 6.97954 6.71960
#
# Compressibility (1/GPa) = 0.02332918
#
# Stress axis : x y z
#
# Youngs Moduli (GPa) = 89.73950 53.19054 70.66863
#
# Poissons Ratio (x) = 0.13768 0.31715
# Poissons Ratio (y) = 0.23228 0.23365
# Poissons Ratio (z) = 0.40273 0.17587
#
# Static dielectric constant tensor:
#      x y z
#    x 3.923480 0.304220 -0.146790 
#    y 0.304220 2.684300 0.145230 
#    z -0.146790 0.145230 3.869000 
# 
# 
# High freq. dielectric constant tensor:
#      x y z
#    x 1.865600 -0.011840 -0.007980 
#    y -0.011840 1.856070 -0.008090 
#    z -0.007980 -0.008090 1.844310 
# 
# From -- ./inp_files/201096.got.cif
#   From: 2010.06.25/outbox.cif.g09.slc.cpg/sg2_101_cif.got.tgz:201096.got - 2010.06.27 13:26:56.
