data_PCOD8026983
_publ_section_title
;
Structure prediction by ZEFSAII (Michael W. Deem and Ramdas Pophale) SiO2 
 PCOD8026983
Probable space group: P -1
;
_chemical_formula_sum "Si O2"
_cell_formula_units_Z 14
_cell_length_a 11.424853
_cell_length_b 17.574188
_cell_length_c 8.473302
_cell_angle_alpha 146.991503
_cell_angle_beta 126.592595
_cell_angle_gamma 40.212970
_cell_volume 593.612628
_symmetry_space_group_name_H-M "P -1"
_symmetry_group_IT_number 2
_symmetry_cell_setting 'triclinic'
loop_
_space_group_symop_operation_xyz
x,y,z
-x,-y,-z
loop_
_atom_site_type_symbol
_atom_site_label
_atom_site_fract_x
_atom_site_fract_y
_atom_site_fract_z
Si Si1 0.618840 0.850772 0.709145
Si Si2 0.825533 0.300244 0.069811
Si Si3 0.498440 0.296687 0.879005
Si Si4 0.571176 0.137738 0.989526
Si Si5 0.880070 0.367470 0.883753
Si Si6 0.077056 0.932345 0.771138
Si Si7 0.183825 0.393560 0.289114
O O1 0.505040 0.788553 0.435056
O O2 0.797255 0.685252 0.655291
O O3 0.500000 0.000000 0.000000
O O4 0.664908 0.933070 0.749019
O O5 0.865061 0.415552 0.405035
O O6 0.633859 0.347849 0.056227
O O7 0.811367 0.342429 0.948329
O O8 0.989032 0.096284 0.868396
O O9 0.567413 0.156657 0.831176
O O10 0.296316 0.467166 0.057984
O O11 0.703441 0.177981 0.242733
O O12 0.372905 0.266771 0.129161
O O13 0.970467 0.195221 0.549252
O O14 0.026754 0.405560 0.088380
O O15 0.000000 0.000000 0.000000
#
# Coordination Sequence:
#
# PCOD8026983 Si02
#       7
#     2   2   2   2   2   2   2
#     4  10  24  43  74 106 144 188 245 293 361 427
#     4  12  26  48  76 106 149 187 245 302 361 432
#     4  12  26  45  75 108 148 192 243 292 374 424
#     4  11  26  47  74 102 150 190 238 299 364 427
#     4  12  28  46  74 110 146 194 243 297 358 437
#     4  12  28  47  73 107 147 186 247 297 364 425
#     4  11  26  49  76 107 145 191 243 299 363 432
#
# _framework density 23.584403999999999
#
# number of rings (size 3 to 8) (size 9 to 14) (size 15 to 20)
#    0.000    0.571    2.857    3.429   12.000    2.857 
#    0.000    0.000    0.000    0.000    0.000    0.000 
#    0.000    0.000    0.000    0.000    0.000    0.000 
#
# Total GULP energy -173661.136952 kJ/mol
# GULP energy per Si atom -12404.366925 kJ/mol
# Density = 2.353072 g / cm^3
# Si number density = 23.584404 Si / 1000 Ang^3
#
#
#
# Elastic Constant Matrix: (Units=GPa)
#
#
# Indices 1 2 3 4 5 6 
#
# 1 106.4013 34.4014 44.3007 -10.2937 16.7848 -15.8855
# 2 34.4014 124.7506 49.7316 -3.1882 18.1699 -14.2681
# 3 44.3007 49.7316 189.2047 -2.0834 21.2350 -7.0221
# 4 -10.2937 -3.1882 -2.0834 32.1836 -2.5759 5.5132
# 5 16.7848 18.1699 21.2350 -2.5759 32.4283 -3.1062
# 6 -15.8855 -14.2681 -7.0221 5.5132 -3.1062 42.6385
#
#
#
# Elastic Compliance Matrix: (Units=1/GPa)
#
#
# Indices 1 2 3 4 5 6 
#
# 1 0.011966 -0.001638 -0.001829 0.002748 -0.003573 0.002993
# 2 -0.001638 0.009905 -0.001764 -0.000304 -0.003360 0.002208
# 3 -0.001829 -0.001764 0.006423 -0.000476 -0.002339 -0.000323
# 4 0.002748 -0.000304 -0.000476 0.032556 0.001333 -0.003269
# 5 -0.003573 -0.003360 -0.002339 0.001333 0.036171 -0.000378
# 6 0.002993 0.002208 -0.000323 -0.003269 -0.000378 0.025649
#
#
# Mechanical properties :
#
#
# Convention : Reuss Voigt Hill
#
# Bulk Modulus (GPa) = 56.08015 75.24711 65.66363
# Shear Modulus (GPa) = 35.95188 40.91162 38.43175
#
# Velocity S-wave (km/s) = 3.90858 4.16948 4.04114
# Velocity P-wave (km/s) = 6.64827 7.42658 7.04818
#
# Compressibility (1/GPa) = 0.01783162
#
# Stress axis : x y z
#
# Youngs Moduli (GPa) = 83.57236 100.95819 155.70102
#
# Poissons Ratio (x) = 0.16533 0.28475
# Poissons Ratio (y) = 0.13686 0.27472
# Poissons Ratio (z) = 0.15284 0.17813
#
# Static dielectric constant tensor:
#      x y z
#    x 4.269360 0.244700 0.264040 
#    y 0.244700 4.774500 0.143080 
#    z 0.264040 0.143080 4.342260 
# 
# 
# High freq. dielectric constant tensor:
#      x y z
#    x 1.929930 0.001210 0.011770 
#    y 0.001210 1.950250 0.001510 
#    z 0.011770 0.001510 1.937670 
# 
# From -- ./inp_files/158163.got.cif
#   From: 2010.06.25/outbox.cif.g09.slc.cpg/sg2_80_cif.got.tgz:158163.got - 2010.06.27 13:26:56.
