data_PCOD8026609
_publ_section_title
;
Structure prediction by ZEFSAII (Michael W. Deem and Ramdas Pophale) SiO2 
 PCOD8026609
Probable space group: P -1
;
_chemical_formula_sum "Si O2"
_cell_formula_units_Z 14
_cell_length_a 5.369507
_cell_length_b 8.310098
_cell_length_c 24.715893
_cell_angle_alpha 37.348396
_cell_angle_beta 66.999579
_cell_angle_gamma 56.113356
_cell_volume 552.385968
_symmetry_space_group_name_H-M "P -1"
_symmetry_group_IT_number 2
_symmetry_cell_setting 'triclinic'
loop_
_space_group_symop_operation_xyz
x,y,z
-x,-y,-z
loop_
_atom_site_type_symbol
_atom_site_label
_atom_site_fract_x
_atom_site_fract_y
_atom_site_fract_z
Si Si1 0.042880 0.366788 0.939171
Si Si2 0.857219 0.099360 0.224977
Si Si3 0.654508 0.060453 0.522277
Si Si4 0.684740 0.282458 0.637650
Si Si5 0.557846 0.146831 0.037770
Si Si6 0.272793 0.235716 0.296492
Si Si7 0.729062 0.822658 0.214308
O O1 0.972146 0.693623 0.835708
O O2 0.232622 0.124982 0.944237
O O3 0.234185 0.323739 0.989868
O O4 0.725304 0.356580 0.978804
O O5 0.517402 0.282157 0.226759
O O6 0.872046 0.008085 0.185322
O O7 0.019733 0.802009 0.327298
O O8 0.440357 0.401542 0.465110
O O9 0.500000 0.000000 0.500000
O O10 0.629747 0.847260 0.627413
O O11 0.000000 0.000000 0.500000
O O12 0.427755 0.291854 0.697528
O O13 0.784333 0.033267 0.649771
O O14 0.504215 0.027420 0.132102
O O15 0.981669 0.546883 0.234869
#
# Coordination Sequence:
#
# PCOD8026609 Si02
#       7
#     2   2   2   2   2   2   2
#     4  10  24  44  67 106 143 188 244 294 363 424
#     4  11  27  43  74 107 143 191 244 299 358 434
#     4  12  27  49  78 110 147 189 242 294 361 433
#     4  11  26  47  73 108 145 190 243 293 363 434
#     4  10  24  42  71 101 143 194 237 300 357 427
#     4  11  26  47  75 105 147 192 236 301 361 428
#     4  11  25  45  72 106 143 191 244 297 361 425
#
# _framework density 25.344597
#
# number of rings (size 3 to 8) (size 9 to 14) (size 15 to 20)
#    0.000    1.143    1.429    2.143   16.000    4.000 
#    0.000    0.000    0.000    0.000    0.000    0.000 
#    0.000    0.000    0.000    0.000    0.000    0.000 
#
# Total GULP energy -173627.793545 kJ/mol
# GULP energy per Si atom -12401.985253 kJ/mol
# Density = 2.528691 g / cm^3
# Si number density = 25.344597 Si / 1000 Ang^3
#
#
#
# Elastic Constant Matrix: (Units=GPa)
#
#
# Indices 1 2 3 4 5 6 
#
# 1 113.6494 30.7890 8.6237 8.1586 9.2194 25.4767
# 2 30.7890 104.1778 6.7818 3.3116 -8.2838 -3.2783
# 3 8.6237 6.7818 90.1258 1.5007 12.4272 15.7433
# 4 8.1586 3.3116 1.5007 29.0667 8.6280 2.0205
# 5 9.2194 -8.2838 12.4272 8.6280 42.2688 1.1491
# 6 25.4767 -3.2783 15.7433 2.0205 1.1491 34.1229
#
#
#
# Elastic Compliance Matrix: (Units=1/GPa)
#
#
# Indices 1 2 3 4 5 6 
#
# 1 0.012544 -0.004352 0.001414 -0.001363 -0.003448 -0.010239
# 2 -0.004352 0.011531 -0.001872 -0.001522 0.003929 0.005179
# 3 0.001414 -0.001872 0.012947 0.000975 -0.004487 -0.007115
# 4 -0.001363 -0.001522 0.000975 0.037351 -0.007870 -0.001525
# 5 -0.003448 0.003929 -0.004487 -0.007870 0.027982 0.004546
# 6 -0.010239 0.005179 -0.007115 -0.001525 0.004546 0.040668
#
#
# Mechanical properties :
#
#
# Convention : Reuss Voigt Hill
#
# Bulk Modulus (GPa) = 36.49672 44.48245 40.48959
# Shear Modulus (GPa) = 30.90666 38.54227 34.72447
#
# Velocity S-wave (km/s) = 3.49586 3.90388 3.70549
# Velocity P-wave (km/s) = 5.54312 6.15707 5.85815
#
# Compressibility (1/GPa) = 0.02739972
#
# Stress axis : x y z
#
# Youngs Moduli (GPa) = 79.72223 86.72324 77.24030
#
# Poissons Ratio (x) = 0.37744 -0.10921
# Poissons Ratio (y) = 0.34697 0.14462
# Poissons Ratio (z) = -0.11272 0.16238
#
# Static dielectric constant tensor:
#      x y z
#    x 4.744310 0.130190 0.162650 
#    y 0.130190 4.687580 -0.082700 
#    z 0.162650 -0.082700 4.625970 
# 
# 
# High freq. dielectric constant tensor:
#      x y z
#    x 2.009960 0.003390 0.017100 
#    y 0.003390 2.030030 -0.002310 
#    z 0.017100 -0.002310 2.012200 
# 
# From -- ./inp_files/603715.got.cif
#   From: 2010.06.25/outbox.cif.g09.slc.cpg/sg2_302_cif.got.tgz:603715.got - 2010.06.27 13:26:56.
