data_PCOD8026452
_publ_section_title
;
Structure prediction by ZEFSAII (Michael W. Deem and Ramdas Pophale) SiO2 
 PCOD8026452
Probable space group: P -1
;
_chemical_formula_sum "Si O2"
_cell_formula_units_Z 16
_cell_length_a 8.916344
_cell_length_b 22.010443
_cell_length_c 6.768748
_cell_angle_alpha 132.072443
_cell_angle_beta 50.905559
_cell_angle_gamma 115.199416
_cell_volume 765.274932
_symmetry_space_group_name_H-M "P -1"
_symmetry_group_IT_number 2
_symmetry_cell_setting 'triclinic'
loop_
_space_group_symop_operation_xyz
x,y,z
-x,-y,-z
loop_
_atom_site_type_symbol
_atom_site_label
_atom_site_fract_x
_atom_site_fract_y
_atom_site_fract_z
Si Si1 0.574176 0.911453 0.301421
Si Si2 0.798682 0.487424 0.740798
Si Si3 0.602961 0.434019 0.405635
Si Si4 0.839960 0.825173 0.588807
Si Si5 0.190434 0.826717 0.591003
Si Si6 0.126676 0.641567 0.276802
Si Si7 0.929749 0.912019 0.300169
Si Si8 0.248391 0.352046 0.613876
O O1 0.399036 0.860360 0.429658
O O2 0.744026 0.920677 0.337035
O O3 0.500000 0.000000 0.500000
O O4 0.659181 0.867535 0.940470
O O5 0.636312 0.473625 0.679052
O O6 0.807899 0.406104 0.688296
O O7 0.000000 0.500000 0.500000
O O8 0.753693 0.566787 0.076820
O O9 0.500000 0.500000 0.500000
O O10 0.466596 0.352603 0.350420
O O11 0.802633 0.404885 0.080851
O O12 0.863508 0.857689 0.420717
O O13 0.797073 0.728354 0.396286
O O14 0.040343 0.841750 0.571220
O O15 0.215125 0.731822 0.416450
O O16 0.109969 0.871164 0.949692
O O17 0.895031 0.643881 0.447054
O O18 0.000000 0.000000 0.500000
#
# Coordination Sequence:
#
# PCOD8026452 Si02
#       8
#     2   2   2   2   2   2   2   2
#     4  11  23  43  68  95 127 165 208 256 314 381
#     4  12  24  40  64  91 123 170 213 255 313 369
#     4  12  24  41  62  88 122 167 215 259 309 365
#     4  10  24  43  64  95 130 164 207 260 315 372
#     4  10  24  42  65  95 129 166 206 262 313 371
#     4  11  24  43  63  91 128 164 211 261 311 367
#     4  11  24  42  66  97 126 166 208 254 316 380
#     4  11  23  43  63  91 128 165 208 263 311 367
#
# _framework density 20.907519000000001
#
# number of rings (size 3 to 8) (size 9 to 14) (size 15 to 20)
#    0.000    1.000    2.500    3.750    1.750    6.000 
#    2.250    0.000    0.000    0.000    0.000    0.000 
#    0.000    0.000    0.000    0.000    0.000    0.000 
#
# Total GULP energy -198437.068397 kJ/mol
# GULP energy per Si atom -12402.316775 kJ/mol
# Density = 2.085993 g / cm^3
# Si number density = 20.907519 Si / 1000 Ang^3
#
#
#
# Elastic Constant Matrix: (Units=GPa)
#
#
# Indices 1 2 3 4 5 6 
#
# 1 98.8637 58.6589 26.6909 -2.8049 6.0854 2.8637
# 2 58.6589 142.7521 43.3198 5.6327 7.7427 -2.9725
# 3 26.6909 43.3198 79.9395 1.7028 0.1199 -6.1789
# 4 -2.8049 5.6327 1.7028 42.2451 1.8656 -3.4829
# 5 6.0854 7.7427 0.1199 1.8656 31.9036 -5.5453
# 6 2.8637 -2.9725 -6.1789 -3.4829 -5.5453 46.1739
#
#
#
# Elastic Compliance Matrix: (Units=1/GPa)
#
#
# Indices 1 2 3 4 5 6 
#
# 1 0.013883 -0.005090 -0.002029 0.001633 -0.001770 -0.001550
# 2 -0.005090 0.010420 -0.003899 -0.001492 -0.001425 0.000181
# 3 -0.002029 -0.003899 0.015465 -0.000135 0.001654 0.002133
# 4 0.001633 -0.001492 -0.000135 0.024155 -0.001105 0.001474
# 5 -0.001770 -0.001425 0.001654 -0.001105 0.032798 0.004095
# 6 -0.001550 0.000181 0.002133 0.001474 0.004095 0.022653
#
#
# Mechanical properties :
#
#
# Convention : Reuss Voigt Hill
#
# Bulk Modulus (GPa) = 56.39575 64.32160 60.35868
# Shear Modulus (GPa) = 33.93974 36.92356 35.43165
#
# Velocity S-wave (km/s) = 4.03342 4.20699 4.12112
# Velocity P-wave (km/s) = 6.98024 7.37767 7.18170
#
# Compressibility (1/GPa) = 0.01773183
#
# Stress axis : x y z
#
# Youngs Moduli (GPa) = 72.03223 95.97205 64.66100
#
# Poissons Ratio (x) = 0.48845 0.13121
# Poissons Ratio (y) = 0.36661 0.25213
# Poissons Ratio (z) = 0.14616 0.37422
#
# Static dielectric constant tensor:
#      x y z
#    x 3.853210 0.028380 -0.011580 
#    y 0.028380 4.217830 -0.040010 
#    z -0.011580 -0.040010 4.093020 
# 
# 
# High freq. dielectric constant tensor:
#      x y z
#    x 1.826950 0.008840 -0.007410 
#    y 0.008840 1.834340 -0.001710 
#    z -0.007410 -0.001710 1.826310 
# 
# From -- ./inp_files/53902.got.cif
#   From: 2010.06.25/outbox.cif.g09.slc.cpg/sg2_27_cif.got.tgz:53902.got - 2010.06.27 13:26:56.
