data_PCOD8026284
_publ_section_title
;
Structure prediction by ZEFSAII (Michael W. Deem and Ramdas Pophale) SiO2 
 PCOD8026284
Probable space group: P -1
;
_chemical_formula_sum "Si O2"
_cell_formula_units_Z 16
_cell_length_a 6.686805
_cell_length_b 9.018820
_cell_length_c 20.419380
_cell_angle_alpha 55.895067
_cell_angle_beta 56.173996
_cell_angle_gamma 47.594130
_cell_volume 720.071473
_symmetry_space_group_name_H-M "P -1"
_symmetry_group_IT_number 2
_symmetry_cell_setting 'triclinic'
loop_
_space_group_symop_operation_xyz
x,y,z
-x,-y,-z
loop_
_atom_site_type_symbol
_atom_site_label
_atom_site_fract_x
_atom_site_fract_y
_atom_site_fract_z
Si Si1 0.096139 0.323350 0.201260
Si Si2 0.746615 0.046492 0.948032
Si Si3 0.720674 0.058872 0.574464
Si Si4 0.642681 0.258860 0.051968
Si Si5 0.818616 0.114211 0.687141
Si Si6 0.807101 0.619967 0.687142
Si Si7 0.130399 0.354008 0.574464
Si Si8 0.501345 0.620745 0.201260
O O1 0.408895 0.233131 0.138274
O O2 0.063628 0.430230 0.251153
O O3 0.842508 0.504871 0.157494
O O4 0.043324 0.131895 0.261983
O O5 0.685439 0.219704 0.861727
O O6 0.731992 0.134001 0.000001
O O7 0.067796 0.839869 0.932204
O O8 0.500000 0.000000 0.000000
O O9 0.703341 0.159807 0.623133
O O10 0.466493 0.236876 0.533507
O O11 0.673064 0.865619 0.637227
O O12 0.000000 0.000000 0.500000
O O13 0.500000 0.500000 0.000000
O O14 0.565934 0.254992 0.748847
O O15 0.052487 0.175905 0.637226
O O16 0.567278 0.562808 0.738018
O O17 0.050388 0.486279 0.623134
O O18 0.000000 0.500000 0.500000
#
# Coordination Sequence:
#
# PCOD8026284 Si02
#       8
#     2   2   2   2   2   2   2   2
#     4  11  23  41  66  93 123 162 207 255 308 366
#     4  11  25  43  64  93 128 165 206 253 306 365
#     4  11  24  42  64  91 125 164 207 256 309 367
#     4  11  25  43  64  93 128 165 206 253 306 365
#     4  10  24  41  63  92 126 162 205 255 310 368
#     4  10  24  41  63  92 126 162 205 255 310 368
#     4  11  24  42  64  91 125 164 207 256 309 367
#     4  11  23  41  66  93 123 162 207 255 308 366
#
# _framework density 22.220015
#
# number of rings (size 3 to 8) (size 9 to 14) (size 15 to 20)
#    0.000    1.250    0.000    4.500    0.000   20.000 
#    0.000    0.000    0.000    0.000    0.000    0.000 
#    0.000    0.000    0.000    0.000    0.000    0.000 
#
# Total GULP energy -198381.386480 kJ/mol
# GULP energy per Si atom -12398.836655 kJ/mol
# Density = 2.216944 g / cm^3
# Si number density = 22.220015 Si / 1000 Ang^3
#
#
#
# Elastic Constant Matrix: (Units=GPa)
#
#
# Indices 1 2 3 4 5 6 
#
# 1 112.8209 84.2056 45.7600 12.2037 11.8388 -24.9636
# 2 84.2056 108.4933 44.1115 12.9505 11.3105 -20.9718
# 3 45.7600 44.1115 114.1650 14.4617 13.6310 -16.1718
# 4 12.2037 12.9505 14.4617 28.7668 -7.5061 2.7814
# 5 11.8388 11.3105 13.6310 -7.5061 29.4882 3.1531
# 6 -24.9636 -20.9718 -16.1718 2.7814 3.1531 64.2713
#
#
#
# Elastic Compliance Matrix: (Units=1/GPa)
#
#
# Indices 1 2 3 4 5 6 
#
# 1 0.022522 -0.015334 -0.001798 -0.003002 -0.003478 0.003592
# 2 -0.015334 0.022821 -0.001630 -0.003861 -0.002976 0.001394
# 3 -0.001798 -0.001630 0.011966 -0.006323 -0.006045 0.002351
# 4 -0.003002 -0.003861 -0.006323 0.046357 0.018148 -0.006913
# 5 -0.003478 -0.002976 -0.006045 0.018148 0.044592 -0.006816
# 6 0.003592 0.001394 0.002351 -0.006913 -0.006816 0.018634
#
#
# Mechanical properties :
#
#
# Convention : Reuss Voigt Hill
#
# Bulk Modulus (GPa) = 50.54297 75.95926 63.25112
# Shear Modulus (GPa) = 23.69548 35.26540 29.48044
#
# Velocity S-wave (km/s) = 3.26912 3.98816 3.64641
# Velocity P-wave (km/s) = 6.08651 7.44759 6.80118
#
# Compressibility (1/GPa) = 0.01978514
#
# Stress axis : x y z
#
# Youngs Moduli (GPa) = 44.40073 43.81850 83.57354
#
# Poissons Ratio (x) = 0.67190 0.15029
# Poissons Ratio (y) = 0.68083 0.13622
# Poissons Ratio (z) = 0.07984 0.07142
#
# Static dielectric constant tensor:
#      x y z
#    x 4.243050 0.003960 -0.014850 
#    y 0.003960 4.243710 -0.013450 
#    z -0.014850 -0.013450 4.095070 
# 
# 
# High freq. dielectric constant tensor:
#      x y z
#    x 1.884850 0.004700 -0.000080 
#    y 0.004700 1.885220 -0.000010 
#    z -0.000080 -0.000010 1.875500 
# 
# From -- ./inp_files/582324.got.cif
#   From: 2010.06.25/outbox.cif.g09.slc.cpg/sg2_292_cif.got.tgz:582324.got - 2010.06.27 13:26:56.
