data_PCOD8026818
_publ_section_title
;
Structure prediction by ZEFSAII (Michael W. Deem and Ramdas Pophale) SiO2 
 PCOD8026818
Probable space group: P -1
;
_chemical_formula_sum "Si O2"
_cell_formula_units_Z 14
_cell_length_a 24.140030
_cell_length_b 6.505389
_cell_length_c 14.855233
_cell_angle_alpha 106.033768
_cell_angle_beta 20.093784
_cell_angle_gamma 95.524271
_cell_volume 669.732543
_symmetry_space_group_name_H-M "P -1"
_symmetry_group_IT_number 2
_symmetry_cell_setting 'triclinic'
loop_
_space_group_symop_operation_xyz
x,y,z
-x,-y,-z
loop_
_atom_site_type_symbol
_atom_site_label
_atom_site_fract_x
_atom_site_fract_y
_atom_site_fract_z
Si Si1 0.925531 0.396498 0.179088
Si Si2 0.290713 0.084417 0.358194
Si Si3 0.048896 0.038642 0.572515
Si Si4 0.101794 0.620885 0.313199
Si Si5 0.365037 0.789321 0.727352
Si Si6 0.467943 0.149361 0.691097
Si Si7 0.733381 0.088510 0.425055
O O1 0.828841 0.616760 0.425300
O O2 0.772063 0.316351 0.378976
O O3 0.000000 0.500000 0.000000
O O4 0.107425 0.145746 0.902098
O O5 0.199861 0.988972 0.412010
O O6 0.280411 0.971195 0.456549
O O7 0.500000 0.000000 0.000000
O O8 0.025383 0.243736 0.561910
O O9 0.128052 0.789388 0.365790
O O10 0.848470 0.133677 0.933155
O O11 0.000000 0.500000 0.500000
O O12 0.301454 0.415193 0.950423
O O13 0.500000 0.500000 0.500000
O O14 0.378675 0.896393 0.623114
O O15 0.412133 0.935431 0.749568
O O16 0.539703 0.156335 0.682287
#
# Coordination Sequence:
#
# PCOD8026818 Si02
#       7
#     2   2   2   2   2   2   2
#     4   9  22  44  63  93 127 175 219 261 334 379
#     4  11  27  43  64  99 133 176 222 269 330 390
#     4  11  26  44  67  92 137 172 219 272 323 395
#     4  11  24  45  66  94 128 178 212 266 334 384
#     4  11  24  42  65 102 129 170 219 271 330 380
#     4  11  25  41  70  99 131 167 223 270 328 398
#     4  10  24  43  68  95 130 174 217 274 329 391
#
# _framework density 20.903866000000001
#
# number of rings (size 3 to 8) (size 9 to 14) (size 15 to 20)
#    0.000    1.429    2.857    0.000   12.000    2.857 
#    0.000    0.000    0.000    0.000    0.000    0.000 
#    0.000    0.000    0.000    0.000    0.000    0.000 
#
# Total GULP energy -173529.293809 kJ/mol
# GULP energy per Si atom -12394.949558 kJ/mol
# Density = 2.085629 g / cm^3
# Si number density = 20.903866 Si / 1000 Ang^3
#
#
#
# Elastic Constant Matrix: (Units=GPa)
#
#
# Indices 1 2 3 4 5 6 
#
# 1 140.8473 53.0039 30.8996 -13.6715 -14.2708 3.7399
# 2 53.0039 128.6836 43.6191 -7.5712 -3.3823 0.4056
# 3 30.8996 43.6191 101.5281 -13.7632 6.1561 1.4840
# 4 -13.6715 -7.5712 -13.7632 41.7742 5.4936 0.7616
# 5 -14.2708 -3.3823 6.1561 5.4936 29.5670 -4.5779
# 6 3.7399 0.4056 1.4840 0.7616 -4.5779 18.5342
#
#
#
# Elastic Compliance Matrix: (Units=1/GPa)
#
#
# Indices 1 2 3 4 5 6 
#
# 1 0.009147 -0.003066 -0.001505 0.001430 0.003999 -0.000729
# 2 -0.003066 0.010234 -0.003573 -0.000427 0.000647 0.000858
# 3 -0.001505 -0.003573 0.012661 0.003693 -0.004761 -0.001959
# 4 0.001430 -0.000427 0.003693 0.026322 -0.005485 -0.003011
# 5 0.003999 0.000647 -0.004761 -0.005485 0.039306 0.009494
# 6 -0.000729 0.000858 -0.001959 -0.003011 0.009494 0.056708
#
#
# Mechanical properties :
#
#
# Convention : Reuss Voigt Hill
#
# Bulk Modulus (GPa) = 63.47688 69.56715 66.52202
# Shear Modulus (GPa) = 28.42244 34.21084 31.31664
#
# Velocity S-wave (km/s) = 3.69138 4.04985 3.87476
# Velocity P-wave (km/s) = 6.97140 7.43103 7.20488
#
# Compressibility (1/GPa) = 0.01575377
#
# Stress axis : x y z
#
# Youngs Moduli (GPa) = 109.32394 97.71010 78.98552
#
# Poissons Ratio (x) = 0.29959 0.11884
# Poissons Ratio (y) = 0.33520 0.28225
# Poissons Ratio (z) = 0.16449 0.34916
#
# Static dielectric constant tensor:
#      x y z
#    x 3.427420 0.119070 0.367100 
#    y 0.119070 4.017430 0.010450 
#    z 0.367100 0.010450 3.551410 
# 
# 
# High freq. dielectric constant tensor:
#      x y z
#    x 1.802230 0.002290 0.007790 
#    y 0.002290 1.836780 -0.000650 
#    z 0.007790 -0.000650 1.830450 
# 
# From -- ./inp_files/60641.got.cif
#   From: 2010.06.25/outbox.cif.g09.slc.cpg/sg2_31_cif.got.tgz:60641.got - 2010.06.27 13:26:56.
