data_PCOD8026986
_publ_section_title
;
Structure prediction by ZEFSAII (Michael W. Deem and Ramdas Pophale) SiO2 
 PCOD8026986
Probable space group: P -1
;
_chemical_formula_sum "Si O2"
_cell_formula_units_Z 14
_cell_length_a 9.203576
_cell_length_b 5.148824
_cell_length_c 27.966430
_cell_angle_alpha 63.663299
_cell_angle_beta 30.181715
_cell_angle_gamma 59.554804
_cell_volume 574.350385
_symmetry_space_group_name_H-M "P -1"
_symmetry_group_IT_number 2
_symmetry_cell_setting 'triclinic'
loop_
_space_group_symop_operation_xyz
x,y,z
-x,-y,-z
loop_
_atom_site_type_symbol
_atom_site_label
_atom_site_fract_x
_atom_site_fract_y
_atom_site_fract_z
Si Si1 0.293375 0.245979 0.006360
Si Si2 0.132795 0.064259 0.382559
Si Si3 0.339333 0.700670 0.774579
Si Si4 0.692241 0.393644 0.552244
Si Si5 0.308383 0.964150 0.661782
Si Si6 0.666365 0.111638 0.067726
Si Si7 0.788074 0.079371 0.728564
O O1 0.947482 0.269358 0.113198
O O2 0.379138 0.554452 0.967474
O O3 0.500000 0.000000 0.000000
O O4 0.371669 0.137010 0.939030
O O5 0.484708 0.056712 0.280362
O O6 0.012688 0.071108 0.361875
O O7 0.930970 0.360931 0.443446
O O8 0.122252 0.767454 0.440390
O O9 0.243548 0.759738 0.741049
O O10 0.570837 0.382425 0.744828
O O11 0.540105 0.743270 0.577626
O O12 0.441817 0.227864 0.621161
O O13 0.003413 0.120401 0.707151
O O14 0.419157 0.130006 0.177555
O O15 0.000000 0.000000 0.000000
#
# Coordination Sequence:
#
# PCOD8026986 Si02
#       7
#     2   2   2   2   2   2   2
#     4  12  27  48  74 103 142 188 234 293 353 419
#     4  10  24  43  75  97 141 188 227 287 354 409
#     4  11  25  46  70 102 140 185 236 286 353 418
#     4  10  24  47  69 102 141 182 234 283 349 419
#     4  11  26  44  69 103 141 179 234 291 341 419
#     4  12  26  46  70 103 142 182 234 291 351 421
#     4  12  26  43  73 102 141 186 233 289 355 411
#
# _framework density 24.375364000000001
#
# number of rings (size 3 to 8) (size 9 to 14) (size 15 to 20)
#    0.000    0.857    2.857    2.571    6.000    5.143 
#    0.000    0.000    0.000    0.000    0.000    0.000 
#    0.000    0.000    0.000    0.000    0.000    0.000 
#
# Total GULP energy -173606.886283 kJ/mol
# GULP energy per Si atom -12400.491877 kJ/mol
# Density = 2.431988 g / cm^3
# Si number density = 24.375364 Si / 1000 Ang^3
#
#
#
# Elastic Constant Matrix: (Units=GPa)
#
#
# Indices 1 2 3 4 5 6 
#
# 1 135.6403 18.8270 28.5260 -0.8213 10.1789 -21.2348
# 2 18.8270 65.1798 14.1931 6.0096 7.1146 -7.1693
# 3 28.5260 14.1931 100.7071 -7.4498 15.1743 -8.2697
# 4 -0.8213 6.0096 -7.4498 30.8416 5.0243 2.6376
# 5 10.1789 7.1146 15.1743 5.0243 37.2511 1.4172
# 6 -21.2348 -7.1693 -8.2697 2.6376 1.4172 34.5968
#
#
#
# Elastic Compliance Matrix: (Units=1/GPa)
#
#
# Indices 1 2 3 4 5 6 
#
# 1 0.008792 -0.001477 -0.001647 -0.000018 -0.001628 0.004764
# 2 -0.001477 0.016965 -0.001782 -0.003714 -0.001706 0.002536
# 3 -0.001647 -0.001782 0.011718 0.003761 -0.004541 0.001320
# 4 -0.000018 -0.003714 0.003761 0.035146 -0.005469 -0.002337
# 5 -0.001628 -0.001706 -0.004541 -0.005469 0.030327 -0.003264
# 6 0.004764 0.002536 0.001320 -0.002337 -0.003264 0.032982
#
#
# Mechanical properties :
#
#
# Convention : Reuss Voigt Hill
#
# Bulk Modulus (GPa) = 36.15054 47.17995 41.66524
# Shear Modulus (GPa) = 32.26588 36.53664 34.40126
#
# Velocity S-wave (km/s) = 3.64223 3.87578 3.76082
# Velocity P-wave (km/s) = 5.70532 6.27906 5.99905
#
# Compressibility (1/GPa) = 0.02766210
#
# Stress axis : x y z
#
# Youngs Moduli (GPa) = 113.74194 58.94656 85.33755
#
# Poissons Ratio (x) = 0.08709 0.14054
# Poissons Ratio (y) = 0.16805 0.15206
# Poissons Ratio (z) = 0.18732 0.10504
#
# Static dielectric constant tensor:
#      x y z
#    x 4.274270 -0.197860 0.169150 
#    y -0.197860 4.127810 -0.001700 
#    z 0.169150 -0.001700 4.542000 
# 
# 
# High freq. dielectric constant tensor:
#      x y z
#    x 1.974260 -0.001500 0.005380 
#    y -0.001500 1.959520 -0.005990 
#    z 0.005380 -0.005990 1.977060 
# 
# From -- ./inp_files/39590.got.cif
#   From: 2010.06.25/outbox.cif.g09.slc.cpg/sg2_20_cif.got.tgz:39590.got - 2010.06.27 13:26:56.
