data_PCOD8026415
_publ_section_title
;
Structure prediction by ZEFSAII (Michael W. Deem and Ramdas Pophale) SiO2 
 PCOD8026415
Probable space group: P -1
;
_chemical_formula_sum "Si O2"
_cell_formula_units_Z 14
_cell_length_a 18.884006
_cell_length_b 15.968240
_cell_length_c 16.794340
_cell_angle_alpha 28.028192
_cell_angle_beta 159.763034
_cell_angle_gamma 158.229425
_cell_volume 647.148572
_symmetry_space_group_name_H-M "P -1"
_symmetry_group_IT_number 2
_symmetry_cell_setting 'triclinic'
loop_
_space_group_symop_operation_xyz
x,y,z
-x,-y,-z
loop_
_atom_site_type_symbol
_atom_site_label
_atom_site_fract_x
_atom_site_fract_y
_atom_site_fract_z
Si Si1 0.737269 0.344303 0.987453
Si Si2 0.974289 0.575387 0.494461
Si Si3 0.581964 0.840052 0.710989
Si Si4 0.715203 0.966109 0.345193
Si Si5 0.018257 0.850068 0.857082
Si Si6 0.944422 0.986102 0.824771
Si Si7 0.588431 0.200798 0.117807
O O1 0.534746 0.249747 0.781258
O O2 0.964846 0.610767 0.986492
O O3 0.587454 0.309820 0.941763
O O4 0.844875 0.195893 0.233878
O O5 0.064469 0.824178 0.379435
O O6 0.175853 0.589641 0.756176
O O7 0.000000 0.500000 0.500000
O O8 0.679607 0.414978 0.348098
O O9 0.500000 0.000000 0.500000
O O10 0.711458 0.850506 0.756132
O O11 0.775993 0.900001 0.936682
O O12 0.902378 0.903036 0.617140
O O13 0.631545 0.014364 0.299327
O O14 0.896741 0.826813 0.834940
O O15 0.321216 0.065527 0.998238
#
# Coordination Sequence:
#
# PCOD8026415 Si02
#       7
#     2   2   2   2   2   2   2
#     4   9  22  44  67  93 138 166 215 276 320 390
#     4  12  23  43  67  89 134 170 206 275 316 374
#     4  11  25  42  66  90 128 170 219 262 318 384
#     4   9  21  48  60 101 132 165 225 263 327 392
#     4  12  23  41  70  96 132 172 216 266 330 390
#     4  11  25  42  62 100 122 171 220 257 324 391
#     4  10  24  42  63 100 129 169 224 261 324 396
#
# _framework density 21.633362000000002
#
# number of rings (size 3 to 8) (size 9 to 14) (size 15 to 20)
#    0.857    0.571    2.857    1.714    2.000    2.286 
#    2.571    0.000    0.000    0.000    0.000    0.000 
#    0.000    0.000    0.000    0.000    0.000    0.000 
#
# Total GULP energy -173482.510606 kJ/mol
# GULP energy per Si atom -12391.607900 kJ/mol
# Density = 2.158412 g / cm^3
# Si number density = 21.633362 Si / 1000 Ang^3
#
#
#
# Elastic Constant Matrix: (Units=GPa)
#
#
# Indices 1 2 3 4 5 6 
#
# 1 77.2340 24.5715 34.7549 25.7165 -13.4322 -2.9522
# 2 24.5715 101.7746 37.9737 16.0253 -7.1019 6.6701
# 3 34.7549 37.9737 101.3266 17.6545 -13.1100 6.5762
# 4 25.7165 16.0253 17.6545 40.4563 -2.5323 0.6043
# 5 -13.4322 -7.1019 -13.1100 -2.5323 28.6649 6.8011
# 6 -2.9522 6.6701 6.5762 0.6043 6.8011 31.3880
#
#
#
# Elastic Compliance Matrix: (Units=1/GPa)
#
#
# Indices 1 2 3 4 5 6 
#
# 1 0.019448 -0.001461 -0.003802 -0.009797 0.005699 0.001890
# 2 -0.001461 0.011992 -0.003314 -0.002275 0.001088 -0.002183
# 3 -0.003802 -0.003314 0.013499 -0.001848 0.004204 -0.003357
# 4 -0.009797 -0.002275 -0.001848 0.032457 -0.003133 0.000003
# 5 0.005699 0.001088 0.004204 -0.003133 0.041740 -0.009560
# 6 0.001890 -0.002183 -0.003357 0.000003 -0.009560 0.035276
#
#
# Mechanical properties :
#
#
# Convention : Reuss Voigt Hill
#
# Bulk Modulus (GPa) = 35.98955 52.77061 44.38008
# Shear Modulus (GPa) = 27.65061 32.30419 29.97740
#
# Velocity S-wave (km/s) = 3.57900 3.86846 3.72654
# Velocity P-wave (km/s) = 5.80958 6.66329 6.25103
#
# Compressibility (1/GPa) = 0.02778584
#
# Stress axis : x y z
#
# Youngs Moduli (GPa) = 51.41800 83.38807 74.07917
#
# Poissons Ratio (x) = 0.12179 0.28164
# Poissons Ratio (y) = 0.07510 0.24553
# Poissons Ratio (z) = 0.19548 0.27639
#
# Static dielectric constant tensor:
#      x y z
#    x 3.744130 -0.077860 -0.192260 
#    y -0.077860 4.300290 0.251310 
#    z -0.192260 0.251310 4.007930 
# 
# 
# High freq. dielectric constant tensor:
#      x y z
#    x 1.846120 -0.008330 -0.019750 
#    y -0.008330 1.845730 -0.000410 
#    z -0.019750 -0.000410 1.845830 
# 
# From -- ./inp_files/578332.got.cif
#   From: 2010.06.25/outbox.cif.g09.slc.cpg/sg2_290_cif.got.tgz:578332.got - 2010.06.27 13:26:56.
