data_PCOD8026442
_publ_section_title
;
Structure prediction by ZEFSAII (Michael W. Deem and Ramdas Pophale) SiO2 
 PCOD8026442
Probable space group: P -1
;
_chemical_formula_sum "Si O2"
_cell_formula_units_Z 16
_cell_length_a 14.125285
_cell_length_b 12.091855
_cell_length_c 14.579604
_cell_angle_alpha 72.695816
_cell_angle_beta 129.305306
_cell_angle_gamma 149.646267
_cell_volume 750.411328
_symmetry_space_group_name_H-M "P -1"
_symmetry_group_IT_number 2
_symmetry_cell_setting 'triclinic'
loop_
_space_group_symop_operation_xyz
x,y,z
-x,-y,-z
loop_
_atom_site_type_symbol
_atom_site_label
_atom_site_fract_x
_atom_site_fract_y
_atom_site_fract_z
Si Si1 0.112505 0.551854 0.381246
Si Si2 0.828068 0.295549 0.086652
Si Si3 0.831970 0.790635 0.172101
Si Si4 0.235338 0.913656 0.389826
Si Si5 0.147687 0.468716 0.076496
Si Si6 0.143511 0.199450 0.119877
Si Si7 0.179143 0.236855 0.618143
Si Si8 0.248802 0.928131 0.605301
O O1 0.060127 0.644693 0.324848
O O2 0.048852 0.449462 0.265514
O O3 0.866423 0.291011 0.366480
O O4 0.458449 0.814597 0.550152
O O5 0.888091 0.263828 0.044040
O O6 0.899722 0.488320 0.049788
O O7 0.500000 0.000000 0.000000
O O8 0.830399 0.820104 0.270589
O O9 0.015866 0.831373 0.254620
O O10 0.500000 0.500000 0.000000
O O11 0.985820 0.033257 0.159411
O O12 0.340152 0.992304 0.540368
O O13 0.117333 0.313406 0.056276
O O14 0.474235 0.776307 0.243580
O O15 0.483130 0.457730 0.281551
O O16 0.000000 0.000000 0.000000
O O17 0.042301 0.244429 0.524602
O O18 0.000000 0.000000 0.500000
#
# Coordination Sequence:
#
# PCOD8026442 Si02
#       8
#     2   2   2   2   2   2   2   2
#     4  11  22  40  70  96 130 180 219 279 350 401
#     4  11  24  44  67  98 132 179 221 282 347 407
#     4  11  25  46  68  99 141 184 236 284 358 421
#     4  10  24  42  64  99 135 169 233 277 335 422
#     4  11  25  43  66  99 138 174 233 284 341 424
#     4  12  26  46  70 101 141 186 233 297 354 411
#     4  11  24  44  71 101 136 181 231 286 348 422
#     4  11  21  43  65  96 135 171 223 281 339 413
#
# _framework density 21.321639000000001
#
# number of rings (size 3 to 8) (size 9 to 14) (size 15 to 20)
#    0.000    1.000    5.000    1.125    1.750    3.500 
#    0.000    0.000    0.000    0.000    0.000    0.000 
#    0.000    0.000    0.000    0.000    0.000    0.000 
#
# Total GULP energy -198391.608252 kJ/mol
# GULP energy per Si atom -12399.475516 kJ/mol
# Density = 2.127311 g / cm^3
# Si number density = 21.321639 Si / 1000 Ang^3
#
#
#
# Elastic Constant Matrix: (Units=GPa)
#
#
# Indices 1 2 3 4 5 6 
#
# 1 83.9835 36.5655 23.8824 14.2249 6.0098 -5.3375
# 2 36.5655 118.5950 28.8869 15.0823 2.5753 5.9383
# 3 23.8824 28.8869 98.9816 12.8666 1.2722 2.4979
# 4 14.2249 15.0823 12.8666 36.7989 1.3990 2.6153
# 5 6.0098 2.5753 1.2722 1.3990 36.7433 6.0244
# 6 -5.3375 5.9383 2.4979 2.6153 6.0244 34.5433
#
#
#
# Elastic Compliance Matrix: (Units=1/GPa)
#
#
# Indices 1 2 3 4 5 6 
#
# 1 0.015265 -0.003847 -0.002137 -0.003755 -0.002653 0.003922
# 2 -0.003847 0.010413 -0.001799 -0.002012 0.000394 -0.002171
# 3 -0.002137 -0.001799 0.011471 -0.002407 0.000288 -0.000718
# 4 -0.003755 -0.002012 -0.002407 0.030459 0.000069 -0.002378
# 5 -0.002653 0.000394 0.000288 0.000069 0.028507 -0.005475
# 6 0.003922 -0.002171 -0.000718 -0.002378 -0.005475 0.031115
#
#
# Mechanical properties :
#
#
# Convention : Reuss Voigt Hill
#
# Bulk Modulus (GPa) = 46.33692 53.35887 49.84789
# Shear Modulus (GPa) = 33.33539 35.76546 34.55042
#
# Velocity S-wave (km/s) = 3.95834 4.10008 4.02984
# Velocity P-wave (km/s) = 6.53229 6.89161 6.71435
#
# Compressibility (1/GPa) = 0.02158107
#
# Stress axis : x y z
#
# Youngs Moduli (GPa) = 65.50974 96.03823 87.17660
#
# Poissons Ratio (x) = 0.36948 0.18631
# Poissons Ratio (y) = 0.25203 0.15685
# Poissons Ratio (z) = 0.14001 0.17280
#
# Static dielectric constant tensor:
#      x y z
#    x 3.900910 0.169830 -0.082900 
#    y 0.169830 3.857020 -0.007740 
#    z -0.082900 -0.007740 3.796770 
# 
# 
# High freq. dielectric constant tensor:
#      x y z
#    x 1.837950 0.012390 0.005220 
#    y 0.012390 1.842700 0.001460 
#    z 0.005220 0.001460 1.843880 
# 
# From -- ./inp_files/531808.got.cif
#   From: 2010.06.25/outbox.cif.g09.slc.cpg/sg2_266_cif.got.tgz:531808.got - 2010.06.27 13:26:56.
