data_PCOD8026328
_publ_section_title
;
Structure prediction by ZEFSAII (Michael W. Deem and Ramdas Pophale) SiO2 
 PCOD8026328
Probable space group: P -1
;
_chemical_formula_sum "Si O2"
_cell_formula_units_Z 16
_cell_length_a 11.393830
_cell_length_b 14.394140
_cell_length_c 5.088545
_cell_angle_alpha 105.695179
_cell_angle_beta 106.909127
_cell_angle_gamma 114.515693
_cell_volume 648.987836
_symmetry_space_group_name_H-M "P -1"
_symmetry_group_IT_number 2
_symmetry_cell_setting 'triclinic'
loop_
_space_group_symop_operation_xyz
x,y,z
-x,-y,-z
loop_
_atom_site_type_symbol
_atom_site_label
_atom_site_fract_x
_atom_site_fract_y
_atom_site_fract_z
Si Si1 0.136050 0.251446 0.239324
Si Si2 0.055882 0.969166 0.270148
Si Si3 0.592707 0.008983 0.823128
Si Si4 0.897998 0.369311 0.924202
Si Si5 0.639287 0.498376 0.513313
Si Si6 0.661455 0.842370 0.554294
Si Si7 0.894897 0.243727 0.307609
Si Si8 0.370952 0.631165 0.097677
O O1 0.220302 0.376340 0.263338
O O2 0.253235 0.215294 0.329144
O O3 0.038709 0.234666 0.426951
O O4 0.012190 0.166661 0.882237
O O5 0.231069 0.045475 0.466507
O O6 0.000000 0.000000 0.500000
O O7 0.000000 0.000000 0.000000
O O8 0.500000 0.000000 0.500000
O O9 0.607572 0.898157 0.775638
O O10 0.752047 0.125716 0.030629
O O11 0.500000 0.000000 0.000000
O O12 0.860874 0.290572 0.581997
O O13 0.756531 0.345193 0.977488
O O14 0.964326 0.334549 0.176729
O O15 0.000000 0.500000 0.000000
O O16 0.500000 0.500000 0.500000
O O17 0.644075 0.411281 0.645853
O O18 0.640768 0.461045 0.186575
O O19 0.524318 0.746944 0.227046
#
# Coordination Sequence:
#
# PCOD8026328 Si02
#       8
#     2   2   2   2   2   2   2   2
#     4  11  25  47  73 107 147 185 240 295 368 430
#     4  10  24  41  66  96 133 180 223 278 342 418
#     4  12  27  49  73 106 146 193 244 298 360 427
#     4  12  26  49  76 106 145 194 249 298 361 434
#     4  12  26  45  70 107 147 188 236 301 357 425
#     4  11  25  47  74 106 147 189 237 295 360 437
#     4  12  25  47  74 108 145 189 241 307 360 429
#     4  12  26  46  73 106 143 193 242 293 363 426
#
# _framework density 24.653772
#
# number of rings (size 3 to 8) (size 9 to 14) (size 15 to 20)
#    0.000    0.500    2.500    5.250    1.750    6.000 
#    0.000    0.000    0.000    0.000    0.000    0.000 
#    0.000    0.000    0.000    0.000    0.000    0.000 
#
# Total GULP energy -198228.170746 kJ/mol
# GULP energy per Si atom -12389.260672 kJ/mol
# Density = 2.459766 g / cm^3
# Si number density = 24.653772 Si / 1000 Ang^3
#
#
#
# Elastic Constant Matrix: (Units=GPa)
#
#
# Indices 1 2 3 4 5 6 
#
# 1 188.1841 42.3571 58.7152 16.2457 -13.5560 7.2278
# 2 42.3571 94.5948 56.4590 30.0229 0.1880 11.9340
# 3 58.7152 56.4590 118.6975 22.3173 -19.3409 14.2061
# 4 16.2457 30.0229 22.3173 54.4215 9.8090 7.1218
# 5 -13.5560 0.1880 -19.3409 9.8090 49.1295 10.3356
# 6 7.2278 11.9340 14.2061 7.1218 10.3356 44.1988
#
#
#
# Elastic Compliance Matrix: (Units=1/GPa)
#
#
# Indices 1 2 3 4 5 6 
#
# 1 0.006447 -0.001391 -0.002281 -0.000385 0.000987 -0.000115
# 2 -0.001391 0.017054 -0.006453 -0.005931 -0.001601 -0.000973
# 3 -0.002281 -0.006453 0.014550 -0.002395 0.006372 -0.003665
# 4 -0.000385 -0.005931 -0.002395 0.023790 -0.005765 -0.000051
# 5 0.000987 -0.001601 0.006372 -0.005765 0.025737 -0.006867
# 6 -0.000115 -0.000973 -0.003665 -0.000051 -0.006867 0.025699
#
#
# Mechanical properties :
#
#
# Convention : Reuss Voigt Hill
#
# Bulk Modulus (GPa) = 56.17418 79.61544 67.89481
# Shear Modulus (GPa) = 35.85257 45.81296 40.83277
#
# Velocity S-wave (km/s) = 3.81759 4.31542 4.07412
# Velocity P-wave (km/s) = 6.50128 7.56267 7.05198
#
# Compressibility (1/GPa) = 0.01780177
#
# Stress axis : x y z
#
# Youngs Moduli (GPa) = 155.10121 58.63696 68.73085
#
# Poissons Ratio (x) = 0.08157 0.15675
# Poissons Ratio (y) = 0.21577 0.44351
# Poissons Ratio (z) = 0.35372 0.37838
#
# Static dielectric constant tensor:
#      x y z
#    x 4.890790 0.215340 0.088380 
#    y 0.215340 4.449440 0.606080 
#    z 0.088380 0.606080 4.448340 
# 
# 
# High freq. dielectric constant tensor:
#      x y z
#    x 2.018900 0.000280 -0.002680 
#    y 0.000280 1.986470 0.025770 
#    z -0.002680 0.025770 1.971350 
# 
# From -- ./inp_files/76517.got.cif
#   From: 2010.06.25/outbox.cif.g09.slc.cpg/sg2_39_cif.got.tgz:76517.got - 2010.06.27 13:26:56.
