data_PCOD8026515
_publ_section_title
;
Structure prediction by ZEFSAII (Michael W. Deem and Ramdas Pophale) SiO2 
 PCOD8026515
Probable space group: P -1
;
_chemical_formula_sum "Si O2"
_cell_formula_units_Z 16
_cell_length_a 11.789044
_cell_length_b 9.365445
_cell_length_c 14.342884
_cell_angle_alpha 73.877468
_cell_angle_beta 28.722630
_cell_angle_gamma 74.368249
_cell_volume 729.941815
_symmetry_space_group_name_H-M "P -1"
_symmetry_group_IT_number 2
_symmetry_cell_setting 'triclinic'
loop_
_space_group_symop_operation_xyz
x,y,z
-x,-y,-z
loop_
_atom_site_type_symbol
_atom_site_label
_atom_site_fract_x
_atom_site_fract_y
_atom_site_fract_z
Si Si1 0.031775 0.138514 0.689204
Si Si2 0.848316 0.596451 0.881271
Si Si3 0.792897 0.041469 0.567154
Si Si4 0.552667 0.826224 0.493597
Si Si5 0.367381 0.076203 0.995270
Si Si6 0.661716 0.316601 0.498322
Si Si7 0.540894 0.436412 0.275842
Si Si8 0.000434 0.551803 0.385952
O O1 0.884613 0.286948 0.732801
O O2 0.171286 0.187529 0.672501
O O3 0.210161 0.082936 0.488298
O O4 0.868193 0.002674 0.848804
O O5 0.859625 0.554074 0.770540
O O6 0.119534 0.602032 0.722901
O O7 0.692328 0.750336 0.975056
O O8 0.722450 0.471500 0.055833
O O9 0.533397 0.048421 0.793510
O O10 0.814221 0.206669 0.479349
O O11 0.000000 0.000000 0.500000
O O12 0.503990 0.771116 0.434845
O O13 0.393039 0.725705 0.695021
O O14 0.500000 0.000000 0.500000
O O15 0.500000 0.000000 0.000000
O O16 0.470683 0.431465 0.663223
O O17 0.275915 0.426521 0.435523
O O18 0.000000 0.500000 0.500000
#
# Coordination Sequence:
#
# PCOD8026515 Si02
#       8
#     2   2   2   2   2   2   2   2
#     4  11  25  44  64 100 134 175 225 276 336 398
#     4  11  23  43  65 103 133 172 237 271 334 406
#     4  12  23  40  69  99 132 171 222 276 336 394
#     4  11  22  45  69  94 136 179 223 280 342 401
#     4  12  24  39  70  98 131 178 226 272 325 405
#     4  11  22  44  69  95 134 180 223 281 334 399
#     4  10  24  42  67  96 130 179 228 278 336 398
#     4  10  26  42  65  94 144 182 214 277 345 401
#
# _framework density 21.919556
#
# number of rings (size 3 to 8) (size 9 to 14) (size 15 to 20)
#    0.000    1.000    5.000    0.375    7.000    3.000 
#    0.000    1.875    0.000    0.000    0.000    0.000 
#    0.000    0.000    0.000    0.000    0.000    0.000 
#
# Total GULP energy -198226.776804 kJ/mol
# GULP energy per Si atom -12389.173550 kJ/mol
# Density = 2.186967 g / cm^3
# Si number density = 21.919556 Si / 1000 Ang^3
#
#
#
# Elastic Constant Matrix: (Units=GPa)
#
#
# Indices 1 2 3 4 5 6 
#
# 1 111.4256 53.2393 43.2702 -6.0477 9.5904 3.7581
# 2 53.2393 156.8309 46.3048 -11.9070 18.4226 -0.4467
# 3 43.2702 46.3048 118.2921 2.4722 21.3302 5.7307
# 4 -6.0477 -11.9070 2.4722 36.6842 2.3489 9.0743
# 5 9.5904 18.4226 21.3302 2.3489 22.6026 0.6270
# 6 3.7581 -0.4467 5.7307 9.0743 0.6270 37.1066
#
#
#
# Elastic Compliance Matrix: (Units=1/GPa)
#
#
# Indices 1 2 3 4 5 6 
#
# 1 0.011707 -0.002975 -0.003151 0.001426 0.000314 -0.001089
# 2 -0.002975 0.008571 -0.001498 0.002671 -0.004589 0.000060
# 3 -0.003151 -0.001498 0.011789 -0.000979 -0.008434 -0.001138
# 4 0.001426 0.002671 -0.000979 0.030556 -0.004830 -0.007352
# 5 0.000314 -0.004589 -0.008434 -0.004830 0.056271 0.001446
# 6 -0.001089 0.000060 -0.001138 -0.007352 0.001446 0.029010
#
#
# Mechanical properties :
#
#
# Convention : Reuss Voigt Hill
#
# Bulk Modulus (GPa) = 59.46091 74.68636 67.07364
# Shear Modulus (GPa) = 29.62820 35.52763 32.57792
#
# Velocity S-wave (km/s) = 3.68051 4.03031 3.85937
# Velocity P-wave (km/s) = 6.72661 7.47026 7.10816
#
# Compressibility (1/GPa) = 0.01681777
#
# Stress axis : x y z
#
# Youngs Moduli (GPa) = 85.41796 116.67735 84.82437
#
# Poissons Ratio (x) = 0.34717 0.26730
# Poissons Ratio (y) = 0.25416 0.12705
# Poissons Ratio (z) = 0.26917 0.17476
#
# Static dielectric constant tensor:
#      x y z
#    x 2.641510 2.362800 -2.628400 
#    y 2.362800 -3.365750 9.027550 
#    z -2.628400 9.027550 -6.728190 
# 
# 
# High freq. dielectric constant tensor:
#      x y z
#    x 1.858360 0.002850 0.003040 
#    y 0.002850 1.884130 -0.010490 
#    z 0.003040 -0.010490 1.848140 
# 
# From -- ./inp_files/515274.got.cif
#   From: 2010.06.25/outbox.cif.g09.slc.cpg/sg2_258_cif.got.tgz:515274.got - 2010.06.27 13:26:56.
