data_PCOD8026667
_publ_section_title
;
Structure prediction by ZEFSAII (Michael W. Deem and Ramdas Pophale) SiO2 
 PCOD8026667
Probable space group: P -1
;
_chemical_formula_sum "Si O2"
_cell_formula_units_Z 16
_cell_length_a 9.570287
_cell_length_b 6.865672
_cell_length_c 18.146741
_cell_angle_alpha 123.537697
_cell_angle_beta 72.588135
_cell_angle_gamma 127.809043
_cell_volume 783.794678
_symmetry_space_group_name_H-M "P -1"
_symmetry_group_IT_number 2
_symmetry_cell_setting 'triclinic'
loop_
_space_group_symop_operation_xyz
x,y,z
-x,-y,-z
loop_
_atom_site_type_symbol
_atom_site_label
_atom_site_fract_x
_atom_site_fract_y
_atom_site_fract_z
Si Si1 0.334804 0.054292 0.395758
Si Si2 0.496622 0.284954 0.718348
Si Si3 0.821685 0.051443 0.190660
Si Si4 0.304253 0.895154 0.928766
Si Si5 0.043451 0.323222 0.683050
Si Si6 0.985845 0.742110 0.157767
Si Si7 0.364161 0.114708 0.123047
Si Si8 0.388530 0.375614 0.599665
O O1 0.381770 0.173306 0.495709
O O2 0.445646 0.303921 0.371571
O O3 0.374820 0.818328 0.331586
O O4 0.128661 0.911735 0.383198
O O5 0.341259 0.088706 0.757820
O O6 0.616496 0.601888 0.795894
O O7 0.407917 0.263755 0.650239
O O8 0.938884 0.926187 0.155294
O O9 0.749144 0.985159 0.104743
O O10 0.944570 0.385935 0.255356
O O11 0.141937 0.583909 0.913487
O O12 0.468643 0.882940 0.873574
O O13 0.358371 0.103036 0.032708
O O14 0.037164 0.215960 0.744151
O O15 0.210878 0.368988 0.623578
O O16 0.187182 0.847862 0.131052
#
# Coordination Sequence:
#
# PCOD8026667 Si02
#       8
#     2   2   2   2   2   2   2   2
#     4  11  25  40  67  92 119 165 206 250 311 364
#     4  12  22  42  64  90 126 163 202 254 304 366
#     4  11  22  40  64  89 128 164 200 250 308 359
#     4  10  24  43  60  94 126 160 204 258 300 355
#     4  11  22  40  64  91 123 163 206 247 304 366
#     4  11  22  41  63  90 125 164 203 252 302 361
#     4  11  23  42  66  90 124 163 208 251 304 363
#     4  11  23  44  62  91 128 156 204 260 304 359
#
# _framework density 20.413511
#
# number of rings (size 3 to 8) (size 9 to 14) (size 15 to 20)
#    0.000    1.000    3.750    3.375    1.750    1.000 
#    0.000    0.625    0.000    0.000    0.000    0.000 
#    0.000    0.000    0.000    0.000    0.000    0.000 
#
# Total GULP energy -198519.859252 kJ/mol
# GULP energy per Si atom -12407.491203 kJ/mol
# Density = 2.036705 g / cm^3
# Si number density = 20.413511 Si / 1000 Ang^3
#
#
#
# Elastic Constant Matrix: (Units=GPa)
#
#
# Indices 1 2 3 4 5 6 
#
# 1 44.3919 27.0546 -14.1153 0.9761 20.4941 21.8337
# 2 27.0546 84.6765 7.3010 -13.4207 17.9016 9.1656
# 3 -14.1153 7.3010 48.2711 -0.2567 10.1980 4.9092
# 4 0.9761 -13.4207 -0.2567 24.2556 4.7908 0.4376
# 5 20.4941 17.9016 10.1980 4.7908 24.7806 -2.9495
# 6 21.8337 9.1656 4.9092 0.4376 -2.9495 41.0835
#
#
#
# Elastic Compliance Matrix: (Units=1/GPa)
#
#
# Indices 1 2 3 4 5 6 
#
# 1 -0.248301 0.003121 -0.153457 -0.051586 0.296628 0.171445
# 2 0.003121 0.017919 0.003400 0.014022 -0.020551 -0.007687
# 3 -0.153457 0.003400 -0.071416 -0.028405 0.171471 0.101942
# 4 -0.051586 0.014022 -0.028405 0.042397 0.039605 0.030073
# 5 0.296628 -0.020551 0.171471 0.039605 -0.291538 -0.194899
# 6 0.171445 -0.007687 0.101942 0.030073 -0.194899 -0.091552
#
#
# Mechanical properties :
#
#
# Convention : Reuss Voigt Hill
#
# Bulk Modulus (GPa) = -1.67878 24.20224 11.26173
# Shear Modulus (GPa) = -9.13782 28.49720 9.67969
#
# Velocity S-wave (km/s) = -2.11804 3.74036 2.17993
# Velocity P-wave (km/s) = 2.60876 5.52589 3.44455
#
# Compressibility (1/GPa) = -0.59566941
#
# Stress axis : x y z
#
# Youngs Moduli (GPa) = -4.02737 55.80804 -14.00250
#
# Poissons Ratio (x) = -0.17417 -2.14878
# Poissons Ratio (y) = 0.01257 0.04761
# Poissons Ratio (z) = -0.61803 -0.18977
#
# Static dielectric constant tensor:
#      x y z
#    x 3.705510 0.083960 0.019700 
#    y 0.083960 3.736370 -0.016080 
#    z 0.019700 -0.016080 3.682760 
# 
# 
# High freq. dielectric constant tensor:
#      x y z
#    x 1.804290 0.008560 0.002880 
#    y 0.008560 1.802230 -0.002760 
#    z 0.002880 -0.002760 1.804550 
# 
# From -- ./inp_files/46542.got.cif
#   From: 2010.06.25/outbox.cif.g09.slc.cpg/sg2_24_cif.got.tgz:46542.got - 2010.06.27 13:26:56.
