data_PCOD8026379
_publ_section_title
;
Structure prediction by ZEFSAII (Michael W. Deem and Ramdas Pophale) SiO2 
 PCOD8026379
Probable space group: P -1
;
_chemical_formula_sum "Si O2"
_cell_formula_units_Z 16
_cell_length_a 15.796306
_cell_length_b 14.655141
_cell_length_c 22.976114
_cell_angle_alpha 160.416743
_cell_angle_beta 156.214165
_cell_angle_gamma 34.359817
_cell_volume 692.142688
_symmetry_space_group_name_H-M "P -1"
_symmetry_group_IT_number 2
_symmetry_cell_setting 'triclinic'
loop_
_space_group_symop_operation_xyz
x,y,z
-x,-y,-z
loop_
_atom_site_type_symbol
_atom_site_label
_atom_site_fract_x
_atom_site_fract_y
_atom_site_fract_z
Si Si1 0.435750 0.786647 0.691178
Si Si2 0.863824 0.224660 0.037976
Si Si3 0.733314 0.266826 0.854490
Si Si4 0.802250 0.159054 0.216787
Si Si5 0.723596 0.720938 0.456696
Si Si6 0.502749 0.213168 0.399816
Si Si7 0.910192 0.172634 0.417415
Si Si8 0.041791 0.623271 0.165181
O O1 0.362296 0.442953 0.441957
O O2 0.454496 0.896157 0.702783
O O3 0.247380 0.899716 0.669551
O O4 0.666162 0.900336 0.937264
O O5 0.866352 0.333035 0.038219
O O6 0.618353 0.059264 0.802701
O O7 0.943650 0.502386 0.295215
O O8 0.000000 0.000000 0.000000
O O9 0.495407 0.324472 0.747235
O O10 0.707913 0.937477 0.628086
O O11 0.858785 0.450279 0.990163
O O12 0.733490 0.433548 0.319731
O O13 0.751968 0.119173 0.229524
O O14 0.057766 0.169117 0.377705
O O15 0.721438 0.390618 0.675082
O O16 0.055445 0.954566 0.376360
O O17 0.000000 0.500000 0.000000
#
# Coordination Sequence:
#
# PCOD8026379 Si02
#       8
#     2   2   2   2   2   2   2   2
#     4  11  24  46  72 104 143 190 240 302 356 431
#     4  12  27  47  76 106 148 188 243 300 358 432
#     4  11  25  46  73 100 144 189 237 293 362 423
#     4  11  24  42  71 105 142 180 246 293 356 421
#     4  10  24  41  70 103 140 181 237 296 357 419
#     4  11  27  45  73 105 144 190 242 292 367 425
#     4  12  26  45  73 107 143 192 242 291 366 428
#     4  12  28  49  73 106 149 189 239 303 361 430
#
# _framework density 23.116620999999999
#
# number of rings (size 3 to 8) (size 9 to 14) (size 15 to 20)
#    0.000    0.750    1.250    4.875   12.250    3.500 
#    0.000    0.000    0.000    0.000    0.000    0.000 
#    0.000    0.000    0.000    0.000    0.000    0.000 
#
# Total GULP energy -198445.497160 kJ/mol
# GULP energy per Si atom -12402.843572 kJ/mol
# Density = 2.306401 g / cm^3
# Si number density = 23.116621 Si / 1000 Ang^3
#
#
#
# Elastic Constant Matrix: (Units=GPa)
#
#
# Indices 1 2 3 4 5 6 
#
# 1 123.8005 42.6777 43.8065 -3.3098 -12.3656 11.4215
# 2 42.6777 114.2729 37.3961 0.3893 -7.3488 -13.1528
# 3 43.8065 37.3961 116.5567 -5.6271 -3.9556 6.5350
# 4 -3.3098 0.3893 -5.6271 43.3159 6.0598 -4.0719
# 5 -12.3656 -7.3488 -3.9556 6.0598 40.1451 -6.7447
# 6 11.4215 -13.1528 6.5350 -4.0719 -6.7447 40.9510
#
#
#
# Elastic Compliance Matrix: (Units=1/GPa)
#
#
# Indices 1 2 3 4 5 6 
#
# 1 0.010683 -0.003375 -0.002686 -0.000076 0.001859 -0.003336
# 2 -0.003375 0.011638 -0.002728 -0.000464 0.001793 0.005364
# 3 -0.002686 -0.002728 0.010596 0.001130 -0.000761 -0.001831
# 4 -0.000076 -0.000464 0.001130 0.023841 -0.003342 0.001512
# 5 0.001859 0.001793 -0.000761 -0.003342 0.026960 0.004287
# 6 -0.003336 0.005364 -0.001831 0.001512 0.004287 0.028221
#
#
# Mechanical properties :
#
#
# Convention : Reuss Voigt Hill
#
# Bulk Modulus (GPa) = 65.19089 66.93232 66.06160
# Shear Modulus (GPa) = 37.13893 40.26572 38.70232
#
# Velocity S-wave (km/s) = 4.01258 4.17808 4.09616
# Velocity P-wave (km/s) = 7.05194 7.23133 7.14220
#
# Compressibility (1/GPa) = 0.01533957
#
# Stress axis : x y z
#
# Youngs Moduli (GPa) = 93.60891 85.92211 94.37965
#
# Poissons Ratio (x) = 0.28999 0.25347
# Poissons Ratio (y) = 0.31593 0.25746
# Poissons Ratio (z) = 0.25140 0.23439
#
# Static dielectric constant tensor:
#      x y z
#    x 4.132320 -0.050220 -0.004350 
#    y -0.050220 4.153100 0.063690 
#    z -0.004350 0.063690 4.233770 
# 
# 
# High freq. dielectric constant tensor:
#      x y z
#    x 1.914790 -0.002880 -0.001150 
#    y -0.002880 1.919470 0.003480 
#    z -0.001150 0.003480 1.921540 
# 
# From -- ./inp_files/613277.got.cif
#   From: 2010.06.25/outbox.cif.g09.slc.cpg/sg2_307_cif.got.tgz:613277.got - 2010.06.27 13:26:56.
