data_PCOD8026588
_publ_section_title
;
Structure prediction by ZEFSAII (Michael W. Deem and Ramdas Pophale) SiO2 
 PCOD8026588
Probable space group: P -1
;
_chemical_formula_sum "Si O2"
_cell_formula_units_Z 16
_cell_length_a 9.337420
_cell_length_b 10.914874
_cell_length_c 13.421725
_cell_angle_alpha 146.694006
_cell_angle_beta 107.850548
_cell_angle_gamma 82.473630
_cell_volume 694.151405
_symmetry_space_group_name_H-M "P -1"
_symmetry_group_IT_number 2
_symmetry_cell_setting 'triclinic'
loop_
_space_group_symop_operation_xyz
x,y,z
-x,-y,-z
loop_
_atom_site_type_symbol
_atom_site_label
_atom_site_fract_x
_atom_site_fract_y
_atom_site_fract_z
Si Si1 0.336846 0.563701 0.503272
Si Si2 0.970151 0.438253 0.069315
Si Si3 0.624555 0.883217 0.499333
Si Si4 0.887760 0.838228 0.941927
Si Si5 0.145809 0.905154 0.443058
Si Si6 0.434793 0.999832 0.697258
Si Si7 0.673070 0.154624 0.130679
Si Si8 0.666618 0.404821 0.102490
O O1 0.500000 0.500000 0.500000
O O2 0.210253 0.380614 0.290009
O O3 0.355148 0.822417 0.642652
O O4 0.285908 0.608542 0.635177
O O5 0.799907 0.458212 0.082137
O O6 0.016851 0.220472 0.981306
O O7 0.101691 0.641525 0.285654
O O8 0.000000 0.500000 0.000000
O O9 0.572480 0.887875 0.606016
O O10 0.622681 0.627817 0.289873
O O11 0.500000 0.000000 0.500000
O O12 0.799483 0.046518 0.629502
O O13 0.777851 0.982276 0.065686
O O14 0.000000 0.000000 0.000000
O O15 0.300855 0.041363 0.623570
O O16 0.000000 0.000000 0.500000
O O17 0.506630 0.257305 0.923119
O O18 0.715652 0.246181 0.090123
O O19 0.500000 0.000000 0.000000
#
# Coordination Sequence:
#
# PCOD8026588 Si02
#       8
#     2   2   2   2   2   2   2   2
#     4  12  24  45  77 110 151 195 253 319 382 454
#     4  12  27  50  76 109 159 202 249 324 389 455
#     4  10  24  42  70 101 143 196 253 304 372 455
#     4  12  27  52  78 116 155 199 266 321 386 465
#     4  11  23  47  66  99 144 194 249 304 377 452
#     4  11  24  43  73 104 144 197 249 311 381 451
#     4  12  25  45  79 115 149 202 256 320 386 458
#     4  12  24  48  75 109 155 196 259 315 385 461
#
# _framework density 23.049728999999999
#
# number of rings (size 3 to 8) (size 9 to 14) (size 15 to 20)
#    0.000    0.500    6.250    1.500    0.000    3.500 
#    6.750    0.000    0.000    0.000    0.000    0.000 
#    0.000    0.000    0.000    0.000    0.000    0.000 
#
# Total GULP energy -198217.849558 kJ/mol
# GULP energy per Si atom -12388.615597 kJ/mol
# Density = 2.299727 g / cm^3
# Si number density = 23.049729 Si / 1000 Ang^3
#
#
#
# Elastic Constant Matrix: (Units=GPa)
#
#
# Indices 1 2 3 4 5 6 
#
# 1 136.8897 46.0233 35.1552 5.3491 -6.7005 2.5058
# 2 46.0233 115.5778 25.2608 5.4546 -0.1310 3.3490
# 3 35.1552 25.2608 90.1137 17.0369 -0.6732 -2.5543
# 4 5.3491 5.4546 17.0369 37.5885 3.9721 -1.3532
# 5 -6.7005 -0.1310 -0.6732 3.9721 45.7486 7.5872
# 6 2.5058 3.3490 -2.5543 -1.3532 7.5872 43.0020
#
#
#
# Elastic Compliance Matrix: (Units=1/GPa)
#
#
# Indices 1 2 3 4 5 6 
#
# 1 0.009096 -0.003008 -0.002756 0.000221 0.001379 -0.000696
# 2 -0.003008 0.010247 -0.001664 -0.000298 -0.000297 -0.000678
# 3 -0.002756 -0.001664 0.013718 -0.005564 0.000126 0.000908
# 4 0.000221 -0.000298 -0.005564 0.029472 -0.002792 0.001100
# 5 0.001379 -0.000297 0.000126 -0.002792 0.023000 -0.004196
# 6 -0.000696 -0.000678 0.000908 0.001100 -0.004196 0.024177
#
#
# Mechanical properties :
#
#
# Convention : Reuss Voigt Hill
#
# Bulk Modulus (GPa) = 54.93532 61.71776 58.32654
# Shear Modulus (GPa) = 38.27451 41.01061 39.64256
#
# Velocity S-wave (km/s) = 4.07937 4.22266 4.15163
# Velocity P-wave (km/s) = 6.78774 7.11397 6.95277
#
# Compressibility (1/GPa) = 0.01820322
#
# Stress axis : x y z
#
# Youngs Moduli (GPa) = 109.93745 97.58793 72.89919
#
# Poissons Ratio (x) = 0.29358 0.20094
# Poissons Ratio (y) = 0.33073 0.12131
# Poissons Ratio (z) = 0.30303 0.16239
#
# Static dielectric constant tensor:
#      x y z
#    x 4.712570 0.848820 0.201520 
#    y 0.848820 4.944040 -0.007450 
#    z 0.201520 -0.007450 4.303860 
# 
# 
# High freq. dielectric constant tensor:
#      x y z
#    x 1.921480 0.012300 0.000260 
#    y 0.012300 1.918130 0.012020 
#    z 0.000260 0.012020 1.913900 
# 
# From -- ./inp_files/501270.got.cif
#   From: 2010.06.25/outbox.cif.g09.slc.cpg/sg2_251_cif.got.tgz:501270.got - 2010.06.27 13:26:56.
