data_PCOD8026255
_publ_section_title
;
Structure prediction by ZEFSAII (Michael W. Deem and Ramdas Pophale) SiO2 
 PCOD8026255
Probable space group: P -1
;
_chemical_formula_sum "Si O2"
_cell_formula_units_Z 16
_cell_length_a 22.981864
_cell_length_b 9.178113
_cell_length_c 8.696786
_cell_angle_alpha 99.372630
_cell_angle_beta 126.624472
_cell_angle_gamma 37.470160
_cell_volume 690.990120
_symmetry_space_group_name_H-M "P -1"
_symmetry_group_IT_number 2
_symmetry_cell_setting 'triclinic'
loop_
_space_group_symop_operation_xyz
x,y,z
-x,-y,-z
loop_
_atom_site_type_symbol
_atom_site_label
_atom_site_fract_x
_atom_site_fract_y
_atom_site_fract_z
Si Si1 0.439071 0.854256 0.204732
Si Si2 0.028124 0.943657 0.290266
Si Si3 0.489583 0.071000 0.170006
Si Si4 0.723313 0.147636 0.517255
Si Si5 0.176171 0.141041 0.699224
Si Si6 0.323230 0.041767 0.384901
Si Si7 0.795179 0.230752 0.205034
Si Si8 0.961690 0.283705 0.005827
O O1 0.585169 0.502384 0.311701
O O2 0.458218 0.990851 0.218267
O O3 0.434040 0.846362 0.379168
O O4 0.283639 0.078621 0.918664
O O5 0.930229 0.022221 0.264937
O O6 0.935977 0.246603 0.122309
O O7 0.172299 0.753720 0.574939
O O8 0.090297 0.731251 0.215248
O O9 0.639578 0.889617 0.429226
O O10 0.358840 0.427916 0.046327
O O11 0.500000 0.000000 0.000000
O O12 0.788461 0.945670 0.438447
O O13 0.658796 0.146874 0.537418
O O14 0.861350 0.991132 0.785087
O O15 0.000000 0.500000 0.500000
O O16 0.216336 0.924396 0.824338
O O17 0.147797 0.377752 0.110976
#
# Coordination Sequence:
#
# PCOD8026255 Si02
#       8
#     2   2   2   2   2   2   2   2
#     4  12  28  46  71 104 143 184 235 288 350 415
#     4  10  24  40  71 100 139 173 233 286 346 404
#     4  12  26  45  74 101 142 184 235 287 349 414
#     4  12  26  47  70 101 146 187 231 285 354 416
#     4  12  27  46  72 102 142 185 235 288 350 417
#     4  12  27  45  71 104 142 184 237 284 351 414
#     4  11  24  44  70 100 138 183 234 280 349 411
#     4  11  24  43  71 103 139 178 233 288 349 403
#
# _framework density 23.155177999999999
#
# number of rings (size 3 to 8) (size 9 to 14) (size 15 to 20)
#    0.000    0.500    1.250    6.000   12.250    0.000 
#    0.000    0.000    0.000    0.000    0.000    0.000 
#    0.000    0.000    0.000    0.000    0.000    0.000 
#
# Total GULP energy -198507.138852 kJ/mol
# GULP energy per Si atom -12406.696178 kJ/mol
# Density = 2.310248 g / cm^3
# Si number density = 23.155178 Si / 1000 Ang^3
#
#
#
# Elastic Constant Matrix: (Units=GPa)
#
#
# Indices 1 2 3 4 5 6 
#
# 1 124.3199 27.4166 19.2485 -2.3503 -15.6388 19.8793
# 2 27.4166 83.7011 32.6414 -19.3548 -7.6707 4.6947
# 3 19.2485 32.6414 101.7004 -7.3272 5.4102 3.5551
# 4 -2.3503 -19.3548 -7.3272 50.3567 0.7042 -7.1777
# 5 -15.6388 -7.6707 5.4102 0.7042 41.4162 2.7454
# 6 19.8793 4.6947 3.5551 -7.1777 2.7454 44.7641
#
#
#
# Elastic Compliance Matrix: (Units=1/GPa)
#
#
# Indices 1 2 3 4 5 6 
#
# 1 0.009956 -0.002502 -0.001223 -0.001371 0.003778 -0.004513
# 2 -0.002502 0.015928 -0.004398 0.005403 0.002454 0.000506
# 3 -0.001223 -0.004398 0.011618 0.000019 -0.002811 0.000257
# 4 -0.001371 0.005403 0.000019 0.022395 -0.000142 0.003640
# 5 0.003778 0.002454 -0.002811 -0.000142 0.026619 -0.003367
# 6 -0.004513 0.000506 0.000257 0.003640 -0.003367 0.025060
#
#
# Mechanical properties :
#
#
# Convention : Reuss Voigt Hill
#
# Bulk Modulus (GPa) = 47.04543 52.03715 49.54129
# Shear Modulus (GPa) = 37.06279 42.66840 39.86559
#
# Velocity S-wave (km/s) = 4.00512 4.29734 4.15380
# Velocity P-wave (km/s) = 6.46139 6.86621 6.66688
#
# Compressibility (1/GPa) = 0.02125605
#
# Stress axis : x y z
#
# Youngs Moduli (GPa) = 100.44239 62.78420 86.07529
#
# Poissons Ratio (x) = 0.15706 0.10531
# Poissons Ratio (y) = 0.25127 0.37852
# Poissons Ratio (z) = 0.12288 0.27610
#
# Static dielectric constant tensor:
#      x y z
#    x 4.206310 0.100100 -0.083300 
#    y 0.100100 4.016660 0.026970 
#    z -0.083300 0.026970 4.367590 
# 
# 
# High freq. dielectric constant tensor:
#      x y z
#    x 1.925740 0.004530 -0.005130 
#    y 0.004530 1.914460 0.000600 
#    z -0.005130 0.000600 1.927380 
# 
# From -- ./inp_files/352262.got.cif
#   From: 2010.06.25/outbox.cif.g09.slc.cpg/sg2_177_cif.got.tgz:352262.got - 2010.06.27 13:26:56.
