data_PCOD8026664
_publ_section_title
;
Structure prediction by ZEFSAII (Michael W. Deem and Ramdas Pophale) SiO2 
 PCOD8026664
Probable space group: P -1
;
_chemical_formula_sum "Si O2"
_cell_formula_units_Z 16
_cell_length_a 13.853803
_cell_length_b 9.115973
_cell_length_c 8.054589
_cell_angle_alpha 44.764158
_cell_angle_beta 110.072526
_cell_angle_gamma 98.330974
_cell_volume 665.260056
_symmetry_space_group_name_H-M "P -1"
_symmetry_group_IT_number 2
_symmetry_cell_setting 'triclinic'
loop_
_space_group_symop_operation_xyz
x,y,z
-x,-y,-z
loop_
_atom_site_type_symbol
_atom_site_label
_atom_site_fract_x
_atom_site_fract_y
_atom_site_fract_z
Si Si1 0.976372 0.102249 0.225412
Si Si2 0.806270 0.441775 0.717144
Si Si3 0.828255 0.799171 0.893137
Si Si4 0.458601 0.000520 0.290013
Si Si5 0.719305 0.226965 0.542072
Si Si6 0.923326 0.696342 0.368084
Si Si7 0.577476 0.615782 0.560547
Si Si8 0.637615 0.589265 0.972726
O O1 0.062330 0.248457 0.101485
O O2 0.978056 0.902557 0.264405
O O3 0.867042 0.263209 0.019543
O O4 0.000000 0.000000 0.500000
O O5 0.792314 0.343643 0.606857
O O6 0.872439 0.630691 0.563821
O O7 0.695606 0.541453 0.642235
O O8 0.742273 0.658563 0.896552
O O9 0.789574 0.042110 0.633517
O O10 0.836540 0.761894 0.125185
O O11 0.414068 0.248462 0.041595
O O12 0.500000 0.000000 0.500000
O O13 0.364439 0.866336 0.319535
O O14 0.546530 0.875389 0.318446
O O15 0.661420 0.366298 0.250795
O O16 0.000000 0.500000 0.500000
O O17 0.500000 0.500000 0.500000
O O18 0.562395 0.567441 0.787744
#
# Coordination Sequence:
#
# PCOD8026664 Si02
#       8
#     2   2   2   2   2   2   2   2
#     4  12  29  45  69 107 151 182 227 299 367 425
#     4  12  25  44  72 105 146 184 239 293 355 420
#     4  11  23  43  72 103 138 184 245 288 344 430
#     4   9  21  44  67  98 139 180 241 289 341 422
#     4  11  21  42  72 102 134 185 243 290 342 422
#     4  12  24  45  73  99 136 194 242 286 350 422
#     4  11  24  45  70 103 148 185 228 298 362 413
#     4  10  24  42  77 102 136 188 243 290 348 427
#
# _framework density 24.050746
#
# number of rings (size 3 to 8) (size 9 to 14) (size 15 to 20)
#    0.000    1.000    5.000    1.125    3.500    2.500 
#    0.000    1.875    0.000    0.000    0.000    0.000 
#    0.000    0.000    0.000    0.000    0.000    0.000 
#
# Total GULP energy -198261.144360 kJ/mol
# GULP energy per Si atom -12391.321522 kJ/mol
# Density = 2.399601 g / cm^3
# Si number density = 24.050746 Si / 1000 Ang^3
#
#
#
# Elastic Constant Matrix: (Units=GPa)
#
#
# Indices 1 2 3 4 5 6 
#
# 1 124.9537 32.3913 41.7604 -19.0333 27.3978 -14.2928
# 2 32.3913 100.0596 38.6621 -1.0308 12.9141 -2.3419
# 3 41.7604 38.6621 151.0960 -1.4883 17.1186 -9.7196
# 4 -19.0333 -1.0308 -1.4883 38.2709 -3.7474 9.2796
# 5 27.3978 12.9141 17.1186 -3.7474 34.1111 -5.5188
# 6 -14.2928 -2.3419 -9.7196 9.2796 -5.5188 31.0684
#
#
#
# Elastic Compliance Matrix: (Units=1/GPa)
#
#
# Indices 1 2 3 4 5 6 
#
# 1 0.011515 -0.002102 -0.001700 0.004437 -0.006777 0.002078
# 2 -0.002102 0.011767 -0.002285 -0.000783 -0.001850 -0.000890
# 3 -0.001700 -0.002285 0.007948 -0.001141 -0.001627 0.001584
# 4 0.004437 -0.000783 -0.001141 0.030017 -0.000602 -0.007447
# 5 -0.006777 -0.001850 -0.001627 -0.000602 0.036684 0.002930
# 6 0.002078 -0.000890 0.001584 -0.007447 0.002930 0.036317
#
#
# Mechanical properties :
#
#
# Convention : Reuss Voigt Hill
#
# Bulk Modulus (GPa) = 52.47576 66.85966 59.66771
# Shear Modulus (GPa) = 32.72792 38.24311 35.48552
#
# Velocity S-wave (km/s) = 3.69289 3.99193 3.84532
# Velocity P-wave (km/s) = 6.32845 7.00765 6.67669
#
# Compressibility (1/GPa) = 0.01905642
#
# Stress axis : x y z
#
# Youngs Moduli (GPa) = 86.84089 84.98029 125.81984
#
# Poissons Ratio (x) = 0.17863 0.21384
# Poissons Ratio (y) = 0.18254 0.28755
# Poissons Ratio (z) = 0.14759 0.19422
#
# Static dielectric constant tensor:
#      x y z
#    x 4.494230 0.089930 0.450510 
#    y 0.089930 4.553770 -0.278900 
#    z 0.450510 -0.278900 4.666850 
# 
# 
# High freq. dielectric constant tensor:
#      x y z
#    x 1.949790 0.013730 0.029520 
#    y 0.013730 1.952520 -0.010460 
#    z 0.029520 -0.010460 1.956580 
# 
# From -- ./inp_files/297320.got.cif
#   From: 2010.06.25/outbox.cif.g09.slc.cpg/sg2_149_cif.got.tgz:297320.got - 2010.06.27 13:26:56.
