data_PCOD8026203
_publ_section_title
;
Structure prediction by ZEFSAII (Michael W. Deem and Ramdas Pophale) SiO2 
 PCOD8026203
Probable space group: P -1
;
_chemical_formula_sum "Si O2"
_cell_formula_units_Z 16
_cell_length_a 6.530023
_cell_length_b 10.709413
_cell_length_c 12.520075
_cell_angle_alpha 60.763279
_cell_angle_beta 100.654266
_cell_angle_gamma 97.958246
_cell_volume 749.668395
_symmetry_space_group_name_H-M "P -1"
_symmetry_group_IT_number 2
_symmetry_cell_setting 'triclinic'
loop_
_space_group_symop_operation_xyz
x,y,z
-x,-y,-z
loop_
_atom_site_type_symbol
_atom_site_label
_atom_site_fract_x
_atom_site_fract_y
_atom_site_fract_z
Si Si1 0.438811 0.852594 0.922608
Si Si2 0.320425 0.188775 0.243076
Si Si3 0.185617 0.083990 0.916813
Si Si4 0.711045 0.477899 0.473856
Si Si5 0.084417 0.647000 0.894454
Si Si6 0.311721 0.658467 0.694668
Si Si7 0.844184 0.062266 0.539850
Si Si8 0.004798 0.259146 0.648280
O O1 0.554631 0.885742 0.808504
O O2 0.286349 0.709088 0.955342
O O3 0.294821 0.980101 0.888279
O O4 0.629332 0.836169 0.030125
O O5 0.453849 0.329678 0.239932
O O6 0.093751 0.237833 0.165645
O O7 0.310966 0.068107 0.383466
O O8 0.081882 0.212002 0.790902
O O9 0.000000 0.000000 0.000000
O O10 0.500000 0.500000 0.500000
O O11 0.702250 0.456749 0.353459
O O12 0.844239 0.624853 0.447083
O O13 0.790852 0.340785 0.602485
O O14 0.145787 0.616914 0.789623
O O15 0.000000 0.500000 0.000000
O O16 0.276490 0.814716 0.579463
O O17 0.975671 0.119052 0.631351
O O18 0.000000 0.000000 0.500000
#
# Coordination Sequence:
#
# PCOD8026203 Si02
#       8
#     2   2   2   2   2   2   2   2
#     4  10  24  41  63  99 128 170 223 267 331 393
#     4  11  23  41  65  94 132 164 212 278 326 390
#     4  11  23  42  68  95 131 171 218 273 330 384
#     4  10  24  43  63  91 132 171 215 264 317 391
#     4  11  24  43  63  91 133 174 221 273 322 386
#     4  10  24  40  64  99 123 174 221 261 337 391
#     4  11  21  39  68  96 127 161 206 271 334 389
#     4  10  24  41  63  94 129 166 214 260 321 391
#
# _framework density 21.342769000000001
#
# number of rings (size 3 to 8) (size 9 to 14) (size 15 to 20)
#    0.000    1.500    1.250    2.625    3.500   10.000 
#    0.000    0.000    0.000    0.000    0.000    0.000 
#    0.000    0.000    0.000    0.000    0.000    0.000 
#
# Total GULP energy -198348.254056 kJ/mol
# GULP energy per Si atom -12396.765879 kJ/mol
# Density = 2.129419 g / cm^3
# Si number density = 21.342769 Si / 1000 Ang^3
#
#
#
# Elastic Constant Matrix: (Units=GPa)
#
#
# Indices 1 2 3 4 5 6 
#
# 1 148.1929 55.9119 59.8170 11.0299 -12.1009 -7.2651
# 2 55.9119 67.3116 34.0584 -2.3178 -7.2988 3.2366
# 3 59.8170 34.0584 127.7346 -9.0165 -5.1287 -1.4379
# 4 11.0299 -2.3178 -9.0165 30.5554 5.2954 -0.9307
# 5 -12.1009 -7.2988 -5.1287 5.2954 39.4069 7.8448
# 6 -7.2651 3.2366 -1.4379 -0.9307 7.8448 32.4050
#
#
#
# Elastic Compliance Matrix: (Units=1/GPa)
#
#
# Indices 1 2 3 4 5 6 
#
# 1 0.012228 -0.008345 -0.003844 -0.006451 0.002033 0.002727
# 2 -0.008345 0.023381 -0.002040 0.003707 0.001932 -0.004658
# 3 -0.003844 -0.002040 0.010456 0.004465 -0.000824 0.000134
# 4 -0.006451 0.003707 0.004465 0.037716 -0.005962 0.000908
# 5 0.002033 0.001932 -0.000824 -0.005962 0.028410 -0.006823
# 6 0.002727 -0.004658 0.000134 0.000908 -0.006823 0.033620
#
#
# Mechanical properties :
#
#
# Convention : Reuss Voigt Hill
#
# Bulk Modulus (GPa) = 56.79209 71.42373 64.10791
# Shear Modulus (GPa) = 27.75665 33.37027 30.56346
#
# Velocity S-wave (km/s) = 3.61018 3.95845 3.78832
# Velocity P-wave (km/s) = 6.63665 7.37768 7.01696
#
# Compressibility (1/GPa) = 0.01760809
#
# Stress axis : x y z
#
# Youngs Moduli (GPa) = 81.78073 42.77027 95.63530
#
# Poissons Ratio (x) = 0.35690 0.36764
# Poissons Ratio (y) = 0.68243 0.19505
# Poissons Ratio (z) = 0.31438 0.08723
#
# Static dielectric constant tensor:
#      x y z
#    x 4.053980 0.135250 0.095810 
#    y 0.135250 3.870020 0.225330 
#    z 0.095810 0.225330 3.867580 
# 
# 
# High freq. dielectric constant tensor:
#      x y z
#    x 1.851330 0.007880 0.000480 
#    y 0.007880 1.839140 0.009220 
#    z 0.000480 0.009220 1.834440 
# 
# From -- ./inp_files/83233.got.cif
#   From: 2010.06.25/outbox.cif.g09.slc.cpg/sg2_42_cif.got.tgz:83233.got - 2010.06.27 13:26:56.
