data_PCOD8026921
_publ_section_title
;
Structure prediction by ZEFSAII (Michael W. Deem and Ramdas Pophale) SiO2 
 PCOD8026921
Probable space group: P -1
;
_chemical_formula_sum "Si O2"
_cell_formula_units_Z 16
_cell_length_a 11.812347
_cell_length_b 8.620072
_cell_length_c 17.592765
_cell_angle_alpha 65.137961
_cell_angle_beta 149.736600
_cell_angle_gamma 126.305838
_cell_volume 709.052095
_symmetry_space_group_name_H-M "P -1"
_symmetry_group_IT_number 2
_symmetry_cell_setting 'triclinic'
loop_
_space_group_symop_operation_xyz
x,y,z
-x,-y,-z
loop_
_atom_site_type_symbol
_atom_site_label
_atom_site_fract_x
_atom_site_fract_y
_atom_site_fract_z
Si Si1 0.277700 0.518550 0.654401
Si Si2 0.010709 0.904281 0.407987
Si Si3 0.402131 0.123214 0.462038
Si Si4 0.392958 0.868167 0.744573
Si Si5 0.933101 0.167369 0.948051
Si Si6 0.734735 0.144502 0.161890
Si Si7 0.677214 0.620995 0.741407
Si Si8 0.840556 0.442390 0.745302
O O1 0.451200 0.710725 0.766721
O O2 0.392904 0.541303 0.631080
O O3 0.000000 0.500000 0.500000
O O4 0.234794 0.313615 0.707782
O O5 0.144701 0.886398 0.567700
O O6 0.234677 0.975537 0.461179
O O7 0.898749 0.050658 0.311361
O O8 0.235869 0.179254 0.297817
O O9 0.630155 0.337049 0.578663
O O10 0.500000 0.000000 0.500000
O O11 0.373563 0.809023 0.834189
O O12 0.647285 0.078077 0.835925
O O13 0.951448 0.296188 0.858287
O O14 0.125669 0.326045 0.086630
O O15 0.000000 0.000000 0.000000
O O16 0.926693 0.345232 0.188323
O O17 0.500000 0.000000 0.000000
O O18 0.690295 0.460277 0.728253
#
# Coordination Sequence:
#
# PCOD8026921 Si02
#       8
#     2   2   2   2   2   2   2   2
#     4  10  24  43  71 107 140 190 241 294 354 425
#     4  11  25  46  70 104 143 191 239 295 358 428
#     4  12  25  45  73 107 143 186 246 298 356 426
#     4  11  24  47  73 103 141 194 243 287 361 433
#     4  12  25  48  74 105 141 188 243 301 361 433
#     4  12  29  48  69 110 151 186 238 297 363 427
#     4  12  25  45  74 103 146 186 244 302 355 426
#     4  12  28  47  72 107 143 191 241 300 366 425
#
# _framework density 22.565338000000001
#
# number of rings (size 3 to 8) (size 9 to 14) (size 15 to 20)
#    0.000    0.500    3.750    4.125    8.750    0.000 
#    0.000    1.250    0.000    0.000    0.000    0.000 
#    0.000    0.000    0.000    0.000    0.000    0.000 
#
# Total GULP energy -198347.269081 kJ/mol
# GULP energy per Si atom -12396.704318 kJ/mol
# Density = 2.251398 g / cm^3
# Si number density = 22.565338 Si / 1000 Ang^3
#
#
#
# Elastic Constant Matrix: (Units=GPa)
#
#
# Indices 1 2 3 4 5 6 
#
# 1 137.6151 55.5051 32.3927 7.5390 -7.5246 0.9702
# 2 55.5051 128.9392 21.1837 -5.8555 7.5334 12.9507
# 3 32.3927 21.1837 64.7649 -1.3550 2.4362 8.8479
# 4 7.5390 -5.8555 -1.3550 43.1573 2.1968 6.1108
# 5 -7.5246 7.5334 2.4362 2.1968 25.0031 -3.7699
# 6 0.9702 12.9507 8.8479 6.1108 -3.7699 42.2270
#
#
#
# Elastic Compliance Matrix: (Units=1/GPa)
#
#
# Indices 1 2 3 4 5 6 
#
# 1 0.010705 -0.004673 -0.004547 -0.003391 0.005846 0.003153
# 2 -0.004673 0.010689 -0.000336 0.003107 -0.005476 -0.004039
# 3 -0.004547 -0.000336 0.018612 0.002149 -0.003926 -0.004354
# 4 -0.003391 0.003107 0.002149 0.025289 -0.005210 -0.005450
# 5 0.005846 -0.005476 -0.003926 -0.005210 0.045326 0.007168
# 6 0.003153 -0.004039 -0.004354 -0.005450 0.007168 0.027189
#
#
# Mechanical properties :
#
#
# Convention : Reuss Voigt Hill
#
# Bulk Modulus (GPa) = 47.86252 61.05358 54.45805
# Shear Modulus (GPa) = 30.50862 36.89332 33.70097
#
# Velocity S-wave (km/s) = 3.68096 4.04784 3.86875
# Velocity P-wave (km/s) = 6.27078 6.99727 6.64396
#
# Compressibility (1/GPa) = 0.02089318
#
# Stress axis : x y z
#
# Youngs Moduli (GPa) = 93.41295 93.55109 53.72829
#
# Poissons Ratio (x) = 0.43721 0.24431
# Poissons Ratio (y) = 0.43656 0.01806
# Poissons Ratio (z) = 0.42477 0.03144
#
# Static dielectric constant tensor:
#      x y z
#    x 4.918440 1.415340 -0.263200 
#    y 1.415340 7.983390 -0.247620 
#    z -0.263200 -0.247620 4.151140 
# 
# 
# High freq. dielectric constant tensor:
#      x y z
#    x 1.895410 0.001860 0.003290 
#    y 0.001860 1.905660 0.001800 
#    z 0.003290 0.001800 1.881980 
# 
# From -- ./inp_files/283480.got.cif
#   From: 2010.06.25/outbox.cif.g09.slc.cpg/sg2_142_cif.got.tgz:283480.got - 2010.06.27 13:26:56.
