data_PCOD8026659
_publ_section_title
;
Structure prediction by ZEFSAII (Michael W. Deem and Ramdas Pophale) SiO2 
 PCOD8026659
Probable space group: P -1
;
_chemical_formula_sum "Si O2"
_cell_formula_units_Z 16
_cell_length_a 8.597472
_cell_length_b 13.655337
_cell_length_c 8.578385
_cell_angle_alpha 73.431324
_cell_angle_beta 60.149163
_cell_angle_gamma 110.229364
_cell_volume 677.998322
_symmetry_space_group_name_H-M "P -1"
_symmetry_group_IT_number 2
_symmetry_cell_setting 'triclinic'
loop_
_space_group_symop_operation_xyz
x,y,z
-x,-y,-z
loop_
_atom_site_type_symbol
_atom_site_label
_atom_site_fract_x
_atom_site_fract_y
_atom_site_fract_z
Si Si1 0.463005 0.461994 0.857050
Si Si2 0.697869 0.738223 0.553669
Si Si3 0.815740 0.813944 0.817478
Si Si4 0.170727 0.515107 0.529578
Si Si5 0.507057 0.123542 0.919018
Si Si6 0.380637 0.756418 0.511717
Si Si7 0.930993 0.242825 0.830075
Si Si8 0.241013 0.886854 0.702188
O O1 0.504335 0.585821 0.698788
O O2 0.632836 0.441161 0.705937
O O3 0.500000 0.500000 0.000000
O O4 0.243968 0.317441 0.013051
O O5 0.760531 0.787911 0.675193
O O6 0.590608 0.798602 0.495005
O O7 0.928865 0.787159 0.334066
O O8 0.077979 0.912757 0.681887
O O9 0.692877 0.874527 0.913769
O O10 0.238165 0.616063 0.582576
O O11 0.000000 0.500000 0.500000
O O12 0.091071 0.390539 0.726923
O O13 0.511287 0.141433 0.725159
O O14 0.736071 0.233670 0.834761
O O15 0.500000 0.000000 0.000000
O O16 0.208899 0.765754 0.693016
O O17 0.831663 0.146081 0.066875
O O18 0.500000 0.000000 0.500000
#
# Coordination Sequence:
#
# PCOD8026659 Si02
#       8
#     2   2   2   2   2   2   2   2
#     4   9  20  38  70 107 149 187 235 285 374 441
#     4  10  24  42  74 112 148 189 236 297 375 446
#     4  11  23  48  74 104 148 192 243 306 363 431
#     4  11  22  40  71 107 152 187 235 302 370 438
#     4  12  25  46  75 105 141 198 246 300 364 431
#     4  12  25  44  70 108 153 187 250 299 361 435
#     4  11  24  45  70 107 147 191 243 299 370 432
#     4  12  29  49  72 103 147 199 258 301 355 433
#
# _framework density 23.598880000000001
#
# number of rings (size 3 to 8) (size 9 to 14) (size 15 to 20)
#    0.000    1.000    2.500    3.000    5.250    3.500 
#    0.000    6.250    0.000    0.000    0.000    0.000 
#    0.000    0.000    0.000    0.000    0.000    0.000 
#
# Total GULP energy -198215.687058 kJ/mol
# GULP energy per Si atom -12388.480441 kJ/mol
# Density = 2.354517 g / cm^3
# Si number density = 23.598880 Si / 1000 Ang^3
#
#
#
# Elastic Constant Matrix: (Units=GPa)
#
#
# Indices 1 2 3 4 5 6 
#
# 1 163.4851 29.9069 55.0621 4.6270 -10.9145 0.4314
# 2 29.9069 94.4854 47.2528 3.6732 -9.2788 -6.9054
# 3 55.0621 47.2528 124.8759 4.8934 0.9800 -2.7658
# 4 4.6270 3.6732 4.8934 39.5118 -5.8535 -6.6771
# 5 -10.9145 -9.2788 0.9800 -5.8535 46.4527 2.2279
# 6 0.4314 -6.9054 -2.7658 -6.6771 2.2279 31.5241
#
#
#
# Elastic Compliance Matrix: (Units=1/GPa)
#
#
# Indices 1 2 3 4 5 6 
#
# 1 0.007378 -0.000712 -0.003000 -0.000300 0.001650 -0.000700
# 2 -0.000712 0.013643 -0.004823 0.000205 0.002569 0.002437
# 3 -0.003000 -0.004823 0.011205 -0.000900 -0.002014 -0.000081
# 4 -0.000300 0.000205 -0.000900 0.026815 0.003108 0.005430
# 5 0.001650 0.002569 -0.002014 0.003108 0.022891 -0.000596
# 6 -0.000700 0.002437 -0.000081 0.005430 -0.000596 0.033450
#
#
# Mechanical properties :
#
#
# Convention : Reuss Voigt Hill
#
# Bulk Modulus (GPa) = 65.98171 71.92111 68.95141
# Shear Modulus (GPa) = 36.36220 40.20600 38.28410
#
# Velocity S-wave (km/s) = 3.92962 4.13210 4.03213
# Velocity P-wave (km/s) = 6.97206 7.30125 7.13855
#
# Compressibility (1/GPa) = 0.01515572
#
# Stress axis : x y z
#
# Youngs Moduli (GPa) = 135.53534 73.29554 89.24440
#
# Poissons Ratio (x) = 0.05221 0.26778
# Poissons Ratio (y) = 0.09654 0.43041
# Poissons Ratio (z) = 0.40667 0.35349
#
# Static dielectric constant tensor:
#      x y z
#    x 4.258690 -0.007920 -0.077730 
#    y -0.007920 4.555400 -0.049920 
#    z -0.077730 -0.049920 4.457560 
# 
# 
# High freq. dielectric constant tensor:
#      x y z
#    x 1.934100 -0.004600 -0.000970 
#    y -0.004600 1.948860 0.003520 
#    z -0.000970 0.003520 1.942960 
# 
# From -- ./inp_files/206723.got.cif
#   From: 2010.06.25/outbox.cif.g09.slc.cpg/sg2_104_cif.got.tgz:206723.got - 2010.06.27 13:26:56.
