data_PCOD8026861
_publ_section_title
;
Structure prediction by ZEFSAII (Michael W. Deem and Ramdas Pophale) SiO2 
 PCOD8026861
Probable space group: P -1
;
_chemical_formula_sum "Si O2"
_cell_formula_units_Z 16
_cell_length_a 5.242059
_cell_length_b 11.997454
_cell_length_c 25.400199
_cell_angle_alpha 35.179361
_cell_angle_beta 85.914209
_cell_angle_gamma 107.265039
_cell_volume 721.872889
_symmetry_space_group_name_H-M "P -1"
_symmetry_group_IT_number 2
_symmetry_cell_setting 'triclinic'
loop_
_space_group_symop_operation_xyz
x,y,z
-x,-y,-z
loop_
_atom_site_type_symbol
_atom_site_label
_atom_site_fract_x
_atom_site_fract_y
_atom_site_fract_z
Si Si1 0.142181 0.521448 0.633001
Si Si2 0.774570 0.100755 0.999546
Si Si3 0.230592 0.290645 0.385227
Si Si4 0.243787 0.909712 0.782328
Si Si5 0.349333 0.633077 0.468638
Si Si6 0.338894 0.617393 0.047838
Si Si7 0.218044 0.025143 0.177593
Si Si8 0.424903 0.385347 0.839559
O O1 0.424720 0.611765 0.634896
O O2 0.313975 0.632699 0.531630
O O3 0.936202 0.613683 0.617065
O O4 0.897829 0.226834 0.750322
O O5 0.757692 0.861982 0.099391
O O6 0.730363 0.183257 0.025003
O O7 0.107693 0.355314 0.873943
O O8 0.500000 0.000000 0.000000
O O9 0.303177 0.379709 0.289084
O O10 0.000000 0.000000 0.500000
O O11 0.496934 0.895562 0.816036
O O12 0.956435 0.639232 0.871713
O O13 0.092885 0.019115 0.774229
O O14 0.422797 0.084330 0.661959
O O15 0.500000 0.500000 0.500000
O O16 0.000000 0.500000 0.500000
O O17 0.405025 0.596949 0.115345
O O18 0.647317 0.752636 0.951973
#
# Coordination Sequence:
#
# PCOD8026861 Si02
#       8
#     2   2   2   2   2   2   2   2
#     4  12  26  47  76  98 141 189 227 288 351 404
#     4   9  21  42  65  97 129 179 230 280 328 421
#     4  12  29  47  70 106 143 178 236 292 342 409
#     4  12  26  45  70 103 144 176 229 294 341 418
#     4  12  23  48  72 104 135 182 240 281 339 415
#     4  11  26  40  71  98 143 181 222 289 358 398
#     4  12  26  46  69 106 137 181 234 280 346 423
#     4  10  24  43  69  98 136 184 234 278 344 420
#
# _framework density 22.164567000000002
#
# number of rings (size 3 to 8) (size 9 to 14) (size 15 to 20)
#    0.000    0.750    2.500    3.375   14.000    1.000 
#    0.000    0.000    0.000    0.000    0.000    0.000 
#    0.000    0.000    0.000    0.000    0.000    0.000 
#
# Total GULP energy -198275.650772 kJ/mol
# GULP energy per Si atom -12392.228173 kJ/mol
# Density = 2.211412 g / cm^3
# Si number density = 22.164567 Si / 1000 Ang^3
#
#
#
# Elastic Constant Matrix: (Units=GPa)
#
#
# Indices 1 2 3 4 5 6 
#
# 1 89.4842 7.4795 7.0759 -0.2894 -9.1445 -0.8615
# 2 7.4795 72.0704 39.0672 -9.8798 3.7653 6.4328
# 3 7.0759 39.0672 173.0760 6.0186 -6.6712 11.9666
# 4 -0.2894 -9.8798 6.0186 49.1133 2.2556 0.4107
# 5 -9.1445 3.7653 -6.6712 2.2556 30.6292 1.4682
# 6 -0.8615 6.4328 11.9666 0.4107 1.4682 24.4184
#
#
#
# Elastic Compliance Matrix: (Units=1/GPa)
#
#
# Indices 1 2 3 4 5 6 
#
# 1 0.011682 -0.001499 -0.000026 -0.000403 0.003667 0.000606
# 2 -0.001499 0.017124 -0.003912 0.004101 -0.003587 -0.002500
# 3 -0.000026 -0.003912 0.006981 -0.001725 0.002240 -0.002497
# 4 -0.000403 0.004101 -0.001725 0.021517 -0.002563 -0.000457
# 5 0.003667 -0.003587 0.002240 -0.002563 0.034961 -0.002083
# 6 0.000606 -0.002500 -0.002497 -0.000457 -0.002083 0.042989
#
#
# Mechanical properties :
#
#
# Convention : Reuss Voigt Hill
#
# Bulk Modulus (GPa) = 40.14007 49.09731 44.61869
# Shear Modulus (GPa) = 32.37667 39.56605 35.97136
#
# Velocity S-wave (km/s) = 3.82611 4.22963 4.03292
# Velocity P-wave (km/s) = 6.13744 6.78619 6.46995
#
# Compressibility (1/GPa) = 0.02491276
#
# Stress axis : x y z
#
# Youngs Moduli (GPa) = 85.60346 58.39663 143.24841
#
# Poissons Ratio (x) = 0.08756 0.00368
# Poissons Ratio (y) = 0.12835 0.56039
# Poissons Ratio (z) = 0.00220 0.22845
#
# Static dielectric constant tensor:
#      x y z
#    x 4.584320 -0.546790 0.069110 
#    y -0.546790 4.923520 -0.118280 
#    z 0.069110 -0.118280 4.068360 
# 
# 
# High freq. dielectric constant tensor:
#      x y z
#    x 1.885620 -0.003160 -0.013360 
#    y -0.003160 1.874510 0.003010 
#    z -0.013360 0.003010 1.883250 
# 
# From -- ./inp_files/604445.got.cif
#   From: 2010.06.25/outbox.cif.g09.slc.cpg/sg2_303_cif.got.tgz:604445.got - 2010.06.27 13:26:56.
