data_PCOD8026336
_publ_section_title
;
Structure prediction by ZEFSAII (Michael W. Deem and Ramdas Pophale) SiO2 
 PCOD8026336
Probable space group: P -1
;
_chemical_formula_sum "Si O2"
_cell_formula_units_Z 16
_cell_length_a 13.079171
_cell_length_b 10.621357
_cell_length_c 5.215834
_cell_angle_alpha 110.841080
_cell_angle_beta 84.516918
_cell_angle_gamma 98.018480
_cell_volume 669.720947
_symmetry_space_group_name_H-M "P -1"
_symmetry_group_IT_number 2
_symmetry_cell_setting 'triclinic'
loop_
_space_group_symop_operation_xyz
x,y,z
-x,-y,-z
loop_
_atom_site_type_symbol
_atom_site_label
_atom_site_fract_x
_atom_site_fract_y
_atom_site_fract_z
Si Si1 0.573920 0.253642 0.014094
Si Si2 0.987421 0.097360 0.800787
Si Si3 0.836770 0.442885 0.462657
Si Si4 0.656328 0.721872 0.866153
Si Si5 0.186411 0.018923 0.960044
Si Si6 0.312800 0.808653 0.553369
Si Si7 0.972674 0.612066 0.899236
Si Si8 0.679978 0.549122 0.237808
O O1 0.614493 0.187499 0.212104
O O2 0.599578 0.416438 0.109922
O O3 0.451022 0.220270 0.004858
O O4 0.619875 0.176670 0.708920
O O5 0.074325 0.066173 0.961174
O O6 0.000000 0.000000 0.500000
O O7 0.862285 0.085628 0.883684
O O8 0.025771 0.252989 0.835192
O O9 0.754747 0.336910 0.549382
O O10 0.937047 0.367672 0.323652
O O11 0.791132 0.501753 0.254430
O O12 0.864948 0.568437 0.743880
O O13 0.690845 0.642014 0.050158
O O14 0.739056 0.850402 0.873094
O O15 0.641007 0.627393 0.550900
O O16 0.243005 0.933783 0.673959
O O17 0.000000 0.500000 0.000000
#
# Coordination Sequence:
#
# PCOD8026336 Si02
#       8
#     2   2   2   2   2   2   2   2
#     4  11  25  45  75 106 141 187 239 300 359 421
#     4  11  27  47  70 102 146 192 236 296 365 437
#     4  10  24  41  67 102 138 184 238 295 356 421
#     4  12  26  45  73 107 145 187 239 295 358 436
#     4  11  28  46  69 100 144 191 239 291 364 433
#     4  11  25  46  73 103 144 190 236 294 361 427
#     4  11  25  41  72 103 140 184 247 300 350 424
#     4  11  24  43  72 104 148 182 233 295 368 421
#
# _framework density 23.890547999999999
#
# number of rings (size 3 to 8) (size 9 to 14) (size 15 to 20)
#    0.000    1.000    1.250    3.750   12.250    2.000 
#    0.000    0.000    0.000    0.000    0.000    0.000 
#    0.000    0.000    0.000    0.000    0.000    0.000 
#
# Total GULP energy -198323.594204 kJ/mol
# GULP energy per Si atom -12395.224638 kJ/mol
# Density = 2.383617 g / cm^3
# Si number density = 23.890548 Si / 1000 Ang^3
#
#
#
# Elastic Constant Matrix: (Units=GPa)
#
#
# Indices 1 2 3 4 5 6 
#
# 1 128.2243 31.4097 26.3933 5.0269 -3.6750 15.2441
# 2 31.4097 89.7764 30.0204 19.2063 10.8021 4.0522
# 3 26.3933 30.0204 136.8968 10.2421 -10.1914 6.1490
# 4 5.0269 19.2063 10.2421 40.6480 -7.4622 2.7027
# 5 -3.6750 10.8021 -10.1914 -7.4622 38.9876 4.8979
# 6 15.2441 4.0522 6.1490 2.7027 4.8979 26.2463
#
#
#
# Elastic Compliance Matrix: (Units=1/GPa)
#
#
# Indices 1 2 3 4 5 6 
#
# 1 0.009459 -0.003451 -0.000739 0.001490 0.002622 -0.005430
# 2 -0.003451 0.015719 -0.002845 -0.007766 -0.007211 0.002389
# 3 -0.000739 -0.002845 0.008378 0.000009 0.003121 -0.001678
# 4 0.001490 -0.007766 0.000009 0.029948 0.008573 -0.004352
# 5 0.002622 -0.007211 0.003121 0.008573 0.031340 -0.007872
# 6 -0.005430 0.002389 -0.001678 -0.004352 -0.007872 0.043196
#
#
# Mechanical properties :
#
#
# Convention : Reuss Voigt Hill
#
# Bulk Modulus (GPa) = 51.32016 58.94937 55.13476
# Shear Modulus (GPa) = 31.52502 38.98130 35.25316
#
# Velocity S-wave (km/s) = 3.63652 4.04377 3.84554
# Velocity P-wave (km/s) = 6.25782 6.82137 6.54566
#
# Compressibility (1/GPa) = 0.01948552
#
# Stress axis : x y z
#
# Youngs Moduli (GPa) = 105.72263 63.61866 119.35840
#
# Poissons Ratio (x) = 0.21956 0.08822
# Poissons Ratio (y) = 0.36486 0.33954
# Poissons Ratio (z) = 0.07814 0.18098
#
# Static dielectric constant tensor:
#      x y z
#    x 5.464880 0.648190 0.959530 
#    y 0.648190 4.464330 0.657290 
#    z 0.959530 0.657290 5.528720 
# 
# 
# High freq. dielectric constant tensor:
#      x y z
#    x 1.960770 0.004820 -0.006020 
#    y 0.004820 1.940280 0.006050 
#    z -0.006020 0.006050 1.949080 
# 
# From -- ./inp_files/72212.got.cif
#   From: 2010.06.25/outbox.cif.g09.slc.cpg/sg2_37_cif.got.tgz:72212.got - 2010.06.27 13:26:56.
