data_PCOD8026596
_publ_section_title
;
Structure prediction by ZEFSAII (Michael W. Deem and Ramdas Pophale) SiO2 
 PCOD8026596
Probable space group: P -1
;
_chemical_formula_sum "Si O2"
_cell_formula_units_Z 14
_cell_length_a 11.248739
_cell_length_b 19.582083
_cell_length_c 22.527900
_cell_angle_alpha 160.818630
_cell_angle_beta 156.160862
_cell_angle_gamma 23.891988
_cell_volume 609.644323
_symmetry_space_group_name_H-M "P -1"
_symmetry_group_IT_number 2
_symmetry_cell_setting 'triclinic'
loop_
_space_group_symop_operation_xyz
x,y,z
-x,-y,-z
loop_
_atom_site_type_symbol
_atom_site_label
_atom_site_fract_x
_atom_site_fract_y
_atom_site_fract_z
Si Si1 0.694972 0.060995 0.088898
Si Si2 0.281353 0.547505 0.319038
Si Si3 0.802411 0.662971 0.095315
Si Si4 0.749515 0.483010 0.242874
Si Si5 0.370717 0.040632 0.407881
Si Si6 0.384941 0.130071 0.230634
Si Si7 0.219139 0.418935 0.795044
O O1 0.552564 0.330570 0.235541
O O2 0.056853 0.984582 0.212254
O O3 0.500000 0.000000 0.000000
O O4 0.681559 0.932672 0.917267
O O5 0.423051 0.706056 0.548478
O O6 0.049345 0.686224 0.274748
O O7 0.094382 0.454356 0.205406
O O8 0.585247 0.907082 0.174085
O O9 0.575462 0.558322 0.938984
O O10 0.000000 0.500000 0.000000
O O11 0.684414 0.711214 0.438891
O O12 0.865595 0.541119 0.280143
O O13 0.048527 0.263018 0.220873
O O14 0.500000 0.000000 0.500000
O O15 0.653067 0.843838 0.340804
O O16 0.500000 0.500000 0.000000
#
# Coordination Sequence:
#
# PCOD8026596 Si02
#       7
#     2   2   2   2   2   2   2
#     4  12  26  44  73 110 150 182 235 302 360 429
#     4  12  26  47  74 109 147 187 245 295 359 434
#     4  12  27  49  74 102 144 197 245 297 353 426
#     4  11  24  46  72 104 144 185 241 295 362 428
#     4  10  24  42  70 107 144 183 236 289 363 431
#     4  12  27  48  73 105 148 196 239 295 363 424
#     4  11  22  42  73 105 141 188 230 296 367 417
#
# _framework density 22.964207999999999
#
# number of rings (size 3 to 8) (size 9 to 14) (size 15 to 20)
#    0.000    0.571    4.286    3.429    8.000    1.143 
#    0.000    1.429    0.000    0.000    0.000    0.000 
#    0.000    0.000    0.000    0.000    0.000    0.000 
#
# Total GULP energy -173549.782362 kJ/mol
# GULP energy per Si atom -12396.413026 kJ/mol
# Density = 2.291194 g / cm^3
# Si number density = 22.964208 Si / 1000 Ang^3
#
#
#
# Elastic Constant Matrix: (Units=GPa)
#
#
# Indices 1 2 3 4 5 6 
#
# 1 67.6183 25.2086 29.0210 -5.4204 -3.9810 -6.4112
# 2 25.2086 160.4326 43.2346 11.8774 -9.6976 -10.9399
# 3 29.0210 43.2346 151.2134 -8.5516 -14.6230 -2.0663
# 4 -5.4204 11.8774 -8.5516 53.1205 -1.1643 -5.9743
# 5 -3.9810 -9.6976 -14.6230 -1.1643 28.2765 -2.9481
# 6 -6.4112 -10.9399 -2.0663 -5.9743 -2.9481 34.1524
#
#
#
# Elastic Compliance Matrix: (Units=1/GPa)
#
#
# Indices 1 2 3 4 5 6 
#
# 1 0.017064 -0.001920 -0.002485 0.002113 0.000846 0.002880
# 2 -0.001920 0.007328 -0.001667 -0.001881 0.001479 0.001685
# 3 -0.002485 -0.001667 0.007966 0.001475 0.003261 0.000021
# 4 0.002113 -0.001881 0.001475 0.020133 0.001614 0.003545
# 5 0.000846 0.001479 0.003261 0.001614 0.038204 0.004410
# 6 0.002880 0.001685 0.000021 0.003545 0.004410 0.031363
#
#
# Mechanical properties :
#
#
# Convention : Reuss Voigt Hill
#
# Bulk Modulus (GPa) = 49.47486 63.79920 56.63703
# Shear Modulus (GPa) = 35.47637 41.89654 38.68646
#
# Velocity S-wave (km/s) = 3.93473 4.27597 4.10889
# Velocity P-wave (km/s) = 6.49876 7.22640 6.87222
#
# Compressibility (1/GPa) = 0.02021228
#
# Stress axis : x y z
#
# Youngs Moduli (GPa) = 58.60389 136.47038 125.53714
#
# Poissons Ratio (x) = 0.26207 0.31198
# Poissons Ratio (y) = 0.11254 0.20925
# Poissons Ratio (z) = 0.14564 0.22748
#
# Static dielectric constant tensor:
#      x y z
#    x 3.686640 -0.452060 -0.195960 
#    y -0.452060 4.823260 0.359860 
#    z -0.195960 0.359860 4.351150 
# 
# 
# High freq. dielectric constant tensor:
#      x y z
#    x 1.873680 -0.014270 -0.007960 
#    y -0.014270 1.942680 0.006470 
#    z -0.007960 0.006470 1.919050 
# 
# From -- ./inp_files/299437.got.cif
#   From: 2010.06.25/outbox.cif.g09.slc.cpg/sg2_150_cif.got.tgz:299437.got - 2010.06.27 13:26:56.
