data_PCOD8026723
_publ_section_title
;
Structure prediction by ZEFSAII (Michael W. Deem and Ramdas Pophale) SiO2 
 PCOD8026723
Probable space group: P -1
;
_chemical_formula_sum "Si O2"
_cell_formula_units_Z 16
_cell_length_a 6.606672
_cell_length_b 8.898773
_cell_length_c 20.539750
_cell_angle_alpha 55.416658
_cell_angle_beta 45.009786
_cell_angle_gamma 54.201717
_cell_volume 667.226821
_symmetry_space_group_name_H-M "P -1"
_symmetry_group_IT_number 2
_symmetry_cell_setting 'triclinic'
loop_
_space_group_symop_operation_xyz
x,y,z
-x,-y,-z
loop_
_atom_site_type_symbol
_atom_site_label
_atom_site_fract_x
_atom_site_fract_y
_atom_site_fract_z
Si Si1 0.793822 0.574618 0.882040
Si Si2 0.859085 0.770554 0.039681
Si Si3 0.318234 0.045952 0.597391
Si Si4 0.386049 0.635468 0.730555
Si Si5 0.356894 0.616484 0.155355
Si Si6 0.211916 0.619827 0.397879
Si Si7 0.331652 0.219016 0.684359
Si Si8 0.681088 0.034750 0.135740
O O1 0.664489 0.438755 0.900562
O O2 0.557198 0.787285 0.891503
O O3 0.898685 0.447687 0.955461
O O4 0.090108 0.602041 0.775911
O O5 0.548937 0.766729 0.076903
O O6 0.769120 0.851066 0.113440
O O7 0.016329 0.906127 0.932051
O O8 0.417463 0.170040 0.600450
O O9 0.977353 0.158685 0.626918
O O10 0.500000 0.000000 0.500000
O O11 0.352211 0.853800 0.675007
O O12 0.442775 0.582099 0.806664
O O13 0.670439 0.486661 0.669058
O O14 0.028148 0.697104 0.243742
O O15 0.489950 0.627499 0.378581
O O16 0.000000 0.500000 0.500000
O O17 0.441984 0.030932 0.753206
#
# Coordination Sequence:
#
# PCOD8026723 Si02
#       8
#     2   2   2   2   2   2   2   2
#     4  11  22  42  67  98 137 183 227 272 334 405
#     4  10  24  43  66 103 142 178 225 282 331 392
#     4  12  27  46  70 102 131 176 234 286 342 410
#     4  11  23  43  68  98 134 179 224 280 342 399
#     4  11  22  42  69  99 138 180 227 275 333 407
#     4  12  25  48  69  97 138 173 223 290 347 404
#     4  12  25  45  72  99 136 186 226 277 350 406
#     4  11  23  45  69 100 140 182 226 278 336 402
#
# _framework density 23.979854
#
# number of rings (size 3 to 8) (size 9 to 14) (size 15 to 20)
#    0.000    0.750    5.000    2.625    1.750    2.000 
#    2.250    0.000    0.000    0.000    0.000    0.000 
#    0.000    0.000    0.000    0.000    0.000    0.000 
#
# Total GULP energy -198236.544453 kJ/mol
# GULP energy per Si atom -12389.784028 kJ/mol
# Density = 2.392527 g / cm^3
# Si number density = 23.979854 Si / 1000 Ang^3
#
#
#
# Elastic Constant Matrix: (Units=GPa)
#
#
# Indices 1 2 3 4 5 6 
#
# 1 104.5098 13.9916 23.5110 -11.6638 -31.7702 -0.6399
# 2 13.9916 88.3879 -4.7845 -2.7920 -17.2506 -20.7795
# 3 23.5110 -4.7845 74.5056 -9.1806 -27.6557 3.2261
# 4 -11.6638 -2.7920 -9.1806 29.8014 4.6972 -8.8282
# 5 -31.7702 -17.2506 -27.6557 4.6972 41.5234 -2.1585
# 6 -0.6399 -20.7795 3.2261 -8.8282 -2.1585 32.2155
#
#
#
# Elastic Compliance Matrix: (Units=1/GPa)
#
#
# Indices 1 2 3 4 5 6 
#
# 1 0.012968 0.000580 0.000012 0.004319 0.009811 0.002471
# 2 0.000580 0.016686 0.004995 0.005324 0.010747 0.012453
# 3 0.000012 0.004995 0.019734 0.005310 0.014818 0.003694
# 4 0.004319 0.005324 0.005310 0.040869 0.005186 0.014535
# 5 0.009811 0.010747 0.014818 0.005186 0.045864 0.010137
# 6 0.002471 0.012453 0.003694 0.014535 0.010137 0.043415
#
#
# Mechanical properties :
#
#
# Convention : Reuss Voigt Hill
#
# Bulk Modulus (GPa) = 16.51254 36.98217 26.74736
# Shear Modulus (GPa) = 26.51846 36.35375 31.43611
#
# Velocity S-wave (km/s) = 3.32906 3.89782 3.62462
# Velocity P-wave (km/s) = 4.65594 5.97604 5.35681
#
# Compressibility (1/GPa) = 0.06056003
#
# Stress axis : x y z
#
# Youngs Moduli (GPa) = 77.11504 59.93181 50.67496
#
# Poissons Ratio (x) = -0.03477 -0.00061
# Poissons Ratio (y) = -0.04473 -0.25310
# Poissons Ratio (z) = -0.00092 -0.29933
#
# Static dielectric constant tensor:
#      x y z
#    x 4.454650 -0.161780 -0.213840 
#    y -0.161780 4.412790 -0.009630 
#    z -0.213840 -0.009630 4.268860 
# 
# 
# High freq. dielectric constant tensor:
#      x y z
#    x 1.954670 -0.008300 -0.011290 
#    y -0.008300 1.958330 -0.002110 
#    z -0.011290 -0.002110 1.944670 
# 
# From -- ./inp_files/123009.got.cif
#   From: 2010.06.25/outbox.cif.g09.slc.cpg/sg2_62_cif.got.tgz:123009.got - 2010.06.27 13:26:56.
