data_PCOD8026565
_publ_section_title
;
Structure prediction by ZEFSAII (Michael W. Deem and Ramdas Pophale) SiO2 
 PCOD8026565
Probable space group: P -1
;
_chemical_formula_sum "Si O2"
_cell_formula_units_Z 14
_cell_length_a 9.899960
_cell_length_b 10.301617
_cell_length_c 7.222830
_cell_angle_alpha 114.454691
_cell_angle_beta 84.337465
_cell_angle_gamma 110.145316
_cell_volume 628.687670
_symmetry_space_group_name_H-M "P -1"
_symmetry_group_IT_number 2
_symmetry_cell_setting 'triclinic'
loop_
_space_group_symop_operation_xyz
x,y,z
-x,-y,-z
loop_
_atom_site_type_symbol
_atom_site_label
_atom_site_fract_x
_atom_site_fract_y
_atom_site_fract_z
Si Si1 0.972192 0.342132 0.005028
Si Si2 0.057177 0.866663 0.457058
Si Si3 0.852071 0.655248 0.658334
Si Si4 0.571403 0.708825 0.642856
Si Si5 0.370928 0.064836 0.532617
Si Si6 0.401319 0.387656 0.799864
Si Si7 0.732637 0.418455 0.245112
O O1 0.091653 0.350643 0.147452
O O2 0.259775 0.439963 0.815472
O O3 0.969128 0.220975 0.782561
O O4 0.000000 0.500000 0.000000
O O5 0.974018 0.772050 0.586072
O O6 0.226279 0.928330 0.519081
O O7 0.000000 0.000000 0.500000
O O8 0.710163 0.702238 0.732234
O O9 0.807598 0.489952 0.470923
O O10 0.185909 0.693171 0.902789
O O11 0.621838 0.877428 0.645880
O O12 0.472254 0.414168 0.596448
O O13 0.434414 0.686113 0.778032
O O14 0.373961 0.210988 0.749652
O O15 0.500000 0.000000 0.500000
O O16 0.500000 0.500000 0.000000
#
# Coordination Sequence:
#
# PCOD8026565 Si02
#       7
#     2   2   2   2   2   2   2
#     4  12  29  43  76 110 136 191 251 292 362 428
#     4  12  25  52  70 101 154 191 239 286 367 441
#     4  11  23  47  73 102 149 191 235 302 358 423
#     4   9  22  44  69 100 147 180 235 297 365 404
#     4  10  24  42  69 103 144 185 228 297 355 420
#     4   9  20  39  69 102 133 183 232 287 354 415
#     4  11  22  44  68 110 138 180 242 314 344 414
#
# _framework density 22.268611
#
# number of rings (size 3 to 8) (size 9 to 14) (size 15 to 20)
#    0.857    0.571    2.857    2.143    4.000    2.857 
#    0.000    0.714    0.000    0.000    0.000    0.000 
#    0.000    0.000    0.000    0.000    0.000    0.000 
#
# Total GULP energy -173477.310756 kJ/mol
# GULP energy per Si atom -12391.236483 kJ/mol
# Density = 2.221793 g / cm^3
# Si number density = 22.268611 Si / 1000 Ang^3
#
#
#
# Elastic Constant Matrix: (Units=GPa)
#
#
# Indices 1 2 3 4 5 6 
#
# 1 173.9577 60.6618 58.0087 -3.6847 9.1684 2.0853
# 2 60.6618 94.7198 49.2316 -1.4978 3.1067 4.5551
# 3 58.0087 49.2316 117.7089 9.4794 22.6009 -7.3324
# 4 -3.6847 -1.4978 9.4794 30.8424 -2.7113 -4.1350
# 5 9.1684 3.1067 22.6009 -2.7113 33.5444 -2.3111
# 6 2.0853 4.5551 -7.3324 -4.1350 -2.3111 46.2829
#
#
#
# Elastic Compliance Matrix: (Units=1/GPa)
#
#
# Indices 1 2 3 4 5 6 
#
# 1 0.007913 -0.003757 -0.002451 0.001478 -0.000061 -0.000246
# 2 -0.003757 0.015994 -0.005805 0.002157 0.003496 -0.001957
# 3 -0.002451 -0.005805 0.014389 -0.005498 -0.008791 0.002031
# 4 0.001478 0.002157 -0.005498 0.035240 0.006107 0.002303
# 5 -0.000061 0.003496 -0.008791 0.006107 0.035963 0.000607
# 6 -0.000246 -0.001957 0.002031 0.002303 0.000607 0.022368
#
#
# Mechanical properties :
#
#
# Convention : Reuss Voigt Hill
#
# Bulk Modulus (GPa) = 70.07608 80.24338 75.15973
# Shear Modulus (GPa) = 31.12355 36.69955 33.91155
#
# Velocity S-wave (km/s) = 3.74256 4.06401 3.90659
# Velocity P-wave (km/s) = 7.08608 7.62457 7.36025
#
# Compressibility (1/GPa) = 0.01427020
#
# Stress axis : x y z
#
# Youngs Moduli (GPa) = 126.36722 62.52246 69.49838
#
# Poissons Ratio (x) = 0.23488 0.17036
# Poissons Ratio (y) = 0.47473 0.40345
# Poissons Ratio (z) = 0.30976 0.36295
#
# Static dielectric constant tensor:
#      x y z
#    x 4.406110 -0.127360 -0.313590 
#    y -0.127360 3.961370 -0.053890 
#    z -0.313590 -0.053890 3.846450 
# 
# 
# High freq. dielectric constant tensor:
#      x y z
#    x 1.894590 -0.003000 -0.009520 
#    y -0.003000 1.870090 -0.005070 
#    z -0.009520 -0.005070 1.858520 
# 
# From -- ./inp_files/159671.got.cif
#   From: 2010.06.25/outbox.cif.g09.slc.cpg/sg2_80_cif.got.tgz:159671.got - 2010.06.27 13:26:56.
