data_PCOD8026797
_publ_section_title
;
Structure prediction by ZEFSAII (Michael W. Deem and Ramdas Pophale) SiO2 
 PCOD8026797
Probable space group: P -1
;
_chemical_formula_sum "Si O2"
_cell_formula_units_Z 16
_cell_length_a 5.782804
_cell_length_b 17.936575
_cell_length_c 8.685440
_cell_angle_alpha 78.715660
_cell_angle_beta 129.462051
_cell_angle_gamma 95.079327
_cell_volume 681.315089
_symmetry_space_group_name_H-M "P -1"
_symmetry_group_IT_number 2
_symmetry_cell_setting 'triclinic'
loop_
_space_group_symop_operation_xyz
x,y,z
-x,-y,-z
loop_
_atom_site_type_symbol
_atom_site_label
_atom_site_fract_x
_atom_site_fract_y
_atom_site_fract_z
Si Si1 0.001371 0.332187 0.781799
Si Si2 0.969754 0.694932 0.546468
Si Si3 0.293813 0.908595 0.811479
Si Si4 0.315473 0.157133 0.475791
Si Si5 0.723169 0.541221 0.964732
Si Si6 0.327820 0.960943 0.145226
Si Si7 0.427361 0.416963 0.438362
Si Si8 0.437901 0.230886 0.177435
O O1 0.108825 0.313398 0.662583
O O2 0.645254 0.349041 0.626890
O O3 0.136912 0.408226 0.867617
O O4 0.112142 0.265883 0.973329
O O5 0.782791 0.770806 0.490809
O O6 0.891797 0.615647 0.632862
O O7 0.320967 0.704056 0.728547
O O8 0.459117 0.827403 0.886626
O O9 0.944933 0.902803 0.626179
O O10 0.431448 0.975555 0.741790
O O11 0.369237 0.925284 0.011010
O O12 0.608672 0.109690 0.683309
O O13 0.411657 0.186557 0.341055
O O14 0.533138 0.583225 0.730246
O O15 0.500000 0.500000 0.000000
O O16 0.000000 0.500000 0.000000
O O17 0.000000 0.000000 0.000000
O O18 0.500000 0.500000 0.500000
#
# Coordination Sequence:
#
# PCOD8026797 Si02
#       8
#     2   2   2   2   2   2   2   2
#     4  12  26  44  73  99 142 186 244 302 370 441
#     4  11  26  45  73 101 142 186 248 298 373 440
#     4  10  24  43  68 101 141 186 241 294 364 431
#     4  11  24  46  69  99 144 186 240 298 365 438
#     4  12  28  48  76 109 149 191 245 309 384 458
#     4  11  24  42  70 105 142 185 238 293 361 435
#     4  12  27  48  72 106 141 190 241 305 374 449
#     4  11  26  46  70 103 140 191 244 302 367 438
#
# _framework density 23.483996999999999
#
# number of rings (size 3 to 8) (size 9 to 14) (size 15 to 20)
#    0.000    0.750    1.250    4.875    3.500   13.000 
#    0.000    0.000    0.000    0.000    0.000    0.000 
#    0.000    0.000    0.000    0.000    0.000    0.000 
#
# Total GULP energy -198283.452124 kJ/mol
# GULP energy per Si atom -12392.715758 kJ/mol
# Density = 2.343055 g / cm^3
# Si number density = 23.483997 Si / 1000 Ang^3
#
#
#
# Elastic Constant Matrix: (Units=GPa)
#
#
# Indices 1 2 3 4 5 6 
#
# 1 120.9466 58.9042 52.2735 -1.6431 -0.4514 12.5244
# 2 58.9042 121.7942 57.5699 15.8672 0.2313 11.1364
# 3 52.2735 57.5699 134.1681 -14.0753 0.4983 -1.1744
# 4 -1.6431 15.8672 -14.0753 57.1225 -7.0436 0.8101
# 5 -0.4514 0.2313 0.4983 -7.0436 37.5110 -6.2394
# 6 12.5244 11.1364 -1.1744 0.8101 -6.2394 36.9248
#
#
#
# Elastic Compliance Matrix: (Units=1/GPa)
#
#
# Indices 1 2 3 4 5 6 
#
# 1 0.011836 -0.004310 -0.002692 0.000903 -0.000098 -0.002837
# 2 -0.004310 0.013424 -0.004640 -0.005143 -0.001517 -0.002878
# 3 -0.002692 -0.004640 0.010933 0.003997 0.001059 0.002751
# 4 0.000903 -0.005143 0.003997 0.020427 0.004094 0.001616
# 5 -0.000098 -0.001517 0.001059 0.004094 0.028289 0.005215
# 6 -0.002837 -0.002878 0.002751 0.001616 0.005215 0.029845
#
#
# Mechanical properties :
#
#
# Convention : Reuss Voigt Hill
#
# Bulk Modulus (GPa) = 77.46433 79.37824 78.42128
# Shear Modulus (GPa) = 35.12656 40.18908 37.65782
#
# Velocity S-wave (km/s) = 3.87171 4.14132 4.00878
# Velocity P-wave (km/s) = 7.28316 7.53271 7.40899
#
# Compressibility (1/GPa) = 0.01290917
#
# Stress axis : x y z
#
# Youngs Moduli (GPa) = 84.48542 74.49157 91.46969
#
# Poissons Ratio (x) = 0.32107 0.24623
# Poissons Ratio (y) = 0.36414 0.42442
# Poissons Ratio (z) = 0.22743 0.34564
#
# Static dielectric constant tensor:
#      x y z
#    x 6.688400 -0.345510 1.402480 
#    y -0.345510 4.539920 0.079300 
#    z 1.402480 0.079300 5.324940 
# 
# 
# High freq. dielectric constant tensor:
#      x y z
#    x 1.930240 -0.009560 0.001080 
#    y -0.009560 1.947580 0.010620 
#    z 0.001080 0.010620 1.940080 
# 
# From -- ./inp_files/139012.got.cif
#   From: 2010.06.25/outbox.cif.g09.slc.cpg/sg2_70_cif.got.tgz:139012.got - 2010.06.27 13:26:56.
