data_PCOD8026811
_publ_section_title
;
Structure prediction by ZEFSAII (Michael W. Deem and Ramdas Pophale) SiO2 
 PCOD8026811
Probable space group: P -1
;
_chemical_formula_sum "Si O2"
_cell_formula_units_Z 12
_cell_length_a 10.899797
_cell_length_b 5.482670
_cell_length_c 11.236251
_cell_angle_alpha 129.367807
_cell_angle_beta 110.307482
_cell_angle_gamma 72.977480
_cell_volume 484.399465
_symmetry_space_group_name_H-M "P -1"
_symmetry_group_IT_number 2
_symmetry_cell_setting 'triclinic'
loop_
_space_group_symop_operation_xyz
x,y,z
-x,-y,-z
loop_
_atom_site_type_symbol
_atom_site_label
_atom_site_fract_x
_atom_site_fract_y
_atom_site_fract_z
Si Si1 0.649836 0.327676 0.695870
Si Si2 0.388068 0.667077 0.671382
Si Si3 0.820725 0.742349 0.507826
Si Si4 0.545078 0.681574 0.183645
Si Si5 0.033317 0.697678 0.754163
Si Si6 0.890559 0.674873 0.934753
O O1 0.535576 0.517632 0.635220
O O2 0.582034 0.167671 0.736553
O O3 0.721021 0.058303 0.550592
O O4 0.747518 0.555867 0.860243
O O5 0.262272 0.509789 0.526478
O O6 0.373658 0.573755 0.779794
O O7 0.371698 0.039546 0.751032
O O8 0.941324 0.837816 0.657778
O O9 0.875234 0.608019 0.357472
O O10 0.500000 0.500000 0.000000
O O11 0.936093 0.602253 0.793321
O O12 0.123100 0.955986 0.917707
O O13 0.000000 0.500000 0.000000
#
# Coordination Sequence:
#
# PCOD8026811 Si02
#       6
#     2   2   2   2   2   2
#     4  10  25  41  73  99 144 182 241 291 363 420
#     4  10  25  43  72 105 142 187 232 299 358 429
#     4  11  23  48  66 109 140 192 234 296 364 432
#     4  10  24  43  68 109 144 187 236 291 363 425
#     4  10  26  44  72  97 145 186 246 290 358 427
#     4  11  23  46  68 101 134 190 240 298 348 425
#
# _framework density 24.772943999999999
#
# number of rings (size 3 to 8) (size 9 to 14) (size 15 to 20)
#    1.000    0.667    1.667    1.000    4.667    4.000 
#    0.000    0.000    0.000    0.000    0.000    0.000 
#    0.000    0.000    0.000    0.000    0.000    0.000 
#
# Total GULP energy -148680.707082 kJ/mol
# GULP energy per Si atom -12390.058924 kJ/mol
# Density = 2.471656 g / cm^3
# Si number density = 24.772944 Si / 1000 Ang^3
#
#
#
# Elastic Constant Matrix: (Units=GPa)
#
#
# Indices 1 2 3 4 5 6 
#
# 1 82.8025 8.8346 48.9910 -1.0830 14.1633 4.3889
# 2 8.8346 77.9940 27.1229 -1.0790 -5.3977 23.6520
# 3 48.9910 27.1229 126.2083 7.4184 -8.7210 2.6223
# 4 -1.0830 -1.0790 7.4184 23.8370 3.4424 8.6727
# 5 14.1633 -5.3977 -8.7210 3.4424 53.9161 13.4193
# 6 4.3889 23.6520 2.6223 8.6727 13.4193 38.5077
#
#
#
# Elastic Compliance Matrix: (Units=1/GPa)
#
#
# Indices 1 2 3 4 5 6 
#
# 1 0.017620 0.000515 -0.007596 0.004302 -0.005901 -0.000720
# 2 0.000515 0.018945 -0.004076 0.006784 0.004261 -0.014430
# 3 -0.007596 -0.004076 0.012259 -0.005800 0.003268 0.002702
# 4 0.004302 0.006784 -0.005800 0.049914 -0.000785 -0.015230
# 5 -0.005901 0.004261 0.003268 -0.000785 0.023649 -0.010231
# 6 -0.000720 -0.014430 0.002702 -0.015230 -0.010231 0.041726
#
#
# Mechanical properties :
#
#
# Convention : Reuss Voigt Hill
#
# Bulk Modulus (GPa) = 37.72153 50.76688 44.24420
# Shear Modulus (GPa) = 25.60641 36.72258 31.16450
#
# Velocity S-wave (km/s) = 3.21852 3.85433 3.55068
# Velocity P-wave (km/s) = 5.39183 6.35178 5.89139
#
# Compressibility (1/GPa) = 0.02651006
#
# Stress axis : x y z
#
# Youngs Moduli (GPa) = 56.75341 52.78336 81.57580
#
# Poissons Ratio (x) = -0.02719 0.61965
# Poissons Ratio (y) = -0.02923 0.33250
# Poissons Ratio (z) = 0.43110 0.21514
#
# Static dielectric constant tensor:
#      x y z
#    x 4.730040 0.073480 0.219800 
#    y 0.073480 4.012280 0.157760 
#    z 0.219800 0.157760 4.443770 
# 
# 
# High freq. dielectric constant tensor:
#      x y z
#    x 1.993320 0.002610 0.014460 
#    y 0.002610 1.961610 -0.001020 
#    z 0.014460 -0.001020 1.994290 
# 
# From -- ./inp_files/411392.got.cif
#   From: 2010.06.25/outbox.cif.g09.slc.cpg/sg2_206_cif.got.tgz:411392.got - 2010.06.27 13:26:56.
