data_PCOD8026054
_publ_section_title
;
Structure prediction by ZEFSAII (Michael W. Deem and Ramdas Pophale) SiO2 
 PCOD8026054
Probable space group: P -1
;
_chemical_formula_sum "Si O2"
_cell_formula_units_Z 14
_cell_length_a 8.198880
_cell_length_b 7.812514
_cell_length_c 17.056677
_cell_angle_alpha 55.083596
_cell_angle_beta 135.599395
_cell_angle_gamma 108.958105
_cell_volume 620.051410
_symmetry_space_group_name_H-M "P -1"
_symmetry_group_IT_number 2
_symmetry_cell_setting 'triclinic'
loop_
_space_group_symop_operation_xyz
x,y,z
-x,-y,-z
loop_
_atom_site_type_symbol
_atom_site_label
_atom_site_fract_x
_atom_site_fract_y
_atom_site_fract_z
Si Si1 0.404537 0.412137 0.752244
Si Si2 0.696288 0.211083 0.282207
Si Si3 0.573955 0.585000 0.613074
Si Si4 0.792784 0.958917 0.533964
Si Si5 0.064116 0.809590 0.181401
Si Si6 0.082945 0.718871 0.380060
Si Si7 0.642971 0.974639 0.894754
O O1 0.409403 0.542763 0.800877
O O2 0.528226 0.550059 0.697738
O O3 0.131491 0.405352 0.638008
O O4 0.547744 0.175762 0.864132
O O5 0.665771 0.057861 0.385512
O O6 0.569684 0.138287 0.180235
O O7 0.972469 0.201606 0.363563
O O8 0.615887 0.825557 0.552229
O O9 0.800399 0.426661 0.706359
O O10 0.328059 0.556255 0.491023
O O11 0.863600 0.142687 0.564140
O O12 0.015388 0.867039 0.241180
O O13 0.218454 0.964726 0.150743
O O14 0.815598 0.814919 0.049916
#
# Coordination Sequence:
#
# PCOD8026054 Si02
#       7
#     2   2   2   2   2   2   2
#     4  11  24  41  70  99 130 172 219 263 337 377
#     4  11  23  43  68  94 138 171 212 277 319 392
#     4  11  23  41  64 102 129 171 217 271 327 393
#     4  11  24  40  65 104 133 166 223 261 341 381
#     4  10  24  42  69  91 136 171 225 258 333 379
#     4  12  22  41  66 100 134 168 213 281 319 391
#     4  10  23  48  63 100 128 180 215 271 313 398
#
# _framework density 22.578772000000001
#
# number of rings (size 3 to 8) (size 9 to 14) (size 15 to 20)
#    0.000    1.143    2.857    3.000    2.000    2.857 
#    2.571    3.571    0.000    0.000    0.000    0.000 
#    0.000    0.000    0.000    0.000    0.000    0.000 
#
# Total GULP energy -173556.610853 kJ/mol
# GULP energy per Si atom -12396.900775 kJ/mol
# Density = 2.252738 g / cm^3
# Si number density = 22.578772 Si / 1000 Ang^3
#
#
#
# Elastic Constant Matrix: (Units=GPa)
#
#
# Indices 1 2 3 4 5 6 
#
# 1 67.0060 28.5170 19.5324 -11.0320 14.4561 1.3122
# 2 28.5170 93.5396 38.8748 -3.9655 9.0696 -8.0456
# 3 19.5324 38.8748 115.7145 2.2415 16.4663 -19.1048
# 4 -11.0320 -3.9655 2.2415 22.9184 -2.9914 1.4971
# 5 14.4561 9.0696 16.4663 -2.9914 27.6504 4.2159
# 6 1.3122 -8.0456 -19.1048 1.4971 4.2159 30.5456
#
#
#
# Elastic Compliance Matrix: (Units=1/GPa)
#
#
# Indices 1 2 3 4 5 6 
#
# 1 0.020283 -0.004790 -0.001396 0.008328 -0.006926 -0.002458
# 2 -0.004790 0.013788 -0.003544 0.000305 -0.000122 0.001623
# 3 -0.001396 -0.003544 0.012522 -0.003987 -0.007239 0.008153
# 4 0.008328 0.000305 -0.003987 0.048994 0.004096 -0.005738
# 5 -0.006926 -0.000122 -0.007239 0.004096 0.046234 -0.010844
# 6 -0.002458 0.001623 0.008153 -0.005738 -0.010844 0.040148
#
#
# Mechanical properties :
#
#
# Convention : Reuss Voigt Hill
#
# Bulk Modulus (GPa) = 36.85702 50.01206 43.43454
# Shear Modulus (GPa) = 23.75585 28.84529 26.30057
#
# Velocity S-wave (km/s) = 3.24718 3.57815 3.41667
# Velocity P-wave (km/s) = 5.51526 6.26650 5.90284
#
# Compressibility (1/GPa) = 0.02713187
#
# Stress axis : x y z
#
# Youngs Moduli (GPa) = 49.30200 72.52490 79.86149
#
# Poissons Ratio (x) = 0.34742 0.11149
# Poissons Ratio (y) = 0.23617 0.28305
# Poissons Ratio (z) = 0.06883 0.25705
#
# Static dielectric constant tensor:
#      x y z
#    x 4.311770 -0.243770 0.231470 
#    y -0.243770 3.828940 -0.081420 
#    z 0.231470 -0.081420 4.077940 
# 
# 
# High freq. dielectric constant tensor:
#      x y z
#    x 1.908160 -0.010360 0.009040 
#    y -0.010360 1.874200 -0.002630 
#    z 0.009040 -0.002630 1.876760 
# 
# From -- ./inp_files/555226.got.cif
#   From: 2010.06.25/outbox.cif.g09.slc.cpg/sg2_278_cif.got.tgz:555226.got - 2010.06.27 13:26:56.
