data_PCOD8026042
_publ_section_title
;
Structure prediction by ZEFSAII (Michael W. Deem and Ramdas Pophale) SiO2 
 PCOD8026042
Probable space group: P -1
;
_chemical_formula_sum "Si O2"
_cell_formula_units_Z 16
_cell_length_a 11.773554
_cell_length_b 11.917278
_cell_length_c 5.205570
_cell_angle_alpha 109.101885
_cell_angle_beta 82.903522
_cell_angle_gamma 82.077424
_cell_volume 672.393391
_symmetry_space_group_name_H-M "P -1"
_symmetry_group_IT_number 2
_symmetry_cell_setting 'triclinic'
loop_
_space_group_symop_operation_xyz
x,y,z
-x,-y,-z
loop_
_atom_site_type_symbol
_atom_site_label
_atom_site_fract_x
_atom_site_fract_y
_atom_site_fract_z
Si Si1 0.737478 0.469850 0.330052
Si Si2 0.389716 0.331033 0.802230
Si Si3 0.366235 0.062568 0.602872
Si Si4 0.458956 0.686914 0.766642
Si Si5 0.954889 0.072210 0.817433
Si Si6 0.301052 0.942353 0.038334
Si Si7 0.968060 0.334052 0.972514
Si Si8 0.890036 0.507465 0.715886
O O1 0.718638 0.556991 0.145995
O O2 0.633109 0.398024 0.332741
O O3 0.761676 0.544830 0.639053
O O4 0.861488 0.377359 0.233643
O O5 0.347973 0.205355 0.771130
O O6 0.460524 0.321485 0.509346
O O7 0.466899 0.364100 0.041388
O O8 0.311843 0.040965 0.326531
O O9 0.500000 0.000000 0.500000
O O10 0.302088 0.003037 0.803673
O O11 0.404090 0.826103 0.941607
O O12 0.009217 0.191644 0.874092
O O13 0.815947 0.106131 0.905166
O O14 0.000000 0.000000 0.500000
O O15 0.000000 0.000000 0.000000
O O16 0.905429 0.376778 0.751928
O O17 0.086832 0.387945 0.012447
O O18 0.000000 0.500000 0.500000
#
# Coordination Sequence:
#
# PCOD8026042 Si02
#       8
#     2   2   2   2   2   2   2   2
#     4  11  25  42  71 101 143 187 231 295 352 423
#     4  12  27  42  67 109 142 186 240 291 345 423
#     4  12  23  44  71 100 144 187 242 289 348 424
#     4  12  24  44  71 100 144 185 239 285 353 427
#     4  12  29  49  75 110 143 183 245 306 360 433
#     4  12  24  47  72 102 135 200 230 291 370 420
#     4  10  23  47  74  98 143 186 235 296 365 431
#     4   9  22  44  71 101 132 190 236 286 362 423
#
# _framework density 23.795594000000001
#
# number of rings (size 3 to 8) (size 9 to 14) (size 15 to 20)
#    0.000    0.750    3.750    2.625    7.000    2.000 
#   11.250    0.000    0.000    0.000    0.000    0.000 
#    0.000    0.000    0.000    0.000    0.000    0.000 
#
# Total GULP energy -198342.978681 kJ/mol
# GULP energy per Si atom -12396.436168 kJ/mol
# Density = 2.374143 g / cm^3
# Si number density = 23.795594 Si / 1000 Ang^3
#
#
#
# Elastic Constant Matrix: (Units=GPa)
#
#
# Indices 1 2 3 4 5 6 
#
# 1 86.3200 41.5297 50.0576 -1.4138 32.5223 1.8932
# 2 41.5297 163.4388 45.2514 -1.5787 19.6803 1.2928
# 3 50.0576 45.2514 102.3590 -23.2319 24.3518 -5.1493
# 4 -1.4138 -1.5787 -23.2319 47.5144 0.0500 1.1422
# 5 32.5223 19.6803 24.3518 0.0500 46.4282 -4.4450
# 6 1.8932 1.2928 -5.1493 1.1422 -4.4450 37.9034
#
#
#
# Elastic Compliance Matrix: (Units=1/GPa)
#
#
# Indices 1 2 3 4 5 6 
#
# 1 0.020829 -0.001928 -0.007849 -0.003197 -0.009951 -0.003112
# 2 -0.001928 0.007339 -0.002423 -0.000985 -0.000538 -0.000517
# 3 -0.007849 -0.002423 0.017153 0.008020 -0.002260 0.002298
# 4 -0.003197 -0.000985 0.008020 0.024833 -0.001542 0.000354
# 5 -0.009951 -0.000538 -0.002260 -0.001542 0.030289 0.003807
# 6 -0.003112 -0.000517 0.002298 0.000354 0.003807 0.027304
#
#
# Mechanical properties :
#
#
# Convention : Reuss Voigt Hill
#
# Bulk Modulus (GPa) = 47.79862 69.53279 58.66570
# Shear Modulus (GPa) = 31.42328 40.72114 36.07221
#
# Velocity S-wave (km/s) = 3.63788 4.14126 3.89771
# Velocity P-wave (km/s) = 6.14625 7.22157 6.70550
#
# Compressibility (1/GPa) = 0.02092111
#
# Stress axis : x y z
#
# Youngs Moduli (GPa) = 48.01075 136.26647 58.30024
#
# Poissons Ratio (x) = 0.26266 0.45757
# Poissons Ratio (y) = 0.09254 0.14128
# Poissons Ratio (z) = 0.37681 0.33021
#
# Static dielectric constant tensor:
#      x y z
#    x 4.741200 -0.045240 0.357490 
#    y -0.045240 4.462990 -0.046200 
#    z 0.357490 -0.046200 5.067130 
# 
# 
# High freq. dielectric constant tensor:
#      x y z
#    x 1.955430 0.005360 0.002940 
#    y 0.005360 1.944070 -0.012720 
#    z 0.002940 -0.012720 1.959190 
# 
# From -- ./inp_files/72275.got.cif
#   From: 2010.06.25/outbox.cif.g09.slc.cpg/sg2_37_cif.got.tgz:72275.got - 2010.06.27 13:26:56.
