data_PCOD8026070
_publ_section_title
;
Structure prediction by ZEFSAII (Michael W. Deem and Ramdas Pophale) SiO2 
 PCOD8026070
Probable space group: P -1
;
_chemical_formula_sum "Si O2"
_cell_formula_units_Z 16
_cell_length_a 26.376693
_cell_length_b 23.318026
_cell_length_c 6.185412
_cell_angle_alpha 119.203700
_cell_angle_beta 119.697230
_cell_angle_gamma 11.219631
_cell_volume 642.947852
_symmetry_space_group_name_H-M "P -1"
_symmetry_group_IT_number 2
_symmetry_cell_setting 'triclinic'
loop_
_space_group_symop_operation_xyz
x,y,z
-x,-y,-z
loop_
_atom_site_type_symbol
_atom_site_label
_atom_site_fract_x
_atom_site_fract_y
_atom_site_fract_z
Si Si1 0.743118 0.602571 0.425592
Si Si2 0.475519 0.254416 0.492536
Si Si3 0.739676 0.207406 0.842706
Si Si4 0.124593 0.164604 0.056832
Si Si5 0.588271 0.242807 0.398188
Si Si6 0.728083 0.805372 0.620630
Si Si7 0.172406 0.784421 0.277870
Si Si8 0.122433 0.266413 0.871996
O O1 0.776777 0.508616 0.509561
O O2 0.865196 0.440002 0.162738
O O3 0.434397 0.955020 0.385791
O O4 0.889561 0.508717 0.650073
O O5 0.424005 0.373757 0.449911
O O6 0.633261 0.100879 0.756848
O O7 0.616278 0.047151 0.258269
O O8 0.723039 0.147782 0.664785
O O9 0.714633 0.272134 0.681935
O O10 0.500000 0.500000 0.000000
O O11 0.012854 0.920112 0.009182
O O12 0.066367 0.293839 0.035116
O O13 0.182892 0.042458 0.783681
O O14 0.390479 0.494818 0.282655
O O15 0.820892 0.720234 0.908026
O O16 0.000000 0.500000 0.500000
O O17 0.500000 0.000000 0.500000
O O18 0.000000 0.000000 0.500000
#
# Coordination Sequence:
#
# PCOD8026070 Si02
#       8
#     2   2   2   2   2   2   2   2
#     4  11  25  49  77 105 154 193 251 309 386 437
#     4  10  24  46  72 107 140 194 245 310 370 447
#     4  11  25  47  71 101 144 191 237 302 374 440
#     4  10  23  48  70 105 146 195 240 313 376 442
#     4  11  25  47  70 108 145 184 254 296 374 456
#     4  12  28  48  79 117 153 206 260 308 374 467
#     4  11  25  47  70 100 140 194 234 301 375 436
#     4  10  24  48  74 104 153 197 239 314 383 428
#
# _framework density 24.885376000000001
#
# number of rings (size 3 to 8) (size 9 to 14) (size 15 to 20)
#    0.000    1.250    2.500    1.125    7.000    1.000 
#   18.000    0.000    0.000    0.000    0.000    0.000 
#    0.000    0.000    0.000    0.000    0.000    0.000 
#
# Total GULP energy -198227.254300 kJ/mol
# GULP energy per Si atom -12389.203394 kJ/mol
# Density = 2.482874 g / cm^3
# Si number density = 24.885376 Si / 1000 Ang^3
#
#
#
# Elastic Constant Matrix: (Units=GPa)
#
#
# Indices 1 2 3 4 5 6 
#
# 1 69.0507 34.0250 37.1715 20.2700 -8.1224 -34.1641
# 2 34.0250 101.4347 38.6892 6.7934 0.2195 -3.6741
# 3 37.1715 38.6892 139.3386 14.3423 13.0102 -13.4045
# 4 20.2700 6.7934 14.3423 48.6509 -3.9567 -12.1152
# 5 -8.1224 0.2195 13.0102 -3.9567 50.6706 0.6939
# 6 -34.1641 -3.6741 -13.4045 -12.1152 0.6939 35.9961
#
#
#
# Elastic Compliance Matrix: (Units=1/GPa)
#
#
# Indices 1 2 3 4 5 6 
#
# 1 0.042296 -0.010639 -0.005070 -0.005274 0.007233 0.035255
# 2 -0.010639 0.013749 -0.001823 0.000688 -0.001118 -0.009120
# 3 -0.005070 -0.001823 0.009273 -0.001091 -0.003246 -0.001850
# 4 -0.005274 0.000688 -0.001091 0.023732 0.001249 0.002621
# 5 0.007233 -0.001118 -0.003246 0.001249 0.021755 0.005543
# 6 0.035255 -0.009120 -0.001850 0.002621 0.005543 0.060397
#
#
# Mechanical properties :
#
#
# Convention : Reuss Voigt Hill
#
# Bulk Modulus (GPa) = 33.05481 58.84393 45.94937
# Shear Modulus (GPa) = 23.11065 40.39275 31.75170
#
# Velocity S-wave (km/s) = 3.05074 4.03321 3.57587
# Velocity P-wave (km/s) = 5.07159 6.73694 5.96269
#
# Compressibility (1/GPa) = 0.03025278
#
# Stress axis : x y z
#
# Youngs Moduli (GPa) = 23.64285 72.73419 107.84045
#
# Poissons Ratio (x) = 0.77384 0.54677
# Poissons Ratio (y) = 0.25154 0.19660
# Poissons Ratio (z) = 0.11987 0.13260
#
# Static dielectric constant tensor:
#      x y z
#    x 4.334280 -0.661240 0.098220 
#    y -0.661240 3.387910 0.226640 
#    z 0.098220 0.226640 4.563730 
# 
# 
# High freq. dielectric constant tensor:
#      x y z
#    x 1.997090 -0.002560 -0.006180 
#    y -0.002560 1.984730 -0.007490 
#    z -0.006180 -0.007490 2.012440 
# 
# From -- ./inp_files/13268.got.cif
#   From: 2010.06.25/outbox.cif.g09.slc.cpg/sg2_7_cif.got.tgz:13268.got - 2010.06.27 13:26:56.
