data_PCOD8026242
_publ_section_title
;
Structure prediction by ZEFSAII (Michael W. Deem and Ramdas Pophale) SiO2 
 PCOD8026242
Probable space group: P -1
;
_chemical_formula_sum "Si O2"
_cell_formula_units_Z 10
_cell_length_a 9.971705
_cell_length_b 9.120099
_cell_length_c 10.149473
_cell_angle_alpha 66.729781
_cell_angle_beta 140.150037
_cell_angle_gamma 85.570304
_cell_volume 414.541412
_symmetry_space_group_name_H-M "P -1"
_symmetry_group_IT_number 2
_symmetry_cell_setting 'triclinic'
loop_
_space_group_symop_operation_xyz
x,y,z
-x,-y,-z
loop_
_atom_site_type_symbol
_atom_site_label
_atom_site_fract_x
_atom_site_fract_y
_atom_site_fract_z
Si Si1 0.910739 0.284199 0.471563
Si Si2 0.834458 0.221324 0.724783
Si Si3 0.738089 0.569606 0.703274
Si Si4 0.560588 0.224976 0.066063
Si Si5 0.435085 0.119560 0.764444
O O1 0.975243 0.192086 0.702029
O O2 0.816956 0.181850 0.346376
O O3 0.164998 0.245134 0.608391
O O4 0.679940 0.531720 0.217776
O O5 0.843062 0.366405 0.776188
O O6 0.510729 0.342524 0.414057
O O7 0.000000 0.000000 0.000000
O O8 0.617006 0.765327 0.449314
O O9 0.000000 0.500000 0.000000
O O10 0.470004 0.108387 0.119237
O O11 0.647344 0.114345 0.023144
#
# Coordination Sequence:
#
# PCOD8026242 Si02
#       5
#     2   2   2   2   2
#     4  11  24  42  69  96 129 173 223 271 325 394
#     4  11  28  46  67  99 140 176 220 276 336 396
#     4  11  28  46  67  99 140 176 220 276 336 396
#     4  10  24  40  68  96 134 162 226 272 334 372
#     4  11  24  42  69  96 129 173 223 271 325 394
#
# _framework density 24.123042999999999
#
# number of rings (size 3 to 8) (size 9 to 14) (size 15 to 20)
#    0.000    1.200    2.000    1.200   14.000    0.800 
#    0.000    0.000    0.000    0.000    0.000    0.000 
#    0.000    0.000    0.000    0.000    0.000    0.000 
#
# Total GULP energy -123942.937643 kJ/mol
# GULP energy per Si atom -12394.293764 kJ/mol
# Density = 2.406814 g / cm^3
# Si number density = 24.123043 Si / 1000 Ang^3
#
#
#
# Elastic Constant Matrix: (Units=GPa)
#
#
# Indices 1 2 3 4 5 6 
#
# 1 92.5018 16.0868 -5.9145 8.5626 1.7929 -5.6188
# 2 16.0868 138.5313 27.9930 -4.7673 -2.5507 20.9905
# 3 -5.9145 27.9930 63.2636 19.4378 -14.1394 14.3447
# 4 8.5626 -4.7673 19.4378 52.6444 20.6681 0.4733
# 5 1.7929 -2.5507 -14.1394 20.6681 45.7840 -10.3114
# 6 -5.6188 20.9905 14.3447 0.4733 -10.3114 34.7527
#
#
#
# Elastic Compliance Matrix: (Units=1/GPa)
#
#
# Indices 1 2 3 4 5 6 
#
# 1 0.012172 -0.002836 0.004120 -0.005245 0.003716 0.003154
# 2 -0.002836 0.009713 -0.006214 0.005653 -0.005018 -0.005326
# 3 0.004120 -0.006214 0.028574 -0.018004 0.015901 -0.002412
# 4 -0.005245 0.005653 -0.018004 0.035686 -0.022017 -0.003849
# 5 0.003716 -0.005018 0.015901 -0.022017 0.038228 0.008711
# 6 0.003154 -0.005326 -0.002412 -0.003849 0.008711 0.036134
#
#
# Mechanical properties :
#
#
# Convention : Reuss Voigt Hill
#
# Bulk Modulus (GPa) = 24.63118 41.18080 32.90599
# Shear Modulus (GPa) = 27.18853 43.71165 35.45009
#
# Velocity S-wave (km/s) = 3.36084 4.26141 3.83763
# Velocity P-wave (km/s) = 5.02923 6.42814 5.77123
#
# Compressibility (1/GPa) = 0.04059894
#
# Stress axis : x y z
#
# Youngs Moduli (GPa) = 82.15387 102.95832 34.99657
#
# Poissons Ratio (x) = 0.29199 -0.14417
# Poissons Ratio (y) = 0.23298 0.21746
# Poissons Ratio (z) = -0.33843 0.63975
#
# Static dielectric constant tensor:
#      x y z
#    x 3.538900 -1.756810 4.907490 
#    y -1.756810 0.432890 10.720800 
#    z 4.907490 10.720800 -21.864410 
# 
# 
# High freq. dielectric constant tensor:
#      x y z
#    x 1.948790 0.009280 0.009500 
#    y 0.009280 1.982130 -0.017230 
#    z 0.009500 -0.017230 1.982870 
# 
# From -- ./inp_files/144144.got.cif
#   From: 2010.06.25/outbox.cif.g09.slc.cpg/sg2_73_cif.got.tgz:144144.got - 2010.06.27 13:26:56.
