data_PCOD8026377
_publ_section_title
;
Structure prediction by ZEFSAII (Michael W. Deem and Ramdas Pophale) SiO2 
 PCOD8026377
Probable space group: P -1
;
_chemical_formula_sum "Si O2"
_cell_formula_units_Z 16
_cell_length_a 10.025264
_cell_length_b 11.260356
_cell_length_c 8.320673
_cell_angle_alpha 99.091502
_cell_angle_beta 110.906003
_cell_angle_gamma 121.351552
_cell_volume 676.253021
_symmetry_space_group_name_H-M "P -1"
_symmetry_group_IT_number 2
_symmetry_cell_setting 'triclinic'
loop_
_space_group_symop_operation_xyz
x,y,z
-x,-y,-z
loop_
_atom_site_type_symbol
_atom_site_label
_atom_site_fract_x
_atom_site_fract_y
_atom_site_fract_z
Si Si1 0.028596 0.480826 0.325791
Si Si2 0.371970 0.622577 0.285486
Si Si3 0.607493 0.908769 0.901954
Si Si4 0.295868 0.215583 0.334397
Si Si5 0.914283 0.058100 0.582593
Si Si6 0.974590 0.213181 0.115994
Si Si7 0.895449 0.633817 0.110059
Si Si8 0.543165 0.921575 0.231131
O O1 0.233511 0.572705 0.363882
O O2 0.931077 0.299845 0.236277
O O3 0.000000 0.500000 0.500000
O O4 0.928442 0.525139 0.184105
O O5 0.560440 0.665124 0.443161
O O6 0.415712 0.775872 0.260995
O O7 0.298234 0.487535 0.092356
O O8 0.526452 0.978069 0.781779
O O9 0.584618 0.775056 0.760739
O O10 0.825779 0.034140 0.047464
O O11 0.521072 0.851471 0.028861
O O12 0.178153 0.267438 0.239926
O O13 0.163281 0.040544 0.307742
O O14 0.079393 0.240649 0.729365
O O15 0.751823 0.036402 0.408646
O O16 0.000000 0.000000 0.500000
O O17 0.954661 0.260030 0.940100
#
# Coordination Sequence:
#
# PCOD8026377 Si02
#       8
#     2   2   2   2   2   2   2   2
#     4  11  26  43  74 100 135 186 236 287 342 421
#     4  10  24  47  66 101 143 177 236 282 353 413
#     4  11  22  40  71 104 138 181 239 290 346 413
#     4  11  25  41  72 104 139 188 227 295 349 410
#     4  11  25  43  70 104 141 185 234 281 351 422
#     4  11  23  45  71 101 141 184 238 283 352 417
#     4  11  24  44  72  96 137 187 225 283 350 406
#     4  10  24  41  70 102 144 180 233 296 344 408
#
# _framework density 23.659784999999999
#
# number of rings (size 3 to 8) (size 9 to 14) (size 15 to 20)
#    0.000    1.250    1.250    4.125    7.000    5.000 
#    0.000    2.500    2.750    0.000    0.000    0.000 
#    0.000    0.000    0.000    0.000    0.000    0.000 
#
# Total GULP energy -198324.149047 kJ/mol
# GULP energy per Si atom -12395.259315 kJ/mol
# Density = 2.360593 g / cm^3
# Si number density = 23.659785 Si / 1000 Ang^3
#
#
#
# Elastic Constant Matrix: (Units=GPa)
#
#
# Indices 1 2 3 4 5 6 
#
# 1 106.5489 25.1897 61.9310 1.0265 -5.1708 -19.0541
# 2 25.1897 68.9153 48.7601 1.1000 3.4706 -4.6995
# 3 61.9310 48.7601 135.3409 12.0916 0.8561 -16.6239
# 4 1.0265 1.1000 12.0916 48.5842 -1.2668 -3.9193
# 5 -5.1708 3.4706 0.8561 -1.2668 41.0805 4.4222
# 6 -19.0541 -4.6995 -16.6239 -3.9193 4.4222 38.4908
#
#
#
# Elastic Compliance Matrix: (Units=1/GPa)
#
#
# Indices 1 2 3 4 5 6 
#
# 1 0.013629 -0.000867 -0.005548 0.001492 0.001496 0.004225
# 2 -0.000867 0.019710 -0.006887 0.001190 -0.001519 -0.000702
# 3 -0.005548 -0.006887 0.012881 -0.002807 -0.000662 0.001766
# 4 0.001492 0.001190 -0.002807 0.021383 0.000614 0.001778
# 5 0.001496 -0.001519 -0.000662 0.000614 0.024965 -0.002537
# 6 0.004225 -0.000702 0.001766 0.001778 -0.002537 0.029221
#
#
# Mechanical properties :
#
#
# Convention : Reuss Voigt Hill
#
# Bulk Modulus (GPa) = 50.98140 64.72963 57.85551
# Shear Modulus (GPa) = 32.27252 37.29271 34.78261
#
# Velocity S-wave (km/s) = 3.69728 3.97445 3.83837
# Velocity P-wave (km/s) = 6.31038 6.96273 6.64457
#
# Compressibility (1/GPa) = 0.01961500
#
# Stress axis : x y z
#
# Youngs Moduli (GPa) = 73.37426 50.73545 77.63645
#
# Poissons Ratio (x) = 0.04400 0.43071
# Poissons Ratio (y) = 0.06364 0.53469
# Poissons Ratio (z) = 0.40707 0.34942
#
# Static dielectric constant tensor:
#      x y z
#    x 4.099760 0.087260 -0.052920 
#    y 0.087260 4.390210 -0.008690 
#    z -0.052920 -0.008690 4.561500 
# 
# 
# High freq. dielectric constant tensor:
#      x y z
#    x 1.920100 -0.003160 0.000360 
#    y -0.003160 1.937600 -0.006420 
#    z 0.000360 -0.006420 1.949590 
# 
# From -- ./inp_files/189440.got.cif
#   From: 2010.06.25/outbox.cif.g09.slc.cpg/sg2_95_cif.got.tgz:189440.got - 2010.06.27 13:26:56.
