data_PCOD8026260
_publ_section_title
;
Structure prediction by ZEFSAII (Michael W. Deem and Ramdas Pophale) SiO2 
 PCOD8026260
Probable space group: P -1
;
_chemical_formula_sum "Si O2"
_cell_formula_units_Z 14
_cell_length_a 19.006675
_cell_length_b 5.061084
_cell_length_c 14.516821
_cell_angle_alpha 63.103653
_cell_angle_beta 152.071388
_cell_angle_gamma 111.469598
_cell_volume 581.399979
_symmetry_space_group_name_H-M "P -1"
_symmetry_group_IT_number 2
_symmetry_cell_setting 'triclinic'
loop_
_space_group_symop_operation_xyz
x,y,z
-x,-y,-z
loop_
_atom_site_type_symbol
_atom_site_label
_atom_site_fract_x
_atom_site_fract_y
_atom_site_fract_z
Si Si1 0.051063 0.095967 0.641523
Si Si2 0.928777 0.753335 0.016287
Si Si3 0.633124 0.191004 0.306574
Si Si4 0.750947 0.450191 0.227972
Si Si5 0.452635 0.635522 0.157320
Si Si6 0.036266 0.105345 0.246110
Si Si7 0.586474 0.680597 0.645624
O O1 0.915139 0.337943 0.475227
O O2 0.043334 0.855041 0.751393
O O3 0.220113 0.206216 0.815192
O O4 0.000000 0.000000 0.500000
O O5 0.754366 0.721320 0.797686
O O6 0.978812 0.554691 0.858547
O O7 0.946585 0.866446 0.123890
O O8 0.000000 0.000000 0.000000
O O9 0.635514 0.393740 0.185076
O O10 0.583154 0.415694 0.295539
O O11 0.788669 0.005296 0.537496
O O12 0.508022 0.959983 0.185451
O O13 0.693439 0.316092 0.086784
O O14 0.406144 0.491962 0.221692
O O15 0.500000 0.500000 0.500000
O O16 0.500000 0.000000 0.500000
#
# Coordination Sequence:
#
# PCOD8026260 Si02
#       7
#     2   2   2   2   2   2   2
#     4  10  24  40  71  99 148 186 232 300 350 433
#     4  12  28  50  81 106 140 189 249 308 355 439
#     4  11  26  43  73 108 146 192 230 299 349 446
#     4  10  24  42  66 107 140 190 240 286 356 429
#     4  12  26  45  73  99 150 190 239 289 371 429
#     4  11  26  46  75 107 145 183 249 288 373 413
#     4  12  29  50  74 106 145 188 244 302 373 421
#
# _framework density 24.079806000000001
#
# number of rings (size 3 to 8) (size 9 to 14) (size 15 to 20)
#    0.000    0.857    0.000    4.714   20.000    0.000 
#    0.000    0.000    0.000    0.000    0.000    0.000 
#    0.000    0.000    0.000    0.000    0.000    0.000 
#
# Total GULP energy -173520.252574 kJ/mol
# GULP energy per Si atom -12394.303755 kJ/mol
# Density = 2.402500 g / cm^3
# Si number density = 24.079806 Si / 1000 Ang^3
#
#
#
# Elastic Constant Matrix: (Units=GPa)
#
#
# Indices 1 2 3 4 5 6 
#
# 1 107.8526 34.8696 34.3304 5.7416 -7.8971 23.6901
# 2 34.8696 86.7937 32.1479 24.4425 16.2762 17.8248
# 3 34.3304 32.1479 121.4687 23.1188 5.7662 14.4438
# 4 5.7416 24.4425 23.1188 38.8819 -4.9024 -4.1328
# 5 -7.8971 16.2762 5.7662 -4.9024 37.7534 5.4223
# 6 23.6901 17.8248 14.4438 -4.1328 5.4223 52.1533
#
#
#
# Elastic Compliance Matrix: (Units=1/GPa)
#
#
# Indices 1 2 3 4 5 6 
#
# 1 0.013123 -0.005850 -0.002789 0.003863 0.006709 -0.003581
# 2 -0.005850 0.020951 -0.000135 -0.014136 -0.011439 -0.004397
# 3 -0.002789 -0.000135 0.010614 -0.006351 -0.002705 -0.001849
# 4 0.003863 -0.014136 -0.006351 0.040055 0.012104 0.006751
# 5 0.006709 -0.011439 -0.002705 0.012104 0.034960 -0.001064
# 6 -0.003581 -0.004397 -0.001849 0.006751 -0.001064 0.023461
#
#
# Mechanical properties :
#
#
# Convention : Reuss Voigt Hill
#
# Bulk Modulus (GPa) = 36.84599 57.64566 47.24583
# Shear Modulus (GPa) = 29.45371 40.07554 34.76462
#
# Velocity S-wave (km/s) = 3.50118 4.08398 3.80376
# Velocity P-wave (km/s) = 5.62843 6.79926 6.24136
#
# Compressibility (1/GPa) = 0.02713999
#
# Stress axis : x y z
#
# Youngs Moduli (GPa) = 76.20243 47.73064 94.21878
#
# Poissons Ratio (x) = 0.27922 0.26274
# Poissons Ratio (y) = 0.44577 0.01274
# Poissons Ratio (z) = 0.21250 0.00646
#
# Static dielectric constant tensor:
#      x y z
#    x 4.768250 0.008470 0.440930 
#    y 0.008470 4.786040 -0.092950 
#    z 0.440930 -0.092950 5.619240 
# 
# 
# High freq. dielectric constant tensor:
#      x y z
#    x 1.965230 0.006120 0.004820 
#    y 0.006120 1.971260 0.002110 
#    z 0.004820 0.002110 1.967080 
# 
# From -- ./inp_files/539510.got.cif
#   From: 2010.06.25/outbox.cif.g09.slc.cpg/sg2_270_cif.got.tgz:539510.got - 2010.06.27 13:26:56.
