data_PCOD8026655
_publ_section_title
;
Structure prediction by ZEFSAII (Michael W. Deem and Ramdas Pophale) SiO2 
 PCOD8026655
Probable space group: P -1
;
_chemical_formula_sum "Si O2"
_cell_formula_units_Z 16
_cell_length_a 11.910920
_cell_length_b 19.224712
_cell_length_c 8.265002
_cell_angle_alpha 48.952138
_cell_angle_beta 50.039497
_cell_angle_gamma 29.720615
_cell_volume 694.381891
_symmetry_space_group_name_H-M "P -1"
_symmetry_group_IT_number 2
_symmetry_cell_setting 'triclinic'
loop_
_space_group_symop_operation_xyz
x,y,z
-x,-y,-z
loop_
_atom_site_type_symbol
_atom_site_label
_atom_site_fract_x
_atom_site_fract_y
_atom_site_fract_z
Si Si1 0.512144 0.097614 0.786490
Si Si2 0.500507 0.333657 0.011964
Si Si3 0.796481 0.648560 0.548528
Si Si4 0.007038 0.886416 0.657177
Si Si5 0.720863 0.394855 0.341674
Si Si6 0.009964 0.141119 0.916613
Si Si7 0.121639 0.256758 0.411893
Si Si8 0.515194 0.166777 0.025487
O O1 0.310932 0.217249 0.664045
O O2 0.491088 0.176768 0.838666
O O3 0.764437 0.982885 0.646433
O O4 0.500000 0.000000 0.000000
O O5 0.415006 0.318859 0.270476
O O6 0.437536 0.304280 0.954914
O O7 0.353418 0.499993 0.894011
O O8 0.772675 0.220875 0.938154
O O9 0.913771 0.631126 0.628275
O O10 0.000000 0.500000 0.500000
O O11 0.210352 0.740454 0.583766
O O12 0.021874 0.829715 0.905425
O O13 0.000000 0.000000 0.500000
O O14 0.500000 0.500000 0.500000
O O15 0.935088 0.336569 0.322877
O O16 0.098527 0.188437 0.670458
O O17 0.216776 0.968510 0.962564
O O18 0.373115 0.148475 0.260295
#
# Coordination Sequence:
#
# PCOD8026655 Si02
#       8
#     2   2   2   2   2   2   2   2
#     4  11  24  46  72 104 140 191 243 297 354 432
#     4  11  26  45  68 107 146 190 237 302 368 436
#     4  11  27  44  72 107 147 192 244 301 364 433
#     4  11  27  46  74 101 140 190 244 296 361 434
#     4  12  28  47  73 106 146 193 238 302 374 433
#     4  11  23  45  71 104 141 188 241 300 359 433
#     4  11  25  43  69 105 142 187 239 301 359 432
#     4  10  24  42  74 102 145 183 242 296 368 425
#
# _framework density 23.042076999999999
#
# number of rings (size 3 to 8) (size 9 to 14) (size 15 to 20)
#    0.000    1.000    1.250    3.750   10.500    6.500 
#    0.000    0.000    0.000    0.000    0.000    0.000 
#    0.000    0.000    0.000    0.000    0.000    0.000 
#
# Total GULP energy -198287.828530 kJ/mol
# GULP energy per Si atom -12392.989283 kJ/mol
# Density = 2.298963 g / cm^3
# Si number density = 23.042077 Si / 1000 Ang^3
#
#
#
# Elastic Constant Matrix: (Units=GPa)
#
#
# Indices 1 2 3 4 5 6 
#
# 1 103.3656 54.5667 21.0258 -2.3667 -8.0623 -13.5044
# 2 54.5667 154.0282 48.1264 4.1653 -10.0633 4.7278
# 3 21.0258 48.1264 96.8690 -1.2760 -7.1954 -6.6479
# 4 -2.3667 4.1653 -1.2760 40.4875 -2.2691 2.3230
# 5 -8.0623 -10.0633 -7.1954 -2.2691 36.9478 -0.3485
# 6 -13.5044 4.7278 -6.6479 2.3230 -0.3485 33.4991
#
#
#
# Elastic Compliance Matrix: (Units=1/GPa)
#
#
# Indices 1 2 3 4 5 6 
#
# 1 0.013102 -0.004761 0.000066 0.001013 0.001693 0.005914
# 2 -0.004761 0.009622 -0.003983 -0.001126 0.000699 -0.003982
# 3 0.000066 -0.003983 0.012615 0.000718 0.001459 0.003058
# 4 0.001013 -0.001126 0.000718 0.025043 0.001583 -0.001010
# 5 0.001693 0.000699 0.001459 0.001583 0.028017 0.001055
# 6 0.005914 -0.003982 0.003058 -0.001010 0.001055 0.033486
#
#
# Mechanical properties :
#
#
# Convention : Reuss Voigt Hill
#
# Bulk Modulus (GPa) = 55.60397 66.85562 61.22980
# Shear Modulus (GPa) = 34.42719 37.55648 35.99183
#
# Velocity S-wave (km/s) = 3.86955 4.04159 3.95651
# Velocity P-wave (km/s) = 6.64443 7.13140 6.89222
#
# Compressibility (1/GPa) = 0.01798433
#
# Stress axis : x y z
#
# Youngs Moduli (GPa) = 76.32455 103.93147 79.26809
#
# Poissons Ratio (x) = 0.49477 -0.00526
# Poissons Ratio (y) = 0.36335 0.31573
# Poissons Ratio (z) = -0.00506 0.41397
#
# Static dielectric constant tensor:
#      x y z
#    x 4.215320 -0.070870 0.082300 
#    y -0.070870 4.310970 0.071980 
#    z 0.082300 0.071980 4.630170 
# 
# 
# High freq. dielectric constant tensor:
#      x y z
#    x 1.911610 -0.004070 -0.009150 
#    y -0.004070 1.911090 0.010760 
#    z -0.009150 0.010760 1.918040 
# 
# From -- ./inp_files/278968.got.cif
#   From: 2010.06.25/outbox.cif.g09.slc.cpg/sg2_140_cif.got.tgz:278968.got - 2010.06.27 13:26:56.
