data_PCOD8026561
_publ_section_title
;
Structure prediction by ZEFSAII (Michael W. Deem and Ramdas Pophale) SiO2 
 PCOD8026561
Probable space group: P -1
;
_chemical_formula_sum "Si O2"
_cell_formula_units_Z 14
_cell_length_a 16.890371
_cell_length_b 9.318455
_cell_length_c 5.370085
_cell_angle_alpha 118.943105
_cell_angle_beta 114.971273
_cell_angle_gamma 55.121052
_cell_volume 594.195441
_symmetry_space_group_name_H-M "P -1"
_symmetry_group_IT_number 2
_symmetry_cell_setting 'triclinic'
loop_
_space_group_symop_operation_xyz
x,y,z
-x,-y,-z
loop_
_atom_site_type_symbol
_atom_site_label
_atom_site_fract_x
_atom_site_fract_y
_atom_site_fract_z
Si Si1 0.989012 0.615138 0.334471
Si Si2 0.805924 0.003033 0.394542
Si Si3 0.315183 0.696638 0.144086
Si Si4 0.340759 0.403302 0.297811
Si Si5 0.470710 0.812895 0.377705
Si Si6 0.168609 0.688653 0.566187
Si Si7 0.383620 0.011262 0.948020
O O1 0.068934 0.690334 0.520976
O O2 0.000000 0.500000 0.500000
O O3 0.883010 0.791033 0.355906
O O4 0.000000 0.500000 0.000000
O O5 0.763277 0.102831 0.683691
O O6 0.856293 0.108991 0.401947
O O7 0.711936 0.013745 0.128888
O O8 0.369913 0.536797 0.287287
O O9 0.402438 0.716257 0.134490
O O10 0.250617 0.631376 0.838945
O O11 0.414389 0.339372 0.582950
O O12 0.224358 0.523252 0.304786
O O13 0.350430 0.223813 0.014553
O O14 0.452879 0.956299 0.244631
O O15 0.442719 0.895654 0.690676
#
# Coordination Sequence:
#
# PCOD8026561 Si02
#       7
#     2   2   2   2   2   2   2
#     4  12  30  48  76 107 134 174 227 285 348 408
#     4  10  24  47  68  99 139 180 225 284 336 414
#     4  10  24  42  69 100 138 187 227 276 339 403
#     4  11  25  40  68 100 142 181 232 286 329 399
#     4  11  24  44  65 101 139 188 230 277 337 402
#     4  11  25  45  71  99 139 182 227 277 345 408
#     4  11  24  42  68  99 137 183 233 280 341 392
#
# _framework density 23.561271999999999
#
# number of rings (size 3 to 8) (size 9 to 14) (size 15 to 20)
#    0.000    1.143    1.429    2.571   12.000    2.286 
#    0.000    0.000    0.000    0.000    0.000    0.000 
#    0.000    0.000    0.000    0.000    0.000    0.000 
#
# Total GULP energy -173566.756267 kJ/mol
# GULP energy per Si atom -12397.625448 kJ/mol
# Density = 2.350765 g / cm^3
# Si number density = 23.561272 Si / 1000 Ang^3
#
#
#
# Elastic Constant Matrix: (Units=GPa)
#
#
# Indices 1 2 3 4 5 6 
#
# 1 91.8044 28.1662 8.1632 -0.7219 -1.1908 6.9870
# 2 28.1662 142.8363 23.6350 -4.9440 -12.7546 4.3669
# 3 8.1632 23.6350 87.2844 -5.5933 0.7075 2.9475
# 4 -0.7219 -4.9440 -5.5933 33.0090 10.7104 3.5565
# 5 -1.1908 -12.7546 0.7075 10.7104 21.1454 -8.9898
# 6 6.9870 4.3669 2.9475 3.5565 -8.9898 22.3001
#
#
#
# Elastic Compliance Matrix: (Units=1/GPa)
#
#
# Indices 1 2 3 4 5 6 
#
# 1 0.012012 -0.002471 -0.000148 0.001640 -0.003786 -0.005048
# 2 -0.002471 0.008345 -0.002277 -0.001692 0.006884 0.002486
# 3 -0.000148 -0.002277 0.012526 0.004016 -0.005553 -0.004043
# 4 0.001640 -0.001692 0.004016 0.043198 -0.031589 -0.020337
# 5 -0.003786 0.006884 -0.005553 -0.031589 0.084240 0.039569
# 6 -0.005048 0.002486 -0.004043 -0.020337 0.039569 0.065667
#
#
# Mechanical properties :
#
#
# Convention : Reuss Voigt Hill
#
# Bulk Modulus (GPa) = 43.30638 49.09489 46.20063
# Shear Modulus (GPa) = 20.53581 32.75495 26.64538
#
# Velocity S-wave (km/s) = 2.95548 3.73259 3.36653
# Velocity P-wave (km/s) = 5.48331 6.28161 5.89599
#
# Compressibility (1/GPa) = 0.02309129
#
# Stress axis : x y z
#
# Youngs Moduli (GPa) = 83.25009 119.82885 79.83389
#
# Poissons Ratio (x) = 0.29611 0.01182
# Poissons Ratio (y) = 0.20572 0.18176
# Poissons Ratio (z) = 0.01233 0.27282
#
# Static dielectric constant tensor:
#      x y z
#    x 4.322620 0.058910 0.138390 
#    y 0.058910 4.200030 0.104910 
#    z 0.138390 0.104910 4.271280 
# 
# 
# High freq. dielectric constant tensor:
#      x y z
#    x 1.938750 0.006710 0.012700 
#    y 0.006710 1.942550 0.006540 
#    z 0.012700 0.006540 1.931230 
# 
# From -- ./inp_files/27894.got.cif
#   From: 2010.06.25/outbox.cif.g09.slc.cpg/sg2_14_cif.got.tgz:27894.got - 2010.06.27 13:26:56.
