data_PCOD8026748
_publ_section_title
;
Structure prediction by ZEFSAII (Michael W. Deem and Ramdas Pophale) SiO2 
 PCOD8026748
Probable space group: P -1
;
_chemical_formula_sum "Si O2"
_cell_formula_units_Z 12
_cell_length_a 19.321706
_cell_length_b 5.178354
_cell_length_c 10.273119
_cell_angle_alpha 100.247520
_cell_angle_beta 147.450879
_cell_angle_gamma 78.731157
_cell_volume 542.187979
_symmetry_space_group_name_H-M "P -1"
_symmetry_group_IT_number 2
_symmetry_cell_setting 'triclinic'
loop_
_space_group_symop_operation_xyz
x,y,z
-x,-y,-z
loop_
_atom_site_type_symbol
_atom_site_label
_atom_site_fract_x
_atom_site_fract_y
_atom_site_fract_z
Si Si1 0.290246 0.890681 0.363994
Si Si2 0.786989 0.661878 0.909762
Si Si3 0.305611 0.509874 0.834777
Si Si4 0.558182 0.670828 0.717500
Si Si5 0.047022 0.802810 0.444625
Si Si6 0.744812 0.044537 0.386801
O O1 0.241592 0.634513 0.194948
O O2 0.446197 0.894654 0.600745
O O3 0.247249 0.887540 0.444030
O O4 0.224543 0.154541 0.218843
O O5 0.685601 0.788703 0.870168
O O6 0.930284 0.649971 0.191789
O O7 0.345004 0.726274 0.811383
O O8 0.157655 0.586371 0.655772
O O9 0.317288 0.227439 0.758499
O O10 0.401295 0.507733 0.108853
O O11 0.500000 0.500000 0.500000
O O12 0.109554 0.963773 0.440801
O O13 0.000000 0.000000 0.500000
#
# Coordination Sequence:
#
# PCOD8026748 Si02
#       6
#     2   2   2   2   2   2
#     4  11  25  44  65  98 132 175 210 266 320 384
#     4  11  25  41  69  95 132 172 217 263 320 380
#     4  10  24  43  66  99 126 168 219 265 321 382
#     4  10  24  43  68  95 133 167 221 264 321 380
#     4  10  25  42  69  95 131 168 216 269 321 381
#     4  10  24  43  66  99 130 169 216 260 330 377
#
# _framework density 22.132546000000001
#
# number of rings (size 3 to 8) (size 9 to 14) (size 15 to 20)
#    1.000    0.667    0.000    2.500    7.000    6.667 
#    0.000    0.000    0.000    0.000    0.000    0.000 
#    0.000    0.000    0.000    0.000    0.000    0.000 
#
# Total GULP energy -148766.054707 kJ/mol
# GULP energy per Si atom -12397.171226 kJ/mol
# Density = 2.208217 g / cm^3
# Si number density = 22.132546 Si / 1000 Ang^3
#
#
#
# Elastic Constant Matrix: (Units=GPa)
#
#
# Indices 1 2 3 4 5 6 
#
# 1 79.5865 -8.2856 -4.2345 10.5151 -12.4273 -8.0072
# 2 -8.2856 93.4802 10.6601 2.1952 -2.2004 6.3152
# 3 -4.2345 10.6601 95.6656 -7.2503 -0.0565 -5.8885
# 4 10.5151 2.1952 -7.2503 25.2279 0.7469 -5.9011
# 5 -12.4273 -2.2004 -0.0565 0.7469 29.7680 -4.2364
# 6 -8.0072 6.3152 -5.8885 -5.9011 -4.2364 28.0182
#
#
#
# Elastic Compliance Matrix: (Units=1/GPa)
#
#
# Indices 1 2 3 4 5 6 
#
# 1 0.014947 0.001315 0.000343 -0.005531 0.007038 0.003947
# 2 0.001315 0.011279 -0.001581 -0.002695 0.001033 -0.002910
# 3 0.000343 -0.001581 0.011183 0.004068 0.000477 0.003734
# 4 -0.005531 -0.002695 0.004068 0.045550 -0.002345 0.009121
# 5 0.007038 0.001033 0.000477 -0.002345 0.037675 0.007081
# 6 0.003947 -0.002910 0.003734 0.009121 0.007081 0.041251
#
#
# Mechanical properties :
#
#
# Convention : Reuss Voigt Hill
#
# Bulk Modulus (GPa) = 26.62354 29.44584 28.03469
# Shear Modulus (GPa) = 28.69395 34.64231 31.66813
#
# Velocity S-wave (km/s) = 3.60454 3.96058 3.78675
# Velocity P-wave (km/s) = 5.42023 5.85219 5.64035
#
# Compressibility (1/GPa) = 0.03756074
#
# Stress axis : x y z
#
# Youngs Moduli (GPa) = 66.90371 88.66417 89.42266
#
# Poissons Ratio (x) = -0.11656 -0.03067
# Poissons Ratio (y) = -0.08795 0.14141
# Poissons Ratio (z) = -0.02295 0.14021
#
# Static dielectric constant tensor:
#      x y z
#    x 4.221370 -0.060900 0.173340 
#    y -0.060900 3.753500 -0.157780 
#    z 0.173340 -0.157780 4.086540 
# 
# 
# High freq. dielectric constant tensor:
#      x y z
#    x 1.872760 -0.000220 -0.003510 
#    y -0.000220 1.862830 -0.004440 
#    z -0.003510 -0.004440 1.874750 
# 
# From -- ./inp_files/72625.got.cif
#   From: 2010.06.25/outbox.cif.g09.slc.cpg/sg2_37_cif.got.tgz:72625.got - 2010.06.27 13:26:56.
