data_PCOD8026860
_publ_section_title
;
Structure prediction by ZEFSAII (Michael W. Deem and Ramdas Pophale) SiO2 
 PCOD8026860
Probable space group: P -1
;
_chemical_formula_sum "Si O2"
_cell_formula_units_Z 16
_cell_length_a 11.672204
_cell_length_b 12.800788
_cell_length_c 12.752183
_cell_angle_alpha 141.417041
_cell_angle_beta 42.910380
_cell_angle_gamma 108.956832
_cell_volume 657.136939
_symmetry_space_group_name_H-M "P -1"
_symmetry_group_IT_number 2
_symmetry_cell_setting 'triclinic'
loop_
_space_group_symop_operation_xyz
x,y,z
-x,-y,-z
loop_
_atom_site_type_symbol
_atom_site_label
_atom_site_fract_x
_atom_site_fract_y
_atom_site_fract_z
Si Si1 0.000027 0.849170 0.732553
Si Si2 0.584142 0.954708 0.068267
Si Si3 0.225640 0.237539 0.662451
Si Si4 0.191030 0.634234 0.019342
Si Si5 0.498662 0.714390 0.784451
Si Si6 0.726908 0.798467 0.165486
Si Si7 0.711311 0.430571 0.855087
Si Si8 0.879086 0.262876 0.214820
O O1 0.112787 0.775074 0.486449
O O2 0.164040 0.735601 0.629794
O O3 0.827148 0.803233 0.811885
O O4 0.868625 0.096674 0.026976
O O5 0.455085 0.033322 0.325242
O O6 0.527956 0.153244 0.194821
O O7 0.517939 0.822090 0.955385
O O8 0.235509 0.428047 0.774386
O O9 0.159314 0.271682 0.854022
O O10 0.061129 0.215600 0.691967
O O11 0.300034 0.709007 0.930914
O O12 0.276428 0.611156 0.061789
O O13 0.710611 0.483903 0.450591
O O14 0.500000 0.000000 0.500000
O O15 0.727671 0.618025 0.969094
O O16 0.878368 0.824587 0.015968
O O17 0.500000 0.500000 0.000000
#
# Coordination Sequence:
#
# PCOD8026860 Si02
#       8
#     2   2   2   2   2   2   2   2
#     4  11  25  44  69 100 135 180 230 286 338 412
#     4  11  26  43  67 101 141 177 229 281 338 412
#     4  10  24  43  69  98 136 178 228 279 336 410
#     4  10  24  44  69  98 135 180 227 278 341 405
#     4  11  26  43  68 102 138 180 227 281 344 406
#     4  11  24  42  68 101 135 179 229 279 343 411
#     4  11  24  43  69  98 138 177 227 284 341 409
#     4  11  25  44  70  99 135 179 234 279 346 408
#
# _framework density 24.348046
#
# number of rings (size 3 to 8) (size 9 to 14) (size 15 to 20)
#    0.000    1.250    0.000    3.750   10.500   11.500 
#    0.000    0.000    0.000    0.000    0.000    0.000 
#    0.000    0.000    0.000    0.000    0.000    0.000 
#
# Total GULP energy -198328.091553 kJ/mol
# GULP energy per Si atom -12395.505722 kJ/mol
# Density = 2.429263 g / cm^3
# Si number density = 24.348046 Si / 1000 Ang^3
#
#
#
# Elastic Constant Matrix: (Units=GPa)
#
#
# Indices 1 2 3 4 5 6 
#
# 1 117.4837 23.7663 28.0389 -7.4306 6.2377 21.9805
# 2 23.7663 85.5584 20.8921 -0.1995 9.0578 24.4964
# 3 28.0389 20.8921 115.9109 -13.4160 2.0995 6.9809
# 4 -7.4306 -0.1995 -13.4160 39.2961 2.7040 -9.0821
# 5 6.2377 9.0578 2.0995 2.7040 34.3278 -8.2522
# 6 21.9805 24.4964 6.9809 -9.0821 -8.2522 33.8619
#
#
#
# Elastic Compliance Matrix: (Units=1/GPa)
#
#
# Indices 1 2 3 4 5 6 
#
# 1 0.010555 0.000069 -0.002076 -0.000175 -0.003572 -0.007390
# 2 0.000069 0.017391 -0.002536 -0.003694 -0.007757 -0.014984
# 3 -0.002076 -0.002536 0.009834 0.003422 0.000715 0.002247
# 4 -0.000175 -0.003694 0.003422 0.028820 0.000940 0.010039
# 5 -0.003572 -0.007757 0.000715 0.000940 0.035734 0.016743
# 6 -0.007390 -0.014984 0.002247 0.010039 0.016743 0.051478
#
#
# Mechanical properties :
#
#
# Convention : Reuss Voigt Hill
#
# Bulk Modulus (GPa) = 34.85092 51.59417 43.22254
# Shear Modulus (GPa) = 28.99184 37.91421 33.45302
#
# Velocity S-wave (km/s) = 3.45443 3.95039 3.71071
# Velocity P-wave (km/s) = 5.50050 6.48411 6.01245
#
# Compressibility (1/GPa) = 0.02869365
#
# Stress axis : x y z
#
# Youngs Moduli (GPa) = 94.74486 57.50218 101.68409
#
# Poissons Ratio (x) = -0.00395 0.21110
# Poissons Ratio (y) = -0.00652 0.25785
# Poissons Ratio (z) = 0.19669 0.14581
#
# Static dielectric constant tensor:
#      x y z
#    x 4.412870 0.084990 0.054500 
#    y 0.084990 4.296990 -0.042260 
#    z 0.054500 -0.042260 4.205250 
# 
# 
# High freq. dielectric constant tensor:
#      x y z
#    x 1.984770 0.009910 0.005710 
#    y 0.009910 1.963030 -0.006380 
#    z 0.005710 -0.006380 1.965130 
# 
# From -- ./inp_files/522573.got.cif
#   From: 2010.06.25/outbox.cif.g09.slc.cpg/sg2_262_cif.got.tgz:522573.got - 2010.06.27 13:26:56.
