data_PCOD8026171
_publ_section_title
;
Structure prediction by ZEFSAII (Michael W. Deem and Ramdas Pophale) SiO2 
 PCOD8026171
Probable space group: P -1
;
_chemical_formula_sum "Si O2"
_cell_formula_units_Z 16
_cell_length_a 11.496551
_cell_length_b 16.900457
_cell_length_c 9.184554
_cell_angle_alpha 66.176424
_cell_angle_beta 102.841048
_cell_angle_gamma 150.065049
_cell_volume 782.063739
_symmetry_space_group_name_H-M "P -1"
_symmetry_group_IT_number 2
_symmetry_cell_setting 'triclinic'
loop_
_space_group_symop_operation_xyz
x,y,z
-x,-y,-z
loop_
_atom_site_type_symbol
_atom_site_label
_atom_site_fract_x
_atom_site_fract_y
_atom_site_fract_z
Si Si1 0.991686 0.086533 0.361797
Si Si2 0.168309 0.491028 0.034266
Si Si3 0.481056 0.396189 0.139714
Si Si4 0.300357 0.875745 0.324365
Si Si5 0.769289 0.525071 0.399439
Si Si6 0.961485 0.714904 0.587179
Si Si7 0.536634 0.199514 0.658796
Si Si8 0.322781 0.765345 0.005597
O O1 0.054649 0.199870 0.414044
O O2 0.192854 0.202953 0.207014
O O3 0.741242 0.947374 0.316267
O O4 0.000000 0.000000 0.500000
O O5 0.085487 0.386820 0.229802
O O6 0.932304 0.344110 0.972944
O O7 0.394057 0.592721 0.938889
O O8 0.269468 0.648748 0.980297
O O9 0.592788 0.459998 0.284989
O O10 0.500000 0.500000 0.000000
O O11 0.227070 0.865503 0.473073
O O12 0.424913 0.860176 0.388174
O O13 0.049758 0.704807 0.289288
O O14 0.472888 0.049099 0.155359
O O15 0.702595 0.382482 0.512508
O O16 0.753205 0.569112 0.514175
O O17 0.589661 0.206159 0.833116
#
# Coordination Sequence:
#
# PCOD8026171 Si02
#       8
#     2   2   2   2   2   2   2   2
#     4  12  27  45  68 101 138 185 231 282 338 407
#     4  11  24  45  70 101 142 179 229 285 347 404
#     4  12  26  45  70  98 138 189 228 281 338 415
#     4  10  24  39  73 103 133 176 228 287 342 406
#     4  10  24  45  71 100 138 180 229 279 353 402
#     4  10  24  47  68 104 135 180 229 285 346 403
#     4  12  23  45  70 102 145 179 227 282 353 410
#     4  11  24  42  70 106 141 175 229 290 347 402
#
# _framework density 20.458690000000001
#
# number of rings (size 3 to 8) (size 9 to 14) (size 15 to 20)
#    0.750    0.250    3.750    2.250    3.500    4.500 
#    2.250    0.625    0.000    0.000    0.000    0.000 
#    0.000    0.000    0.000    0.000    0.000    0.000 
#
# Total GULP energy -198306.112147 kJ/mol
# GULP energy per Si atom -12394.132009 kJ/mol
# Density = 2.041212 g / cm^3
# Si number density = 20.458690 Si / 1000 Ang^3
#
#
#
# Elastic Constant Matrix: (Units=GPa)
#
#
# Indices 1 2 3 4 5 6 
#
# 1 117.6548 55.4058 61.2272 -18.0277 -0.3788 16.5497
# 2 55.4058 99.9978 57.5290 -20.6322 10.2091 5.9824
# 3 61.2272 57.5290 127.0770 -14.5389 12.9516 -5.3252
# 4 -18.0277 -20.6322 -14.5389 47.1165 0.4032 2.9281
# 5 -0.3788 10.2091 12.9516 0.4032 38.0349 -9.7700
# 6 16.5497 5.9824 -5.3252 2.9281 -9.7700 35.6395
#
#
#
# Elastic Compliance Matrix: (Units=1/GPa)
#
#
# Indices 1 2 3 4 5 6 
#
# 1 0.014546 -0.004298 -0.005193 0.002483 0.001333 -0.006647
# 2 -0.004298 0.016494 -0.004644 0.004352 -0.003661 -0.002828
# 3 -0.005193 -0.004644 0.012831 -0.000329 -0.001992 0.004589
# 4 0.002483 0.004352 -0.000329 0.024286 -0.002472 -0.004606
# 5 0.001333 -0.003661 -0.001992 -0.002472 0.030085 0.008148
# 6 -0.006647 -0.002828 0.004589 -0.004606 0.008148 0.034918
#
#
# Mechanical properties :
#
#
# Convention : Reuss Voigt Hill
#
# Bulk Modulus (GPa) = 64.09461 77.00594 70.55027
# Shear Modulus (GPa) = 30.00673 35.52937 32.76805
#
# Velocity S-wave (km/s) = 3.83390 4.17182 4.00643
# Velocity P-wave (km/s) = 7.14110 7.80557 7.48071
#
# Compressibility (1/GPa) = 0.01560194
#
# Stress axis : x y z
#
# Youngs Moduli (GPa) = 68.74978 60.62790 77.93545
#
# Poissons Ratio (x) = 0.26057 0.40471
# Poissons Ratio (y) = 0.29548 0.36190
# Poissons Ratio (z) = 0.35701 0.28153
#
# Static dielectric constant tensor:
#      x y z
#    x 3.863610 -0.004040 -0.152360 
#    y -0.004040 3.920570 -0.071160 
#    z -0.152360 -0.071160 4.043060 
# 
# 
# High freq. dielectric constant tensor:
#      x y z
#    x 1.806560 0.002630 0.004910 
#    y 0.002630 1.806670 -0.010090 
#    z 0.004910 -0.010090 1.808010 
# 
# From -- ./inp_files/277619.got.cif
#   From: 2010.06.25/outbox.cif.g09.slc.cpg/sg2_139_cif.got.tgz:277619.got - 2010.06.27 13:26:56.
