data_PCOD8026450
_publ_section_title
;
Structure prediction by ZEFSAII (Michael W. Deem and Ramdas Pophale) SiO2 
 PCOD8026450
Probable space group: P -1
;
_chemical_formula_sum "Si O2"
_cell_formula_units_Z 14
_cell_length_a 8.781100
_cell_length_b 6.058802
_cell_length_c 16.178298
_cell_angle_alpha 90.511735
_cell_angle_beta 92.582592
_cell_angle_gamma 46.055790
_cell_volume 618.813401
_symmetry_space_group_name_H-M "P -1"
_symmetry_group_IT_number 2
_symmetry_cell_setting 'triclinic'
loop_
_space_group_symop_operation_xyz
x,y,z
-x,-y,-z
loop_
_atom_site_type_symbol
_atom_site_label
_atom_site_fract_x
_atom_site_fract_y
_atom_site_fract_z
Si Si1 0.263424 0.253478 0.395988
Si Si2 0.622806 0.570083 0.457864
Si Si3 0.497378 0.312223 0.114037
Si Si4 0.810627 0.325135 0.037717
Si Si5 0.820289 0.373966 0.755167
Si Si6 0.925518 0.271444 0.324992
Si Si7 0.835525 0.644217 0.171008
O O1 0.228643 0.457406 0.471598
O O2 0.297883 0.354206 0.312888
O O3 0.058728 0.306934 0.383788
O O4 0.470181 0.900839 0.413663
O O5 0.500000 0.500000 0.500000
O O6 0.759955 0.329096 0.385392
O O7 0.677414 0.307630 0.097100
O O8 0.355249 0.547456 0.186748
O O9 0.606999 0.975206 0.144306
O O10 0.346572 0.414545 0.033027
O O11 0.912389 0.419537 0.094359
O O12 0.000000 0.000000 0.000000
O O13 0.990902 0.340630 0.811683
O O14 0.929560 0.061950 0.710937
O O15 0.805927 0.524445 0.250965
#
# Coordination Sequence:
#
# PCOD8026450 Si02
#       7
#     2   2   2   2   2   2   2
#     4  10  24  42  65  94 128 170 213 261 321 378
#     4  11  24  42  66  95 129 168 215 264 316 378
#     4  11  24  42  66  94 128 168 211 259 316 377
#     4  11  25  44  66  96 130 166 211 261 316 377
#     4  11  25  43  66  95 128 168 214 263 316 376
#     4  11  24  43  65  93 130 168 212 264 318 377
#     4  11  24  42  66  93 128 168 211 260 318 378
#
# _framework density 22.623944999999999
#
# number of rings (size 3 to 8) (size 9 to 14) (size 15 to 20)
#    0.000    1.143    0.000    5.143    0.000   18.286 
#    0.000    0.000    0.000    0.000    0.000    0.000 
#    0.000    0.000    0.000    0.000    0.000    0.000 
#
# Total GULP energy -173659.170500 kJ/mol
# GULP energy per Si atom -12404.226464 kJ/mol
# Density = 2.257245 g / cm^3
# Si number density = 22.623945 Si / 1000 Ang^3
#
#
#
# Elastic Constant Matrix: (Units=GPa)
#
#
# Indices 1 2 3 4 5 6 
#
# 1 102.8022 66.9468 85.4691 3.8131 -13.7745 3.5528
# 2 66.9468 132.2099 86.2120 13.6161 0.1941 1.0015
# 3 85.4691 86.2120 157.2371 11.3712 -6.2086 -5.1332
# 4 3.8131 13.6161 11.3712 49.7985 -11.7711 -0.1263
# 5 -13.7745 0.1941 -6.2086 -11.7711 54.7156 6.6508
# 6 3.5528 1.0015 -5.1332 -0.1263 6.6508 29.7975
#
#
#
# Elastic Compliance Matrix: (Units=1/GPa)
#
#
# Indices 1 2 3 4 5 6 
#
# 1 0.021429 -0.005354 -0.008886 0.003191 0.005720 -0.005169
# 2 -0.005354 0.013394 -0.004326 -0.002855 -0.002499 -0.000011
# 3 -0.008886 -0.004326 0.013747 -0.001617 -0.001483 0.003897
# 4 0.003191 -0.002855 -0.001617 0.022315 0.005641 -0.001727
# 5 0.005720 -0.002499 -0.001483 0.005641 0.021453 -0.005618
# 6 -0.005169 -0.000011 0.003897 -0.001727 -0.005618 0.036095
#
#
# Mechanical properties :
#
#
# Convention : Reuss Voigt Hill
#
# Bulk Modulus (GPa) = 87.43089 96.61167 92.02128
# Shear Modulus (GPa) = 29.51996 37.10374 33.31185
#
# Velocity S-wave (km/s) = 3.61613 4.05411 3.84137
# Velocity P-wave (km/s) = 7.49429 8.04428 7.77415
#
# Compressibility (1/GPa) = 0.01143760
#
# Stress axis : x y z
#
# Youngs Moduli (GPa) = 46.66649 74.66306 72.74204
#
# Poissons Ratio (x) = 0.39977 0.64638
# Poissons Ratio (y) = 0.24987 0.31466
# Poissons Ratio (z) = 0.41467 0.32297
#
# Static dielectric constant tensor:
#      x y z
#    x 3.988410 0.042380 0.131330 
#    y 0.042380 4.070850 -0.209650 
#    z 0.131330 -0.209650 4.420460 
# 
# 
# High freq. dielectric constant tensor:
#      x y z
#    x 1.883640 0.000490 0.004860 
#    y 0.000490 1.896300 -0.010900 
#    z 0.004860 -0.010900 1.918180 
# 
# From -- ./inp_files/8179.got.cif
#   From: 2010.06.25/outbox.cif.g09.slc.cpg/sg2_5_cif.got.tgz:8179.got - 2010.06.27 13:26:56.
