data_PCOD8026866
_publ_section_title
;
Structure prediction by ZEFSAII (Michael W. Deem and Ramdas Pophale) SiO2 
 PCOD8026866
Probable space group: P -1
;
_chemical_formula_sum "Si O2"
_cell_formula_units_Z 14
_cell_length_a 9.128388
_cell_length_b 21.117833
_cell_length_c 20.284200
_cell_angle_alpha 20.677462
_cell_angle_beta 150.901783
_cell_angle_gamma 150.065166
_cell_volume 643.432981
_symmetry_space_group_name_H-M "P -1"
_symmetry_group_IT_number 2
_symmetry_cell_setting 'triclinic'
loop_
_space_group_symop_operation_xyz
x,y,z
-x,-y,-z
loop_
_atom_site_type_symbol
_atom_site_label
_atom_site_fract_x
_atom_site_fract_y
_atom_site_fract_z
Si Si1 0.855011 0.086763 0.534374
Si Si2 0.225518 0.006421 0.642615
Si Si3 0.804433 0.389563 0.969209
Si Si4 0.298348 0.595950 0.567908
Si Si5 0.109723 0.481272 0.395713
Si Si6 0.385269 0.174530 0.759232
Si Si7 0.847983 0.486262 0.142184
O O1 0.869035 0.289077 0.315023
O O2 0.985114 0.977655 0.636809
O O3 0.067884 0.084048 0.683854
O O4 0.500000 0.000000 0.500000
O O5 0.528404 0.186903 0.591334
O O6 0.000000 0.000000 0.500000
O O7 0.354112 0.826094 0.863177
O O8 0.533133 0.478694 0.757625
O O9 0.995278 0.377685 0.988475
O O10 0.000000 0.500000 0.000000
O O11 0.000000 0.500000 0.500000
O O12 0.200661 0.578355 0.623515
O O13 0.289788 0.318813 0.632880
O O14 0.337622 0.683175 0.313544
O O15 0.021229 0.519993 0.248147
O O16 0.500000 0.000000 0.000000
O O17 0.500000 0.500000 0.000000
#
# Coordination Sequence:
#
# PCOD8026866 Si02
#       7
#     2   2   2   2   2   2   2
#     4  11  24  42  67 105 135 173 236 288 344 415
#     4  12  26  45  73 101 141 184 236 291 349 423
#     4  12  25  47  72 101 141 189 234 291 359 422
#     4  12  27  47  71 104 150 185 234 290 356 425
#     4  10  25  44  69  99 139 181 230 287 347 414
#     4  10  24  43  69  99 136 178 228 284 346 413
#     4  11  23  42  71 101 138 181 234 292 347 413
#
# _framework density 21.758288
#
# number of rings (size 3 to 8) (size 9 to 14) (size 15 to 20)
#    0.000    0.857    2.857    2.571   12.000    1.714 
#    0.000    0.000    0.000    0.000    0.000    0.000 
#    0.000    0.000    0.000    0.000    0.000    0.000 
#
# Total GULP energy -173475.479829 kJ/mol
# GULP energy per Si atom -12391.105702 kJ/mol
# Density = 2.170877 g / cm^3
# Si number density = 21.758288 Si / 1000 Ang^3
#
#
#
# Elastic Constant Matrix: (Units=GPa)
#
#
# Indices 1 2 3 4 5 6 
#
# 1 127.8904 52.7214 28.9479 -2.5840 -2.1666 15.0522
# 2 52.7214 163.2360 68.1656 -1.6085 -4.8541 8.7791
# 3 28.9479 68.1656 166.4740 -14.2709 4.4866 5.5796
# 4 -2.5840 -1.6085 -14.2709 43.4518 2.4296 0.7532
# 5 -2.1666 -4.8541 4.4866 2.4296 27.3325 3.6136
# 6 15.0522 8.7791 5.5796 0.7532 3.6136 35.6527
#
#
#
# Elastic Compliance Matrix: (Units=1/GPa)
#
#
# Indices 1 2 3 4 5 6 
#
# 1 0.009426 -0.002659 -0.000430 0.000337 0.000757 -0.003341
# 2 -0.002659 0.008349 -0.003069 -0.000955 0.001944 -0.000630
# 3 -0.000430 -0.003069 0.007609 0.002475 -0.002035 -0.000100
# 4 0.000337 -0.000955 0.002475 0.023967 -0.002609 -0.000536
# 5 0.000757 0.001944 -0.002035 -0.002609 0.038125 -0.004289
# 6 -0.003341 -0.000630 -0.000100 -0.000536 -0.004289 0.030076
#
#
# Mechanical properties :
#
#
# Convention : Reuss Voigt Hill
#
# Bulk Modulus (GPa) = 76.53015 84.14113 80.33564
# Shear Modulus (GPa) = 37.25153 41.80510 39.52832
#
# Velocity S-wave (km/s) = 4.14220 4.38807 4.26690
# Velocity P-wave (km/s) = 7.62406 8.02672 7.82798
#
# Compressibility (1/GPa) = 0.01306675
#
# Stress axis : x y z
#
# Youngs Moduli (GPa) = 106.09419 119.77517 131.42605
#
# Poissons Ratio (x) = 0.31852 0.05647
# Poissons Ratio (y) = 0.28213 0.40339
# Poissons Ratio (z) = 0.04559 0.36763
#
# Static dielectric constant tensor:
#      x y z
#    x 3.804980 0.139800 -0.066010 
#    y 0.139800 3.962100 -0.214720 
#    z -0.066010 -0.214720 4.222890 
# 
# 
# High freq. dielectric constant tensor:
#      x y z
#    x 1.854310 0.002690 0.006330 
#    y 0.002690 1.863110 -0.003140 
#    z 0.006330 -0.003140 1.869400 
# 
# From -- ./inp_files/501085.got.cif
#   From: 2010.06.25/outbox.cif.g09.slc.cpg/sg2_251_cif.got.tgz:501085.got - 2010.06.27 13:26:56.
