data_PCOD8026948
_publ_section_title
;
Structure prediction by ZEFSAII (Michael W. Deem and Ramdas Pophale) SiO2 
 PCOD8026948
Probable space group: P -1
;
_chemical_formula_sum "Si O2"
_cell_formula_units_Z 16
_cell_length_a 14.380757
_cell_length_b 10.278402
_cell_length_c 14.974796
_cell_angle_alpha 61.502147
_cell_angle_beta 28.808396
_cell_angle_gamma 46.624202
_cell_volume 724.526857
_symmetry_space_group_name_H-M "P -1"
_symmetry_group_IT_number 2
_symmetry_cell_setting 'triclinic'
loop_
_space_group_symop_operation_xyz
x,y,z
-x,-y,-z
loop_
_atom_site_type_symbol
_atom_site_label
_atom_site_fract_x
_atom_site_fract_y
_atom_site_fract_z
Si Si1 0.409461 0.211166 0.000506
Si Si2 0.429389 0.864903 0.604728
Si Si3 0.222156 0.011524 0.550749
Si Si4 0.634391 0.055773 0.174878
Si Si5 0.928498 0.366878 0.119156
Si Si6 0.648665 0.278549 0.933519
Si Si7 0.138289 0.572883 0.639073
Si Si8 0.451363 0.680983 0.325062
O O1 0.113941 0.355966 0.220746
O O2 0.554638 0.242567 0.936428
O O3 0.453452 0.253232 0.851214
O O4 0.500000 0.000000 0.000000
O O5 0.318361 0.883137 0.790172
O O6 0.679030 0.654269 0.441335
O O7 0.500000 0.000000 0.500000
O O8 0.229407 0.938182 0.669234
O O9 0.378078 0.086893 0.385858
O O10 0.937102 0.180655 0.709907
O O11 0.336776 0.832877 0.449834
O O12 0.598156 0.198477 0.085676
O O13 0.865585 0.838385 0.029834
O O14 0.909281 0.344646 0.247584
O O15 0.669030 0.469143 0.251535
O O16 0.000000 0.500000 0.000000
O O17 0.500000 0.500000 0.000000
O O18 0.249636 0.661126 0.463542
#
# Coordination Sequence:
#
# PCOD8026948 Si02
#       8
#     2   2   2   2   2   2   2   2
#     4  12  28  50  71 101 147 195 248 296 349 430
#     4  10  24  43  72 106 139 182 228 290 377 428
#     4  11  23  47  73 105 143 179 235 300 364 428
#     4  11  25  46  72 104 146 191 225 298 366 427
#     4  12  20  43  75 111 146 176 232 304 377 422
#     4  12  31  48  69 102 146 199 248 287 347 440
#     4  12  25  44  74 107 141 182 241 304 359 426
#     4  12  25  41  77 112 138 183 239 304 363 424
#
# _framework density 22.083376999999999
#
# number of rings (size 3 to 8) (size 9 to 14) (size 15 to 20)
#    0.000    0.500    3.750    4.125    7.000    4.000 
#    0.000    0.000    0.000    0.000    0.000    0.000 
#    0.000    0.000    0.000    0.000    0.000    0.000 
#
# Total GULP energy -198452.492320 kJ/mol
# GULP energy per Si atom -12403.280770 kJ/mol
# Density = 2.203311 g / cm^3
# Si number density = 22.083377 Si / 1000 Ang^3
#
#
#
# Elastic Constant Matrix: (Units=GPa)
#
#
# Indices 1 2 3 4 5 6 
#
# 1 114.2731 48.9315 60.6581 32.6849 0.6371 3.4570
# 2 48.9315 124.9162 60.4723 9.4511 -8.9436 -4.6868
# 3 60.6581 60.4723 131.1213 20.2191 -13.3304 0.7815
# 4 32.6849 9.4511 20.2191 38.3091 -1.2139 -5.1283
# 5 0.6371 -8.9436 -13.3304 -1.2139 36.8341 -0.0791
# 6 3.4570 -4.6868 0.7815 -5.1283 -0.0791 28.6272
#
#
#
# Elastic Compliance Matrix: (Units=1/GPa)
#
#
# Indices 1 2 3 4 5 6 
#
# 1 0.015924 -0.003744 -0.004211 -0.011130 -0.003085 -0.004423
# 2 -0.003744 0.011308 -0.003782 0.002840 0.001542 0.002920
# 3 -0.004211 -0.003782 0.011943 -0.001769 0.003417 -0.000744
# 4 -0.011130 0.002840 -0.001769 0.037016 0.001480 0.008492
# 5 -0.003085 0.001542 0.003417 0.001480 0.028864 0.000876
# 6 -0.004423 0.002920 -0.000744 0.008492 0.000876 0.037488
#
#
# Mechanical properties :
#
#
# Convention : Reuss Voigt Hill
#
# Bulk Modulus (GPa) = 63.68700 78.93716 71.31208
# Shear Modulus (GPa) = 29.19731 34.10399 31.65065
#
# Velocity S-wave (km/s) = 3.64007 3.93406 3.78991
# Velocity P-wave (km/s) = 6.82413 7.51388 7.17730
#
# Compressibility (1/GPa) = 0.01570179
#
# Stress axis : x y z
#
# Youngs Moduli (GPa) = 62.80005 88.43591 83.72914
#
# Poissons Ratio (x) = 0.33108 0.35257
# Poissons Ratio (y) = 0.23511 0.31664
# Poissons Ratio (z) = 0.26444 0.33444
#
# Static dielectric constant tensor:
#      x y z
#    x 4.814860 -0.224750 -0.352070 
#    y -0.224750 4.241060 0.381110 
#    z -0.352070 0.381110 5.035080 
# 
# 
# High freq. dielectric constant tensor:
#      x y z
#    x 1.875420 0.005050 -0.002890 
#    y 0.005050 1.877830 -0.002180 
#    z -0.002890 -0.002180 1.880360 
# 
# From -- ./inp_files/532456.got.cif
#   From: 2010.06.25/outbox.cif.g09.slc.cpg/sg2_267_cif.got.tgz:532456.got - 2010.06.27 13:26:56.
