data_PCOD8026049
_publ_section_title
;
Structure prediction by ZEFSAII (Michael W. Deem and Ramdas Pophale) SiO2 
 PCOD8026049
Probable space group: P -1
;
_chemical_formula_sum "Si O2"
_cell_formula_units_Z 12
_cell_length_a 5.419403
_cell_length_b 16.277119
_cell_length_c 15.885489
_cell_angle_alpha 152.599054
_cell_angle_beta 127.044577
_cell_angle_gamma 56.965145
_cell_volume 514.532436
_symmetry_space_group_name_H-M "P -1"
_symmetry_group_IT_number 2
_symmetry_cell_setting 'triclinic'
loop_
_space_group_symop_operation_xyz
x,y,z
-x,-y,-z
loop_
_atom_site_type_symbol
_atom_site_label
_atom_site_fract_x
_atom_site_fract_y
_atom_site_fract_z
Si Si1 0.903943 0.379057 0.447463
Si Si2 0.776746 0.107286 0.616033
Si Si3 0.114866 0.997412 0.116402
Si Si4 0.754350 0.668724 0.800644
Si Si5 0.364268 0.519414 0.083591
Si Si6 0.327219 0.243410 0.955747
O O1 0.950187 0.498821 0.649469
O O2 0.555872 0.316870 0.305378
O O3 0.000000 0.500000 0.500000
O O4 0.106866 0.197208 0.333979
O O5 0.594557 0.277370 0.690459
O O6 0.991046 0.179362 0.800586
O O7 0.500000 0.000000 0.500000
O O8 0.000000 0.000000 0.500000
O O9 0.469589 0.931502 0.137329
O O10 0.910903 0.859562 0.000227
O O11 0.000000 0.000000 0.000000
O O12 0.703019 0.630017 0.853262
O O13 0.500000 0.500000 0.000000
O O14 0.505211 0.362822 0.030539
O O15 0.000000 0.500000 0.000000
#
# Coordination Sequence:
#
# PCOD8026049 Si02
#       6
#     2   2   2   2   2   2
#     4  11  23  45  69 103 151 199 247 305 359 443
#     4  11  25  50  74 109 146 187 253 327 376 445
#     4  12  24  45  70 107 154 195 245 305 368 453
#     4  11  24  43  71 103 148 197 253 295 374 441
#     4  10  23  47  76  99 143 190 244 314 381 443
#     4  11  26  45  74 106 140 205 245 300 390 450
#
# _framework density 23.322144000000002
#
# number of rings (size 3 to 8) (size 9 to 14) (size 15 to 20)
#    0.000    1.000    3.333    2.500    7.000    0.000 
#    9.000    0.000    0.000    0.000    0.000    0.000 
#    0.000    0.000    0.000    0.000    0.000    0.000 
#
# Total GULP energy -148729.039100 kJ/mol
# GULP energy per Si atom -12394.086592 kJ/mol
# Density = 2.326906 g / cm^3
# Si number density = 23.322144 Si / 1000 Ang^3
#
#
#
# Elastic Constant Matrix: (Units=GPa)
#
#
# Indices 1 2 3 4 5 6 
#
# 1 153.1083 54.5437 68.0475 17.5841 -24.4533 17.5248
# 2 54.5437 137.8104 66.6210 23.8383 -20.3540 3.0651
# 3 68.0475 66.6210 142.1938 35.3101 -24.9412 4.3494
# 4 17.5841 23.8383 35.3101 46.9430 -2.9738 -4.9915
# 5 -24.4533 -20.3540 -24.9412 -2.9738 61.7938 0.8063
# 6 17.5248 3.0651 4.3494 -4.9915 0.8063 41.0358
#
#
#
# Elastic Compliance Matrix: (Units=1/GPa)
#
#
# Indices 1 2 3 4 5 6 
#
# 1 0.009288 -0.001747 -0.003042 -0.000568 0.001892 -0.003620
# 2 -0.001747 0.009987 -0.003139 -0.001970 0.001236 0.000069
# 3 -0.003042 -0.003139 0.011895 -0.006124 0.002275 -0.000517
# 4 -0.000568 -0.001970 -0.006124 0.027461 -0.002082 0.004420
# 5 0.001892 0.001236 0.002275 -0.002082 0.018179 -0.001752
# 6 -0.003620 0.000069 -0.000517 0.004420 -0.001752 0.026537
#
#
# Mechanical properties :
#
#
# Convention : Reuss Voigt Hill
#
# Bulk Modulus (GPa) = 65.30595 90.17079 77.73837
# Shear Modulus (GPa) = 40.22263 46.21452 43.21858
#
# Velocity S-wave (km/s) = 4.15740 4.45632 4.30945
# Velocity P-wave (km/s) = 7.14897 8.07623 7.62670
#
# Compressibility (1/GPa) = 0.01531254
#
# Stress axis : x y z
#
# Youngs Moduli (GPa) = 107.67080 100.12869 84.06745
#
# Poissons Ratio (x) = 0.17491 0.25577
# Poissons Ratio (y) = 0.18809 0.26392
# Poissons Ratio (z) = 0.32758 0.31434
#
# Static dielectric constant tensor:
#      x y z
#    x 4.325560 0.149480 -0.040550 
#    y 0.149480 5.237850 0.517730 
#    z -0.040550 0.517730 4.589070 
# 
# 
# High freq. dielectric constant tensor:
#      x y z
#    x 1.935650 -0.003010 -0.002550 
#    y -0.003010 1.918840 0.017300 
#    z -0.002550 0.017300 1.925480 
# 
# From -- ./inp_files/99378.got.cif
#   From: 2010.06.25/outbox.cif.g09.slc.cpg/sg2_50_cif.got.tgz:99378.got - 2010.06.27 13:26:56.
