data_PCOD8026117
_publ_section_title
;
Structure prediction by ZEFSAII (Michael W. Deem and Ramdas Pophale) SiO2 
 PCOD8026117
Probable space group: P -1
;
_chemical_formula_sum "Si O2"
_cell_formula_units_Z 14
_cell_length_a 13.753706
_cell_length_b 15.856214
_cell_length_c 9.700307
_cell_angle_alpha 38.257947
_cell_angle_beta 65.678565
_cell_angle_gamma 37.802730
_cell_volume 670.785704
_symmetry_space_group_name_H-M "P -1"
_symmetry_group_IT_number 2
_symmetry_cell_setting 'triclinic'
loop_
_space_group_symop_operation_xyz
x,y,z
-x,-y,-z
loop_
_atom_site_type_symbol
_atom_site_label
_atom_site_fract_x
_atom_site_fract_y
_atom_site_fract_z
Si Si1 0.869433 0.859292 0.100207
Si Si2 0.632984 0.339807 0.498011
Si Si3 0.131529 0.088946 0.663527
Si Si4 0.797245 0.513703 0.800128
Si Si5 0.599477 0.994734 0.262756
Si Si6 0.628877 0.417114 0.909416
Si Si7 0.794798 0.462770 0.178147
O O1 0.800209 0.059574 0.793374
O O2 0.953170 0.828025 0.237420
O O3 0.697962 0.934766 0.136800
O O4 0.026268 0.617238 0.226221
O O5 0.500000 0.500000 0.500000
O O6 0.503654 0.413896 0.359754
O O7 0.724581 0.383611 0.339984
O O8 0.309300 0.007544 0.665217
O O9 0.969619 0.313289 0.367495
O O10 0.204961 0.864721 0.860937
O O11 0.634458 0.800243 0.527018
O O12 0.724895 0.455708 0.843638
O O13 0.863646 0.411442 0.047524
O O14 0.375275 0.254229 0.050258
O O15 0.500000 0.500000 0.000000
#
# Coordination Sequence:
#
# PCOD8026117 Si02
#       7
#     2   2   2   2   2   2   2
#     4  10  24  44  68  97 136 178 220 281 327 402
#     4  12  21  42  70  95 133 175 224 272 332 395
#     4  10  24  44  71  93 136 175 234 259 340 400
#     4  12  26  42  69 101 141 169 227 283 334 393
#     4  10  23  50  66  96 141 180 220 272 335 411
#     4  12  24  43  67 105 137 175 221 288 333 390
#     4  12  24  43  72 100 128 186 222 277 338 394
#
# _framework density 20.871047000000001
#
# number of rings (size 3 to 8) (size 9 to 14) (size 15 to 20)
#    0.857    0.000    5.714    1.714    4.000    2.857 
#    2.571    1.429    0.000    0.000    0.000    0.000 
#    0.000    0.000    0.000    0.000    0.000    0.000 
#
# Total GULP energy -173609.385050 kJ/mol
# GULP energy per Si atom -12400.670361 kJ/mol
# Density = 2.082354 g / cm^3
# Si number density = 20.871047 Si / 1000 Ang^3
#
#
#
# Elastic Constant Matrix: (Units=GPa)
#
#
# Indices 1 2 3 4 5 6 
#
# 1 63.1499 29.2868 42.0408 -6.3010 9.4832 10.8921
# 2 29.2868 93.6295 39.1883 24.3669 12.3041 10.2134
# 3 42.0408 39.1883 140.3604 -0.9664 15.5314 23.3007
# 4 -6.3010 24.3669 -0.9664 37.2644 3.9110 -2.7689
# 5 9.4832 12.3041 15.5314 3.9110 44.6291 2.3499
# 6 10.8921 10.2134 23.3007 -2.7689 2.3499 23.6374
#
#
#
# Elastic Compliance Matrix: (Units=1/GPa)
#
#
# Indices 1 2 3 4 5 6 
#
# 1 0.023746 -0.007347 -0.004400 0.008768 -0.002142 -0.002190
# 2 -0.007347 0.017842 -0.002126 -0.013100 -0.001279 -0.003636
# 3 -0.004400 -0.002126 0.010411 0.000578 -0.001780 -0.007072
# 4 0.008768 -0.013100 0.000578 0.037533 -0.002039 0.005650
# 5 -0.002142 -0.001279 -0.001780 -0.002039 0.023977 0.000672
# 6 -0.002190 -0.003636 -0.007072 0.005650 0.000672 0.052452
#
#
# Mechanical properties :
#
#
# Convention : Reuss Voigt Hill
#
# Bulk Modulus (GPa) = 41.23302 57.57462 49.40382
# Shear Modulus (GPa) = 24.77778 33.54777 29.16278
#
# Velocity S-wave (km/s) = 3.44929 4.01357 3.74208
# Velocity P-wave (km/s) = 5.97181 7.00886 6.51101
#
# Compressibility (1/GPa) = 0.02425241
#
# Stress axis : x y z
#
# Youngs Moduli (GPa) = 42.11167 56.04608 96.05240
#
# Poissons Ratio (x) = 0.41180 0.42265
# Poissons Ratio (y) = 0.30941 0.20421
# Poissons Ratio (z) = 0.18530 0.11916
#
# Static dielectric constant tensor:
#      x y z
#    x 3.581130 0.025410 -0.046310 
#    y 0.025410 3.819560 0.101430 
#    z -0.046310 0.101430 3.999130 
# 
# 
# High freq. dielectric constant tensor:
#      x y z
#    x 1.797340 -0.001630 -0.001430 
#    y -0.001630 1.827110 0.002040 
#    z -0.001430 0.002040 1.828230 
# 
# From -- ./inp_files/310763.got.cif
#   From: 2010.06.25/outbox.cif.g09.slc.cpg/sg2_156_cif.got.tgz:310763.got - 2010.06.27 13:26:56.
