data_PCOD8026240
_publ_section_title
;
Structure prediction by ZEFSAII (Michael W. Deem and Ramdas Pophale) SiO2 
 PCOD8026240
Probable space group: P -1
;
_chemical_formula_sum "Si O2"
_cell_formula_units_Z 10
_cell_length_a 9.378285
_cell_length_b 8.115589
_cell_length_c 12.196406
_cell_angle_alpha 103.387497
_cell_angle_beta 144.284608
_cell_angle_gamma 95.624126
_cell_volume 455.435621
_symmetry_space_group_name_H-M "P -1"
_symmetry_group_IT_number 2
_symmetry_cell_setting 'triclinic'
loop_
_space_group_symop_operation_xyz
x,y,z
-x,-y,-z
loop_
_atom_site_type_symbol
_atom_site_label
_atom_site_fract_x
_atom_site_fract_y
_atom_site_fract_z
Si Si1 0.308228 0.694840 0.072460
Si Si2 0.492556 0.552524 0.749063
Si Si3 0.791908 0.863048 0.546101
Si Si4 0.422743 0.166686 0.965961
Si Si5 0.171446 0.203415 0.198506
O O1 0.254689 0.486592 0.056448
O O2 0.539478 0.870671 0.323249
O O3 0.446162 0.710511 0.042322
O O4 0.025520 0.702969 0.886956
O O5 0.210007 0.336310 0.527816
O O6 0.565778 0.649726 0.689535
O O7 0.450087 0.689839 0.828442
O O8 0.718200 0.835357 0.624832
O O9 0.082678 0.060656 0.734047
O O10 0.500000 0.000000 0.000000
O O11 0.000000 0.000000 0.000000
#
# Coordination Sequence:
#
# PCOD8026240 Si02
#       5
#     2   2   2   2   2
#     4  10  24  41  66  93 129 166 209 259 314 373
#     4  10  24  41  66  93 129 166 209 259 314 373
#     4  10  24  40  68  92 126 166 218 244 326 368
#     4  12  21  45  65  94 130 164 211 264 308 373
#     4  12  21  45  65  94 130 164 211 264 308 373
#
# _framework density 21.957000000000001
#
# number of rings (size 3 to 8) (size 9 to 14) (size 15 to 20)
#    1.200    0.000    4.000    2.400    0.000    1.600 
#    0.000    0.000    0.000    0.000    0.000    0.000 
#    0.000    0.000    0.000    0.000    0.000    0.000 
#
# Total GULP energy -123919.468121 kJ/mol
# GULP energy per Si atom -12391.946812 kJ/mol
# Density = 2.190702 g / cm^3
# Si number density = 21.957000 Si / 1000 Ang^3
#
#
#
# Elastic Constant Matrix: (Units=GPa)
#
#
# Indices 1 2 3 4 5 6 
#
# 1 112.7087 12.9943 23.5507 -4.5687 -34.8255 16.5679
# 2 12.9943 35.5679 -17.3852 10.6569 -6.0978 -3.4994
# 3 23.5507 -17.3852 58.2280 8.3258 -25.6875 -0.7441
# 4 -4.5687 10.6569 8.3258 44.6784 -1.2945 -7.2289
# 5 -34.8255 -6.0978 -25.6875 -1.2945 29.3014 3.4998
# 6 16.5679 -3.4994 -0.7441 -7.2289 3.4998 34.0426
#
#
#
# Elastic Compliance Matrix: (Units=1/GPa)
#
#
# Indices 1 2 3 4 5 6 
#
# 1 0.017778 -0.002555 0.002399 0.000873 0.024072 -0.011152
# 2 -0.002555 0.068919 0.048361 -0.024380 0.052771 -0.001217
# 3 0.002399 0.048361 0.064185 -0.022324 0.068989 -0.006626
# 4 0.000873 -0.024380 -0.022324 0.032736 -0.022863 0.005883
# 5 0.024072 0.052771 0.068989 -0.022863 0.136012 -0.023621
# 6 -0.011152 -0.001217 -0.006626 0.005883 -0.023621 0.038210
#
#
# Mechanical properties :
#
#
# Convention : Reuss Voigt Hill
#
# Bulk Modulus (GPa) = 4.04380 27.20270 15.62325
# Shear Modulus (GPa) = 14.54076 34.09414 24.31745
#
# Velocity S-wave (km/s) = 2.57619 3.94479 3.33153
# Velocity P-wave (km/s) = 3.27027 5.75886 4.68291
#
# Compressibility (1/GPa) = 0.24729225
#
# Stress axis : x y z
#
# Youngs Moduli (GPa) = 56.24818 14.50983 15.57994
#
# Poissons Ratio (x) = 0.03707 -0.03737
# Poissons Ratio (y) = 0.14369 -0.75346
# Poissons Ratio (z) = -0.13492 -0.70171
#
# Static dielectric constant tensor:
#      x y z
#    x 4.013570 0.325040 -0.253640 
#    y 0.325040 4.000850 0.033700 
#    z -0.253640 0.033700 3.946880 
# 
# 
# High freq. dielectric constant tensor:
#      x y z
#    x 1.858710 0.016800 -0.027080 
#    y 0.016800 1.858610 0.004860 
#    z -0.027080 0.004860 1.854860 
# 
# From -- ./inp_files/146121.got.cif
#   From: 2010.06.25/outbox.cif.g09.slc.cpg/sg2_74_cif.got.tgz:146121.got - 2010.06.27 13:26:56.
