data_PCOD8026619
_publ_section_title
;
Structure prediction by ZEFSAII (Michael W. Deem and Ramdas Pophale) SiO2 
 PCOD8026619
Probable space group: P -1
;
_chemical_formula_sum "Si O2"
_cell_formula_units_Z 16
_cell_length_a 12.733079
_cell_length_b 8.550958
_cell_length_c 9.046560
_cell_angle_alpha 89.421468
_cell_angle_beta 102.084806
_cell_angle_gamma 50.268324
_cell_volume 727.024162
_symmetry_space_group_name_H-M "P -1"
_symmetry_group_IT_number 2
_symmetry_cell_setting 'triclinic'
loop_
_space_group_symop_operation_xyz
x,y,z
-x,-y,-z
loop_
_atom_site_type_symbol
_atom_site_label
_atom_site_fract_x
_atom_site_fract_y
_atom_site_fract_z
Si Si1 0.771996 0.046534 0.978111
Si Si2 0.776757 0.053923 0.649942
Si Si3 0.941099 0.388398 0.942260
Si Si4 0.778515 0.424592 0.625779
Si Si5 0.477681 0.854180 0.926072
Si Si6 0.486995 0.845870 0.576627
Si Si7 0.937690 0.211297 0.403100
Si Si8 0.257423 0.595163 0.917248
O O1 0.737675 0.024185 0.800975
O O2 0.679585 0.048642 0.075064
O O3 0.744932 0.256988 0.974084
O O4 0.935995 0.851959 0.061195
O O5 0.789396 0.229229 0.660298
O O6 0.659439 0.102961 0.502395
O O7 0.931038 0.836320 0.647829
O O8 0.832737 0.485187 0.772399
O O9 0.000000 0.500000 0.000000
O O10 0.853814 0.427272 0.061144
O O11 0.613391 0.620145 0.550862
O O12 0.872169 0.384088 0.510270
O O13 0.496319 0.848109 0.756362
O O14 0.584948 0.627500 0.035563
O O15 0.500000 0.000000 0.000000
O O16 0.500000 0.000000 0.500000
O O17 0.800649 0.296748 0.261043
O O18 0.000000 0.000000 0.500000
#
# Coordination Sequence:
#
# PCOD8026619 Si02
#       8
#     2   2   2   2   2   2   2   2
#     4  12  24  43  76 102 138 183 240 292 349 415
#     4  11  23  45  71 104 138 180 232 293 349 413
#     4  12  25  45  72 102 142 185 231 296 355 417
#     4  11  25  46  70 101 139 184 235 287 350 417
#     4  12  28  47  69 104 144 185 237 292 356 418
#     4  12  28  46  69  99 147 188 230 285 355 421
#     4  10  24  42  71 106 139 172 233 292 347 408
#     4  12  24  47  74 102 138 190 242 288 345 421
#
# _framework density 22.007522000000002
#
# number of rings (size 3 to 8) (size 9 to 14) (size 15 to 20)
#    0.000    0.500    3.750    4.125   10.500    0.000 
#    0.000    1.250    0.000    0.000    0.000    0.000 
#    0.000    0.000    0.000    0.000    0.000    0.000 
#
# Total GULP energy -198400.237821 kJ/mol
# GULP energy per Si atom -12400.014864 kJ/mol
# Density = 2.195743 g / cm^3
# Si number density = 22.007522 Si / 1000 Ang^3
#
#
#
# Elastic Constant Matrix: (Units=GPa)
#
#
# Indices 1 2 3 4 5 6 
#
# 1 85.9488 9.5304 30.2985 19.1232 3.7846 -3.1679
# 2 9.5304 79.8566 36.5563 12.3812 -0.3498 -19.2714
# 3 30.2985 36.5563 136.8485 1.0214 3.3284 -7.8456
# 4 19.1232 12.3812 1.0214 33.2796 -6.1157 4.1215
# 5 3.7846 -0.3498 3.3284 -6.1157 43.6917 5.6968
# 6 -3.1679 -19.2714 -7.8456 4.1215 5.6968 41.6284
#
#
#
# Elastic Compliance Matrix: (Units=1/GPa)
#
#
# Indices 1 2 3 4 5 6 
#
# 1 0.015194 0.002115 -0.003619 -0.010282 -0.002835 0.002859
# 2 0.002115 0.017935 -0.004635 -0.009225 -0.002125 0.008794
# 3 -0.003619 -0.004635 0.009252 0.003695 0.000229 -0.001074
# 4 -0.010282 -0.009225 0.003695 0.041862 0.007640 -0.009547
# 5 -0.002835 -0.002125 0.000229 0.007640 0.024861 -0.005315
# 6 0.002859 0.008794 -0.001074 -0.009547 -0.005315 0.029781
#
#
# Mechanical properties :
#
#
# Convention : Reuss Voigt Hill
#
# Bulk Modulus (GPa) = 33.21858 50.60271 41.91065
# Shear Modulus (GPa) = 31.01805 38.80453 34.91129
#
# Velocity S-wave (km/s) = 3.75831 4.20365 3.98720
# Velocity P-wave (km/s) = 5.82753 6.82673 6.34682
#
# Compressibility (1/GPa) = 0.03010363
#
# Stress axis : x y z
#
# Youngs Moduli (GPa) = 65.81496 55.75726 108.08488
#
# Poissons Ratio (x) = -0.11794 0.39121
# Poissons Ratio (y) = -0.13922 0.50093
# Poissons Ratio (z) = 0.23821 0.25841
#
# Static dielectric constant tensor:
#      x y z
#    x 3.574000 -0.123220 -0.041590 
#    y -0.123220 4.049830 -0.009040 
#    z -0.041590 -0.009040 4.102900 
# 
# 
# High freq. dielectric constant tensor:
#      x y z
#    x 1.862990 -0.019520 -0.002470 
#    y -0.019520 1.871540 0.002710 
#    z -0.002470 0.002710 1.877110 
# 
# From -- ./inp_files/244104.got.cif
#   From: 2010.06.25/outbox.cif.g09.slc.cpg/sg2_123_cif.got.tgz:244104.got - 2010.06.27 13:26:56.
