data_PCOD8026942
_publ_section_title
;
Structure prediction by ZEFSAII (Michael W. Deem and Ramdas Pophale) SiO2 
 PCOD8026942
Probable space group: P -1
;
_chemical_formula_sum "Si O2"
_cell_formula_units_Z 12
_cell_length_a 9.594360
_cell_length_b 9.263303
_cell_length_c 8.916990
_cell_angle_alpha 131.793170
_cell_angle_beta 63.129644
_cell_angle_gamma 105.802699
_cell_volume 526.562800
_symmetry_space_group_name_H-M "P -1"
_symmetry_group_IT_number 2
_symmetry_cell_setting 'triclinic'
loop_
_space_group_symop_operation_xyz
x,y,z
-x,-y,-z
loop_
_atom_site_type_symbol
_atom_site_label
_atom_site_fract_x
_atom_site_fract_y
_atom_site_fract_z
Si Si1 0.705721 0.051925 0.811754
Si Si2 0.030353 0.189813 0.774924
Si Si3 0.242355 0.543006 0.385750
Si Si4 0.525505 0.685185 0.722307
Si Si5 0.023177 0.491211 0.736142
Si Si6 0.332733 0.930229 0.487362
O O1 0.660737 0.147905 0.739998
O O2 0.894748 0.033049 0.721349
O O3 0.640100 0.837347 0.697413
O O4 0.634866 0.196695 0.074690
O O5 0.047042 0.289194 0.673093
O O6 0.196411 0.097669 0.681785
O O7 0.968000 0.338467 0.032292
O O8 0.395011 0.397476 0.219763
O O9 0.156414 0.511623 0.563055
O O10 0.292292 0.763217 0.507468
O O11 0.143942 0.492209 0.253069
O O12 0.500000 0.500000 0.500000
O O13 0.500000 0.000000 0.500000
#
# Coordination Sequence:
#
# PCOD8026942 Si02
#       6
#     2   2   2   2   2   2
#     4  11  25  46  73 102 141 194 233 287 361 421
#     4  11  24  47  71 100 142 189 238 283 359 427
#     4  11  24  43  68 104 142 176 238 295 349 410
#     4  11  25  46  73 104 146 187 236 291 358 426
#     4  10  24  43  72 103 135 191 233 292 352 415
#     4  12  27  43  69 104 142 182 238 296 353 415
#
# _framework density 22.789304999999999
#
# number of rings (size 3 to 8) (size 9 to 14) (size 15 to 20)
#    0.000    1.000    1.667    3.500    7.000    6.667 
#    0.000    0.000    0.000    0.000    0.000    0.000 
#    0.000    0.000    0.000    0.000    0.000    0.000 
#
# Total GULP energy -148788.831505 kJ/mol
# GULP energy per Si atom -12399.069292 kJ/mol
# Density = 2.273744 g / cm^3
# Si number density = 22.789305 Si / 1000 Ang^3
#
#
#
# Elastic Constant Matrix: (Units=GPa)
#
#
# Indices 1 2 3 4 5 6 
#
# 1 161.9754 55.8577 27.6278 7.1022 -12.4421 14.7936
# 2 55.8577 144.6806 37.6659 8.8156 -8.6776 12.8602
# 3 27.6278 37.6659 87.0331 8.6291 4.6784 16.8577
# 4 7.1022 8.8156 8.6291 30.1155 -2.4658 0.8072
# 5 -12.4421 -8.6776 4.6784 -2.4658 31.9031 6.7865
# 6 14.7936 12.8602 16.8577 0.8072 6.7865 42.4422
#
#
#
# Elastic Compliance Matrix: (Units=1/GPa)
#
#
# Indices 1 2 3 4 5 6 
#
# 1 0.007567 -0.002242 -0.001159 -0.000507 0.002887 -0.001950
# 2 -0.002242 0.008817 -0.002912 -0.001018 0.002095 -0.001049
# 3 -0.001159 -0.002912 0.014330 -0.003101 -0.002754 -0.003906
# 4 -0.000507 -0.001018 -0.003101 0.034701 0.002523 0.000654
# 5 0.002887 0.002095 -0.002754 0.002523 0.034955 -0.006184
# 6 -0.001950 -0.001049 -0.003906 0.000654 -0.006184 0.027087
#
#
# Mechanical properties :
#
#
# Convention : Reuss Voigt Hill
#
# Bulk Modulus (GPa) = 55.28946 70.66577 62.97762
# Shear Modulus (GPa) = 34.22037 39.06134 36.64085
#
# Velocity S-wave (km/s) = 3.87925 4.14456 4.01410
# Velocity P-wave (km/s) = 6.66173 7.34703 7.01275
#
# Compressibility (1/GPa) = 0.01808663
#
# Stress axis : x y z
#
# Youngs Moduli (GPa) = 132.15722 113.42258 69.78252
#
# Poissons Ratio (x) = 0.25433 0.08086
# Poissons Ratio (y) = 0.29634 0.20323
# Poissons Ratio (z) = 0.15314 0.33033
#
# Static dielectric constant tensor:
#      x y z
#    x 4.325000 0.021770 -0.028290 
#    y 0.021770 4.306710 -0.053120 
#    z -0.028290 -0.053120 3.890050 
# 
# 
# High freq. dielectric constant tensor:
#      x y z
#    x 1.915000 0.004910 -0.002520 
#    y 0.004910 1.911180 -0.000640 
#    z -0.002520 -0.000640 1.896350 
# 
# From -- ./inp_files/149029.got.cif
#   From: 2010.06.25/outbox.cif.g09.slc.cpg/sg2_75_cif.got.tgz:149029.got - 2010.06.27 13:26:56.
