data_PCOD8026098
_publ_section_title
;
Structure prediction by ZEFSAII (Michael W. Deem and Ramdas Pophale) SiO2 
 PCOD8026098
Probable space group: P -1
;
_chemical_formula_sum "Si O2"
_cell_formula_units_Z 14
_cell_length_a 12.340072
_cell_length_b 15.545640
_cell_length_c 12.110969
_cell_angle_alpha 150.792359
_cell_angle_beta 135.991580
_cell_angle_gamma 35.102169
_cell_volume 651.818013
_symmetry_space_group_name_H-M "P -1"
_symmetry_group_IT_number 2
_symmetry_cell_setting 'triclinic'
loop_
_space_group_symop_operation_xyz
x,y,z
-x,-y,-z
loop_
_atom_site_type_symbol
_atom_site_label
_atom_site_fract_x
_atom_site_fract_y
_atom_site_fract_z
Si Si1 0.681365 0.486514 0.660518
Si Si2 0.559480 0.046121 0.352702
Si Si3 0.048114 0.047494 0.470267
Si Si4 0.580454 0.661325 0.024666
Si Si5 0.890988 0.336390 0.042846
Si Si6 0.732495 0.696309 0.740845
Si Si7 0.314118 0.519076 0.723884
O O1 0.500000 0.500000 0.500000
O O2 0.667517 0.534260 0.832668
O O3 0.699528 0.657457 0.798695
O O4 0.866924 0.253233 0.514102
O O5 0.783336 0.918313 0.354808
O O6 0.456646 0.091093 0.208029
O O7 0.475871 0.275468 0.607581
O O8 0.511932 0.905982 0.235297
O O9 0.000000 0.000000 0.500000
O O10 0.122851 0.851580 0.223237
O O11 0.404237 0.653771 0.922843
O O12 0.742853 0.554555 0.115789
O O13 0.846727 0.363803 0.170975
O O14 0.100660 0.270713 0.103932
O O15 0.780206 0.492856 0.472160
#
# Coordination Sequence:
#
# PCOD8026098 Si02
#       7
#     2   2   2   2   2   2   2
#     4  12  24  44  69  98 140 174 230 284 338 402
#     4  10  25  45  68 100 136 177 228 277 333 409
#     4  12  24  44  66 103 137 178 228 277 340 400
#     4  12  24  44  72 100 131 189 222 280 345 393
#     4  12  24  43  73  97 141 181 222 285 333 406
#     4  10  24  44  65 102 138 177 222 283 335 398
#     4  10  23  49  65 101 142 174 231 275 337 402
#
# _framework density 21.478387000000001
#
# number of rings (size 3 to 8) (size 9 to 14) (size 15 to 20)
#    0.857    0.000    4.286    2.571    4.000    2.286 
#    2.571    1.429    0.000    0.000    0.000    0.000 
#    0.000    0.000    0.000    0.000    0.000    0.000 
#
# Total GULP energy -173624.578472 kJ/mol
# GULP energy per Si atom -12401.755605 kJ/mol
# Density = 2.142950 g / cm^3
# Si number density = 21.478387 Si / 1000 Ang^3
#
#
#
# Elastic Constant Matrix: (Units=GPa)
#
#
# Indices 1 2 3 4 5 6 
#
# 1 106.2778 22.5455 23.0681 2.0632 22.4188 2.7191
# 2 22.5455 95.4222 3.4489 -1.9442 20.9003 0.7922
# 3 23.0681 3.4489 53.4362 4.0072 18.3583 5.1893
# 4 2.0632 -1.9442 4.0072 38.3311 3.6027 8.2934
# 5 22.4188 20.9003 18.3583 3.6027 45.4482 -4.1589
# 6 2.7191 0.7922 5.1893 8.2934 -4.1589 31.8025
#
#
#
# Elastic Compliance Matrix: (Units=1/GPa)
#
#
# Indices 1 2 3 4 5 6 
#
# 1 0.011290 -0.001781 -0.003515 0.000173 -0.003421 -0.000840
# 2 -0.001781 0.012134 0.002020 0.001388 -0.005774 -0.001597
# 3 -0.003515 0.002020 0.023744 -0.000299 -0.009197 -0.004749
# 4 0.000173 0.001388 -0.000299 0.028207 -0.003555 -0.007821
# 5 -0.003421 -0.005774 -0.009197 -0.003555 0.030975 0.006915
# 6 -0.000840 -0.001597 -0.004749 -0.007821 0.006915 0.035274
#
#
# Mechanical properties :
#
#
# Convention : Reuss Voigt Hill
#
# Bulk Modulus (GPa) = 24.62042 39.25125 31.93583
# Shear Modulus (GPa) = 30.91871 36.85459 33.88665
#
# Velocity S-wave (km/s) = 3.79823 4.14683 3.97635
# Velocity P-wave (km/s) = 5.54284 6.42205 5.99857
#
# Compressibility (1/GPa) = 0.04061670
#
# Stress axis : x y z
#
# Youngs Moduli (GPa) = 88.57617 82.41582 42.11545
#
# Poissons Ratio (x) = 0.14675 0.14803
# Poissons Ratio (y) = 0.15772 -0.08508
# Poissons Ratio (z) = 0.31134 -0.16649
#
# Static dielectric constant tensor:
#      x y z
#    x 3.810400 0.077990 0.089900 
#    y 0.077990 3.904130 -0.037610 
#    z 0.089900 -0.037610 3.787680 
# 
# 
# High freq. dielectric constant tensor:
#      x y z
#    x 1.847030 0.000970 0.010240 
#    y 0.000970 1.841670 -0.007850 
#    z 0.010240 -0.007850 1.837840 
# 
# From -- ./inp_files/158074.got.cif
#   From: 2010.06.25/outbox.cif.g09.slc.cpg/sg2_80_cif.got.tgz:158074.got - 2010.06.27 13:26:56.
