data_PCOD8026349
_publ_section_title
;
Structure prediction by ZEFSAII (Michael W. Deem and Ramdas Pophale) SiO2 
 PCOD8026349
Probable space group: P -1
;
_chemical_formula_sum "Si O2"
_cell_formula_units_Z 16
_cell_length_a 12.586122
_cell_length_b 21.520447
_cell_length_c 20.542255
_cell_angle_alpha 166.559638
_cell_angle_beta 143.768971
_cell_angle_gamma 34.494596
_cell_volume 731.880339
_symmetry_space_group_name_H-M "P -1"
_symmetry_group_IT_number 2
_symmetry_cell_setting 'triclinic'
loop_
_space_group_symop_operation_xyz
x,y,z
-x,-y,-z
loop_
_atom_site_type_symbol
_atom_site_label
_atom_site_fract_x
_atom_site_fract_y
_atom_site_fract_z
Si Si1 0.379954 0.126762 0.007523
Si Si2 0.281136 0.911474 0.953113
Si Si3 0.867152 0.276741 0.524613
Si Si4 0.893270 0.654941 0.167539
Si Si5 0.640020 0.272042 0.659357
Si Si6 0.693552 0.580507 0.441177
Si Si7 0.935657 0.990716 0.773399
Si Si8 0.258193 0.423846 0.681646
O O1 0.251371 0.931459 0.725419
O O2 0.510928 0.140270 0.025008
O O3 0.259300 0.442236 0.286264
O O4 0.500000 0.000000 0.000000
O O5 0.259838 0.643383 0.706930
O O6 0.136394 0.981481 0.893397
O O7 0.240483 0.158914 0.236933
O O8 0.955631 0.368294 0.725321
O O9 0.032155 0.121556 0.398505
O O10 0.792971 0.975459 0.428493
O O11 0.739049 0.508744 0.965340
O O12 0.000000 0.500000 0.000000
O O13 0.530137 0.332260 0.597046
O O14 0.485226 0.290333 0.658762
O O15 0.806361 0.476630 0.323416
O O16 0.832534 0.814020 0.584856
O O17 0.806416 0.310031 0.031956
#
# Coordination Sequence:
#
# PCOD8026349 Si02
#       8
#     2   2   2   2   2   2   2   2
#     4  12  26  46  67 100 140 187 211 271 343 404
#     4  12  24  38  70  99 138 181 223 270 333 410
#     4  12  28  44  69 101 138 174 233 274 331 408
#     4  12  26  46  73 100 132 173 220 287 338 395
#     4  10  24  48  66  98 135 172 224 278 340 394
#     4  10  24  41  67  99 131 181 221 272 329 408
#     4  12  24  43  64 101 135 179 229 275 327 391
#     4  10  24  43  70  91 144 175 221 284 328 390
#
# _framework density 21.861495999999999
#
# number of rings (size 3 to 8) (size 9 to 14) (size 15 to 20)
#    0.750    0.000    1.250    6.000    7.000    3.000 
#    0.000    3.750    0.000    0.000    0.000    0.000 
#    0.000    0.000    0.000    0.000    0.000    0.000 
#
# Total GULP energy -198455.609394 kJ/mol
# GULP energy per Si atom -12403.475587 kJ/mol
# Density = 2.181174 g / cm^3
# Si number density = 21.861496 Si / 1000 Ang^3
#
#
#
# Elastic Constant Matrix: (Units=GPa)
#
#
# Indices 1 2 3 4 5 6 
#
# 1 80.5333 16.8906 2.8905 -16.6121 -11.3648 -2.2270
# 2 16.8906 59.3917 13.2586 -4.0011 -9.6973 -5.8073
# 3 2.8905 13.2586 90.7517 -3.2500 -2.1264 -4.2368
# 4 -16.6121 -4.0011 -3.2500 44.3601 -11.4723 -1.9759
# 5 -11.3648 -9.6973 -2.1264 -11.4723 42.9009 -6.1880
# 6 -2.2270 -5.8073 -4.2368 -1.9759 -6.1880 25.2655
#
#
#
# Elastic Compliance Matrix: (Units=1/GPa)
#
#
# Indices 1 2 3 4 5 6 
#
# 1 0.015347 -0.002768 0.000436 0.007145 0.005770 0.002761
# 2 -0.002768 0.019594 -0.002343 0.002054 0.004882 0.005223
# 3 0.000436 -0.002343 0.011479 0.001042 0.000674 0.001671
# 4 0.007145 0.002054 0.001042 0.028587 0.010946 0.006193
# 5 0.005770 0.004882 0.000674 0.010946 0.030350 0.010033
# 6 0.002761 0.005223 0.001671 0.006193 0.010033 0.044246
#
#
# Mechanical properties :
#
#
# Convention : Reuss Voigt Hill
#
# Bulk Modulus (GPa) = 26.97708 32.97289 29.97498
# Shear Modulus (GPa) = 29.18729 35.68111 32.43420
#
# Velocity S-wave (km/s) = 3.65787 4.04436 3.85596
# Velocity P-wave (km/s) = 5.49607 6.07656 5.79359
#
# Compressibility (1/GPa) = 0.03706851
#
# Stress axis : x y z
#
# Youngs Moduli (GPa) = 65.16112 51.03640 87.11870
#
# Poissons Ratio (x) = 0.14128 -0.03795
# Poissons Ratio (y) = 0.18038 0.20409
# Poissons Ratio (z) = -0.02839 0.11956
#
# Static dielectric constant tensor:
#      x y z
#    x 3.912850 -0.200570 0.037710 
#    y -0.200570 3.883590 -0.120210 
#    z 0.037710 -0.120210 4.209710 
# 
# 
# High freq. dielectric constant tensor:
#      x y z
#    x 1.863140 -0.012050 0.001660 
#    y -0.012050 1.846670 -0.002460 
#    z 0.001660 -0.002460 1.878920 
# 
# From -- ./inp_files/612400.got.cif
#   From: 2010.06.25/outbox.cif.g09.slc.cpg/sg2_307_cif.got.tgz:612400.got - 2010.06.27 13:26:56.
