data_PCOD8026990
_publ_section_title
;
Structure prediction by ZEFSAII (Michael W. Deem and Ramdas Pophale) SiO2 
 PCOD8026990
Probable space group: P -1
;
_chemical_formula_sum "Si O2"
_cell_formula_units_Z 16
_cell_length_a 5.367557
_cell_length_b 9.151589
_cell_length_c 14.805076
_cell_angle_alpha 106.676452
_cell_angle_beta 86.349824
_cell_angle_gamma 104.118741
_cell_volume 675.602079
_symmetry_space_group_name_H-M "P -1"
_symmetry_group_IT_number 2
_symmetry_cell_setting 'triclinic'
loop_
_space_group_symop_operation_xyz
x,y,z
-x,-y,-z
loop_
_atom_site_type_symbol
_atom_site_label
_atom_site_fract_x
_atom_site_fract_y
_atom_site_fract_z
Si Si1 0.247266 0.413814 0.144364
Si Si2 0.070839 0.105007 0.655008
Si Si3 0.852074 0.260115 0.829813
Si Si4 0.125755 0.148431 0.962596
Si Si5 0.277145 0.579076 0.549019
Si Si6 0.390944 0.002449 0.776820
Si Si7 0.301843 0.651486 0.760981
Si Si8 0.631812 0.882365 0.522896
O O1 0.263886 0.587310 0.135445
O O2 0.486945 0.422760 0.206995
O O3 0.964301 0.357462 0.182669
O O4 0.282366 0.291945 0.044635
O O5 0.063567 0.260548 0.745194
O O6 0.213556 0.996919 0.692514
O O7 0.209336 0.180371 0.572224
O O8 0.813375 0.973170 0.613246
O O9 0.664024 0.108664 0.764059
O O10 0.925819 0.221006 0.922328
O O11 0.313673 0.090739 0.880938
O O12 0.000000 0.000000 0.000000
O O13 0.500000 0.500000 0.500000
O O14 0.234892 0.560650 0.653198
O O15 0.391375 0.757464 0.548430
O O16 0.000000 0.500000 0.500000
O O17 0.427425 0.833648 0.774191
O O18 0.500000 0.000000 0.500000
#
# Coordination Sequence:
#
# PCOD8026990 Si02
#       8
#     2   2   2   2   2   2   2   2
#     4  12  29  47  76 111 155 196 250 310 379 446
#     4  10  24  43  76 106 144 196 264 312 381 451
#     4  11  26  45  73 110 149 196 248 315 375 447
#     4  11  24  47  76 110 148 199 248 306 374 455
#     4  12  30  48  74 111 154 198 250 315 382 447
#     4  11  25  45  78 102 149 193 258 306 375 454
#     4  12  28  49  75 107 152 201 250 307 376 450
#     4  11  25  45  75 103 146 198 259 315 380 458
#
# _framework density 23.682580999999999
#
# number of rings (size 3 to 8) (size 9 to 14) (size 15 to 20)
#    0.000    0.750    1.250    4.125   15.750    3.500 
#    0.000    0.000    0.000    0.000    0.000    0.000 
#    0.000    0.000    0.000    0.000    0.000    0.000 
#
# Total GULP energy -198286.925919 kJ/mol
# GULP energy per Si atom -12392.932870 kJ/mol
# Density = 2.362868 g / cm^3
# Si number density = 23.682581 Si / 1000 Ang^3
#
#
#
# Elastic Constant Matrix: (Units=GPa)
#
#
# Indices 1 2 3 4 5 6 
#
# 1 112.3438 30.7664 41.9677 0.4163 30.3919 -2.0328
# 2 30.7664 61.9881 39.1920 -5.5855 23.3912 -8.3497
# 3 41.9677 39.1920 160.7675 0.2814 19.1797 -5.6852
# 4 0.4163 -5.5855 0.2814 31.6688 -2.1871 1.6914
# 5 30.3919 23.3912 19.1797 -2.1871 44.3309 0.1410
# 6 -2.0328 -8.3497 -5.6852 1.6914 0.1410 50.2525
#
#
#
# Elastic Compliance Matrix: (Units=1/GPa)
#
#
# Indices 1 2 3 4 5 6 
#
# 1 0.011920 -0.002620 -0.001749 -0.001018 -0.006082 -0.000100
# 2 -0.002620 0.024154 -0.004012 0.003526 -0.009050 0.003360
# 3 -0.001749 -0.004012 0.007666 -0.000764 -0.000039 0.000156
# 4 -0.001018 0.003526 -0.000764 0.032305 0.000764 -0.000631
# 5 -0.006082 -0.009050 -0.000039 0.000764 0.031563 -0.001868
# 6 -0.000100 0.003360 0.000156 -0.000631 -0.001868 0.020498
#
#
# Mechanical properties :
#
#
# Convention : Reuss Voigt Hill
#
# Bulk Modulus (GPa) = 37.06751 62.10575 49.58663
# Shear Modulus (GPa) = 32.49672 40.12865 36.31268
#
# Velocity S-wave (km/s) = 3.70831 4.12082 3.92000
# Velocity P-wave (km/s) = 5.83277 6.99448 6.43987
#
# Compressibility (1/GPa) = 0.02697781
#
# Stress axis : x y z
#
# Youngs Moduli (GPa) = 83.89579 41.40017 130.44143
#
# Poissons Ratio (x) = 0.10848 0.22813
# Poissons Ratio (y) = 0.21983 0.52334
# Poissons Ratio (z) = 0.14673 0.16610
#
# Static dielectric constant tensor:
#      x y z
#    x 5.404950 0.253990 -0.956150 
#    y 0.253990 4.240250 -0.140180 
#    z -0.956150 -0.140180 4.999250 
# 
# 
# High freq. dielectric constant tensor:
#      x y z
#    x 1.945920 -0.004500 -0.006990 
#    y -0.004500 1.939950 0.002830 
#    z -0.006990 0.002830 1.964130 
# 
# From -- ./inp_files/480648.got.cif
#   From: 2010.06.25/outbox.cif.g09.slc.cpg/sg2_241_cif.got.tgz:480648.got - 2010.06.27 13:26:56.
