data_PCOD8026706
_publ_section_title
;
Structure prediction by ZEFSAII (Michael W. Deem and Ramdas Pophale) SiO2 
 PCOD8026706
Probable space group: P -1
;
_chemical_formula_sum "Si O2"
_cell_formula_units_Z 16
_cell_length_a 15.610187
_cell_length_b 8.718809
_cell_length_c 9.474737
_cell_angle_alpha 72.694361
_cell_angle_beta 38.308189
_cell_angle_gamma 80.640333
_cell_volume 757.704903
_symmetry_space_group_name_H-M "P -1"
_symmetry_group_IT_number 2
_symmetry_cell_setting 'triclinic'
loop_
_space_group_symop_operation_xyz
x,y,z
-x,-y,-z
loop_
_atom_site_type_symbol
_atom_site_label
_atom_site_fract_x
_atom_site_fract_y
_atom_site_fract_z
Si Si1 0.605323 0.378153 0.951140
Si Si2 0.496691 0.813083 0.601203
Si Si3 0.798860 0.883704 0.162478
Si Si4 0.131953 0.402802 0.355247
Si Si5 0.939168 0.660064 0.235401
Si Si6 0.047570 0.151081 0.303420
Si Si7 0.757661 0.234764 0.231119
Si Si8 0.791588 0.311310 0.479304
O O1 0.726367 0.476987 0.860048
O O2 0.668460 0.294438 0.757853
O O3 0.500000 0.500000 0.000000
O O4 0.533833 0.231970 0.182098
O O5 0.651537 0.767248 0.384236
O O6 0.377363 0.711649 0.688887
O O7 0.500000 0.000000 0.500000
O O8 0.913440 0.804069 0.125050
O O9 0.781136 0.054183 0.207697
O O10 0.849545 0.905653 0.931033
O O11 0.117743 0.299325 0.547431
O O12 0.132289 0.290160 0.249838
O O13 0.000000 0.500000 0.500000
O O14 0.859084 0.495359 0.324523
O O15 0.104954 0.646505 0.025263
O O16 0.910883 0.206172 0.397597
O O17 0.000000 0.000000 0.500000
O O18 0.726772 0.245677 0.433776
#
# Coordination Sequence:
#
# PCOD8026706 Si02
#       8
#     2   2   2   2   2   2   2   2
#     4  11  24  46  70  98 137 176 226 278 336 401
#     4  10  24  43  65  92 135 181 218 270 332 398
#     4  11  25  43  64  99 134 175 219 268 332 397
#     4  11  22  41  68  98 130 175 221 275 331 389
#     4  11  21  40  67  96 133 164 224 272 327 390
#     4  12  26  42  67 103 137 170 225 279 331 398
#     4  11  23  41  66  97 136 177 214 272 336 394
#     4  11  25  41  68 103 129 173 222 281 332 391
#
# _framework density 21.116399999999999
#
# number of rings (size 3 to 8) (size 9 to 14) (size 15 to 20)
#    0.000    1.000    3.750    3.750    5.250    1.000 
#    0.000    4.375    0.000    0.000    0.000    0.000 
#    0.000    0.000    0.000    0.000    0.000    0.000 
#
# Total GULP energy -198398.226921 kJ/mol
# GULP energy per Si atom -12399.889183 kJ/mol
# Density = 2.106834 g / cm^3
# Si number density = 21.116400 Si / 1000 Ang^3
#
#
#
# Elastic Constant Matrix: (Units=GPa)
#
#
# Indices 1 2 3 4 5 6 
#
# 1 109.8798 37.6079 56.0579 8.4316 4.9503 13.6183
# 2 37.6079 74.1691 39.5077 6.3979 12.7165 11.1067
# 3 56.0579 39.5077 167.8323 3.8564 13.3211 9.2454
# 4 8.4316 6.3979 3.8564 29.0581 -3.3765 11.6161
# 5 4.9503 12.7165 13.3211 -3.3765 45.0730 4.1703
# 6 13.6183 11.1067 9.2454 11.6161 4.1703 30.8866
#
#
#
# Elastic Compliance Matrix: (Units=1/GPa)
#
#
# Indices 1 2 3 4 5 6 
#
# 1 0.012543 -0.004389 -0.003054 -0.001051 0.000941 -0.002769
# 2 -0.004389 0.018159 -0.002313 -0.001778 -0.003839 -0.002715
# 3 -0.003054 -0.002313 0.007617 0.000252 -0.001242 -0.000029
# 4 -0.001051 -0.001778 0.000252 0.041822 0.005100 -0.015389
# 5 0.000941 -0.003839 -0.001242 0.005100 0.024272 -0.003858
# 6 -0.002769 -0.002715 -0.000029 -0.015389 -0.003858 0.040891
#
#
# Mechanical properties :
#
#
# Convention : Reuss Voigt Hill
#
# Bulk Modulus (GPa) = 53.17537 68.69202 60.93370
# Shear Modulus (GPa) = 29.22521 35.58404 32.40463
#
# Velocity S-wave (km/s) = 3.72426 4.10950 3.92161
# Velocity P-wave (km/s) = 6.61288 7.42415 7.03023
#
# Compressibility (1/GPa) = 0.01880570
#
# Stress axis : x y z
#
# Youngs Moduli (GPa) = 79.72749 55.07012 131.27832
#
# Poissons Ratio (x) = 0.24170 0.40095
# Poissons Ratio (y) = 0.34991 0.30371
# Poissons Ratio (z) = 0.24351 0.12740
#
# Static dielectric constant tensor:
#      x y z
#    x 4.188710 0.062060 -0.165420 
#    y 0.062060 3.686220 0.074270 
#    z -0.165420 0.074270 4.239170 
# 
# 
# High freq. dielectric constant tensor:
#      x y z
#    x 1.845390 -0.002150 0.003660 
#    y -0.002150 1.807220 -0.004550 
#    z 0.003660 -0.004550 1.840870 
# 
# From -- ./inp_files/298132.got.cif
#   From: 2010.06.25/outbox.cif.g09.slc.cpg/sg2_150_cif.got.tgz:298132.got - 2010.06.27 13:26:56.
