data_PCOD8026446
_publ_section_title
;
Structure prediction by ZEFSAII (Michael W. Deem and Ramdas Pophale) SiO2 
 PCOD8026446
Probable space group: P -1
;
_chemical_formula_sum "Si O2"
_cell_formula_units_Z 16
_cell_length_a 10.879007
_cell_length_b 17.053353
_cell_length_c 19.405603
_cell_angle_alpha 23.165021
_cell_angle_beta 32.904007
_cell_angle_gamma 47.231478
_cell_volume 692.931728
_symmetry_space_group_name_H-M "P -1"
_symmetry_group_IT_number 2
_symmetry_cell_setting 'triclinic'
loop_
_space_group_symop_operation_xyz
x,y,z
-x,-y,-z
loop_
_atom_site_type_symbol
_atom_site_label
_atom_site_fract_x
_atom_site_fract_y
_atom_site_fract_z
Si Si1 0.480806 0.685834 0.124749
Si Si2 0.184098 0.183955 0.915556
Si Si3 0.846526 0.581169 0.121527
Si Si4 0.464252 0.862121 0.315039
Si Si5 0.708392 0.512163 0.769418
Si Si6 0.575427 0.204618 0.347961
Si Si7 0.681192 0.079475 0.173143
Si Si8 0.764796 0.194204 0.745283
O O1 0.694842 0.606312 0.106411
O O2 0.311478 0.543139 0.257750
O O3 0.298215 0.636174 0.316759
O O4 0.607430 0.953141 0.834894
O O5 0.211392 0.293794 0.888632
O O6 0.440737 0.264922 0.684115
O O7 0.971684 0.209211 0.951372
O O8 0.101244 0.923108 0.176455
O O9 0.774264 0.329095 0.381402
O O10 0.127495 0.668951 0.892568
O O11 0.669561 0.979732 0.183157
O O12 0.541789 0.643414 0.754967
O O13 0.005496 0.656870 0.534566
O O14 0.591486 0.278041 0.054849
O O15 0.500000 0.000000 0.500000
O O16 0.477125 0.117734 0.540895
O O17 0.500000 0.000000 0.000000
#
# Coordination Sequence:
#
# PCOD8026446 Si02
#       8
#     2   2   2   2   2   2   2   2
#     4  10  24  42  65 105 137 177 224 280 344 409
#     4  11  22  43  65 102 141 173 222 282 338 407
#     4  12  24  43  71  97 136 186 226 279 339 397
#     4  10  25  41  68 104 138 171 224 285 343 404
#     4  11  25  44  70  97 138 184 225 277 348 399
#     4  12  26  49  67  98 138 182 236 277 332 409
#     4  11  24  45  68 101 135 179 228 278 338 409
#     4  11  21  40  68 102 140 175 223 284 336 403
#
# _framework density 23.090297
#
# number of rings (size 3 to 8) (size 9 to 14) (size 15 to 20)
#    0.000    1.000    3.750    1.875    1.750    5.500 
#    0.000    2.500    0.000    0.000    0.000    0.000 
#    0.000    0.000    0.000    0.000    0.000    0.000 
#
# Total GULP energy -198261.729082 kJ/mol
# GULP energy per Si atom -12391.358068 kJ/mol
# Density = 2.303774 g / cm^3
# Si number density = 23.090297 Si / 1000 Ang^3
#
#
#
# Elastic Constant Matrix: (Units=GPa)
#
#
# Indices 1 2 3 4 5 6 
#
# 1 65.9100 13.1212 20.4579 3.9414 0.2089 -12.8597
# 2 13.1212 84.2835 25.0969 -8.3737 1.0717 -20.2377
# 3 20.4579 25.0969 107.0492 10.0214 4.9459 -27.8833
# 4 3.9414 -8.3737 10.0214 29.4324 -3.8803 -0.2445
# 5 0.2089 1.0717 4.9459 -3.8803 35.7275 -4.0854
# 6 -12.8597 -20.2377 -27.8833 -0.2445 -4.0854 38.3392
#
#
#
# Elastic Compliance Matrix: (Units=1/GPa)
#
#
# Indices 1 2 3 4 5 6 
#
# 1 0.016831 -0.001421 -0.001769 -0.001974 0.000391 0.003638
# 2 -0.001421 0.014648 -0.002197 0.005301 0.001113 0.005810
# 3 -0.001769 -0.002197 0.012589 -0.004794 -0.001361 0.007227
# 4 -0.001974 0.005301 -0.004794 0.037978 0.004570 -0.000621
# 5 0.000391 0.001113 -0.001361 0.004570 0.028964 0.002844
# 6 0.003638 0.005810 0.007227 -0.000621 0.002844 0.035925
#
#
# Mechanical properties :
#
#
# Convention : Reuss Voigt Hill
#
# Bulk Modulus (GPa) = 30.03614 41.62166 35.82890
# Shear Modulus (GPa) = 29.61987 33.93761 31.77874
#
# Velocity S-wave (km/s) = 3.58548 3.83793 3.71385
# Velocity P-wave (km/s) = 5.49339 6.14038 5.82587
#
# Compressibility (1/GPa) = 0.03329322
#
# Stress axis : x y z
#
# Youngs Moduli (GPa) = 59.41502 68.27050 79.43668
#
# Poissons Ratio (x) = 0.09702 0.14053
# Poissons Ratio (y) = 0.08443 0.17450
# Poissons Ratio (z) = 0.10511 0.14997
#
# Static dielectric constant tensor:
#      x y z
#    x 4.190980 -0.089930 0.157390 
#    y -0.089930 4.171460 -0.250880 
#    z 0.157390 -0.250880 4.137720 
# 
# 
# High freq. dielectric constant tensor:
#      x y z
#    x 1.914730 -0.003820 0.004740 
#    y -0.003820 1.905070 -0.019820 
#    z 0.004740 -0.019820 1.912020 
# 
# From -- ./inp_files/403185.got.cif
#   From: 2010.06.25/outbox.cif.g09.slc.cpg/sg2_202_cif.got.tgz:403185.got - 2010.06.27 13:26:56.
