data_PCOD8026688
_publ_section_title
;
Structure prediction by ZEFSAII (Michael W. Deem and Ramdas Pophale) SiO2 
 PCOD8026688
Probable space group: P -1
;
_chemical_formula_sum "Si O2"
_cell_formula_units_Z 16
_cell_length_a 25.696054
_cell_length_b 6.660541
_cell_length_c 9.208499
_cell_angle_alpha 127.835110
_cell_angle_beta 141.290064
_cell_angle_gamma 73.437988
_cell_volume 716.133528
_symmetry_space_group_name_H-M "P -1"
_symmetry_group_IT_number 2
_symmetry_cell_setting 'triclinic'
loop_
_space_group_symop_operation_xyz
x,y,z
-x,-y,-z
loop_
_atom_site_type_symbol
_atom_site_label
_atom_site_fract_x
_atom_site_fract_y
_atom_site_fract_z
Si Si1 0.152786 0.981387 0.194092
Si Si2 0.430034 0.481496 0.162816
Si Si3 0.708924 0.409712 0.267431
Si Si4 0.095255 0.100269 0.832537
Si Si5 0.227460 0.023427 0.855989
Si Si6 0.912174 0.352449 0.840053
Si Si7 0.683289 0.138435 0.397136
Si Si8 0.606033 0.434050 0.568802
O O1 0.075089 0.830606 0.079819
O O2 0.226626 0.844098 0.312473
O O3 0.205569 0.311626 0.465977
O O4 0.094914 0.914452 0.889578
O O5 0.533117 0.528433 0.370511
O O6 0.429203 0.656349 0.383819
O O7 0.386929 0.577489 0.975668
O O8 0.370731 0.159189 0.923980
O O9 0.719133 0.173853 0.081705
O O10 0.707430 0.356598 0.413616
O O11 0.169611 0.058722 0.876959
O O12 0.122607 0.417624 0.077021
O O13 0.000000 0.000000 0.500000
O O14 0.166747 0.878395 0.522090
O O15 0.295909 0.324797 0.097410
O O16 0.000000 0.500000 0.000000
O O17 0.617053 0.189484 0.393017
#
# Coordination Sequence:
#
# PCOD8026688 Si02
#       8
#     2   2   2   2   2   2   2   2
#     4  11  23  44  72  98 133 181 223 278 343 403
#     4  10  24  43  64 104 138 180 228 278 338 396
#     4  11  22  44  70  97 138 179 227 274 339 405
#     4  12  27  47  68 105 134 170 235 281 342 412
#     4  12  23  45  70  95 138 181 221 286 336 402
#     4  12  25  50  69  98 138 173 225 288 342 408
#     4  11  22  45  68  97 139 179 228 280 331 406
#     4  11  23  42  69 100 138 179 230 279 337 406
#
# _framework density 22.342199999999998
#
# number of rings (size 3 to 8) (size 9 to 14) (size 15 to 20)
#    0.000    0.750    5.000    2.625    1.750    2.000 
#    2.250    0.000    0.000    0.000    0.000    0.000 
#    0.000    0.000    0.000    0.000    0.000    0.000 
#
# Total GULP energy -198289.837847 kJ/mol
# GULP energy per Si atom -12393.114865 kJ/mol
# Density = 2.229135 g / cm^3
# Si number density = 22.342200 Si / 1000 Ang^3
#
#
#
# Elastic Constant Matrix: (Units=GPa)
#
#
# Indices 1 2 3 4 5 6 
#
# 1 101.9088 36.0334 27.4257 2.6080 -21.1007 -3.5230
# 2 36.0334 110.3676 34.6813 -19.6008 -16.1211 11.1771
# 3 27.4257 34.6813 97.2188 -29.1911 0.9329 5.4950
# 4 2.6080 -19.6008 -29.1911 34.0369 -0.7870 -1.8389
# 5 -21.1007 -16.1211 0.9329 -0.7870 33.1933 3.5021
# 6 -3.5230 11.1771 5.4950 -1.8389 3.5021 34.2165
#
#
#
# Elastic Compliance Matrix: (Units=1/GPa)
#
#
# Indices 1 2 3 4 5 6 
#
# 1 0.014137 -0.003499 -0.005094 -0.007180 0.007016 0.002313
# 2 -0.003499 0.012946 -0.001540 0.006269 0.004728 -0.004489
# 3 -0.005094 -0.001540 0.016425 0.013416 -0.003968 -0.001532
# 4 -0.007180 0.006269 0.013416 0.044899 -0.000571 -0.002470
# 5 0.007016 0.004728 -0.003968 -0.000571 0.037408 -0.004044
# 6 0.002313 -0.004489 -0.001532 -0.002470 -0.004044 0.031457
#
#
# Mechanical properties :
#
#
# Convention : Reuss Voigt Hill
#
# Bulk Modulus (GPa) = 43.02635 56.19735 49.61185
# Shear Modulus (GPa) = 26.98517 34.37965 30.68241
#
# Velocity S-wave (km/s) = 3.47913 3.92698 3.70982
# Velocity P-wave (km/s) = 5.95305 6.76529 6.37213
#
# Compressibility (1/GPa) = 0.02324157
#
# Stress axis : x y z
#
# Youngs Moduli (GPa) = 70.73473 77.24528 60.88147
#
# Poissons Ratio (x) = 0.27032 0.31011
# Poissons Ratio (y) = 0.24754 0.09378
# Poissons Ratio (z) = 0.36030 0.11898
#
# Static dielectric constant tensor:
#      x y z
#    x 4.277210 -0.173220 -0.116300 
#    y -0.173220 4.179670 -0.087030 
#    z -0.116300 -0.087030 4.185890 
# 
# 
# High freq. dielectric constant tensor:
#      x y z
#    x 1.880600 -0.006810 0.002990 
#    y -0.006810 1.874870 -0.005450 
#    z 0.002990 -0.005450 1.889140 
# 
# From -- ./inp_files/355957.got.cif
#   From: 2010.06.25/outbox.cif.g09.slc.cpg/sg2_178_cif.got.tgz:355957.got - 2010.06.27 13:26:56.
