data_PCOD8026472
_publ_section_title
;
Structure prediction by ZEFSAII (Michael W. Deem and Ramdas Pophale) SiO2 
 PCOD8026472
Probable space group: P -1
;
_chemical_formula_sum "Si O2"
_cell_formula_units_Z 16
_cell_length_a 14.849814
_cell_length_b 11.762510
_cell_length_c 8.755309
_cell_angle_alpha 130.769048
_cell_angle_beta 107.703906
_cell_angle_gamma 42.136310
_cell_volume 726.564103
_symmetry_space_group_name_H-M "P -1"
_symmetry_group_IT_number 2
_symmetry_cell_setting 'triclinic'
loop_
_space_group_symop_operation_xyz
x,y,z
-x,-y,-z
loop_
_atom_site_type_symbol
_atom_site_label
_atom_site_fract_x
_atom_site_fract_y
_atom_site_fract_z
Si Si1 0.909180 0.447211 0.693308
Si Si2 0.198423 0.667375 0.260719
Si Si3 0.796370 0.011474 0.538729
Si Si4 0.503272 0.642335 0.732524
Si Si5 0.700246 0.911694 0.159485
Si Si6 0.668301 0.709543 0.218042
Si Si7 0.166208 0.351194 0.463640
Si Si8 0.394112 0.848372 0.170346
O O1 0.914756 0.290688 0.661266
O O2 0.822659 0.537081 0.568002
O O3 0.081045 0.254946 0.576229
O O4 0.843064 0.669375 0.943643
O O5 0.332552 0.507517 0.304275
O O6 0.142044 0.896792 0.382579
O O7 0.231398 0.542401 0.011970
O O8 0.738942 0.020894 0.356811
O O9 0.668554 0.174007 0.740690
O O10 0.500000 0.500000 0.500000
O O11 0.420735 0.889660 0.847724
O O12 0.453432 0.670411 0.908437
O O13 0.635429 0.871579 0.212072
O O14 0.763723 0.664992 0.362383
O O15 0.513262 0.822337 0.279952
O O16 0.000000 0.500000 0.500000
O O17 0.262502 0.094503 0.241625
#
# Coordination Sequence:
#
# PCOD8026472 Si02
#       8
#     2   2   2   2   2   2   2   2
#     4  11  24  41  67  96 133 178 225 282 325 394
#     4  10  25  44  64  95 139 179 225 269 337 399
#     4  12  23  44  65  98 138 181 220 272 337 405
#     4  11  23  43  65 100 130 176 219 278 335 396
#     4  11  22  40  69  96 131 173 228 271 332 396
#     4  10  24  42  66 101 132 178 218 283 337 393
#     4  12  22  42  68 104 133 169 230 279 333 393
#     4  11  24  41  68  99 137 173 223 278 339 396
#
# _framework density 22.021455
#
# number of rings (size 3 to 8) (size 9 to 14) (size 15 to 20)
#    0.000    1.000    5.000    1.125    1.750    4.500 
#    2.250    0.625    0.000    0.000    0.000    0.000 
#    0.000    0.000    0.000    0.000    0.000    0.000 
#
# Total GULP energy -198219.788344 kJ/mol
# GULP energy per Si atom -12388.736772 kJ/mol
# Density = 2.197133 g / cm^3
# Si number density = 22.021455 Si / 1000 Ang^3
#
#
#
# Elastic Constant Matrix: (Units=GPa)
#
#
# Indices 1 2 3 4 5 6 
#
# 1 68.6884 21.1156 44.2910 -1.4380 -0.2213 6.0364
# 2 21.1156 105.7222 38.1215 0.4740 -6.0112 0.4841
# 3 44.2910 38.1215 113.5139 -5.7417 2.8212 -3.3031
# 4 -1.4380 0.4740 -5.7417 35.0577 1.6713 2.8509
# 5 -0.2213 -6.0112 2.8212 1.6713 27.7105 4.1778
# 6 6.0364 0.4841 -3.3031 2.8509 4.1778 37.8893
#
#
#
# Elastic Compliance Matrix: (Units=1/GPa)
#
#
# Indices 1 2 3 4 5 6 
#
# 1 0.020203 -0.001188 -0.007640 -0.000143 0.001293 -0.004001
# 2 -0.001188 0.011087 -0.003389 -0.000850 0.002867 -0.000500
# 3 -0.007640 -0.003389 0.013160 0.001805 -0.002631 0.002562
# 4 -0.000143 -0.000850 0.001805 0.029060 -0.001852 -0.001791
# 5 0.001293 0.002867 -0.002631 -0.001852 0.037777 -0.004498
# 6 -0.004001 -0.000500 0.002562 -0.001791 -0.004498 0.027891
#
#
# Mechanical properties :
#
#
# Convention : Reuss Voigt Hill
#
# Bulk Modulus (GPa) = 49.95752 54.99785 52.47769
# Shear Modulus (GPa) = 29.36321 32.42460 30.89391
#
# Velocity S-wave (km/s) = 3.65552 3.84136 3.74959
# Velocity P-wave (km/s) = 6.36806 6.68608 6.52901
#
# Compressibility (1/GPa) = 0.02001701
#
# Stress axis : x y z
#
# Youngs Moduli (GPa) = 49.49879 90.19561 75.99046
#
# Poissons Ratio (x) = 0.10714 0.58053
# Poissons Ratio (y) = 0.05880 0.25751
# Poissons Ratio (z) = 0.37815 0.30564
#
# Static dielectric constant tensor:
#      x y z
#    x 4.082010 0.051190 -0.126640 
#    y 0.051190 4.033310 0.008430 
#    z -0.126640 0.008430 4.118390 
# 
# 
# High freq. dielectric constant tensor:
#      x y z
#    x 1.857600 0.002360 -0.014880 
#    y 0.002360 1.877200 0.007510 
#    z -0.014880 0.007510 1.872380 
# 
# From -- ./inp_files/263484.got.cif
#   From: 2010.06.25/outbox.cif.g09.slc.cpg/sg2_132_cif.got.tgz:263484.got - 2010.06.27 13:26:56.
