data_PCOD8026131
_publ_section_title
;
Structure prediction by ZEFSAII (Michael W. Deem and Ramdas Pophale) SiO2 
 PCOD8026131
Probable space group: P -1
;
_chemical_formula_sum "Si O2"
_cell_formula_units_Z 16
_cell_length_a 5.108734
_cell_length_b 17.847112
_cell_length_c 7.565285
_cell_angle_alpha 98.527550
_cell_angle_beta 88.263154
_cell_angle_gamma 71.938188
_cell_volume 646.395278
_symmetry_space_group_name_H-M "P -1"
_symmetry_group_IT_number 2
_symmetry_cell_setting 'triclinic'
loop_
_space_group_symop_operation_xyz
x,y,z
-x,-y,-z
loop_
_atom_site_type_symbol
_atom_site_label
_atom_site_fract_x
_atom_site_fract_y
_atom_site_fract_z
Si Si1 0.332883 0.674499 0.806809
Si Si2 0.340651 0.686400 0.393075
Si Si3 0.959608 0.020081 0.258687
Si Si4 0.934999 0.849372 0.495725
Si Si5 0.570666 0.917028 0.219147
Si Si6 0.060676 0.404464 0.658646
Si Si7 0.049980 0.157624 0.117550
Si Si8 0.067628 0.417460 0.242191
O O1 0.348820 0.675691 0.597479
O O2 0.197174 0.764751 0.915327
O O3 0.639152 0.635686 0.863769
O O4 0.155405 0.618258 0.850701
O O5 0.188630 0.779215 0.381253
O O6 0.649389 0.656706 0.299332
O O7 0.176372 0.631697 0.289799
O O8 0.241645 0.945044 0.219652
O O9 0.688222 0.992814 0.247593
O O10 0.967052 0.071547 0.455848
O O11 0.948486 0.079049 0.110596
O O12 0.846893 0.823873 0.681984
O O13 0.670338 0.867796 0.380547
O O14 0.697462 0.860878 0.029929
O O15 0.068353 0.412742 0.451363
O O16 0.002595 0.490399 0.782096
#
# Coordination Sequence:
#
# PCOD8026131 Si02
#       8
#     2   2   2   2   2   2   2   2
#     4   9  17  30  44  72 104 136 174 217 264 318
#     4   9  17  30  44  72 104 136 174 217 264 318
#     4  10  24  38  60  80 113 146 187 232 280 326
#     4   9  22  38  58  84 111 150 183 232 278 328
#     4  12  22  42  56  84 111 146 189 232 276 334
#     4   9  16  26  46  72 104 137 173 216 263 316
#     4   9  22  38  58  84 111 150 183 232 278 328
#     4   9  16  26  46  72 104 137 173 216 263 316
#
# _framework density 24.752655000000001
#
# number of rings (size 3 to 8) (size 9 to 14) (size 15 to 20)
#    0.750    1.750    0.000    2.250    0.000    7.000 
#    0.000    0.000    0.000    0.000    0.000    5.250 
#    0.000    0.000    0.000    0.000    0.000    0.000 
#
# Total GULP energy -198340.866104 kJ/mol
# GULP energy per Si atom -12396.304131 kJ/mol
# Density = 2.469632 g / cm^3
# Si number density = 24.752655 Si / 1000 Ang^3
#
#
#
# Elastic Constant Matrix: (Units=GPa)
#
#
# Indices 1 2 3 4 5 6 
#
# 1 82.4143 8.2351 -5.3267 6.7501 -3.9055 -10.7822
# 2 8.2351 94.3603 15.4884 33.2478 -9.4462 -31.4174
# 3 -5.3267 15.4884 58.0472 0.1235 -5.5346 -10.5383
# 4 6.7501 33.2478 0.1235 16.3726 -7.8545 -9.4350
# 5 -3.9055 -9.4462 -5.5346 -7.8545 13.0132 8.4007
# 6 -10.7822 -31.4174 -10.5383 -9.4350 8.4007 29.9761
#
#
#
# Elastic Compliance Matrix: (Units=1/GPa)
#
#
# Indices 1 2 3 4 5 6 
#
# 1 0.014169 0.011510 -0.000829 -0.028591 -0.012309 0.011319
# 2 0.011510 0.122596 -0.030673 -0.275942 -0.133982 0.072543
# 3 -0.000829 -0.030673 0.027268 0.076528 0.042098 -0.010570
# 4 -0.028591 -0.275942 0.076528 0.717007 0.350044 -0.145010
# 5 -0.012309 -0.133982 0.042098 0.350044 0.266038 -0.094431
# 6 0.011319 0.072543 -0.010570 -0.145010 -0.094431 0.090568
#
#
# Mechanical properties :
#
#
# Convention : Reuss Voigt Hill
#
# Bulk Modulus (GPa) = 8.06130 30.17946 19.12038
# Shear Modulus (GPa) = 3.79081 26.30071 15.04576
#
# Velocity S-wave (km/s) = 1.23887 3.26320 2.46812
# Velocity P-wave (km/s) = 2.30439 5.13973 3.98290
#
# Compressibility (1/GPa) = 0.12404940
#
# Stress axis : x y z
#
# Youngs Moduli (GPa) = 70.57427 8.15685 36.67339
#
# Poissons Ratio (x) = -0.09388 0.03039
# Poissons Ratio (y) = -0.81230 1.12489
# Poissons Ratio (z) = 0.05848 0.25020
#
# Static dielectric constant tensor:
#      x y z
#    x 4.187070 -0.206550 -0.045280 
#    y -0.206550 4.520920 0.227420 
#    z -0.045280 0.227420 4.064720 
# 
# 
# High freq. dielectric constant tensor:
#      x y z
#    x 1.966740 -0.013430 -0.002800 
#    y -0.013430 1.985770 0.015980 
#    z -0.002800 0.015980 1.959050 
# 
# From -- ./inp_files/139241.got.cif
#   From: 2010.06.25/outbox.cif.g09.slc.cpg/sg2_70_cif.got.tgz:139241.got - 2010.06.27 13:26:56.
