data_PCOD8026460
_publ_section_title
;
Structure prediction by ZEFSAII (Michael W. Deem and Ramdas Pophale) SiO2 
 PCOD8026460
Probable space group: P -1
;
_chemical_formula_sum "Si O2"
_cell_formula_units_Z 12
_cell_length_a 7.485050
_cell_length_b 16.351961
_cell_length_c 8.605159
_cell_angle_alpha 121.309975
_cell_angle_beta 34.395638
_cell_angle_gamma 105.583711
_cell_volume 479.522018
_symmetry_space_group_name_H-M "P -1"
_symmetry_group_IT_number 2
_symmetry_cell_setting 'triclinic'
loop_
_space_group_symop_operation_xyz
x,y,z
-x,-y,-z
loop_
_atom_site_type_symbol
_atom_site_label
_atom_site_fract_x
_atom_site_fract_y
_atom_site_fract_z
Si Si1 0.583556 0.032388 0.802263
Si Si2 0.550243 0.299235 0.440642
Si Si3 0.659335 0.479735 0.699434
Si Si4 0.678606 0.099211 0.324076
Si Si5 0.796179 0.339560 0.983119
Si Si6 0.903788 0.155056 0.509393
O O1 0.234882 0.128600 0.136255
O O2 0.895419 0.075772 0.581780
O O3 0.500000 0.000000 0.000000
O O4 0.616583 0.941815 0.564936
O O5 0.720572 0.365106 0.486319
O O6 0.709112 0.182685 0.262634
O O7 0.613425 0.302946 0.216486
O O8 0.150210 0.341296 0.795168
O O9 0.428528 0.549395 0.800513
O O10 0.000000 0.500000 0.500000
O O11 0.500000 0.500000 0.000000
O O12 0.608088 0.148864 0.597196
O O13 0.000000 0.000000 0.000000
O O14 0.834425 0.265784 0.735672
#
# Coordination Sequence:
#
# PCOD8026460 Si02
#       6
#     2   2   2   2   2   2
#     4  11  22  39  61  91 128 174 225 277 331 392
#     4  12  26  46  70 102 140 182 227 283 343 406
#     4  12  26  47  75 105 136 177 225 282 346 414
#     4  10  24  42  65  97 136 183 233 282 335 399
#     4  12  25  45  71 103 139 179 226 282 345 412
#     4  11  23  39  62  92 129 173 221 276 331 395
#
# _framework density 25.024918
#
# number of rings (size 3 to 8) (size 9 to 14) (size 15 to 20)
#    0.000    0.667    0.000    8.000    0.000    9.333 
#    0.000    0.000    0.000    0.000    0.000    0.000 
#    0.000    0.000    0.000    0.000    0.000    0.000 
#
# Total GULP energy -148751.310622 kJ/mol
# GULP energy per Si atom -12395.942552 kJ/mol
# Density = 2.496796 g / cm^3
# Si number density = 25.024918 Si / 1000 Ang^3
#
#
#
# Elastic Constant Matrix: (Units=GPa)
#
#
# Indices 1 2 3 4 5 6 
#
# 1 104.3828 34.2358 20.0764 3.9280 1.9932 11.2936
# 2 34.2358 132.9657 39.3993 3.2966 -16.8489 1.7964
# 3 20.0764 39.3993 96.2340 -14.7564 0.3566 5.7754
# 4 3.9280 3.2966 -14.7564 45.9368 6.0088 7.6144
# 5 1.9932 -16.8489 0.3566 6.0088 45.1081 6.1900
# 6 11.2936 1.7964 5.7754 7.6144 6.1900 67.5477
#
#
#
# Elastic Compliance Matrix: (Units=1/GPa)
#
#
# Indices 1 2 3 4 5 6 
#
# 1 0.010857 -0.002525 -0.001257 -0.000765 -0.001112 -0.001453
# 2 -0.002525 0.009909 -0.003930 -0.002358 0.004105 0.000384
# 3 -0.001257 -0.003930 0.013118 0.005066 -0.002027 -0.001192
# 4 -0.000765 -0.002358 0.005066 0.024569 -0.003794 -0.002664
# 5 -0.001112 0.004105 -0.002027 -0.003794 0.024488 -0.001566
# 6 -0.001453 0.000384 -0.001192 -0.002664 -0.001566 0.015583
#
#
# Mechanical properties :
#
#
# Convention : Reuss Voigt Hill
#
# Bulk Modulus (GPa) = 54.17110 57.88949 56.03029
# Shear Modulus (GPa) = 41.63106 47.70991 44.67049
#
# Velocity S-wave (km/s) = 4.08313 4.37108 4.22956
# Velocity P-wave (km/s) = 6.62745 6.97554 6.80372
#
# Compressibility (1/GPa) = 0.01846003
#
# Stress axis : x y z
#
# Youngs Moduli (GPa) = 92.10349 100.91939 76.22838
#
# Poissons Ratio (x) = 0.25486 0.09583
# Poissons Ratio (y) = 0.23259 0.29957
# Poissons Ratio (z) = 0.11579 0.39660
#
# Static dielectric constant tensor:
#      x y z
#    x 5.366810 -0.000610 -0.764160 
#    y -0.000610 4.471430 -0.108640 
#    z -0.764160 -0.108640 6.244840 
# 
# 
# High freq. dielectric constant tensor:
#      x y z
#    x 2.017320 0.001320 0.007220 
#    y 0.001320 2.006670 -0.003330 
#    z 0.007220 -0.003330 1.992910 
# 
# From -- ./inp_files/196420.got.cif
#   From: 2010.06.25/outbox.cif.g09.slc.cpg/sg2_99_cif.got.tgz:196420.got - 2010.06.27 13:26:56.
