data_PCOD8026128
_publ_section_title
;
Structure prediction by ZEFSAII (Michael W. Deem and Ramdas Pophale) SiO2 
 PCOD8026128
Probable space group: P -1
;
_chemical_formula_sum "Si O2"
_cell_formula_units_Z 16
_cell_length_a 8.845350
_cell_length_b 19.357518
_cell_length_c 18.720034
_cell_angle_alpha 27.559104
_cell_angle_beta 142.510314
_cell_angle_gamma 150.602344
_cell_volume 724.805590
_symmetry_space_group_name_H-M "P -1"
_symmetry_group_IT_number 2
_symmetry_cell_setting 'triclinic'
loop_
_space_group_symop_operation_xyz
x,y,z
-x,-y,-z
loop_
_atom_site_type_symbol
_atom_site_label
_atom_site_fract_x
_atom_site_fract_y
_atom_site_fract_z
Si Si1 0.257173 0.074613 0.795147
Si Si2 0.393149 0.085424 0.252888
Si Si3 0.349690 0.542176 0.465799
Si Si4 0.696479 0.814569 0.028265
Si Si5 0.308401 0.769712 0.053652
Si Si6 0.297881 0.511418 0.627171
Si Si7 0.619252 0.257408 0.435705
Si Si8 0.668964 0.407427 0.167824
O O1 0.509921 0.241796 0.685536
O O2 0.393375 0.118883 0.885641
O O3 0.935640 0.046678 0.708929
O O4 0.172685 0.888472 0.896701
O O5 0.628405 0.267259 0.220729
O O6 0.509805 0.956594 0.408312
O O7 0.375315 0.158316 0.103094
O O8 0.500000 0.500000 0.500000
O O9 0.460015 0.521070 0.604475
O O10 0.985925 0.405963 0.445437
O O11 0.407307 0.755910 0.023909
O O12 0.770073 0.664027 0.193678
O O13 0.000000 0.000000 0.000000
O O14 0.037706 0.564949 0.168931
O O15 0.513208 0.691603 0.594195
O O16 0.000000 0.500000 0.500000
O O17 0.522449 0.292983 0.291260
O O18 0.500000 0.500000 0.000000
#
# Coordination Sequence:
#
# PCOD8026128 Si02
#       8
#     2   2   2   2   2   2   2   2
#     4  11  22  39  67 103 126 173 226 278 333 401
#     4  12  25  43  70  98 134 179 226 276 342 400
#     4  11  20  37  67  99 136 163 221 282 337 391
#     4  12  24  41  68 101 138 171 222 283 338 400
#     4  11  25  40  70  98 136 174 223 279 338 394
#     4  10  24  37  62 100 138 176 211 275 344 394
#     4  11  24  42  65  96 135 179 221 275 340 401
#     4  12  25  46  69  95 136 184 226 280 332 407
#
# _framework density 22.074885999999999
#
# number of rings (size 3 to 8) (size 9 to 14) (size 15 to 20)
#    0.000    0.750    5.000    3.375    5.250    0.500 
#    0.000    0.000    0.000    2.250    0.000    0.000 
#    0.000    0.000    0.000    0.000    0.000    0.000 
#
# Total GULP energy -198349.769871 kJ/mol
# GULP energy per Si atom -12396.860617 kJ/mol
# Density = 2.202464 g / cm^3
# Si number density = 22.074886 Si / 1000 Ang^3
#
#
#
# Elastic Constant Matrix: (Units=GPa)
#
#
# Indices 1 2 3 4 5 6 
#
# 1 93.2280 31.5191 36.6762 -0.5187 -6.2000 -30.1980
# 2 31.5191 85.6386 38.8431 -17.7669 3.8201 -33.0496
# 3 36.6762 38.8431 163.6058 -12.4502 -7.0172 -34.1696
# 4 -0.5187 -17.7669 -12.4502 38.4669 -11.2479 -0.4250
# 5 -6.2000 3.8201 -7.0172 -11.2479 37.8435 0.2966
# 6 -30.1980 -33.0496 -34.1696 -0.4250 0.2966 43.5046
#
#
#
# Elastic Compliance Matrix: (Units=1/GPa)
#
#
# Indices 1 2 3 4 5 6 
#
# 1 0.014460 -0.002080 -0.001102 -0.000396 0.002198 0.007573
# 2 -0.002080 0.019659 -0.000814 0.008956 0.000084 0.012939
# 3 -0.001102 -0.000814 0.007866 0.002842 0.002167 0.004808
# 4 -0.000396 0.008956 0.002842 0.033948 0.009577 0.009028
# 5 0.002198 0.000084 0.002167 0.009577 0.030000 0.003181
# 6 0.007573 0.012939 0.004808 0.009028 0.003181 0.041915
#
#
# Mechanical properties :
#
#
# Convention : Reuss Voigt Hill
#
# Bulk Modulus (GPa) = 29.41712 61.83880 45.62796
# Shear Modulus (GPa) = 29.90975 39.65860 34.78417
#
# Velocity S-wave (km/s) = 3.68492 4.24317 3.97386
# Velocity P-wave (km/s) = 5.60891 7.21665 6.46296
#
# Compressibility (1/GPa) = 0.03399382
#
# Stress axis : x y z
#
# Youngs Moduli (GPa) = 69.15641 50.86670 127.13157
#
# Poissons Ratio (x) = 0.10579 0.14011
# Poissons Ratio (y) = 0.14383 0.10345
# Poissons Ratio (z) = 0.07622 0.04139
#
# Static dielectric constant tensor:
#      x y z
#    x 3.615250 -0.106170 0.387540 
#    y -0.106170 3.911950 -0.283010 
#    z 0.387540 -0.283010 4.287520 
# 
# 
# High freq. dielectric constant tensor:
#      x y z
#    x 1.870820 -0.026810 -0.001780 
#    y -0.026810 1.853180 -0.013580 
#    z -0.001780 -0.013580 1.879310 
# 
# From -- ./inp_files/182404.got.cif
#   From: 2010.06.25/outbox.cif.g09.slc.cpg/sg2_92_cif.got.tgz:182404.got - 2010.06.27 13:26:56.
