data_PCOD8026786
_publ_section_title
;
Structure prediction by ZEFSAII (Michael W. Deem and Ramdas Pophale) SiO2 
 PCOD8026786
Probable space group: P -1
;
_chemical_formula_sum "Si O2"
_cell_formula_units_Z 14
_cell_length_a 7.672764
_cell_length_b 8.590934
_cell_length_c 13.667427
_cell_angle_alpha 126.629539
_cell_angle_beta 64.647326
_cell_angle_gamma 128.665085
_cell_volume 562.302063
_symmetry_space_group_name_H-M "P -1"
_symmetry_group_IT_number 2
_symmetry_cell_setting 'triclinic'
loop_
_space_group_symop_operation_xyz
x,y,z
-x,-y,-z
loop_
_atom_site_type_symbol
_atom_site_label
_atom_site_fract_x
_atom_site_fract_y
_atom_site_fract_z
Si Si1 0.282724 0.038379 0.660074
Si Si2 0.963870 0.409210 0.754881
Si Si3 0.140040 0.276442 0.479945
Si Si4 0.086899 0.293987 0.880825
Si Si5 0.161950 0.909058 0.954494
Si Si6 0.501312 0.763503 0.515761
Si Si7 0.417144 0.672455 0.068168
O O1 0.379347 0.894431 0.634262
O O2 0.032004 0.875498 0.618269
O O3 0.255309 0.190573 0.807173
O O4 0.453689 0.194525 0.594325
O O5 0.694886 0.302358 0.795219
O O6 0.003967 0.332942 0.612609
O O7 0.048899 0.306607 0.780143
O O8 0.094202 0.680410 0.826909
O O9 0.336405 0.498552 0.465794
O O10 0.261878 0.151865 0.453433
O O11 0.205358 0.542345 0.995011
O O12 0.863533 0.133299 0.937654
O O13 0.413881 0.092412 0.934296
O O14 0.000000 0.000000 0.000000
O O15 0.500000 0.500000 0.000000
#
# Coordination Sequence:
#
# PCOD8026786 Si02
#       7
#     2   2   2   2   2   2   2
#     4  11  24  45  69 101 141 181 220 285 339 402
#     4  11  25  43  67  98 140 173 223 285 327 411
#     4  11  24  46  68 103 140 180 228 278 341 401
#     4  11  25  43  66 101 138 171 228 276 337 410
#     4  11  23  45  68 101 130 174 228 279 339 405
#     4  10  24  43  67  99 137 180 234 272 332 410
#     4  11  23  43  69  98 130 173 222 280 340 393
#
# _framework density 24.897649000000001
#
# number of rings (size 3 to 8) (size 9 to 14) (size 15 to 20)
#    0.000    1.143    4.286    2.571    2.000    6.857 
#    2.571    0.000    0.000    0.000    0.000    0.000 
#    0.000    0.000    0.000    0.000    0.000    0.000 
#
# Total GULP energy -173637.885613 kJ/mol
# GULP energy per Si atom -12402.706115 kJ/mol
# Density = 2.484098 g / cm^3
# Si number density = 24.897649 Si / 1000 Ang^3
#
#
#
# Elastic Constant Matrix: (Units=GPa)
#
#
# Indices 1 2 3 4 5 6 
#
# 1 84.3839 29.5933 20.6774 0.2680 -27.7476 0.8441
# 2 29.5933 151.4379 31.8697 -3.5959 -9.2930 20.5682
# 3 20.6774 31.8697 83.7241 3.9108 -13.9198 6.3823
# 4 0.2680 -3.5959 3.9108 28.7086 -2.4566 -11.7348
# 5 -27.7476 -9.2930 -13.9198 -2.4566 40.0106 0.8576
# 6 0.8441 20.5682 6.3823 -11.7348 0.8576 43.9977
#
#
#
# Elastic Compliance Matrix: (Units=1/GPa)
#
#
# Indices 1 2 3 4 5 6 
#
# 1 0.016462 -0.002375 -0.001576 0.001106 0.010360 0.001116
# 2 -0.002375 0.007969 -0.002273 -0.000090 -0.000520 -0.003364
# 3 -0.001576 -0.002273 0.013966 -0.002595 0.003115 -0.001686
# 4 0.001106 -0.000090 -0.002595 0.039829 0.002054 0.010980
# 5 0.010360 -0.000520 0.003115 0.002054 0.033278 -0.000508
# 6 0.001116 -0.003364 -0.001686 0.010980 -0.000508 0.027462
#
#
# Mechanical properties :
#
#
# Convention : Reuss Voigt Hill
#
# Bulk Modulus (GPa) = 38.53625 53.75854 46.14740
# Shear Modulus (GPa) = 31.23795 38.37040 34.80418
#
# Velocity S-wave (km/s) = 3.54595 3.92998 3.74289
# Velocity P-wave (km/s) = 5.68124 6.49859 6.10361
#
# Compressibility (1/GPa) = 0.02594959
#
# Stress axis : x y z
#
# Youngs Moduli (GPa) = 60.74714 125.49406 71.60305
#
# Poissons Ratio (x) = 0.29802 0.11284
# Poissons Ratio (y) = 0.14426 0.16273
# Poissons Ratio (z) = 0.09573 0.28520
#
# Static dielectric constant tensor:
#      x y z
#    x 4.750140 0.064370 -0.239790 
#    y 0.064370 4.881810 0.112490 
#    z -0.239790 0.112490 4.475840 
# 
# 
# High freq. dielectric constant tensor:
#      x y z
#    x 2.001340 -0.004340 -0.022330 
#    y -0.004340 2.004490 0.001950 
#    z -0.022330 0.001950 1.991760 
# 
# From -- ./inp_files/203859.got.cif
#   From: 2010.06.25/outbox.cif.g09.slc.cpg/sg2_102_cif.got.tgz:203859.got - 2010.06.27 13:26:56.
