data_PCOD8026553
_publ_section_title
;
Structure prediction by ZEFSAII (Michael W. Deem and Ramdas Pophale) SiO2 
 PCOD8026553
Probable space group: P -1
;
_chemical_formula_sum "Si O2"
_cell_formula_units_Z 16
_cell_length_a 11.631869
_cell_length_b 15.021707
_cell_length_c 9.238214
_cell_angle_alpha 136.065083
_cell_angle_beta 64.327681
_cell_angle_gamma 142.704526
_cell_volume 640.098874
_symmetry_space_group_name_H-M "P -1"
_symmetry_group_IT_number 2
_symmetry_cell_setting 'triclinic'
loop_
_space_group_symop_operation_xyz
x,y,z
-x,-y,-z
loop_
_atom_site_type_symbol
_atom_site_label
_atom_site_fract_x
_atom_site_fract_y
_atom_site_fract_z
Si Si1 0.015387 0.515786 0.252390
Si Si2 0.799019 0.788928 0.926388
Si Si3 0.429657 0.998415 0.882400
Si Si4 0.052064 0.373839 0.322843
Si Si5 0.817645 0.907914 0.346035
Si Si6 0.268263 0.262641 0.520715
Si Si7 0.772820 0.168712 0.739696
Si Si8 0.528337 0.359076 0.267071
O O1 0.885673 0.516865 0.424853
O O2 0.171626 0.715519 0.303138
O O3 0.131145 0.523467 0.322291
O O4 0.880360 0.317938 0.995438
O O5 0.629711 0.668060 0.757935
O O6 0.834665 0.670019 0.810324
O O7 0.716241 0.808937 0.129784
O O8 0.000000 0.000000 0.000000
O O9 0.532637 0.992350 0.693494
O O10 0.191258 0.824563 0.789389
O O11 0.532806 0.216808 0.050808
O O12 0.500000 0.000000 0.000000
O O13 0.702572 0.724803 0.306896
O O14 0.826597 0.061481 0.574139
O O15 0.045918 0.033325 0.344597
O O16 0.444171 0.305640 0.413554
O O17 0.268664 0.409286 0.624472
#
# Coordination Sequence:
#
# PCOD8026553 Si02
#       8
#     2   2   2   2   2   2   2   2
#     4  10  25  44  67 102 132 180 228 273 335 406
#     4  12  23  44  72  99 134 177 226 281 336 406
#     4  12  24  42  69  98 139 178 227 279 335 406
#     4  11  24  46  70 100 134 182 226 276 344 392
#     4  11  24  43  69  99 136 180 222 275 346 398
#     4  10  24  42  68  98 133 177 226 284 326 408
#     4  11  25  42  68 100 138 179 225 275 337 406
#     4  11  25  44  68 101 132 178 232 280 335 395
#
# _framework density 24.99614
#
# number of rings (size 3 to 8) (size 9 to 14) (size 15 to 20)
#    0.000    1.000    3.750    1.500    7.000    2.000 
#    4.500    0.000    0.000    0.000    0.000    0.000 
#    0.000    0.000    0.000    0.000    0.000    0.000 
#
# Total GULP energy -198268.769030 kJ/mol
# GULP energy per Si atom -12391.798064 kJ/mol
# Density = 2.493925 g / cm^3
# Si number density = 24.996140 Si / 1000 Ang^3
#
#
#
# Elastic Constant Matrix: (Units=GPa)
#
#
# Indices 1 2 3 4 5 6 
#
# 1 71.1920 31.8215 17.8912 -9.9257 -23.7705 -13.4459
# 2 31.8215 135.2950 27.1291 -30.9134 -5.5098 -27.4460
# 3 17.8912 27.1291 112.0514 -21.5455 -17.2295 -10.8851
# 4 -9.9257 -30.9134 -21.5455 36.4441 -6.3944 2.6883
# 5 -23.7705 -5.5098 -17.2295 -6.3944 40.8607 3.5949
# 6 -13.4459 -27.4460 -10.8851 2.6883 3.5949 43.2668
#
#
#
# Elastic Compliance Matrix: (Units=1/GPa)
#
#
# Indices 1 2 3 4 5 6 
#
# 1 0.020672 -0.002381 0.000724 0.005982 0.012623 0.003676
# 2 -0.002381 0.011085 0.000035 0.008524 0.000958 0.005692
# 3 0.000724 0.000035 0.011520 0.007995 0.006348 0.002121
# 4 0.005982 0.008524 0.007995 0.043131 0.014274 0.005412
# 5 0.012623 0.000958 0.006348 0.014274 0.036663 0.002194
# 6 0.003676 0.005692 0.002121 0.005412 0.002194 0.027880
#
#
# Mechanical properties :
#
#
# Convention : Reuss Voigt Hill
#
# Bulk Modulus (GPa) = 24.97859 52.46913 38.72386
# Shear Modulus (GPa) = 29.84398 40.22741 35.03570
#
# Velocity S-wave (km/s) = 3.45910 4.01602 3.74792
# Velocity P-wave (km/s) = 5.09593 6.52234 5.85275
#
# Compressibility (1/GPa) = 0.04003429
#
# Stress axis : x y z
#
# Youngs Moduli (GPa) = 48.37572 90.20941 86.80742
#
# Poissons Ratio (x) = 0.21475 -0.06285
# Poissons Ratio (y) = 0.11516 -0.00307
# Poissons Ratio (z) = -0.03502 -0.00319
#
# Static dielectric constant tensor:
#      x y z
#    x 4.425160 -0.369400 -0.005230 
#    y -0.369400 4.556700 -0.106880 
#    z -0.005230 -0.106880 4.802080 
# 
# 
# High freq. dielectric constant tensor:
#      x y z
#    x 1.988650 -0.017170 -0.004880 
#    y -0.017170 2.011180 -0.007580 
#    z -0.004880 -0.007580 1.996060 
# 
# From -- ./inp_files/274369.got.cif
#   From: 2010.06.25/outbox.cif.g09.slc.cpg/sg2_138_cif.got.tgz:274369.got - 2010.06.27 13:26:56.
