data_PCOD8026331
_publ_section_title
;
Structure prediction by ZEFSAII (Michael W. Deem and Ramdas Pophale) SiO2 
 PCOD8026331
Probable space group: P -1
;
_chemical_formula_sum "Si O2"
_cell_formula_units_Z 14
_cell_length_a 17.038838
_cell_length_b 8.292601
_cell_length_c 11.862880
_cell_angle_alpha 141.818725
_cell_angle_beta 35.268992
_cell_angle_gamma 130.235078
_cell_volume 598.239684
_symmetry_space_group_name_H-M "P -1"
_symmetry_group_IT_number 2
_symmetry_cell_setting 'triclinic'
loop_
_space_group_symop_operation_xyz
x,y,z
-x,-y,-z
loop_
_atom_site_type_symbol
_atom_site_label
_atom_site_fract_x
_atom_site_fract_y
_atom_site_fract_z
Si Si1 0.521416 0.367957 0.723408
Si Si2 0.588778 0.115628 0.291475
Si Si3 0.138012 0.951708 0.593017
Si Si4 0.039411 0.457674 0.060493
Si Si5 0.815520 0.450301 0.497124
Si Si6 0.566711 0.066458 0.839723
Si Si7 0.864875 0.024328 0.816288
O O1 0.534857 0.355982 0.563932
O O2 0.669258 0.324583 0.578529
O O3 0.423560 0.143223 0.760881
O O4 0.458235 0.631213 0.988386
O O5 0.502496 0.106134 0.272294
O O6 0.749493 0.147736 0.099145
O O7 0.132372 0.684555 0.524032
O O8 0.271117 0.974158 0.370070
O O9 0.140584 0.210991 0.812474
O O10 0.001460 0.946051 0.677185
O O11 0.911868 0.377713 0.241337
O O12 0.102996 0.738780 0.181018
O O13 0.000000 0.500000 0.000000
O O14 0.803971 0.764798 0.687990
O O15 0.500000 0.000000 0.000000
#
# Coordination Sequence:
#
# PCOD8026331 Si02
#       7
#     2   2   2   2   2   2   2
#     4  11  24  45  75 100 143 189 239 287 361 420
#     4  11  24  47  72 103 137 193 236 287 356 433
#     4  11  25  46  67 107 139 184 245 290 348 425
#     4  10  24  41  66  99 141 180 229 287 358 413
#     4  12  22  44  75 101 141 187 239 292 348 429
#     4  12  27  45  71 103 146 181 235 299 351 420
#     4  11  24  43  73 101 145 182 238 289 362 419
#
# _framework density 23.401990000000001
#
# number of rings (size 3 to 8) (size 9 to 14) (size 15 to 20)
#    0.000    0.857    2.857    4.286    6.000    1.714 
#    2.571    0.000    0.000    0.000    0.000    0.000 
#    0.000    0.000    0.000    0.000    0.000    0.000 
#
# Total GULP energy -173580.999049 kJ/mol
# GULP energy per Si atom -12398.642789 kJ/mol
# Density = 2.334873 g / cm^3
# Si number density = 23.401990 Si / 1000 Ang^3
#
#
#
# Elastic Constant Matrix: (Units=GPa)
#
#
# Indices 1 2 3 4 5 6 
#
# 1 75.3554 -1.1249 16.6898 -15.1798 3.8452 15.1613
# 2 -1.1249 82.2851 19.9526 -2.3285 -10.3851 2.3340
# 3 16.6898 19.9526 105.9817 -21.1422 -10.7772 6.6883
# 4 -15.1798 -2.3285 -21.1422 51.7642 8.0145 2.7682
# 5 3.8452 -10.3851 -10.7772 8.0145 34.1553 -6.0609
# 6 15.1613 2.3340 6.6883 2.7682 -6.0609 28.6655
#
#
#
# Elastic Compliance Matrix: (Units=1/GPa)
#
#
# Indices 1 2 3 4 5 6 
#
# 1 0.017186 0.000365 -0.001506 0.005860 -0.005538 -0.010505
# 2 0.000365 0.013133 -0.002346 -0.000793 0.003413 0.000083
# 3 -0.001506 -0.002346 0.011160 0.003819 0.001797 -0.001605
# 4 0.005860 -0.000793 0.003819 0.024006 -0.006688 -0.007658
# 5 -0.005538 0.003413 0.001797 -0.006688 0.034895 0.010256
# 6 -0.010505 0.000083 -0.001605 -0.007658 0.010256 0.043717
#
#
# Mechanical properties :
#
#
# Convention : Reuss Voigt Hill
#
# Bulk Modulus (GPa) = 28.98233 37.18414 33.08323
# Shear Modulus (GPa) = 30.75516 38.12399 34.43958
#
# Velocity S-wave (km/s) = 3.62914 4.04058 3.84037
# Velocity P-wave (km/s) = 5.47470 6.13940 5.81655
#
# Compressibility (1/GPa) = 0.03450379
#
# Stress axis : x y z
#
# Youngs Moduli (GPa) = 58.18611 76.14587 89.60307
#
# Poissons Ratio (x) = -0.02780 0.13497
# Poissons Ratio (y) = -0.02124 0.21024
# Poissons Ratio (z) = 0.08765 0.17867
#
# Static dielectric constant tensor:
#      x y z
#    x 3.855920 0.185630 0.160630 
#    y 0.185630 4.879880 0.282520 
#    z 0.160630 0.282520 4.638620 
# 
# 
# High freq. dielectric constant tensor:
#      x y z
#    x 1.897230 0.006100 0.004100 
#    y 0.006100 1.942090 -0.005550 
#    z 0.004100 -0.005550 1.947470 
# 
# From -- ./inp_files/319142.got.cif
#   From: 2010.06.25/outbox.cif.g09.slc.cpg/sg2_160_cif.got.tgz:319142.got - 2010.06.27 13:26:56.
