data_PCOD8026149
_publ_section_title
;
Structure prediction by ZEFSAII (Michael W. Deem and Ramdas Pophale) SiO2 
 PCOD8026149
Probable space group: P -1
;
_chemical_formula_sum "Si O2"
_cell_formula_units_Z 14
_cell_length_a 14.198223
_cell_length_b 5.168316
_cell_length_c 10.577948
_cell_angle_alpha 68.785246
_cell_angle_beta 129.922598
_cell_angle_gamma 96.422052
_cell_volume 547.026715
_symmetry_space_group_name_H-M "P -1"
_symmetry_group_IT_number 2
_symmetry_cell_setting 'triclinic'
loop_
_space_group_symop_operation_xyz
x,y,z
-x,-y,-z
loop_
_atom_site_type_symbol
_atom_site_label
_atom_site_fract_x
_atom_site_fract_y
_atom_site_fract_z
Si Si1 0.942014 0.219500 0.173840
Si Si2 0.599786 0.250044 0.864779
Si Si3 0.217206 0.949923 0.449231
Si Si4 0.118583 0.116358 0.031251
Si Si5 0.680555 0.637616 0.394773
Si Si6 0.617311 0.866914 0.706762
Si Si7 0.206479 0.941086 0.718750
O O1 0.918083 0.556250 0.093174
O O2 0.923862 0.099584 0.319728
O O3 0.845058 0.077539 0.028561
O O4 0.080791 0.107943 0.260791
O O5 0.459100 0.313135 0.785564
O O6 0.627251 0.532977 0.771681
O O7 0.610524 0.990599 0.821007
O O8 0.683362 0.200580 0.069740
O O9 0.273319 0.680715 0.461108
O O10 0.210817 0.798426 0.609460
O O11 0.311796 0.175694 0.503155
O O12 0.243991 0.076099 0.236350
O O13 0.000000 0.000000 0.000000
O O14 0.774112 0.736522 0.351871
O O15 0.500000 0.000000 0.500000
#
# Coordination Sequence:
#
# PCOD8026149 Si02
#       7
#     2   2   2   2   2   2   2
#     4  12  24  45  72 100 139 183 223 281 349 407
#     4  12  24  45  72 100 139 183 223 281 349 407
#     4  10  24  39  65 106 142 185 220 273 328 412
#     4  12  27  48  73 101 133 180 237 295 348 406
#     4  10  24  39  65 106 142 185 220 273 328 412
#     4  12  27  48  73 101 133 180 237 295 348 406
#     4  10  24  40  70  98 150 172 238 252 354 404
#
# _framework density 25.5929
#
# number of rings (size 3 to 8) (size 9 to 14) (size 15 to 20)
#    0.857    0.000    2.857    3.429    4.000    4.571 
#    0.000    0.000    0.000    0.000    0.000    0.000 
#    0.000    0.000    0.000    0.000    0.000    0.000 
#
# Total GULP energy -173439.637618 kJ/mol
# GULP energy per Si atom -12388.545544 kJ/mol
# Density = 2.553465 g / cm^3
# Si number density = 25.592900 Si / 1000 Ang^3
#
#
#
# Elastic Constant Matrix: (Units=GPa)
#
#
# Indices 1 2 3 4 5 6 
#
# 1 81.2405 23.7536 -4.7134 -4.6503 17.8904 28.3492
# 2 23.7536 176.4895 39.9607 -20.0065 3.4761 0.9599
# 3 -4.7134 39.9607 119.0299 11.2169 4.3045 10.5886
# 4 -4.6503 -20.0065 11.2169 40.1839 0.3147 3.0226
# 5 17.8904 3.4761 4.3045 0.3147 30.6990 6.8216
# 6 28.3492 0.9599 10.5886 3.0226 6.8216 31.5581
#
#
#
# Elastic Compliance Matrix: (Units=1/GPa)
#
#
# Indices 1 2 3 4 5 6 
#
# 1 0.022434 -0.003500 0.004007 0.001278 -0.008899 -0.019589
# 2 -0.003500 0.007285 -0.003289 0.003872 0.000866 0.003468
# 3 0.004007 -0.003289 0.010641 -0.003656 -0.002021 -0.006283
# 4 0.001278 0.003872 -0.003656 0.028185 -0.000369 -0.002659
# 5 -0.008899 0.000866 -0.002021 -0.000369 0.037838 0.000503
# 6 -0.019589 0.003468 -0.006283 -0.002659 0.000503 0.051434
#
#
# Mechanical properties :
#
#
# Convention : Reuss Voigt Hill
#
# Bulk Modulus (GPa) = 28.73894 54.97354 41.85624
# Shear Modulus (GPa) = 28.57505 41.67213 35.12359
#
# Velocity S-wave (km/s) = 3.34507 4.03956 3.70861
# Velocity P-wave (km/s) = 5.11595 6.57906 5.89309
#
# Compressibility (1/GPa) = 0.03479599
#
# Stress axis : x y z
#
# Youngs Moduli (GPa) = 44.57570 137.27098 93.97955
#
# Poissons Ratio (x) = 0.48045 -0.37661
# Poissons Ratio (y) = 0.15601 0.30910
# Poissons Ratio (z) = -0.17863 0.45148
#
# Static dielectric constant tensor:
#      x y z
#    x 5.109860 -0.121040 -0.194550 
#    y -0.121040 5.193120 0.535930 
#    z -0.194550 0.535930 4.844860 
# 
# 
# High freq. dielectric constant tensor:
#      x y z
#    x 2.032270 0.010740 0.004090 
#    y 0.010740 2.034330 0.013400 
#    z 0.004090 0.013400 2.034140 
# 
# From -- ./inp_files/440933.got.cif
#   From: 2010.06.25/outbox.cif.g09.slc.cpg/sg2_221_cif.got.tgz:440933.got - 2010.06.27 13:26:56.
