data_PCOD8026290
_publ_section_title
;
Structure prediction by ZEFSAII (Michael W. Deem and Ramdas Pophale) SiO2 
 PCOD8026290
Probable space group: P -1
;
_chemical_formula_sum "Si O2"
_cell_formula_units_Z 14
_cell_length_a 20.229181
_cell_length_b 5.378481
_cell_length_c 7.337513
_cell_angle_alpha 60.843787
_cell_angle_beta 69.926378
_cell_angle_gamma 107.967085
_cell_volume 533.467231
_symmetry_space_group_name_H-M "P -1"
_symmetry_group_IT_number 2
_symmetry_cell_setting 'triclinic'
loop_
_space_group_symop_operation_xyz
x,y,z
-x,-y,-z
loop_
_atom_site_type_symbol
_atom_site_label
_atom_site_fract_x
_atom_site_fract_y
_atom_site_fract_z
Si Si1 0.948570 0.458438 0.819061
Si Si2 0.309558 0.407551 0.026839
Si Si3 0.451896 0.681567 0.517887
Si Si4 0.232320 0.787128 0.821172
Si Si5 0.641868 0.434713 0.689905
Si Si6 0.789155 0.352995 0.508628
Si Si7 0.029107 0.131269 0.700211
O O1 0.986370 0.712926 0.518870
O O2 0.979820 0.198364 0.882823
O O3 0.844097 0.219265 0.003595
O O4 0.988764 0.721502 0.860218
O O5 0.379086 0.579352 0.069302
O O6 0.228012 0.016639 0.291504
O O7 0.357862 0.412520 0.796689
O O8 0.267508 0.618188 0.973336
O O9 0.500000 0.500000 0.500000
O O10 0.439768 0.798147 0.286782
O O11 0.500000 0.000000 0.500000
O O12 0.192967 0.567312 0.750894
O O13 0.312909 0.174105 0.563517
O O14 0.702502 0.306740 0.663847
O O15 0.869471 0.667443 0.429862
#
# Coordination Sequence:
#
# PCOD8026290 Si02
#       7
#     2   2   2   2   2   2   2
#     4  10  24  41  67 101 150 198 248 314 374 418
#     4  11  27  49  79 108 153 199 244 315 368 445
#     4  12  29  52  80 116 153 190 244 305 381 463
#     4  11  25  46  75 107 147 204 255 307 364 442
#     4  11  27  49  77 114 147 197 259 294 378 457
#     4  11  26  44  76 108 144 198 262 298 369 452
#     4  10  24  41  64 106 145 196 253 309 373 430
#
# _framework density 26.243410999999998
#
# number of rings (size 3 to 8) (size 9 to 14) (size 15 to 20)
#    0.000    1.143    1.429    1.714   20.000    2.286 
#    0.000    0.000    0.000    0.000    0.000    0.000 
#    0.000    0.000    0.000    0.000    0.000    0.000 
#
# Total GULP energy -173637.117865 kJ/mol
# GULP energy per Si atom -12402.651276 kJ/mol
# Density = 2.618368 g / cm^3
# Si number density = 26.243411 Si / 1000 Ang^3
#
#
#
# Elastic Constant Matrix: (Units=GPa)
#
#
# Indices 1 2 3 4 5 6 
#
# 1 124.0857 62.3330 10.9219 -0.2357 3.2422 -13.2928
# 2 62.3330 142.7673 8.9559 7.6381 13.1003 -6.4419
# 3 10.9219 8.9559 36.1174 19.1870 12.7784 -3.6971
# 4 -0.2357 7.6381 19.1870 46.9414 -3.7635 -2.0266
# 5 3.2422 13.1003 12.7784 -3.7635 39.3523 7.5624
# 6 -13.2928 -6.4419 -3.6971 -2.0266 7.5624 58.0028
#
#
#
# Elastic Compliance Matrix: (Units=1/GPa)
#
#
# Indices 1 2 3 4 5 6 
#
# 1 0.010942 -0.004778 -0.004131 0.002748 0.001996 0.001549
# 2 -0.004778 0.009474 0.001822 -0.002586 -0.003688 0.000464
# 3 -0.004131 0.001822 0.046054 -0.020412 -0.017905 0.003812
# 4 0.002748 -0.002586 -0.020412 0.030866 0.010453 -0.001243
# 5 0.001996 -0.003688 -0.017905 0.010453 0.034288 -0.005199
# 6 0.001549 0.000464 0.003812 -0.001243 -0.005199 0.018525
#
#
# Mechanical properties :
#
#
# Convention : Reuss Voigt Hill
#
# Bulk Modulus (GPa) = 19.12250 51.93245 35.52748
# Shear Modulus (GPa) = 27.50946 43.57660 35.54303
#
# Velocity S-wave (km/s) = 3.24117 4.07932 3.68416
# Velocity P-wave (km/s) = 4.61620 6.48224 5.62711
#
# Compressibility (1/GPa) = 0.05229441
#
# Stress axis : x y z
#
# Youngs Moduli (GPa) = 91.39066 105.55072 21.71356
#
# Poissons Ratio (x) = 0.50437 0.08971
# Poissons Ratio (y) = 0.43670 -0.03956
# Poissons Ratio (z) = 0.37757 -0.19230
#
# Static dielectric constant tensor:
#      x y z
#    x 4.699510 0.187130 0.247200 
#    y 0.187130 5.344120 0.446570 
#    z 0.247200 0.446570 4.834610 
# 
# 
# High freq. dielectric constant tensor:
#      x y z
#    x 2.058390 0.007460 0.021910 
#    y 0.007460 2.068010 0.013670 
#    z 0.021910 0.013670 2.050500 
# 
# From -- ./inp_files/339617.got.cif
#   From: 2010.06.25/outbox.cif.g09.slc.cpg/sg2_170_cif.got.tgz:339617.got - 2010.06.27 13:26:56.
