data_PCOD8026845
_publ_section_title
;
Structure prediction by ZEFSAII (Michael W. Deem and Ramdas Pophale) SiO2 
 PCOD8026845
Probable space group: P -1
;
_chemical_formula_sum "Si O2"
_cell_formula_units_Z 16
_cell_length_a 8.686394
_cell_length_b 12.016634
_cell_length_c 7.732993
_cell_angle_alpha 93.494503
_cell_angle_beta 51.123310
_cell_angle_gamma 81.544920
_cell_volume 609.126604
_symmetry_space_group_name_H-M "P -1"
_symmetry_group_IT_number 2
_symmetry_cell_setting 'triclinic'
loop_
_space_group_symop_operation_xyz
x,y,z
-x,-y,-z
loop_
_atom_site_type_symbol
_atom_site_label
_atom_site_fract_x
_atom_site_fract_y
_atom_site_fract_z
Si Si1 0.178011 0.996520 0.665078
Si Si2 0.095318 0.764043 0.678923
Si Si3 0.421202 0.026144 0.796544
Si Si4 0.092692 0.784637 0.288481
Si Si5 0.211724 0.372500 0.106461
Si Si6 0.464212 0.384381 0.594596
Si Si7 0.527153 0.821023 0.923248
Si Si8 0.038525 0.413982 0.796616
O O1 0.212543 0.043371 0.836013
O O2 0.068972 0.097053 0.624869
O O3 0.048832 0.900139 0.759476
O O4 0.402254 0.934757 0.429568
O O5 0.058375 0.740499 0.499754
O O6 0.324570 0.709752 0.578979
O O7 0.933074 0.705245 0.885858
O O8 0.503837 0.889008 0.766107
O O9 0.369902 0.105100 0.008588
O O10 0.075141 0.689984 0.146364
O O11 0.308571 0.813467 0.139646
O O12 0.324635 0.307308 0.191936
O O13 0.065491 0.496035 0.273152
O O14 0.385763 0.389600 0.849376
O O15 0.500000 0.500000 0.500000
O O16 0.280574 0.358040 0.603043
O O17 0.000000 0.500000 0.000000
#
# Coordination Sequence:
#
# PCOD8026845 Si02
#       8
#     2   2   2   2   2   2   2   2
#     4  11  25  44  70 108 146 194 246 294 370 434
#     4  12  25  46  74 110 150 194 241 306 369 436
#     4  10  24  43  69 104 147 197 237 301 361 435
#     4  12  26  44  73 105 150 197 243 305 365 433
#     4  11  24  46  75 103 146 190 244 301 364 433
#     4  11  23  49  74 105 142 189 244 305 362 434
#     4  11  24  45  70 105 150 191 244 299 361 437
#     4  10  26  46  71 103 140 190 247 303 360 435
#
# _framework density 26.267116999999999
#
# number of rings (size 3 to 8) (size 9 to 14) (size 15 to 20)
#    0.000    1.000    3.750    1.125   10.500    3.500 
#    0.000    0.000    0.000    0.000    0.000    0.000 
#    0.000    0.000    0.000    0.000    0.000    0.000 
#
# Total GULP energy -198246.733937 kJ/mol
# GULP energy per Si atom -12390.420871 kJ/mol
# Density = 2.620733 g / cm^3
# Si number density = 26.267117 Si / 1000 Ang^3
#
#
#
# Elastic Constant Matrix: (Units=GPa)
#
#
# Indices 1 2 3 4 5 6 
#
# 1 115.2844 36.4165 15.8977 3.8680 -8.0467 -11.8476
# 2 36.4165 133.4566 10.8792 -15.4494 -5.1411 -5.4117
# 3 15.8977 10.8792 61.2629 -19.0389 -10.6265 7.3797
# 4 3.8680 -15.4494 -19.0389 35.8226 1.8128 -6.7210
# 5 -8.0467 -5.1411 -10.6265 1.8128 29.8642 2.3582
# 6 -11.8476 -5.4117 7.3797 -6.7210 2.3582 61.5940
#
#
#
# Elastic Compliance Matrix: (Units=1/GPa)
#
#
# Indices 1 2 3 4 5 6 
#
# 1 0.010457 -0.002917 -0.003416 -0.003947 0.001206 0.001687
# 2 -0.002917 0.008811 0.000639 0.004536 0.000635 0.000607
# 3 -0.003416 0.000639 0.022118 0.011651 0.006529 -0.002230
# 4 -0.003947 0.004536 0.011651 0.036831 0.001453 0.002207
# 5 0.001206 0.000635 0.006529 0.001453 0.036290 -0.001725
# 6 0.001687 0.000607 -0.002230 0.002207 -0.001725 0.017187
#
#
# Mechanical properties :
#
#
# Convention : Reuss Voigt Hill
#
# Bulk Modulus (GPa) = 33.33607 48.48783 40.91195
# Shear Modulus (GPa) = 32.66235 41.91020 37.28628
#
# Velocity S-wave (km/s) = 3.53011 3.99875 3.77172
# Velocity P-wave (km/s) = 5.41612 6.31028 5.88022
#
# Compressibility (1/GPa) = 0.02999754
#
# Stress axis : x y z
#
# Youngs Moduli (GPa) = 95.63203 113.49253 45.21216
#
# Poissons Ratio (x) = 0.33105 0.15446
# Poissons Ratio (y) = 0.27895 -0.02889
# Poissons Ratio (z) = 0.32671 -0.07252
#
# Static dielectric constant tensor:
#      x y z
#    x 5.257210 -0.543440 -0.197320 
#    y -0.543440 5.027990 -0.303680 
#    z -0.197320 -0.303680 4.396880 
# 
# 
# High freq. dielectric constant tensor:
#      x y z
#    x 2.069350 -0.021710 -0.023020 
#    y -0.021710 2.059210 -0.023410 
#    z -0.023020 -0.023410 2.032260 
# 
# From -- ./inp_files/187287.got.cif
#   From: 2010.06.25/outbox.cif.g09.slc.cpg/sg2_94_cif.got.tgz:187287.got - 2010.06.27 13:26:56.
