data_PCOD8026405
_publ_section_title
;
Structure prediction by ZEFSAII (Michael W. Deem and Ramdas Pophale) SiO2 
 PCOD8026405
Probable space group: P -1
;
_chemical_formula_sum "Si O2"
_cell_formula_units_Z 16
_cell_length_a 8.039395
_cell_length_b 13.682468
_cell_length_c 13.240650
_cell_angle_alpha 97.716348
_cell_angle_beta 69.412905
_cell_angle_gamma 145.448654
_cell_volume 739.431403
_symmetry_space_group_name_H-M "P -1"
_symmetry_group_IT_number 2
_symmetry_cell_setting 'triclinic'
loop_
_space_group_symop_operation_xyz
x,y,z
-x,-y,-z
loop_
_atom_site_type_symbol
_atom_site_label
_atom_site_fract_x
_atom_site_fract_y
_atom_site_fract_z
Si Si1 0.600942 0.903260 0.504992
Si Si2 0.858876 0.503714 0.945546
Si Si3 0.747888 0.752558 0.488129
Si Si4 0.373764 0.434832 0.859466
Si Si5 0.496152 0.108765 0.705504
Si Si6 0.279129 0.174067 0.896694
Si Si7 0.795659 0.591108 0.324187
Si Si8 0.876098 0.257112 0.249060
O O1 0.715412 0.844435 0.458529
O O2 0.519556 0.910453 0.414546
O O3 0.284970 0.764281 0.623489
O O4 0.897028 0.101365 0.519397
O O5 0.610031 0.322166 0.910257
O O6 0.137225 0.674268 0.834172
O O7 0.672228 0.512372 0.030135
O O8 0.000000 0.500000 0.000000
O O9 0.694441 0.651340 0.395055
O O10 0.476189 0.613743 0.612871
O O11 0.199748 0.249599 0.893152
O O12 0.197608 0.402434 0.797094
O O13 0.754305 0.595917 0.779740
O O14 0.314868 0.123725 0.782012
O O15 0.863518 0.286175 0.688557
O O16 0.317328 0.931150 0.767192
O O17 0.000000 0.000000 0.000000
#
# Coordination Sequence:
#
# PCOD8026405 Si02
#       8
#     2   2   2   2   2   2   2   2
#     4  11  24  43  66  93 132 178 214 257 323 393
#     4  11  25  46  68  95 127 171 217 269 324 384
#     4  10  24  42  61  92 136 168 217 257 322 380
#     4  11  24  43  68  92 131 172 214 264 328 382
#     4  12  24  41  67  99 133 169 216 266 322 379
#     4  11  24  44  67  97 128 168 218 269 323 379
#     4  11  24  40  64  98 132 165 216 270 318 376
#     4  11  24  43  67  95 130 175 219 259 323 391
#
# _framework density 21.638248999999998
#
# number of rings (size 3 to 8) (size 9 to 14) (size 15 to 20)
#    0.000    1.000    1.250    5.625    8.750    1.500 
#    2.250    2.500    0.000    0.000    0.000    0.000 
#    0.000    0.000    0.000    0.000    0.000    0.000 
#
# Total GULP energy -198501.385532 kJ/mol
# GULP energy per Si atom -12406.336596 kJ/mol
# Density = 2.158900 g / cm^3
# Si number density = 21.638249 Si / 1000 Ang^3
#
#
#
# Elastic Constant Matrix: (Units=GPa)
#
#
# Indices 1 2 3 4 5 6 
#
# 1 78.9875 21.0364 29.7445 -11.9015 12.1939 2.8980
# 2 21.0364 96.1294 45.2373 -22.5980 9.0363 -2.2064
# 3 29.7445 45.2373 126.3109 -13.1495 4.0201 0.4531
# 4 -11.9015 -22.5980 -13.1495 40.0465 -4.5587 -1.7141
# 5 12.1939 9.0363 4.0201 -4.5587 45.5896 4.5159
# 6 2.8980 -2.2064 0.4531 -1.7141 4.5159 34.9929
#
#
#
# Elastic Compliance Matrix: (Units=1/GPa)
#
#
# Indices 1 2 3 4 5 6 
#
# 1 0.014885 -0.001089 -0.002749 0.002511 -0.003200 -0.000730
# 2 -0.001089 0.014255 -0.004152 0.006231 -0.001700 0.001567
# 3 -0.002749 -0.004152 0.010051 0.000212 0.000717 -0.000246
# 4 0.002511 0.006231 0.000212 0.029467 0.000871 0.001513
# 5 -0.003200 -0.001700 0.000717 0.000871 0.023432 -0.002833
# 6 -0.000730 0.001567 -0.000246 0.001513 -0.002833 0.029179
#
#
# Mechanical properties :
#
#
# Convention : Reuss Voigt Hill
#
# Bulk Modulus (GPa) = 43.08339 54.82936 48.95638
# Shear Modulus (GPa) = 34.48587 37.81976 36.15282
#
# Velocity S-wave (km/s) = 3.99651 4.18523 4.09196
# Velocity P-wave (km/s) = 6.42262 6.98205 6.70817
#
# Compressibility (1/GPa) = 0.02321080
#
# Stress axis : x y z
#
# Youngs Moduli (GPa) = 67.18341 70.14924 99.48885
#
# Poissons Ratio (x) = 0.07641 0.27351
# Poissons Ratio (y) = 0.07318 0.41306
# Poissons Ratio (z) = 0.18470 0.29124
#
# Static dielectric constant tensor:
#      x y z
#    x 3.816790 -0.188670 -0.035590 
#    y -0.188670 4.005060 -0.001670 
#    z -0.035590 -0.001670 3.995200 
# 
# 
# High freq. dielectric constant tensor:
#      x y z
#    x 1.853310 -0.012610 -0.003770 
#    y -0.012610 1.855400 0.000340 
#    z -0.003770 0.000340 1.858320 
# 
# From -- ./inp_files/208803.got.cif
#   From: 2010.06.25/outbox.cif.g09.slc.cpg/sg2_105_cif.got.tgz:208803.got - 2010.06.27 13:26:56.
