data_PCOD8026199
_publ_section_title
;
Structure prediction by ZEFSAII (Michael W. Deem and Ramdas Pophale) SiO2 
 PCOD8026199
Probable space group: P -1
;
_chemical_formula_sum "Si O2"
_cell_formula_units_Z 16
_cell_length_a 11.586949
_cell_length_b 12.052058
_cell_length_c 12.055124
_cell_angle_alpha 63.741990
_cell_angle_beta 81.184960
_cell_angle_gamma 135.128989
_cell_volume 719.051234
_symmetry_space_group_name_H-M "P -1"
_symmetry_group_IT_number 2
_symmetry_cell_setting 'triclinic'
loop_
_space_group_symop_operation_xyz
x,y,z
-x,-y,-z
loop_
_atom_site_type_symbol
_atom_site_label
_atom_site_fract_x
_atom_site_fract_y
_atom_site_fract_z
Si Si1 0.310093 0.679357 0.403808
Si Si2 0.966276 0.607504 0.839569
Si Si3 0.035961 0.399916 0.903392
Si Si4 0.534171 0.830733 0.525538
Si Si5 0.766305 0.900911 0.640953
Si Si6 0.766714 0.118617 0.706853
Si Si7 0.278329 0.406605 0.249352
Si Si8 0.623801 0.908173 0.054551
O O1 0.467298 0.751106 0.440679
O O2 0.289164 0.805487 0.383619
O O3 0.427797 0.787784 0.217540
O O4 0.052405 0.373612 0.572954
O O5 0.886604 0.391351 0.926927
O O6 0.784145 0.531731 0.841642
O O7 0.238456 0.865272 0.636797
O O8 0.950944 0.633096 0.958318
O O9 0.302345 0.667489 0.696548
O O10 0.889349 0.160990 0.960100
O O11 0.633880 0.799371 0.585665
O O12 0.687603 0.688983 0.783246
O O13 0.674881 0.917960 0.734832
O O14 0.058412 0.178993 0.468278
O O15 0.630058 0.987006 0.902483
O O16 0.531825 0.680361 0.150831
#
# Coordination Sequence:
#
# PCOD8026199 Si02
#       8
#     2   2   2   2   2   2   2   2
#     4  11  24  41  62 102 134 168 208 262 343 382
#     4  10  24  40  64  94 135 170 205 272 315 388
#     4  11  24  38  62 103 129 164 213 257 340 383
#     4  11  23  41  66  90 133 169 209 267 317 391
#     4  10  24  46  66  95 125 177 226 261 318 379
#     4  11  25  39  67  97 135 171 210 269 319 396
#     4  10  24  44  68  92 128 177 222 266 315 379
#     4  12  24  41  66  95 134 168 211 272 321 388
#
# _framework density 22.251546000000001
#
# number of rings (size 3 to 8) (size 9 to 14) (size 15 to 20)
#    0.000    1.250    3.750    0.750   10.500    0.500 
#    0.000    2.500    0.000    0.000    0.000    0.000 
#    0.000    0.000    0.000    0.000    0.000    0.000 
#
# Total GULP energy -198299.304020 kJ/mol
# GULP energy per Si atom -12393.706501 kJ/mol
# Density = 2.220090 g / cm^3
# Si number density = 22.251546 Si / 1000 Ang^3
#
#
#
# Elastic Constant Matrix: (Units=GPa)
#
#
# Indices 1 2 3 4 5 6 
#
# 1 65.3420 46.6243 22.3744 -5.0977 -0.2781 -11.9382
# 2 46.6243 122.1903 51.9702 -15.2223 -1.9459 -11.1066
# 3 22.3744 51.9702 110.4945 2.5936 -5.4007 2.9736
# 4 -5.0977 -15.2223 2.5936 34.1007 -4.7541 1.3082
# 5 -0.2781 -1.9459 -5.4007 -4.7541 7.9898 -5.1220
# 6 -11.9382 -11.1066 2.9736 1.3082 -5.1220 29.4345
#
#
#
# Elastic Compliance Matrix: (Units=1/GPa)
#
#
# Indices 1 2 3 4 5 6 
#
# 1 0.022164 -0.007283 -0.001116 0.000273 0.002781 0.006825
# 2 -0.007283 0.014453 -0.005285 0.006451 0.005958 0.003784
# 3 -0.001116 -0.005285 0.012067 -0.002883 0.003204 -0.002980
# 4 0.000273 0.006451 -0.002883 0.035651 0.024365 0.005491
# 5 0.002781 0.005958 0.003204 0.024365 0.162794 0.030298
# 6 0.006825 0.003784 -0.002980 0.005491 0.030298 0.043499
#
#
# Mechanical properties :
#
#
# Convention : Reuss Voigt Hill
#
# Bulk Modulus (GPa) = 46.91879 59.99605 53.45742
# Shear Modulus (GPa) = 15.37979 26.10885 20.74432
#
# Velocity S-wave (km/s) = 2.63188 3.42914 3.05661
# Velocity P-wave (km/s) = 5.51064 6.53451 6.04429
#
# Compressibility (1/GPa) = 0.02131342
#
# Stress axis : x y z
#
# Youngs Moduli (GPa) = 45.11905 69.18761 82.87299
#
# Poissons Ratio (x) = 0.50393 0.09252
# Poissons Ratio (y) = 0.32862 0.43800
# Poissons Ratio (z) = 0.05037 0.36567
#
# Static dielectric constant tensor:
#      x y z
#    x 3.726610 0.052390 0.082480 
#    y 0.052390 4.107760 -0.141390 
#    z 0.082480 -0.141390 4.205680 
# 
# 
# High freq. dielectric constant tensor:
#      x y z
#    x 1.836770 0.006930 0.002080 
#    y 0.006930 1.874530 -0.008530 
#    z 0.002080 -0.008530 1.896720 
# 
# From -- ./inp_files/417915.got.cif
#   From: 2010.06.25/outbox.cif.g09.slc.cpg/sg2_209_cif.got.tgz:417915.got - 2010.06.27 13:26:56.
