data_PCOD8026653
_publ_section_title
;
Structure prediction by ZEFSAII (Michael W. Deem and Ramdas Pophale) SiO2 
 PCOD8026653
Probable space group: P -1
;
_chemical_formula_sum "Si O2"
_cell_formula_units_Z 16
_cell_length_a 16.820843
_cell_length_b 8.950343
_cell_length_c 11.740728
_cell_angle_alpha 110.752244
_cell_angle_beta 54.073920
_cell_angle_gamma 148.221453
_cell_volume 709.241259
_symmetry_space_group_name_H-M "P -1"
_symmetry_group_IT_number 2
_symmetry_cell_setting 'triclinic'
loop_
_space_group_symop_operation_xyz
x,y,z
-x,-y,-z
loop_
_atom_site_type_symbol
_atom_site_label
_atom_site_fract_x
_atom_site_fract_y
_atom_site_fract_z
Si Si1 0.501977 0.785731 0.627687
Si Si2 0.532156 0.587547 0.741911
Si Si3 0.020027 0.216887 0.028992
Si Si4 0.291188 0.986416 0.707414
Si Si5 0.587443 0.455207 0.946263
Si Si6 0.857380 0.547997 0.243078
Si Si7 0.114380 0.043604 0.334928
Si Si8 0.422922 0.907394 0.914716
O O1 0.515739 0.635644 0.641477
O O2 0.301425 0.538021 0.670768
O O3 0.544556 0.980749 0.738538
O O4 0.655285 0.002560 0.459597
O O5 0.741605 0.865346 0.688935
O O6 0.459939 0.305409 0.718195
O O7 0.405249 0.526909 0.915466
O O8 0.867256 0.098600 0.198867
O O9 0.991627 0.226299 0.923349
O O10 0.216244 0.556309 0.995639
O O11 0.000000 0.000000 0.000000
O O12 0.231372 0.750861 0.767851
O O13 0.786234 0.717527 0.786176
O O14 0.447151 0.128213 0.927084
O O15 0.500000 0.500000 0.000000
O O16 0.961839 0.715998 0.319479
O O17 0.000000 0.000000 0.500000
O O18 0.500000 0.000000 0.000000
#
# Coordination Sequence:
#
# PCOD8026653 Si02
#       8
#     2   2   2   2   2   2   2   2
#     4  11  25  46  72 105 145 186 237 294 369 422
#     4  11  24  47  71 100 142 196 236 284 362 434
#     4  11  27  47  72 105 145 188 246 296 354 429
#     4  12  25  43  74 104 143 184 240 302 361 418
#     4  10  24  42  73  97 140 186 239 283 358 419
#     4  11  26  44  70 105 144 184 241 293 358 428
#     4  11  26  43  71 104 145 179 240 295 357 413
#     4  11  24  45  72 101 143 188 240 290 355 432
#
# _framework density 22.55932
#
# number of rings (size 3 to 8) (size 9 to 14) (size 15 to 20)
#    0.000    1.000    1.250    4.125   14.000    1.000 
#    0.000    1.250    0.000    0.000    0.000    0.000 
#    0.000    0.000    0.000    0.000    0.000    0.000 
#
# Total GULP energy -198347.359132 kJ/mol
# GULP energy per Si atom -12396.709946 kJ/mol
# Density = 2.250797 g / cm^3
# Si number density = 22.559320 Si / 1000 Ang^3
#
#
#
# Elastic Constant Matrix: (Units=GPa)
#
#
# Indices 1 2 3 4 5 6 
#
# 1 120.4921 61.5244 35.4965 -1.4579 -4.6746 3.6717
# 2 61.5244 151.3866 42.7373 20.8281 0.9847 -10.1386
# 3 35.4965 42.7373 172.3991 0.0235 -4.5645 4.8618
# 4 -1.4579 20.8281 0.0235 35.1442 0.5929 6.9150
# 5 -4.6746 0.9847 -4.5645 0.5929 31.2606 -1.1075
# 6 3.6717 -10.1386 4.8618 6.9150 -1.1075 36.3935
#
#
#
# Elastic Compliance Matrix: (Units=1/GPa)
#
#
# Indices 1 2 3 4 5 6 
#
# 1 0.011425 -0.005174 -0.000939 0.004146 0.001542 -0.003209
# 2 -0.005174 0.010568 -0.001724 -0.007459 -0.001037 0.005082
# 3 -0.000939 -0.001724 0.006483 0.001254 0.000785 -0.001466
# 4 0.004146 -0.007459 0.001254 0.034873 0.000048 -0.009288
# 5 0.001542 -0.001037 0.000785 0.000048 0.032381 0.000427
# 6 -0.003209 0.005082 -0.001466 -0.009288 0.000427 0.031191
#
#
# Mechanical properties :
#
#
# Convention : Reuss Voigt Hill
#
# Bulk Modulus (GPa) = 78.10842 80.42159 79.26500
# Shear Modulus (GPa) = 34.04509 40.86096 37.45302
#
# Velocity S-wave (km/s) = 3.88897 4.26052 4.07898
# Velocity P-wave (km/s) = 7.40704 7.74138 7.57605
#
# Compressibility (1/GPa) = 0.01280272
#
# Stress axis : x y z
#
# Youngs Moduli (GPa) = 87.52356 94.62168 154.24259
#
# Poissons Ratio (x) = 0.48954 0.14486
# Poissons Ratio (y) = 0.45282 0.26598
# Poissons Ratio (z) = 0.08220 0.16317
#
# Static dielectric constant tensor:
#      x y z
#    x 4.249780 -0.305230 0.386810 
#    y -0.305230 3.017190 -0.914320 
#    z 0.386810 -0.914320 4.414050 
# 
# 
# High freq. dielectric constant tensor:
#      x y z
#    x 1.885570 -0.006120 0.007710 
#    y -0.006120 1.892820 0.009470 
#    z 0.007710 0.009470 1.899720 
# 
# From -- ./inp_files/274706.got.cif
#   From: 2010.06.25/outbox.cif.g09.slc.cpg/sg2_138_cif.got.tgz:274706.got - 2010.06.27 13:26:56.
