data_PCOD8026738
_publ_section_title
;
Structure prediction by ZEFSAII (Michael W. Deem and Ramdas Pophale) SiO2 
 PCOD8026738
Probable space group: P -1
;
_chemical_formula_sum "Si O2"
_cell_formula_units_Z 14
_cell_length_a 8.072992
_cell_length_b 9.932789
_cell_length_c 11.128768
_cell_angle_alpha 54.102772
_cell_angle_beta 124.424921
_cell_angle_gamma 99.905358
_cell_volume 579.067385
_symmetry_space_group_name_H-M "P -1"
_symmetry_group_IT_number 2
_symmetry_cell_setting 'triclinic'
loop_
_space_group_symop_operation_xyz
x,y,z
-x,-y,-z
loop_
_atom_site_type_symbol
_atom_site_label
_atom_site_fract_x
_atom_site_fract_y
_atom_site_fract_z
Si Si1 0.165700 0.235964 0.681324
Si Si2 0.477165 0.770877 0.479195
Si Si3 0.630226 0.050595 0.257445
Si Si4 0.170674 0.548817 0.128738
Si Si5 0.540089 0.638022 0.114854
Si Si6 0.078878 0.801548 0.164389
Si Si7 0.769096 0.277768 0.367432
O O1 0.328551 0.352613 0.712366
O O2 0.058290 0.227466 0.766842
O O3 0.990796 0.315532 0.470246
O O4 0.278848 0.052582 0.770080
O O5 0.679035 0.615361 0.658635
O O6 0.324574 0.742413 0.324952
O O7 0.340758 0.801591 0.527983
O O8 0.548917 0.941299 0.382631
O O9 0.795258 0.142976 0.339486
O O10 0.446756 0.204878 0.050051
O O11 0.305196 0.648848 0.051421
O O12 0.043011 0.681489 0.103458
O O13 0.000000 0.500000 0.000000
O O14 0.628137 0.460352 0.174560
O O15 0.000000 0.000000 0.000000
#
# Coordination Sequence:
#
# PCOD8026738 Si02
#       7
#     2   2   2   2   2   2   2
#     4  11  24  40  65  98 132 172 217 268 331 394
#     4  10  24  44  68  98 136 179 221 268 330 401
#     4  12  23  41  67  98 133 172 217 276 326 381
#     4  11  26  47  70  97 132 178 225 273 330 395
#     4  11  24  44  66  96 129 171 221 274 329 392
#     4  11  23  43  70 101 136 177 220 269 332 404
#     4  10  24  43  66  96 133 173 219 270 330 391
#
# _framework density 24.176804000000001
#
# number of rings (size 3 to 8) (size 9 to 14) (size 15 to 20)
#    0.000    1.143    0.000    5.143    0.000   13.714 
#    0.000    0.000    0.000    0.000    0.000    0.000 
#    0.000    0.000    0.000    0.000    0.000    0.000 
#
# Total GULP energy -173550.379238 kJ/mol
# GULP energy per Si atom -12396.455660 kJ/mol
# Density = 2.412178 g / cm^3
# Si number density = 24.176804 Si / 1000 Ang^3
#
#
#
# Elastic Constant Matrix: (Units=GPa)
#
#
# Indices 1 2 3 4 5 6 
#
# 1 61.6118 40.3901 33.1817 -5.0042 16.7144 17.0031
# 2 40.3901 161.0953 52.7987 10.8340 12.1645 1.1332
# 3 33.1817 52.7987 135.1044 -3.2961 9.9221 18.8539
# 4 -5.0042 10.8340 -3.2961 46.8949 14.5525 3.5269
# 5 16.7144 12.1645 9.9221 14.5525 30.0856 0.3614
# 6 17.0031 1.1332 18.8539 3.5269 0.3614 22.6271
#
#
#
# Elastic Compliance Matrix: (Units=1/GPa)
#
#
# Indices 1 2 3 4 5 6 
#
# 1 0.038656 -0.008846 0.000624 0.016552 -0.025735 -0.031294
# 2 -0.008846 0.009481 -0.003387 -0.005594 0.004786 0.009790
# 3 0.000624 -0.003387 0.010246 0.003491 -0.003933 -0.009318
# 4 0.016552 -0.005594 0.003491 0.033606 -0.024101 -0.019920
# 5 -0.025735 0.004786 -0.003933 -0.024101 0.058253 0.025202
# 6 -0.031294 0.009790 -0.009318 -0.019920 0.025202 0.077687
#
#
# Mechanical properties :
#
#
# Convention : Reuss Voigt Hill
#
# Bulk Modulus (GPa) = 28.43673 67.83918 48.13796
# Shear Modulus (GPa) = 19.02086 35.35095 27.18591
#
# Velocity S-wave (km/s) = 2.80793 3.82800 3.35694
# Velocity P-wave (km/s) = 4.72231 6.90352 5.91434
#
# Compressibility (1/GPa) = 0.03516578
#
# Stress axis : x y z
#
# Youngs Moduli (GPa) = 25.86916 105.46949 97.59540
#
# Poissons Ratio (x) = 0.93300 -0.06090
# Poissons Ratio (y) = 0.22884 0.33055
# Poissons Ratio (z) = -0.01614 0.35722
#
# Static dielectric constant tensor:
#      x y z
#    x 4.175150 0.044900 0.211820 
#    y 0.044900 4.420420 0.301280 
#    z 0.211820 0.301280 4.478710 
# 
# 
# High freq. dielectric constant tensor:
#      x y z
#    x 1.951660 0.002020 0.005420 
#    y 0.002020 1.972400 0.006350 
#    z 0.005420 0.006350 1.967510 
# 
# From -- ./inp_files/292329.got.cif
#   From: 2010.06.25/outbox.cif.g09.slc.cpg/sg2_147_cif.got.tgz:292329.got - 2010.06.27 13:26:56.
