data_PCOD8026711
_publ_section_title
;
Structure prediction by ZEFSAII (Michael W. Deem and Ramdas Pophale) SiO2 
 PCOD8026711
Probable space group: P -1
;
_chemical_formula_sum "Si O2"
_cell_formula_units_Z 14
_cell_length_a 5.136704
_cell_length_b 18.975585
_cell_length_c 6.697247
_cell_angle_alpha 113.093718
_cell_angle_beta 73.569994
_cell_angle_gamma 106.071179
_cell_volume 565.689714
_symmetry_space_group_name_H-M "P -1"
_symmetry_group_IT_number 2
_symmetry_cell_setting 'triclinic'
loop_
_space_group_symop_operation_xyz
x,y,z
-x,-y,-z
loop_
_atom_site_type_symbol
_atom_site_label
_atom_site_fract_x
_atom_site_fract_y
_atom_site_fract_z
Si Si1 0.327363 0.411214 0.157043
Si Si2 0.697067 0.159458 0.909970
Si Si3 0.373686 0.364003 0.646289
Si Si4 0.170677 0.701063 0.702501
Si Si5 0.900773 0.910079 0.964158
Si Si6 0.108646 0.498085 0.753271
Si Si7 0.003939 0.204914 0.497751
O O1 0.607325 0.436919 0.251005
O O2 0.144539 0.331063 0.189941
O O3 0.134761 0.477795 0.304417
O O4 0.413591 0.404750 0.899011
O O5 0.675667 0.246283 0.090729
O O6 0.887789 0.119573 0.967570
O O7 0.400630 0.104270 0.888549
O O8 0.814537 0.165148 0.670136
O O9 0.665514 0.367368 0.473791
O O10 0.182235 0.411496 0.601945
O O11 0.240658 0.273826 0.604854
O O12 0.179952 0.757702 0.575740
O O13 0.867851 0.862770 0.710494
O O14 0.000000 0.000000 0.000000
O O15 0.000000 0.500000 0.000000
#
# Coordination Sequence:
#
# PCOD8026711 Si02
#       7
#     2   2   2   2   2   2   2
#     4  11  25  44  67  95 135 182 234 293 348 396
#     4  11  25  47  72 105 143 180 224 279 341 405
#     4  11  23  42  68  92 138 182 231 288 344 407
#     4  11  26  41  70 102 136 181 239 287 337 411
#     4  11  26  48  75 109 142 175 226 277 333 415
#     4  10  24  43  65  95 133 182 233 293 351 399
#     4  11  26  43  72 102 140 185 228 275 346 407
#
# _framework density 24.748552
#
# number of rings (size 3 to 8) (size 9 to 14) (size 15 to 20)
#    0.000    1.143    2.857    2.143   10.000    2.286 
#    0.000    0.000    0.000    0.000    0.000    0.000 
#    0.000    0.000    0.000    0.000    0.000    0.000 
#
# Total GULP energy -173619.220418 kJ/mol
# GULP energy per Si atom -12401.372887 kJ/mol
# Density = 2.469222 g / cm^3
# Si number density = 24.748552 Si / 1000 Ang^3
#
#
#
# Elastic Constant Matrix: (Units=GPa)
#
#
# Indices 1 2 3 4 5 6 
#
# 1 178.8699 61.5892 42.9485 -79.9874 27.6341 55.0993
# 2 61.5892 158.5717 49.9385 -33.3447 10.2421 31.7798
# 3 42.9485 49.9385 92.4268 -26.4917 -3.4342 1.9294
# 4 -79.9874 -33.3447 -26.4917 109.9579 -43.2059 -48.8383
# 5 27.6341 10.2421 -3.4342 -43.2059 67.2346 24.1514
# 6 55.0993 31.7798 1.9294 -48.8383 24.1514 71.3117
#
#
#
# Elastic Compliance Matrix: (Units=1/GPa)
#
#
# Indices 1 2 3 4 5 6 
#
# 1 0.009828 -0.001321 -0.002451 0.004554 0.000382 -0.003949
# 2 -0.001321 0.008640 -0.004290 -0.000997 -0.000470 -0.003237
# 3 -0.002451 -0.004290 0.015514 0.004262 0.003333 0.005176
# 4 0.004554 -0.000997 0.004262 0.019813 0.008541 0.007487
# 5 0.000382 -0.000470 0.003333 0.008541 0.020958 -0.001425
# 6 -0.003949 -0.003237 0.005176 0.007487 -0.001425 0.023987
#
#
# Mechanical properties :
#
#
# Convention : Reuss Voigt Hill
#
# Bulk Modulus (GPa) = 55.99883 82.09118 69.04501
# Shear Modulus (GPa) = 41.38511 68.06032 54.72272
#
# Velocity S-wave (km/s) = 4.09372 5.24980 4.70739
# Velocity P-wave (km/s) = 6.70977 8.36596 7.58321
#
# Compressibility (1/GPa) = 0.01785752
#
# Stress axis : x y z
#
# Youngs Moduli (GPa) = 101.74926 115.74270 64.45863
#
# Poissons Ratio (x) = 0.15287 0.15801
# Poissons Ratio (y) = 0.13439 0.27653
# Poissons Ratio (z) = 0.24942 0.49654
#
# Static dielectric constant tensor:
#      x y z
#    x 4.478670 -0.025890 -0.121210 
#    y -0.025890 4.422510 0.033480 
#    z -0.121210 0.033480 4.738120 
# 
# 
# High freq. dielectric constant tensor:
#      x y z
#    x 1.985280 0.005910 -0.002190 
#    y 0.005910 1.979060 -0.014390 
#    z -0.002190 -0.014390 2.005820 
# 
# From -- ./inp_files/142310.got.cif
#   From: 2010.06.25/outbox.cif.g09.slc.cpg/sg2_72_cif.got.tgz:142310.got - 2010.06.27 13:26:56.
