data_PCOD8026089
_publ_section_title
;
Structure prediction by ZEFSAII (Michael W. Deem and Ramdas Pophale) SiO2 
 PCOD8026089
Probable space group: P -1
;
_chemical_formula_sum "Si O2"
_cell_formula_units_Z 16
_cell_length_a 8.684251
_cell_length_b 26.844592
_cell_length_c 5.251983
_cell_angle_alpha 117.014722
_cell_angle_beta 101.169725
_cell_angle_gamma 38.376393
_cell_volume 647.344194
_symmetry_space_group_name_H-M "P -1"
_symmetry_group_IT_number 2
_symmetry_cell_setting 'triclinic'
loop_
_space_group_symop_operation_xyz
x,y,z
-x,-y,-z
loop_
_atom_site_type_symbol
_atom_site_label
_atom_site_fract_x
_atom_site_fract_y
_atom_site_fract_z
Si Si1 0.440183 0.836362 0.956772
Si Si2 0.832279 0.781178 0.648307
Si Si3 0.109418 0.130771 0.821082
Si Si4 0.280041 0.578106 0.305502
Si Si5 0.554733 0.064444 0.508494
Si Si6 0.268313 0.491381 0.484255
Si Si7 0.131198 0.420836 0.050056
Si Si8 0.618818 0.214916 0.669010
O O1 0.737482 0.771117 0.837544
O O2 0.309854 0.847209 0.685387
O O3 0.310317 0.932053 0.233187
O O4 0.429356 0.797093 0.095907
O O5 0.572855 0.861431 0.581302
O O6 0.054439 0.681077 0.350512
O O7 0.943244 0.810234 0.832837
O O8 0.321607 0.093909 0.611462
O O9 0.850749 0.193467 0.721506
O O10 0.219066 0.041051 0.766134
O O11 0.158918 0.556967 0.354135
O O12 0.433209 0.573753 0.547405
O O13 0.500000 0.500000 0.000000
O O14 0.269288 0.423878 0.302544
O O15 0.082256 0.557914 0.824433
O O16 0.350557 0.321428 0.753284
O O17 0.000000 0.500000 0.000000
#
# Coordination Sequence:
#
# PCOD8026089 Si02
#       8
#     2   2   2   2   2   2   2   2
#     4  11  26  46  72 106 144 188 231 296 355 429
#     4  11  23  45  74 101 144 187 242 288 358 422
#     4  10  25  45  74 104 143 184 237 296 355 428
#     4  11  24  40  67  99 136 182 236 288 344 415
#     4  10  23  48  73 107 138 189 232 294 360 426
#     4  10  24  42  61  97 133 182 234 290 344 413
#     4  11  25  42  68  93 139 186 233 287 353 413
#     4  12  27  46  71 107 144 187 240 289 360 418
#
# _framework density 24.716370999999999
#
# number of rings (size 3 to 8) (size 9 to 14) (size 15 to 20)
#    0.000    1.250    1.250    2.625    8.750    7.000 
#    0.000    0.000    0.000    0.000    0.000    0.000 
#    0.000    0.000    0.000    0.000    0.000    0.000 
#
# Total GULP energy -198300.698410 kJ/mol
# GULP energy per Si atom -12393.793651 kJ/mol
# Density = 2.466012 g / cm^3
# Si number density = 24.716371 Si / 1000 Ang^3
#
#
#
# Elastic Constant Matrix: (Units=GPa)
#
#
# Indices 1 2 3 4 5 6 
#
# 1 101.3553 21.0116 30.3330 -4.0201 10.7270 2.0369
# 2 21.0116 98.6107 38.0822 5.3644 -8.7315 9.1431
# 3 30.3330 38.0822 117.7285 0.1656 10.9368 9.1528
# 4 -4.0201 5.3644 0.1656 40.3926 2.4578 0.0479
# 5 10.7270 -8.7315 10.9368 2.4578 35.6959 -14.0393
# 6 2.0369 9.1431 9.1528 0.0479 -14.0393 32.8983
#
#
#
# Elastic Compliance Matrix: (Units=1/GPa)
#
#
# Indices 1 2 3 4 5 6 
#
# 1 0.011342 -0.002047 -0.001785 0.001653 -0.004006 -0.001349
# 2 -0.002047 0.012718 -0.004046 -0.002185 0.005071 -0.000115
# 3 -0.001785 -0.004046 0.011108 0.000658 -0.005566 -0.004232
# 4 0.001653 -0.002185 0.000658 0.025420 -0.003450 -0.001188
# 5 -0.004006 0.005071 -0.005566 -0.003450 0.039122 0.017088
# 6 -0.001349 -0.000115 -0.004232 -0.001188 0.017088 0.038984
#
#
# Mechanical properties :
#
#
# Convention : Reuss Voigt Hill
#
# Bulk Modulus (GPa) = 51.51475 55.17200 53.34337
# Shear Modulus (GPa) = 31.07141 37.01519 34.04330
#
# Velocity S-wave (km/s) = 3.54943 3.87408 3.71530
# Velocity P-wave (km/s) = 6.13886 6.51013 6.32722
#
# Compressibility (1/GPa) = 0.01941192
#
# Stress axis : x y z
#
# Youngs Moduli (GPa) = 88.17109 78.62968 90.02571
#
# Poissons Ratio (x) = 0.16093 0.16073
# Poissons Ratio (y) = 0.18046 0.36421
# Poissons Ratio (z) = 0.15742 0.31810
#
# Static dielectric constant tensor:
#      x y z
#    x 5.280360 -0.132080 0.796870 
#    y -0.132080 4.339560 -0.036640 
#    z 0.796870 -0.036640 4.941280 
# 
# 
# High freq. dielectric constant tensor:
#      x y z
#    x 2.002870 0.002720 0.020010 
#    y 0.002720 1.957440 -0.001990 
#    z 0.020010 -0.001990 1.984860 
# 
# From -- ./inp_files/56549.got.cif
#   From: 2010.06.25/outbox.cif.g09.slc.cpg/sg2_29_cif.got.tgz:56549.got - 2010.06.27 13:26:56.
