data_PCOD8026894
_publ_section_title
;
Structure prediction by ZEFSAII (Michael W. Deem and Ramdas Pophale) SiO2 
 PCOD8026894
Probable space group: P -1
;
_chemical_formula_sum "Si O2"
_cell_formula_units_Z 16
_cell_length_a 9.763917
_cell_length_b 27.335620
_cell_length_c 9.683946
_cell_angle_alpha 143.578773
_cell_angle_beta 105.465455
_cell_angle_gamma 45.365359
_cell_volume 772.293933
_symmetry_space_group_name_H-M "P -1"
_symmetry_group_IT_number 2
_symmetry_cell_setting 'triclinic'
loop_
_space_group_symop_operation_xyz
x,y,z
-x,-y,-z
loop_
_atom_site_type_symbol
_atom_site_label
_atom_site_fract_x
_atom_site_fract_y
_atom_site_fract_z
Si Si1 0.289330 0.031410 0.508607
Si Si2 0.842976 0.549519 0.202477
Si Si3 0.303232 0.865558 0.640099
Si Si4 0.746775 0.412463 0.954296
Si Si5 0.246833 0.604321 0.767675
Si Si6 0.307611 0.872299 0.336887
Si Si7 0.142624 0.479942 0.374710
Si Si8 0.088516 0.085655 0.303720
O O1 0.314948 0.978090 0.241416
O O2 0.500000 0.000000 0.500000
O O3 0.383604 0.920587 0.397051
O O4 0.976509 0.212520 0.868639
O O5 0.536598 0.727310 0.496804
O O6 0.983324 0.534680 0.320872
O O7 0.855850 0.446098 0.005275
O O8 0.000000 0.500000 0.000000
O O9 0.365394 0.858425 0.483267
O O10 0.128778 0.869608 0.590010
O O11 0.170617 0.011292 0.006506
O O12 0.989198 0.227986 0.580570
O O13 0.500000 0.500000 0.000000
O O14 0.649210 0.466869 0.210878
O O15 0.500000 0.500000 0.500000
O O16 0.094550 0.600039 0.657677
O O17 0.530017 0.696186 0.944507
O O18 0.000000 0.000000 0.500000
O O19 0.000000 0.500000 0.500000
#
# Coordination Sequence:
#
# PCOD8026894 Si02
#       8
#     2   2   2   2   2   2   2   2
#     4  11  25  44  67  98 138 177 220 288 345 396
#     4  12  26  45  70  98 142 182 226 289 345 406
#     4  11  24  45  67 103 133 183 227 279 341 412
#     4  11  24  44  69 100 137 181 225 283 343 413
#     4  11  26  44  69 102 136 178 232 280 341 415
#     4  12  25  44  71 100 136 177 233 280 334 415
#     4  12  26  45  70 103 138 180 231 284 349 408
#     4  10  24  43  70  96 138 175 228 276 348 409
#
# _framework density 20.717500999999999
#
# number of rings (size 3 to 8) (size 9 to 14) (size 15 to 20)
#    0.000    0.750    5.000    1.500    8.750    2.000 
#    0.000    1.250    0.000    0.000    0.000    0.000 
#    0.000    0.000    0.000    0.000    0.000    0.000 
#
# Total GULP energy -198331.214305 kJ/mol
# GULP energy per Si atom -12395.700894 kJ/mol
# Density = 2.067035 g / cm^3
# Si number density = 20.717501 Si / 1000 Ang^3
#
#
#
# Elastic Constant Matrix: (Units=GPa)
#
#
# Indices 1 2 3 4 5 6 
#
# 1 102.2338 47.8434 18.9846 -18.5898 15.0558 1.3861
# 2 47.8434 144.1605 41.1601 -17.3113 11.0981 -0.7802
# 3 18.9846 41.1601 71.1793 -8.0585 0.5729 5.0599
# 4 -18.5898 -17.3113 -8.0585 29.8119 4.9979 -1.0493
# 5 15.0558 11.0981 0.5729 4.9979 34.3730 -1.1476
# 6 1.3861 -0.7802 5.0599 -1.0493 -1.1476 47.9308
#
#
#
# Elastic Compliance Matrix: (Units=1/GPa)
#
#
# Indices 1 2 3 4 5 6 
#
# 1 0.013582 -0.002827 -0.001061 0.007558 -0.006128 -0.000308
# 2 -0.002827 0.009718 -0.004554 0.003051 -0.002243 0.000734
# 3 -0.001061 -0.004554 0.017200 0.001039 0.001437 -0.001802
# 4 0.007558 0.003051 0.001039 0.042069 -0.010416 0.000393
# 5 -0.006128 -0.002243 0.001437 -0.010416 0.034011 0.000575
# 6 -0.000308 0.000734 -0.001802 0.000393 0.000575 0.021097
#
#
# Mechanical properties :
#
#
# Convention : Reuss Voigt Hill
#
# Bulk Modulus (GPa) = 42.34500 59.28332 50.81416
# Shear Modulus (GPa) = 30.78180 36.39552 33.58866
#
# Velocity S-wave (km/s) = 3.85877 4.19591 4.03087
# Velocity P-wave (km/s) = 6.35115 7.22159 6.80031
#
# Compressibility (1/GPa) = 0.02361554
#
# Stress axis : x y z
#
# Youngs Moduli (GPa) = 73.62458 102.89850 58.14048
#
# Poissons Ratio (x) = 0.29091 0.06169
# Poissons Ratio (y) = 0.20815 0.26479
# Poissons Ratio (z) = 0.07812 0.46864
#
# Static dielectric constant tensor:
#      x y z
#    x 3.828220 0.180170 0.104330 
#    y 0.180170 4.101700 0.059730 
#    z 0.104330 0.059730 3.896850 
# 
# 
# High freq. dielectric constant tensor:
#      x y z
#    x 1.819050 -0.003130 0.007540 
#    y -0.003130 1.830720 -0.006170 
#    z 0.007540 -0.006170 1.810600 
# 
# From -- ./inp_files/226669.got.cif
#   From: 2010.06.25/outbox.cif.g09.slc.cpg/sg2_114_cif.got.tgz:226669.got - 2010.06.27 13:26:56.
