data_PCOD8026785
_publ_section_title
;
Structure prediction by ZEFSAII (Michael W. Deem and Ramdas Pophale) SiO2 
 PCOD8026785
Probable space group: P -1
;
_chemical_formula_sum "Si O2"
_cell_formula_units_Z 16
_cell_length_a 13.972507
_cell_length_b 8.246437
_cell_length_c 11.857521
_cell_angle_alpha 52.231650
_cell_angle_beta 122.661728
_cell_angle_gamma 123.076990
_cell_volume 860.376143
_symmetry_space_group_name_H-M "P -1"
_symmetry_group_IT_number 2
_symmetry_cell_setting 'triclinic'
loop_
_space_group_symop_operation_xyz
x,y,z
-x,-y,-z
loop_
_atom_site_type_symbol
_atom_site_label
_atom_site_fract_x
_atom_site_fract_y
_atom_site_fract_z
Si Si1 0.563024 0.258126 0.934783
Si Si2 0.809725 0.905493 0.199071
Si Si3 0.711959 0.186094 0.874294
Si Si4 0.543094 0.142657 0.211041
Si Si5 0.753647 0.970781 0.389940
Si Si6 0.998379 0.819678 0.485576
Si Si7 0.386152 0.508812 0.706665
Si Si8 0.778996 0.523900 0.582629
O O1 0.679866 0.315207 0.904864
O O2 0.482318 0.394620 0.776585
O O3 0.588263 0.307887 0.062884
O O4 0.500000 0.000000 0.000000
O O5 0.767168 0.984851 0.256553
O O6 0.716866 0.668454 0.211900
O O7 0.805908 0.068674 0.027205
O O8 0.942954 0.883832 0.307110
O O9 0.780832 0.354438 0.751982
O O10 0.593130 0.011975 0.822456
O O11 0.628733 0.994798 0.339379
O O12 0.549880 0.281527 0.268018
O O13 0.861466 0.163946 0.439988
O O14 0.758051 0.736804 0.532909
O O15 0.908199 0.589792 0.571724
O O16 0.000000 0.000000 0.500000
O O17 0.328735 0.582616 0.528596
#
# Coordination Sequence:
#
# PCOD8026785 Si02
#       8
#     2   2   2   2   2   2   2   2
#     4  10  17  30  48  72  99 128 166 198 239 296
#     4   9  15  31  51  71  96 128 169 203 242 287
#     4  11  19  30  51  78 103 133 157 207 259 290
#     4  11  20  29  52  76 102 131 171 201 243 299
#     4   9  17  35  53  71  99 131 172 207 238 296
#     4   7  15  32  54  71  94 128 171 212 239 283
#     4  10  19  32  48  73 103 136 165 199 242 299
#     4   9  19  33  50  75 101 131 166 205 253 293
#
# _framework density 18.596519000000001
#
# number of rings (size 3 to 8) (size 9 to 14) (size 15 to 20)
#    0.000    3.000    3.750    2.625    0.000    2.500 
#    0.000    8.125    0.000    0.000    0.000    1.750 
#    0.000    0.000    0.000    0.000    0.000    0.000 
#
# Total GULP energy -198213.760039 kJ/mol
# GULP energy per Si atom -12388.360002 kJ/mol
# Density = 1.855419 g / cm^3
# Si number density = 18.596519 Si / 1000 Ang^3
#
#
#
# Elastic Constant Matrix: (Units=GPa)
#
#
# Indices 1 2 3 4 5 6 
#
# 1 27.3463 27.3451 23.6856 5.7174 2.9413 5.9231
# 2 27.3451 72.4749 37.5721 7.4276 2.8245 6.9874
# 3 23.6856 37.5721 138.3618 -13.3926 -3.3426 18.6931
# 4 5.7174 7.4276 -13.3926 18.8721 4.9803 4.8263
# 5 2.9413 2.8245 -3.3426 4.9803 19.2952 3.9428
# 6 5.9231 6.9874 18.6931 4.8263 3.9428 22.3274
#
#
#
# Elastic Compliance Matrix: (Units=1/GPa)
#
#
# Indices 1 2 3 4 5 6 
#
# 1 0.066622 -0.019086 -0.007872 -0.016970 -0.004202 -0.000700
# 2 -0.019086 0.023671 -0.004236 -0.007252 0.000017 0.002766
# 3 -0.007872 -0.004236 0.012743 0.015287 0.002323 -0.010970
# 4 -0.016970 -0.007252 0.015287 0.079968 -0.009939 -0.021559
# 5 -0.004202 0.000017 0.002323 -0.009939 0.057229 -0.008793
# 6 -0.000700 0.002766 -0.010970 -0.021559 -0.008793 0.059505
#
#
# Mechanical properties :
#
#
# Convention : Reuss Voigt Hill
#
# Bulk Modulus (GPa) = 24.60027 46.15428 35.37728
# Shear Modulus (GPa) = 13.30937 22.07096 17.69016
#
# Velocity S-wave (km/s) = 2.67814 3.44878 3.08760
# Velocity P-wave (km/s) = 4.77707 6.38212 5.63701
#
# Compressibility (1/GPa) = 0.04064996
#
# Stress axis : x y z
#
# Youngs Moduli (GPa) = 15.00997 42.24618 78.47392
#
# Poissons Ratio (x) = 0.80630 0.61771
# Poissons Ratio (y) = 0.28648 0.33241
# Poissons Ratio (z) = 0.11815 0.17895
#
# Static dielectric constant tensor:
#      x y z
#    x 3.390600 0.323190 0.327270 
#    y 0.323190 3.547510 0.415910 
#    z 0.327270 0.415910 3.617680 
# 
# 
# High freq. dielectric constant tensor:
#      x y z
#    x 1.679810 0.007650 0.025080 
#    y 0.007650 1.704210 0.017400 
#    z 0.025080 0.017400 1.717310 
# 
# From -- ./inp_files/336173.got.cif
#   From: 2010.06.25/outbox.cif.g09.slc.cpg/sg2_169_cif.got.tgz:336173.got - 2010.06.27 13:26:56.
