data_PCOD8026164
_publ_section_title
;
Structure prediction by ZEFSAII (Michael W. Deem and Ramdas Pophale) SiO2 
 PCOD8026164
Probable space group: P -1
;
_chemical_formula_sum "Si O2"
_cell_formula_units_Z 16
_cell_length_a 11.036226
_cell_length_b 9.126114
_cell_length_c 9.522316
_cell_angle_alpha 104.439509
_cell_angle_beta 123.579288
_cell_angle_gamma 84.743865
_cell_volume 772.503749
_symmetry_space_group_name_H-M "P -1"
_symmetry_group_IT_number 2
_symmetry_cell_setting 'triclinic'
loop_
_space_group_symop_operation_xyz
x,y,z
-x,-y,-z
loop_
_atom_site_type_symbol
_atom_site_label
_atom_site_fract_x
_atom_site_fract_y
_atom_site_fract_z
Si Si1 0.924878 0.107777 0.376306
Si Si2 0.943738 0.038637 0.822431
Si Si3 0.983017 0.419585 0.618185
Si Si4 0.497245 0.741442 0.483898
Si Si5 0.657207 0.970035 0.041768
Si Si6 0.732612 0.524582 0.669049
Si Si7 0.168217 0.307630 0.946751
Si Si8 0.633507 0.047416 0.741102
O O1 0.913350 0.261094 0.487209
O O2 0.758990 0.050482 0.240936
O O3 0.000000 0.000000 0.500000
O O4 0.014431 0.100292 0.285169
O O5 0.768882 0.047491 0.718000
O O6 0.024539 0.198485 0.864337
O O7 0.000000 0.000000 0.000000
O O8 0.875646 0.509491 0.666642
O O9 0.000000 0.500000 0.500000
O O10 0.129782 0.400407 0.802095
O O11 0.642053 0.648549 0.559007
O O12 0.361181 0.634841 0.425437
O O13 0.458537 0.805760 0.319352
O O14 0.527656 0.893966 0.631786
O O15 0.692039 0.792630 0.012480
O O16 0.500000 0.000000 0.000000
O O17 0.691993 0.057550 0.938800
O O18 0.784844 0.577171 0.870538
#
# Coordination Sequence:
#
# PCOD8026164 Si02
#       8
#     2   2   2   2   2   2   2   2
#     4  11  24  44  67 100 135 174 226 283 341 387
#     4  11  20  39  74  97 128 167 230 278 325 396
#     4  12  28  41  66 101 134 178 223 278 342 398
#     4  10  24  39  68  96 128 172 224 276 324 401
#     4  11  24  39  69  97 136 173 218 282 342 394
#     4  11  24  46  67  92 140 178 219 273 341 409
#     4  11  23  47  65  99 133 183 220 279 341 404
#     4  11  22  41  66 103 124 172 235 270 328 401
#
# _framework density 20.711874999999999
#
# number of rings (size 3 to 8) (size 9 to 14) (size 15 to 20)
#    0.000    1.000    6.250    1.125    5.250    3.000 
#    0.000    0.000    0.000    3.750    0.000    0.000 
#    0.000    0.000    0.000    0.000    0.000    0.000 
#
# Total GULP energy -198261.039256 kJ/mol
# GULP energy per Si atom -12391.314954 kJ/mol
# Density = 2.066473 g / cm^3
# Si number density = 20.711875 Si / 1000 Ang^3
#
#
#
# Elastic Constant Matrix: (Units=GPa)
#
#
# Indices 1 2 3 4 5 6 
#
# 1 127.5223 40.4583 57.0087 -6.5304 3.3067 -17.2165
# 2 40.4583 120.9322 53.7541 -20.8832 5.6744 -10.1118
# 3 57.0087 53.7541 138.6544 -18.0357 4.6681 -15.3856
# 4 -6.5304 -20.8832 -18.0357 51.6491 -1.0681 5.7120
# 5 3.3067 5.6744 4.6681 -1.0681 31.4148 3.7324
# 6 -17.2165 -10.1118 -15.3856 5.7120 3.7324 26.9464
#
#
#
# Elastic Compliance Matrix: (Units=1/GPa)
#
#
# Indices 1 2 3 4 5 6 
#
# 1 0.010423 -0.001838 -0.003182 -0.001051 -0.000862 0.004495
# 2 -0.001838 0.010829 -0.002921 0.003014 -0.001317 0.000765
# 3 -0.003182 -0.002921 0.010172 0.001680 -0.000882 0.002445
# 4 -0.001051 0.003014 0.001680 0.021394 0.000421 -0.003175
# 5 -0.000862 -0.001317 -0.000882 0.000421 0.033045 -0.006215
# 6 0.004495 0.000765 0.002445 -0.003175 -0.006215 0.043200
#
#
# Mechanical properties :
#
#
# Convention : Reuss Voigt Hill
#
# Bulk Modulus (GPa) = 64.34128 76.61680 70.47904
# Shear Modulus (GPa) = 33.30579 37.72791 35.51685
#
# Velocity S-wave (km/s) = 4.01440 4.27260 4.14551
# Velocity P-wave (km/s) = 7.25394 7.83659 7.55089
#
# Compressibility (1/GPa) = 0.01554212
#
# Stress axis : x y z
#
# Youngs Moduli (GPa) = 95.94483 92.34760 98.30476
#
# Poissons Ratio (x) = 0.16972 0.31278
# Poissons Ratio (y) = 0.17634 0.28716
# Poissons Ratio (z) = 0.30527 0.26976
#
# Static dielectric constant tensor:
#      x y z
#    x 3.669440 -0.023180 0.135040 
#    y -0.023180 3.857090 -0.201540 
#    z 0.135040 -0.201540 4.119780 
# 
# 
# High freq. dielectric constant tensor:
#      x y z
#    x 1.793610 -0.012810 0.011220 
#    y -0.012810 1.811510 -0.012440 
#    z 0.011220 -0.012440 1.832420 
# 
# From -- ./inp_files/239973.got.cif
#   From: 2010.06.25/outbox.cif.g09.slc.cpg/sg2_120_cif.got.tgz:239973.got - 2010.06.27 13:26:56.
