data_PCOD8026663
_publ_section_title
;
Structure prediction by ZEFSAII (Michael W. Deem and Ramdas Pophale) SiO2 
 PCOD8026663
Probable space group: P -1
;
_chemical_formula_sum "Si O2"
_cell_formula_units_Z 16
_cell_length_a 8.367808
_cell_length_b 16.467389
_cell_length_c 7.637463
_cell_angle_alpha 67.011479
_cell_angle_beta 50.572612
_cell_angle_gamma 60.189433
_cell_volume 700.935808
_symmetry_space_group_name_H-M "P -1"
_symmetry_group_IT_number 2
_symmetry_cell_setting 'triclinic'
loop_
_space_group_symop_operation_xyz
x,y,z
-x,-y,-z
loop_
_atom_site_type_symbol
_atom_site_label
_atom_site_fract_x
_atom_site_fract_y
_atom_site_fract_z
Si Si1 0.295868 0.879020 0.193642
Si Si2 0.245260 0.416007 0.727104
Si Si3 0.736940 0.783044 0.044468
Si Si4 0.541929 0.375612 0.230659
Si Si5 0.160152 0.823243 0.697463
Si Si6 0.165770 0.008270 0.677960
Si Si7 0.429580 0.028031 0.811223
Si Si8 0.242490 0.474106 0.060235
O O1 0.529868 0.799078 0.034764
O O2 0.276682 0.844845 0.429770
O O3 0.064617 0.900553 0.236929
O O4 0.375917 0.971273 0.065381
O O5 0.191773 0.320002 0.836558
O O6 0.433643 0.413337 0.461575
O O7 0.331769 0.430590 0.845729
O O8 0.020620 0.501822 0.764826
O O9 0.649854 0.860167 0.196971
O O10 0.949409 0.798094 0.799449
O O11 0.674082 0.264323 0.236926
O O12 0.704395 0.431305 0.022488
O O13 0.353938 0.396004 0.195697
O O14 0.096382 0.915279 0.788449
O O15 0.318150 0.013329 0.402724
O O16 0.281840 0.004366 0.783852
#
# Coordination Sequence:
#
# PCOD8026663 Si02
#       8
#     2   2   2   2   2   2   2   2
#     4  12  23  40  62  90 123 177 210 260 318 374
#     4  11  22  45  68  99 132 165 213 270 330 391
#     4  12  24  39  64  92 128 173 212 264 317 382
#     4  11  22  45  67 100 130 170 213 268 331 387
#     4  12  24  39  65  90 133 169 216 267 316 381
#     4  11  24  41  63  92 128 170 221 269 309 383
#     4  11  24  41  63  92 127 173 218 265 322 372
#     4  10  24  42  75  97 126 169 213 270 331 399
#
# _framework density 22.826625
#
# number of rings (size 3 to 8) (size 9 to 14) (size 15 to 20)
#    0.000    0.750    5.000    2.625    0.000    1.000 
#    0.000    1.250    0.000    0.000    0.000    0.000 
#    0.000    0.000    0.000    0.000    0.000    0.000 
#
# Total GULP energy -198263.595443 kJ/mol
# GULP energy per Si atom -12391.474715 kJ/mol
# Density = 2.277467 g / cm^3
# Si number density = 22.826625 Si / 1000 Ang^3
#
#
#
# Elastic Constant Matrix: (Units=GPa)
#
#
# Indices 1 2 3 4 5 6 
#
# 1 78.8834 48.0418 22.3750 -2.4006 -14.5674 -22.1213
# 2 48.0418 93.0187 29.4579 -8.6162 5.5553 -28.3056
# 3 22.3750 29.4579 91.2827 -7.6986 -7.9365 -15.1589
# 4 -2.4006 -8.6162 -7.6986 31.6475 -2.0001 -5.2926
# 5 -14.5674 5.5553 -7.9365 -2.0001 33.3698 5.9354
# 6 -22.1213 -28.3056 -15.1589 -5.2926 5.9354 38.2110
#
#
#
# Elastic Compliance Matrix: (Units=1/GPa)
#
#
# Indices 1 2 3 4 5 6 
#
# 1 0.022524 -0.011374 -0.000474 -0.000358 0.011121 0.002649
# 2 -0.011374 0.022127 -0.002993 0.005595 -0.011000 0.011102
# 3 -0.000474 -0.002993 0.012983 0.002935 0.003096 0.002585
# 4 -0.000358 0.005595 0.002935 0.035482 -0.000046 0.010023
# 5 0.011121 -0.011000 0.003096 -0.000046 0.038539 -0.006475
# 6 0.002649 0.011102 0.002585 0.010023 -0.006475 0.039348
#
#
# Mechanical properties :
#
#
# Convention : Reuss Voigt Hill
#
# Bulk Modulus (GPa) = 35.77708 51.43713 43.60710
# Shear Modulus (GPa) = 23.80934 31.53300 27.67117
#
# Velocity S-wave (km/s) = 3.23313 3.72077 3.48549
# Velocity P-wave (km/s) = 5.44472 6.40637 5.94502
#
# Compressibility (1/GPa) = 0.02795086
#
# Stress axis : x y z
#
# Youngs Moduli (GPa) = 44.39648 45.19448 77.02380
#
# Poissons Ratio (x) = 0.51406 0.03649
# Poissons Ratio (y) = 0.50498 0.23056
# Poissons Ratio (z) = 0.02103 0.13528
#
# Static dielectric constant tensor:
#      x y z
#    x 4.225420 -0.231630 -0.236600 
#    y -0.231630 4.084180 -0.004080 
#    z -0.236600 -0.004080 4.215360 
# 
# 
# High freq. dielectric constant tensor:
#      x y z
#    x 1.905970 -0.022480 -0.023160 
#    y -0.022480 1.889970 -0.003770 
#    z -0.023160 -0.003770 1.907630 
# 
# From -- ./inp_files/214668.got.cif
#   From: 2010.06.25/outbox.cif.g09.slc.cpg/sg2_108_cif.got.tgz:214668.got - 2010.06.27 13:26:56.
