data_PCOD8026291
_publ_section_title
;
Structure prediction by ZEFSAII (Michael W. Deem and Ramdas Pophale) SiO2 
 PCOD8026291
Probable space group: P -1
;
_chemical_formula_sum "Si O2"
_cell_formula_units_Z 16
_cell_length_a 8.783488
_cell_length_b 9.312981
_cell_length_c 13.606178
_cell_angle_alpha 75.897757
_cell_angle_beta 50.879042
_cell_angle_gamma 63.691633
_cell_volume 773.001766
_symmetry_space_group_name_H-M "P -1"
_symmetry_group_IT_number 2
_symmetry_cell_setting 'triclinic'
loop_
_space_group_symop_operation_xyz
x,y,z
-x,-y,-z
loop_
_atom_site_type_symbol
_atom_site_label
_atom_site_fract_x
_atom_site_fract_y
_atom_site_fract_z
Si Si1 0.797634 0.106358 0.126784
Si Si2 0.816426 0.430714 0.065830
Si Si3 0.277447 0.149034 0.658932
Si Si4 0.748672 0.005449 0.497284
Si Si5 0.595811 0.772909 0.882069
Si Si6 0.589026 0.287179 0.833799
Si Si7 0.832953 0.970577 0.686393
Si Si8 0.133998 0.582122 0.177091
O O1 0.845354 0.257201 0.129500
O O2 0.592348 0.167955 0.130079
O O3 0.761437 0.996186 0.245165
O O4 0.000000 0.000000 0.000000
O O5 0.593287 0.563599 0.170712
O O6 0.791098 0.401323 0.965772
O O7 0.000000 0.500000 0.000000
O O8 0.513762 0.142860 0.581377
O O9 0.121320 0.325976 0.728501
O O10 0.251477 0.129965 0.556447
O O11 0.918672 0.079352 0.380243
O O12 0.818809 0.920560 0.588117
O O13 0.727749 0.884939 0.816283
O O14 0.773552 0.603946 0.802487
O O15 0.516168 0.775291 0.024718
O O16 0.774900 0.328742 0.798024
O O17 0.698114 0.159556 0.725938
#
# Coordination Sequence:
#
# PCOD8026291 Si02
#       8
#     2   2   2   2   2   2   2   2
#     4  12  22  38  68  97 128 162 210 253 320 381
#     4  11  24  37  60 101 137 158 197 259 325 379
#     4  11  22  42  69  89 124 172 211 261 312 366
#     4  10  24  41  64  88 125 167 224 259 301 361
#     4  11  22  40  65  97 128 160 209 258 314 391
#     4  11  21  40  66  92 133 166 196 256 328 379
#     4  11  23  41  66  94 121 170 219 259 301 376
#     4  11  21  43  62  92 133 169 195 255 328 383
#
# _framework density 20.698530999999999
#
# number of rings (size 3 to 8) (size 9 to 14) (size 15 to 20)
#    0.000    1.000    6.250    1.125    3.500    2.000 
#    0.000    1.250   11.000    0.000    0.000    0.000 
#    0.000    0.000    0.000    0.000    0.000    0.000 
#
# Total GULP energy -198321.723367 kJ/mol
# GULP energy per Si atom -12395.107710 kJ/mol
# Density = 2.065142 g / cm^3
# Si number density = 20.698531 Si / 1000 Ang^3
#
#
#
# Elastic Constant Matrix: (Units=GPa)
#
#
# Indices 1 2 3 4 5 6 
#
# 1 84.7560 38.2058 32.7944 3.9790 -24.2078 -2.7953
# 2 38.2058 106.3543 42.8540 20.0278 -19.9663 -4.5210
# 3 32.7944 42.8540 87.9928 21.2689 -25.6046 -4.2951
# 4 3.9790 20.0278 21.2689 20.5001 -3.8594 -11.4326
# 5 -24.2078 -19.9663 -25.6046 -3.8594 48.1369 2.7586
# 6 -2.7953 -4.5210 -4.2951 -11.4326 2.7586 29.4990
#
#
#
# Elastic Compliance Matrix: (Units=1/GPa)
#
#
# Indices 1 2 3 4 5 6 
#
# 1 0.016721 -0.004862 -0.004531 0.008826 0.004508 0.003179
# 2 -0.004862 0.014510 -0.001715 -0.013218 0.001818 -0.003779
# 3 -0.004531 -0.001715 0.020648 -0.021266 0.006663 -0.006551
# 4 0.008826 -0.013218 -0.021266 0.100520 -0.006317 0.035262
# 5 0.004508 0.001818 0.006663 -0.006317 0.027022 -0.003299
# 6 0.003179 -0.003779 -0.006551 0.035262 -0.003299 0.046642
#
#
# Mechanical properties :
#
#
# Convention : Reuss Voigt Hill
#
# Bulk Modulus (GPa) = 33.71114 56.31237 45.01175
# Shear Modulus (GPa) = 19.36735 30.64381 25.00558
#
# Velocity S-wave (km/s) = 3.06222 3.85188 3.47952
# Velocity P-wave (km/s) = 5.36889 6.85913 6.15925
#
# Compressibility (1/GPa) = 0.02966379
#
# Stress axis : x y z
#
# Youngs Moduli (GPa) = 59.80416 68.91846 48.43127
#
# Poissons Ratio (x) = 0.33508 0.21942
# Poissons Ratio (y) = 0.29076 0.08306
# Poissons Ratio (z) = 0.27095 0.11820
#
# Static dielectric constant tensor:
#      x y z
#    x 3.906350 -0.016140 -0.164220 
#    y -0.016140 3.900850 0.216820 
#    z -0.164220 0.216820 3.955810 
# 
# 
# High freq. dielectric constant tensor:
#      x y z
#    x 1.819670 0.000110 -0.014510 
#    y 0.000110 1.790990 0.016670 
#    z -0.014510 0.016670 1.808500 
# 
# From -- ./inp_files/178212.got.cif
#   From: 2010.06.25/outbox.cif.g09.slc.cpg/sg2_90_cif.got.tgz:178212.got - 2010.06.27 13:26:56.
