data_PCOD8026474
_publ_section_title
;
Structure prediction by ZEFSAII (Michael W. Deem and Ramdas Pophale) SiO2 
 PCOD8026474
Probable space group: P -1
;
_chemical_formula_sum "Si O2"
_cell_formula_units_Z 14
_cell_length_a 25.037918
_cell_length_b 15.338255
_cell_length_c 15.679379
_cell_angle_alpha 153.987073
_cell_angle_beta 163.615042
_cell_angle_gamma 18.337983
_cell_volume 529.530439
_symmetry_space_group_name_H-M "P -1"
_symmetry_group_IT_number 2
_symmetry_cell_setting 'triclinic'
loop_
_space_group_symop_operation_xyz
x,y,z
-x,-y,-z
loop_
_atom_site_type_symbol
_atom_site_label
_atom_site_fract_x
_atom_site_fract_y
_atom_site_fract_z
Si Si1 0.555335 0.256085 0.213096
Si Si2 0.647609 0.003123 0.610017
Si Si3 0.168240 0.234841 0.900460
Si Si4 0.707322 0.518911 0.314859
Si Si5 0.811789 0.419550 0.659600
Si Si6 0.972143 0.729642 0.702651
Si Si7 0.967094 0.950932 0.721623
O O1 0.716828 0.272888 0.408799
O O2 0.566648 0.039382 0.985083
O O3 0.691361 0.150716 0.422053
O O4 0.256037 0.552583 0.030447
O O5 0.588178 0.830878 0.409230
O O6 0.730928 0.909749 0.557472
O O7 0.382039 0.332534 0.490195
O O8 0.880098 0.950865 0.970565
O O9 0.934890 0.333170 0.569323
O O10 0.102214 0.194933 0.860121
O O11 0.184770 0.459081 0.139235
O O12 0.844138 0.370001 0.302653
O O13 0.500000 0.500000 0.000000
O O14 0.000000 0.500000 0.500000
O O15 0.920139 0.946315 0.745988
#
# Coordination Sequence:
#
# PCOD8026474 Si02
#       7
#     2   2   2   2   2   2   2
#     4  11  25  45  70 102 141 184 232 287 346 413
#     4  12  25  45  71 103 143 184 234 287 348 418
#     4  10  24  42  66 101 138 182 236 282 350 411
#     4  11  25  44  69 102 140 185 232 291 351 411
#     4  11  23  42  71 101 140 186 228 290 349 408
#     4  12  25  47  72 102 145 185 234 285 348 416
#     4  11  25  46  70 106 138 186 235 283 351 411
#
# _framework density 26.438517999999998
#
# number of rings (size 3 to 8) (size 9 to 14) (size 15 to 20)
#    0.000    0.857    2.857    3.429    0.000    8.000 
#    2.571    0.000    0.000    0.000    0.000    0.000 
#    0.000    0.000    0.000    0.000    0.000    0.000 
#
# Total GULP energy -173550.554311 kJ/mol
# GULP energy per Si atom -12396.468165 kJ/mol
# Density = 2.637834 g / cm^3
# Si number density = 26.438518 Si / 1000 Ang^3
#
#
#
# Elastic Constant Matrix: (Units=GPa)
#
#
# Indices 1 2 3 4 5 6 
#
# 1 49.0611 23.7326 -0.7436 -3.6507 0.1764 4.3966
# 2 23.7326 76.4266 -1.2644 5.9783 -1.5817 10.6603
# 3 -0.7436 -1.2644 62.0054 17.9831 -15.0742 15.2159
# 4 -3.6507 5.9783 17.9831 43.0335 0.1097 -1.4308
# 5 0.1764 -1.5817 -15.0742 0.1097 39.9402 3.9314
# 6 4.3966 10.6603 15.2159 -1.4308 3.9314 47.5749
#
#
#
# Elastic Compliance Matrix: (Units=1/GPa)
#
#
# Indices 1 2 3 4 5 6 
#
# 1 0.024473 -0.007934 -0.001163 0.003669 -0.000878 0.000071
# 2 -0.007934 0.016599 0.003159 -0.004449 0.002322 -0.004322
# 3 -0.001163 0.003159 0.024183 -0.010986 0.010224 -0.009510
# 4 0.003669 -0.004449 -0.010986 0.028952 -0.004955 0.005451
# 5 -0.000878 0.002322 0.010224 -0.004955 0.029626 -0.006306
# 6 0.000071 -0.004322 -0.009510 0.005451 -0.006306 0.025708
#
#
# Mechanical properties :
#
#
# Convention : Reuss Voigt Hill
#
# Bulk Modulus (GPa) = 18.73412 25.66026 22.19719
# Shear Modulus (GPa) = 27.89998 37.16096 32.53047
#
# Velocity S-wave (km/s) = 3.25203 3.75315 3.51154
# Velocity P-wave (km/s) = 4.60459 5.33931 4.98550
#
# Compressibility (1/GPa) = 0.05337855
#
# Stress axis : x y z
#
# Youngs Moduli (GPa) = 40.86163 60.24330 41.35058
#
# Poissons Ratio (x) = 0.47796 0.04811
# Poissons Ratio (y) = 0.32419 -0.13062
# Poissons Ratio (z) = 0.04754 -0.19030
#
# Static dielectric constant tensor:
#      x y z
#    x 4.657990 -0.404450 -0.134410 
#    y -0.404450 5.496980 -0.245920 
#    z -0.134410 -0.245920 5.173400 
# 
# 
# High freq. dielectric constant tensor:
#      x y z
#    x 2.051290 -0.018760 -0.010980 
#    y -0.018760 2.059260 0.011420 
#    z -0.010980 0.011420 2.076140 
# 
# From -- ./inp_files/337783.got.cif
#   From: 2010.06.25/outbox.cif.g09.slc.cpg/sg2_169_cif.got.tgz:337783.got - 2010.06.27 13:26:56.
