data_PCOD8026752
_publ_section_title
;
Structure prediction by ZEFSAII (Michael W. Deem and Ramdas Pophale) SiO2 
 PCOD8026752
Probable space group: P -1
;
_chemical_formula_sum "Si O2"
_cell_formula_units_Z 14
_cell_length_a 5.056174
_cell_length_b 8.800883
_cell_length_c 20.448655
_cell_angle_alpha 133.587051
_cell_angle_beta 113.563495
_cell_angle_gamma 87.037432
_cell_volume 568.736381
_symmetry_space_group_name_H-M "P -1"
_symmetry_group_IT_number 2
_symmetry_cell_setting 'triclinic'
loop_
_space_group_symop_operation_xyz
x,y,z
-x,-y,-z
loop_
_atom_site_type_symbol
_atom_site_label
_atom_site_fract_x
_atom_site_fract_y
_atom_site_fract_z
Si Si1 0.728628 0.997037 0.670328
Si Si2 0.967738 0.273949 0.465904
Si Si3 0.345801 0.551289 0.065265
Si Si4 0.578148 0.208202 0.023733
Si Si5 0.708044 0.994059 0.200228
Si Si6 0.787509 0.468514 0.310484
Si Si7 0.158852 0.517026 0.230292
O O1 0.376909 0.893441 0.625899
O O2 0.804035 0.837924 0.576708
O O3 0.796900 0.236631 0.716044
O O4 0.944748 0.009257 0.759108
O O5 0.000000 0.500000 0.500000
O O6 0.058764 0.320239 0.564835
O O7 0.402270 0.385267 0.076735
O O8 0.504349 0.812582 0.180340
O O9 0.500000 0.500000 0.000000
O O10 0.000000 0.500000 0.000000
O O11 0.940765 0.344202 0.105313
O O12 0.467039 0.103467 0.911932
O O13 0.500000 0.000000 0.000000
O O14 0.715788 0.246554 0.282866
O O15 0.479153 0.476736 0.250455
O O16 0.017501 0.468512 0.274720
#
# Coordination Sequence:
#
# PCOD8026752 Si02
#       7
#     2   2   2   2   2   2   2
#     4  12  27  49  78 106 149 190 246 305 368 433
#     4  12  27  48  79 112 141 189 249 309 365 432
#     4  10  24  43  67 100 139 186 238 287 347 421
#     4  11  24  46  72 107 149 192 239 294 359 436
#     4  11  25  46  73 109 145 195 240 301 360 437
#     4  12  28  47  76 106 147 189 249 301 367 429
#     4  12  28  49  72 112 147 195 240 298 370 435
#
# _framework density 24.615974000000001
#
# number of rings (size 3 to 8) (size 9 to 14) (size 15 to 20)
#    0.000    0.571    4.286    2.143    4.000    8.571 
#    0.000    0.000    0.000    0.000    0.000    0.000 
#    0.000    0.000    0.000    0.000    0.000    0.000 
#
# Total GULP energy -173525.931811 kJ/mol
# GULP energy per Si atom -12394.709415 kJ/mol
# Density = 2.455995 g / cm^3
# Si number density = 24.615974 Si / 1000 Ang^3
#
#
#
# Elastic Constant Matrix: (Units=GPa)
#
#
# Indices 1 2 3 4 5 6 
#
# 1 58.3943 14.9818 6.2101 1.0697 17.9601 -3.3156
# 2 14.9818 184.5690 39.8814 30.8098 10.5136 -22.0742
# 3 6.2101 39.8814 143.0645 0.3685 23.1842 5.1673
# 4 1.0697 30.8098 0.3685 53.0335 -5.2002 2.3150
# 5 17.9601 10.5136 23.1842 -5.2002 35.6274 -9.1194
# 6 -3.3156 -22.0742 5.1673 2.3150 -9.1194 34.5609
#
#
#
# Elastic Compliance Matrix: (Units=1/GPa)
#
#
# Indices 1 2 3 4 5 6 
#
# 1 0.020834 -0.001516 0.001495 -0.000598 -0.011688 -0.002237
# 2 -0.001516 0.007375 -0.002311 -0.004392 0.000839 0.005426
# 3 0.001495 -0.002311 0.008844 0.000774 -0.006870 -0.004519
# 4 -0.000598 -0.004392 0.000774 0.021901 0.003381 -0.003553
# 5 -0.011688 0.000839 -0.006870 0.003381 0.041537 0.011176
# 6 -0.002237 0.005426 -0.004519 -0.003553 0.011176 0.036048
#
#
# Mechanical properties :
#
#
# Convention : Reuss Voigt Hill
#
# Bulk Modulus (GPa) = 30.87568 56.46381 43.66975
# Shear Modulus (GPa) = 32.89508 46.30798 39.60153
#
# Velocity S-wave (km/s) = 3.65955 4.34200 4.01530
# Velocity P-wave (km/s) = 5.51603 6.93722 6.26704
#
# Compressibility (1/GPa) = 0.03238795
#
# Stress axis : x y z
#
# Youngs Moduli (GPa) = 47.99940 135.59907 113.07447
#
# Poissons Ratio (x) = 0.20556 -0.16900
# Poissons Ratio (y) = 0.07276 0.26128
# Poissons Ratio (z) = -0.07174 0.31333
#
# Static dielectric constant tensor:
#      x y z
#    x 4.143910 -0.943890 -0.576530 
#    y -0.943890 1.810140 -1.902950 
#    z -0.576530 -1.902950 3.441230 
# 
# 
# High freq. dielectric constant tensor:
#      x y z
#    x 1.967550 -0.008260 0.006040 
#    y -0.008260 2.004340 0.005080 
#    z 0.006040 0.005080 2.005750 
# 
# From -- ./inp_files/603878.got.cif
#   From: 2010.06.25/outbox.cif.g09.slc.cpg/sg2_302_cif.got.tgz:603878.got - 2010.06.27 13:26:56.
