data_PCOD8026690
_publ_section_title
;
Structure prediction by ZEFSAII (Michael W. Deem and Ramdas Pophale) SiO2 
 PCOD8026690
Probable space group: P -1
;
_chemical_formula_sum "Si O2"
_cell_formula_units_Z 14
_cell_length_a 20.830224
_cell_length_b 15.015680
_cell_length_c 8.697363
_cell_angle_alpha 68.854740
_cell_angle_beta 120.866720
_cell_angle_gamma 161.246717
_cell_volume 669.174877
_symmetry_space_group_name_H-M "P -1"
_symmetry_group_IT_number 2
_symmetry_cell_setting 'triclinic'
loop_
_space_group_symop_operation_xyz
x,y,z
-x,-y,-z
loop_
_atom_site_type_symbol
_atom_site_label
_atom_site_fract_x
_atom_site_fract_y
_atom_site_fract_z
Si Si1 0.637557 0.383386 0.039263
Si Si2 0.897395 0.338832 0.132754
Si Si3 0.708313 0.318482 0.627233
Si Si4 0.256117 0.662851 0.976557
Si Si5 0.326684 0.338964 0.600072
Si Si6 0.276616 0.327178 0.192817
Si Si7 0.196302 0.365506 0.586023
O O1 0.783828 0.601672 0.227083
O O2 0.811278 0.515114 0.087954
O O3 0.588654 0.409743 0.843741
O O4 0.384244 0.030467 0.000582
O O5 0.048459 0.429617 0.311773
O O6 0.930388 0.474482 0.195517
O O7 0.000000 0.500000 0.000000
O O8 0.714098 0.323708 0.814816
O O9 0.685074 0.399143 0.496683
O O10 0.500000 0.000000 0.500000
O O11 0.500000 0.000000 0.000000
O O12 0.281292 0.318995 0.384586
O O13 0.573027 0.575411 0.767822
O O14 0.351739 0.462322 0.662264
O O15 0.090199 0.992351 0.583518
O O16 0.000000 0.000000 0.000000
#
# Coordination Sequence:
#
# PCOD8026690 Si02
#       7
#     2   2   2   2   2   2   2
#     4  11  21  39  63  88 122 166 204 254 319 366
#     4   9  19  37  57  88 119 158 206 247 304 376
#     4  11  21  38  60  88 124 159 203 261 312 367
#     4   9  19  37  58  85 118 156 204 248 302 376
#     4  10  24  43  64  92 130 159 219 262 306 380
#     4  11  22  44  62  92 122 167 208 260 318 366
#     4  11  22  41  61  94 124 165 207 264 316 369
#
# _framework density 20.921287
#
# number of rings (size 3 to 8) (size 9 to 14) (size 15 to 20)
#    0.000    1.714    1.429    4.286    0.000    0.571 
#   10.286    7.857    0.000    0.000    0.000    0.000 
#    0.000    0.000    0.000    0.000    0.000    0.000 
#
# Total GULP energy -173469.334082 kJ/mol
# GULP energy per Si atom -12390.666720 kJ/mol
# Density = 2.087367 g / cm^3
# Si number density = 20.921287 Si / 1000 Ang^3
#
#
#
# Elastic Constant Matrix: (Units=GPa)
#
#
# Indices 1 2 3 4 5 6 
#
# 1 216.4943 46.9340 54.7522 7.5585 6.3677 -6.1877
# 2 46.9340 100.1851 21.4707 -8.1910 9.2835 -10.1684
# 3 54.7522 21.4707 59.4824 3.3816 5.3375 -2.9246
# 4 7.5585 -8.1910 3.3816 34.9734 1.7798 6.0656
# 5 6.3677 9.2835 5.3375 1.7798 33.0691 0.3475
# 6 -6.1877 -10.1684 -2.9246 6.0656 0.3475 35.9685
#
#
#
# Elastic Compliance Matrix: (Units=1/GPa)
#
#
# Indices 1 2 3 4 5 6 
#
# 1 0.006393 -0.002008 -0.005081 -0.001434 0.000226 0.000359
# 2 -0.002008 0.012203 -0.002367 0.003252 -0.002857 0.002391
# 3 -0.005081 -0.002367 0.022639 -0.001650 -0.001929 0.000594
# 4 -0.001434 0.003252 -0.001650 0.030727 -0.001975 -0.004624
# 5 0.000226 -0.002857 -0.001929 -0.001975 0.031425 -0.000896
# 6 0.000359 0.002391 0.000594 -0.004624 -0.000896 0.029377
#
#
# Mechanical properties :
#
#
# Convention : Reuss Voigt Hill
#
# Bulk Modulus (GPa) = 44.79781 69.16393 56.98087
# Shear Modulus (GPa) = 31.42340 37.66920 34.54630
#
# Velocity S-wave (km/s) = 3.87975 4.24786 4.06797
# Velocity P-wave (km/s) = 6.44429 7.56240 7.02563
#
# Compressibility (1/GPa) = 0.02232252
#
# Stress axis : x y z
#
# Youngs Moduli (GPa) = 156.42046 81.94841 44.17107
#
# Poissons Ratio (x) = 0.16454 0.22443
# Poissons Ratio (y) = 0.31407 0.10457
# Poissons Ratio (z) = 0.79477 0.19401
#
# Static dielectric constant tensor:
#      x y z
#    x 5.707180 -0.023680 0.123170 
#    y -0.023680 3.859550 -0.145360 
#    z 0.123170 -0.145360 3.594360 
# 
# 
# High freq. dielectric constant tensor:
#      x y z
#    x 1.847510 0.000810 0.010270 
#    y 0.000810 1.827910 -0.018170 
#    z 0.010270 -0.018170 1.788730 
# 
# From -- ./inp_files/178359.got.cif
#   From: 2010.06.25/outbox.cif.g09.slc.cpg/sg2_90_cif.got.tgz:178359.got - 2010.06.27 13:26:56.
