data_PCOD8026795
_publ_section_title
;
Structure prediction by ZEFSAII (Michael W. Deem and Ramdas Pophale) SiO2 
 PCOD8026795
Probable space group: P -1
;
_chemical_formula_sum "Si O2"
_cell_formula_units_Z 12
_cell_length_a 10.054988
_cell_length_b 7.211641
_cell_length_c 8.658016
_cell_angle_alpha 54.447474
_cell_angle_beta 87.937183
_cell_angle_gamma 99.471983
_cell_volume 496.989196
_symmetry_space_group_name_H-M "P -1"
_symmetry_group_IT_number 2
_symmetry_cell_setting 'triclinic'
loop_
_space_group_symop_operation_xyz
x,y,z
-x,-y,-z
loop_
_atom_site_type_symbol
_atom_site_label
_atom_site_fract_x
_atom_site_fract_y
_atom_site_fract_z
Si Si1 0.828782 0.003760 0.409439
Si Si2 0.010966 0.516592 0.811283
Si Si3 0.863428 0.587405 0.416314
Si Si4 0.320101 0.201165 0.182475
Si Si5 0.629426 0.267205 0.112836
Si Si6 0.262327 0.769585 0.188769
O O1 0.871335 0.847861 0.347749
O O2 0.763992 0.848092 0.631730
O O3 0.962050 0.202456 0.363589
O O4 0.721626 0.135833 0.272855
O O5 0.135585 0.424871 0.765721
O O6 0.872341 0.356076 0.835689
O O7 0.000000 0.500000 0.000000
O O8 0.729099 0.407359 0.581718
O O9 0.000000 0.500000 0.500000
O O10 0.475185 0.187155 0.218862
O O11 0.255822 0.019435 0.138722
O O12 0.310879 0.456011 0.001159
O O13 0.620540 0.203307 0.959628
#
# Coordination Sequence:
#
# PCOD8026795 Si02
#       6
#     2   2   2   2   2   2
#     4  12  24  46  72 102 144 180 232 289 346 421
#     4  11  24  44  67 104 137 181 231 286 353 415
#     4  10  24  43  68 101 137 185 226 278 357 413
#     4  11  25  46  73  97 147 182 233 291 339 412
#     4  11  25  46  70 105 135 191 235 280 348 409
#     4  11  22  45  69 101 141 183 229 286 352 410
#
# _framework density 24.145394
#
# number of rings (size 3 to 8) (size 9 to 14) (size 15 to 20)
#    0.000    1.000    5.000    1.000    0.000    7.333 
#    0.000    0.833    0.000    0.000    0.000    0.000 
#    0.000    0.000    0.000    0.000    0.000    0.000 
#
# Total GULP energy -148691.257424 kJ/mol
# GULP energy per Si atom -12390.938119 kJ/mol
# Density = 2.409044 g / cm^3
# Si number density = 24.145394 Si / 1000 Ang^3
#
#
#
# Elastic Constant Matrix: (Units=GPa)
#
#
# Indices 1 2 3 4 5 6 
#
# 1 59.5416 39.5648 31.4002 -6.3918 -1.5893 -4.1806
# 2 39.5648 231.6141 51.6782 0.2728 -10.5482 -10.9545
# 3 31.4002 51.6782 87.5629 11.0071 -23.5549 6.0347
# 4 -6.3918 0.2728 11.0071 52.0353 -11.8806 -5.2258
# 5 -1.5893 -10.5482 -23.5549 -11.8806 34.0580 -1.5774
# 6 -4.1806 -10.9545 6.0347 -5.2258 -1.5774 33.4819
#
#
#
# Elastic Compliance Matrix: (Units=1/GPa)
#
#
# Indices 1 2 3 4 5 6 
#
# 1 0.023688 -0.001947 -0.009341 0.004383 -0.004221 0.004490
# 2 -0.001947 0.005340 -0.002660 0.000501 -0.000007 0.002061
# 3 -0.009341 -0.002660 0.020186 -0.003405 0.011250 -0.005676
# 4 0.004383 0.000501 -0.003405 0.022366 0.006043 0.005100
# 5 -0.004221 -0.000007 0.011250 0.006043 0.039062 0.000227
# 6 0.004490 0.002061 -0.005676 0.005100 0.000227 0.032932
#
#
# Mechanical properties :
#
#
# Convention : Reuss Voigt Hill
#
# Bulk Modulus (GPa) = 46.91179 69.33389 58.12284
# Shear Modulus (GPa) = 27.99904 40.98673 34.49288
#
# Velocity S-wave (km/s) = 3.40899 4.12454 3.78372
# Velocity P-wave (km/s) = 5.91320 7.17356 6.57366
#
# Compressibility (1/GPa) = 0.02131660
#
# Stress axis : x y z
#
# Youngs Moduli (GPa) = 42.21484 187.25348 49.53955
#
# Poissons Ratio (x) = 0.36464 0.46277
# Poissons Ratio (y) = 0.08220 0.13179
# Poissons Ratio (z) = 0.39435 0.49815
#
# Static dielectric constant tensor:
#      x y z
#    x 4.194860 0.079770 -0.354980 
#    y 0.079770 1.290700 -3.157970 
#    z -0.354980 -3.157970 1.874650 
# 
# 
# High freq. dielectric constant tensor:
#      x y z
#    x 1.926890 -0.009240 -0.028970 
#    y -0.009240 1.989700 0.006340 
#    z -0.028970 0.006340 1.972150 
# 
# From -- ./inp_files/46886.got.cif
#   From: 2010.06.25/outbox.cif.g09.slc.cpg/sg2_24_cif.got.tgz:46886.got - 2010.06.27 13:26:56.
