data_PCOD8026988
_publ_section_title
;
Structure prediction by ZEFSAII (Michael W. Deem and Ramdas Pophale) SiO2 
 PCOD8026988
Probable space group: P -1
;
_chemical_formula_sum "Si O2"
_cell_formula_units_Z 14
_cell_length_a 5.356017
_cell_length_b 9.171340
_cell_length_c 19.620323
_cell_angle_alpha 50.536664
_cell_angle_beta 57.950745
_cell_angle_gamma 59.741302
_cell_volume 609.880169
_symmetry_space_group_name_H-M "P -1"
_symmetry_group_IT_number 2
_symmetry_cell_setting 'triclinic'
loop_
_space_group_symop_operation_xyz
x,y,z
-x,-y,-z
loop_
_atom_site_type_symbol
_atom_site_label
_atom_site_fract_x
_atom_site_fract_y
_atom_site_fract_z
Si Si1 0.682868 0.483760 0.181346
Si Si2 0.204302 0.691425 0.087017
Si Si3 0.644031 0.068187 0.524319
Si Si4 0.713818 0.055761 0.267791
Si Si5 0.727837 0.022076 0.121534
Si Si6 0.676512 0.250689 0.740472
Si Si7 0.355914 0.493839 0.450656
O O1 0.525815 0.565098 0.107784
O O2 0.793321 0.247963 0.231565
O O3 0.408041 0.561372 0.252709
O O4 0.976003 0.558880 0.138648
O O5 0.055449 0.861713 0.113556
O O6 0.284527 0.788213 0.977711
O O7 0.551303 0.293617 0.452447
O O8 0.500000 0.000000 0.500000
O O9 0.537308 0.999342 0.632212
O O10 0.000000 0.000000 0.500000
O O11 0.622613 0.100057 0.189091
O O12 0.972505 0.855073 0.285886
O O13 0.485895 0.911565 0.160909
O O14 0.574558 0.330831 0.655808
O O15 0.500000 0.500000 0.500000
O O16 0.000000 0.500000 0.500000
#
# Coordination Sequence:
#
# PCOD8026988 Si02
#       7
#     2   2   2   2   2   2   2
#     4  11  26  44  71 103 147 185 234 293 350 417
#     4  10  24  47  69 107 145 186 232 291 356 419
#     4  12  28  48  71 105 145 185 236 303 358 423
#     4  12  26  45  75 104 141 189 242 290 358 426
#     4  10  24  43  76 100 145 187 236 290 354 421
#     4  11  25  46  71 104 140 188 241 293 354 426
#     4  12  25  46  73 101 139 185 237 295 361 429
#
# _framework density 22.955328000000002
#
# number of rings (size 3 to 8) (size 9 to 14) (size 15 to 20)
#    0.000    0.857    2.857    2.571    6.000    5.143 
#    0.000    0.000    0.000    0.000    0.000    0.000 
#    0.000    0.000    0.000    0.000    0.000    0.000 
#
# Total GULP energy -173485.312244 kJ/mol
# GULP energy per Si atom -12391.808017 kJ/mol
# Density = 2.290308 g / cm^3
# Si number density = 22.955328 Si / 1000 Ang^3
#
#
#
# Elastic Constant Matrix: (Units=GPa)
#
#
# Indices 1 2 3 4 5 6 
#
# 1 123.2135 35.5569 23.0388 6.4878 6.1056 -3.2887
# 2 35.5569 117.2960 33.6157 8.4000 1.8473 5.8587
# 3 23.0388 33.6157 127.4198 13.7581 -2.9812 -4.4068
# 4 6.4878 8.4000 13.7581 39.2333 2.2151 3.9224
# 5 6.1056 1.8473 -2.9812 2.2151 33.6112 0.1506
# 6 -3.2887 5.8587 -4.4068 3.9224 0.1506 34.4825
#
#
#
# Elastic Compliance Matrix: (Units=1/GPa)
#
#
# Indices 1 2 3 4 5 6 
#
# 1 0.009157 -0.002503 -0.000913 -0.000697 -0.001567 0.001268
# 2 -0.002503 0.010081 -0.002207 -0.000743 -0.000236 -0.002148
# 3 -0.000913 -0.002207 0.008985 -0.002773 0.001259 0.001746
# 4 -0.000697 -0.000743 -0.002773 0.027178 -0.001855 -0.003378
# 5 -0.001567 -0.000236 0.001259 -0.001855 0.030283 0.000130
# 6 0.001268 -0.002148 0.001746 -0.003378 0.000130 0.030093
#
#
# Mechanical properties :
#
#
# Convention : Reuss Voigt Hill
#
# Bulk Modulus (GPa) = 58.90197 61.37243 60.13720
# Shear Modulus (GPa) = 37.68467 39.84660 38.76564
#
# Velocity S-wave (km/s) = 4.05613 4.17085 4.11389
# Velocity P-wave (km/s) = 6.90299 7.07024 6.98712
#
# Compressibility (1/GPa) = 0.01697736
#
# Stress axis : x y z
#
# Youngs Moduli (GPa) = 109.20397 99.19877 111.30264
#
# Poissons Ratio (x) = 0.24830 0.10161
# Poissons Ratio (y) = 0.27334 0.24560
# Poissons Ratio (z) = 0.09970 0.21889
#
# Static dielectric constant tensor:
#      x y z
#    x 4.257400 0.085140 1.329610 
#    y 0.085140 4.491670 0.576720 
#    z 1.329610 0.576720 7.157380 
# 
# 
# High freq. dielectric constant tensor:
#      x y z
#    x 1.899180 0.002120 0.007970 
#    y 0.002120 1.920630 -0.001530 
#    z 0.007970 -0.001530 1.917770 
# 
# From -- ./inp_files/37135.got.cif
#   From: 2010.06.25/outbox.cif.g09.slc.cpg/sg2_19_cif.got.tgz:37135.got - 2010.06.27 13:26:56.
