data_PCOD8026169
_publ_section_title
;
Structure prediction by ZEFSAII (Michael W. Deem and Ramdas Pophale) SiO2 
 PCOD8026169
Probable space group: P -1
;
_chemical_formula_sum "Si O2"
_cell_formula_units_Z 14
_cell_length_a 11.939479
_cell_length_b 5.174527
_cell_length_c 15.549756
_cell_angle_alpha 77.540050
_cell_angle_beta 122.345664
_cell_angle_gamma 70.587224
_cell_volume 665.573303
_symmetry_space_group_name_H-M "P -1"
_symmetry_group_IT_number 2
_symmetry_cell_setting 'triclinic'
loop_
_space_group_symop_operation_xyz
x,y,z
-x,-y,-z
loop_
_atom_site_type_symbol
_atom_site_label
_atom_site_fract_x
_atom_site_fract_y
_atom_site_fract_z
Si Si1 0.597595 0.657696 0.022711
Si Si2 0.583244 0.727208 0.814801
Si Si3 0.615259 0.544010 0.315198
Si Si4 0.072682 0.643252 0.080322
Si Si5 0.820565 0.145879 0.582788
Si Si6 0.090004 0.498933 0.290643
Si Si7 0.859613 0.395126 0.282473
O O1 0.635566 0.686113 0.938130
O O2 0.500000 0.500000 0.000000
O O3 0.759995 0.428027 0.154931
O O4 0.500000 0.000000 0.000000
O O5 0.478797 0.578807 0.766419
O O6 0.738500 0.547320 0.833689
O O7 0.491678 0.094130 0.726421
O O8 0.685091 0.338846 0.443973
O O9 0.754715 0.512627 0.316113
O O10 0.027779 0.631641 0.160816
O O11 0.000000 0.500000 0.000000
O O12 0.000000 0.000000 0.000000
O O13 0.808823 0.373194 0.637241
O O14 0.796985 0.883716 0.635995
O O15 0.995171 0.970466 0.622680
O O16 0.936287 0.602319 0.280279
#
# Coordination Sequence:
#
# PCOD8026169 Si02
#       7
#     2   2   2   2   2   2   2
#     4  12  23  39  60  96 134 167 207 271 336 392
#     4  12  26  43  67 101 137 173 216 279 341 391
#     4  12  24  44  65 103 137 175 218 275 340 391
#     4  12  26  48  72  96 134 176 227 271 326 404
#     4  10  24  42  68  98 134 178 228 268 323 393
#     4  10  24  42  67  98 124 175 234 266 323 376
#     4  10  24  39  70  93 139 172 228 262 333 397
#
# _framework density 21.034495
#
# number of rings (size 3 to 8) (size 9 to 14) (size 15 to 20)
#    0.857    0.000    2.857    3.857    6.000    0.571 
#    0.000    4.286    0.000    0.000    0.000    0.000 
#    0.000    0.000    0.000    0.000    0.000    0.000 
#
# Total GULP energy -173591.311490 kJ/mol
# GULP energy per Si atom -12399.379392 kJ/mol
# Density = 2.098662 g / cm^3
# Si number density = 21.034495 Si / 1000 Ang^3
#
#
#
# Elastic Constant Matrix: (Units=GPa)
#
#
# Indices 1 2 3 4 5 6 
#
# 1 64.0169 44.4101 21.3231 -4.6577 -10.1584 5.7468
# 2 44.4101 141.4519 38.9143 -9.5015 -0.7126 24.2532
# 3 21.3231 38.9143 113.8298 -7.3488 -11.0885 5.8405
# 4 -4.6577 -9.5015 -7.3488 44.3193 2.4394 3.1394
# 5 -10.1584 -0.7126 -11.0885 2.4394 31.7482 -4.5316
# 6 5.7468 24.2532 5.8405 3.1394 -4.5316 32.6144
#
#
#
# Elastic Compliance Matrix: (Units=1/GPa)
#
#
# Indices 1 2 3 4 5 6 
#
# 1 0.021603 -0.006833 -0.001179 0.000072 0.006685 0.002407
# 2 -0.006833 0.011296 -0.002455 0.002050 -0.004020 -0.007512
# 3 -0.001179 -0.002455 0.010175 0.000824 0.003139 0.000568
# 4 0.000072 0.002050 0.000824 0.023561 -0.002059 -0.004238
# 5 0.006685 -0.004020 0.003139 -0.002059 0.035716 0.006410
# 6 0.002407 -0.007512 0.000568 -0.004238 0.006410 0.037020
#
#
# Mechanical properties :
#
#
# Convention : Reuss Voigt Hill
#
# Bulk Modulus (GPa) = 45.16582 58.73263 51.94922
# Shear Modulus (GPa) = 29.81780 36.04645 32.93213
#
# Velocity S-wave (km/s) = 3.76914 4.14416 3.96109
# Velocity P-wave (km/s) = 6.36088 7.13312 6.75804
#
# Compressibility (1/GPa) = 0.02214064
#
# Stress axis : x y z
#
# Youngs Moduli (GPa) = 46.28907 88.52955 98.27898
#
# Poissons Ratio (x) = 0.60489 0.11584
# Poissons Ratio (y) = 0.31627 0.24132
# Poissons Ratio (z) = 0.05456 0.21738
#
# Static dielectric constant tensor:
#      x y z
#    x 3.746260 0.091350 0.059990 
#    y 0.091350 3.769120 -0.077180 
#    z 0.059990 -0.077180 3.921590 
# 
# 
# High freq. dielectric constant tensor:
#      x y z
#    x 1.815400 0.013740 0.001440 
#    y 0.013740 1.827540 -0.004340 
#    z 0.001440 -0.004340 1.834320 
# 
# From -- ./inp_files/410307.got.cif
#   From: 2010.06.25/outbox.cif.g09.slc.cpg/sg2_206_cif.got.tgz:410307.got - 2010.06.27 13:26:56.
