data_PCOD8026151
_publ_section_title
;
Structure prediction by ZEFSAII (Michael W. Deem and Ramdas Pophale) SiO2 
 PCOD8026151
Probable space group: P -1
;
_chemical_formula_sum "Si O2"
_cell_formula_units_Z 12
_cell_length_a 9.404557
_cell_length_b 5.235304
_cell_length_c 11.861455
_cell_angle_alpha 80.302849
_cell_angle_beta 67.097842
_cell_angle_gamma 80.695369
_cell_volume 527.303391
_symmetry_space_group_name_H-M "P -1"
_symmetry_group_IT_number 2
_symmetry_cell_setting 'triclinic'
loop_
_space_group_symop_operation_xyz
x,y,z
-x,-y,-z
loop_
_atom_site_type_symbol
_atom_site_label
_atom_site_fract_x
_atom_site_fract_y
_atom_site_fract_z
Si Si1 0.628109 0.832527 0.401547
Si Si2 0.072290 0.031629 0.617771
Si Si3 0.575744 0.872137 0.160321
Si Si4 0.239923 0.773748 0.220746
Si Si5 0.181966 0.541318 0.481493
Si Si6 0.342121 0.588412 0.980887
O O1 0.784364 0.984988 0.337101
O O2 0.566452 0.787260 0.299404
O O3 0.673308 0.557122 0.472997
O O4 0.500000 0.000000 0.500000
O O5 0.057944 0.324110 0.543270
O O6 0.908045 0.008517 0.732090
O O7 0.106609 0.824188 0.523833
O O8 0.400705 0.908629 0.160089
O O9 0.687793 0.644835 0.078325
O O10 0.649090 0.143270 0.109558
O O11 0.250742 0.559253 0.332992
O O12 0.215356 0.636679 0.117117
O O13 0.500000 0.500000 0.000000
#
# Coordination Sequence:
#
# PCOD8026151 Si02
#       6
#     2   2   2   2   2   2
#     4  10  25  42  65  94 129 164 205 256 323 372
#     4  10  24  40  62  99 128 162 206 257 321 369
#     4  11  25  41  66  92 128 161 216 256 306 372
#     4  11  22  42  68  92 128 166 211 260 311 367
#     4  10  24  39  65  96 127 159 210 257 318 370
#     4  10  24  41  63  95 122 168 211 260 302 364
#
# _framework density 22.757297999999999
#
# number of rings (size 3 to 8) (size 9 to 14) (size 15 to 20)
#    1.000    0.667    0.000    4.000    7.000    6.667 
#    0.000    1.667    0.000    0.000    0.000    0.000 
#    0.000    0.000    0.000    0.000    0.000    0.000 
#
# Total GULP energy -148739.205419 kJ/mol
# GULP energy per Si atom -12394.933785 kJ/mol
# Density = 2.270550 g / cm^3
# Si number density = 22.757298 Si / 1000 Ang^3
#
#
#
# Elastic Constant Matrix: (Units=GPa)
#
#
# Indices 1 2 3 4 5 6 
#
# 1 77.9892 23.0824 24.9746 16.6839 -3.5393 -10.5381
# 2 23.0824 156.0408 55.0069 16.1588 1.7665 -13.2642
# 3 24.9746 55.0069 146.0401 33.0247 5.5832 -17.8746
# 4 16.6839 16.1588 33.0247 41.7604 -0.8119 0.4620
# 5 -3.5393 1.7665 5.5832 -0.8119 34.5175 4.8469
# 6 -10.5381 -13.2642 -17.8746 0.4620 4.8469 28.7693
#
#
#
# Elastic Compliance Matrix: (Units=1/GPa)
#
#
# Indices 1 2 3 4 5 6 
#
# 1 0.015101 -0.001152 -0.000412 -0.005295 0.000893 0.004678
# 2 -0.001152 0.007609 -0.002279 -0.000708 -0.000401 0.001749
# 3 -0.000412 -0.002279 0.010174 -0.007111 -0.002533 0.005660
# 4 -0.005295 -0.000708 -0.007111 0.032092 0.002468 -0.007616
# 5 0.000893 -0.000401 -0.002533 0.002468 0.030478 -0.006606
# 6 0.004678 0.001749 0.005660 -0.007616 -0.006606 0.042031
#
#
# Mechanical properties :
#
#
# Convention : Reuss Voigt Hill
#
# Bulk Modulus (GPa) = 39.68911 65.13310 52.41111
# Shear Modulus (GPa) = 32.55788 39.47652 36.01720
#
# Velocity S-wave (km/s) = 3.78651 4.16946 3.98259
# Velocity P-wave (km/s) = 6.04937 7.20153 6.65045
#
# Compressibility (1/GPa) = 0.02519583
#
# Stress axis : x y z
#
# Youngs Moduli (GPa) = 66.22111 131.42097 98.28784
#
# Poissons Ratio (x) = 0.15146 0.04053
# Poissons Ratio (y) = 0.07632 0.22403
# Poissons Ratio (z) = 0.02731 0.29955
#
# Static dielectric constant tensor:
#      x y z
#    x 4.083150 -0.047070 0.095720 
#    y -0.047070 4.213970 0.473890 
#    z 0.095720 0.473890 4.602320 
# 
# 
# High freq. dielectric constant tensor:
#      x y z
#    x 1.888770 -0.007530 0.006230 
#    y -0.007530 1.898340 0.014380 
#    z 0.006230 0.014380 1.895010 
# 
# From -- ./inp_files/409110.got.cif
#   From: 2010.06.25/outbox.cif.g09.slc.cpg/sg2_205_cif.got.tgz:409110.got - 2010.06.27 13:26:56.
