data_PCOD8026192
_publ_section_title
;
Structure prediction by ZEFSAII (Michael W. Deem and Ramdas Pophale) SiO2 
 PCOD8026192
Probable space group: P -1
;
_chemical_formula_sum "Si O2"
_cell_formula_units_Z 12
_cell_length_a 5.387556
_cell_length_b 9.116654
_cell_length_c 16.742553
_cell_angle_alpha 126.047283
_cell_angle_beta 81.195968
_cell_angle_gamma 122.783917
_cell_volume 542.143935
_symmetry_space_group_name_H-M "P -1"
_symmetry_group_IT_number 2
_symmetry_cell_setting 'triclinic'
loop_
_space_group_symop_operation_xyz
x,y,z
-x,-y,-z
loop_
_atom_site_type_symbol
_atom_site_label
_atom_site_fract_x
_atom_site_fract_y
_atom_site_fract_z
Si Si1 0.140378 0.878276 0.491423
Si Si2 0.942185 0.793617 0.654916
Si Si3 0.840865 0.514764 0.936810
Si Si4 0.775679 0.876654 0.127555
Si Si5 0.722210 0.176363 0.111003
Si Si6 0.290420 0.613052 0.671538
O O1 0.073384 0.858935 0.581867
O O2 0.969164 0.641247 0.381851
O O3 0.500000 0.000000 0.500000
O O4 0.000000 0.000000 0.500000
O O5 0.573478 0.629831 0.618075
O O6 0.124012 0.701853 0.657167
O O7 0.002393 0.003943 0.769725
O O8 0.553971 0.265814 0.858902
O O9 0.029151 0.595795 0.871660
O O10 0.787930 0.701911 0.019378
O O11 0.000000 0.500000 0.000000
O O12 0.852149 0.063220 0.119324
O O13 0.576549 0.254150 0.208246
O O14 0.500000 0.000000 0.000000
#
# Coordination Sequence:
#
# PCOD8026192 Si02
#       6
#     2   2   2   2   2   2
#     4  12  26  45  71 106 137 171 225 287 344 402
#     4  11  24  46  72  93 139 176 229 275 342 412
#     4  11  22  39  62  94 136 177 229 279 336 400
#     4  10  24  40  63  96 130 185 224 278 343 397
#     4  11  22  41  67  95 138 176 232 273 338 408
#     4  11  25  45  71  99 131 187 226 274 344 404
#
# _framework density 22.134345
#
# number of rings (size 3 to 8) (size 9 to 14) (size 15 to 20)
#    0.000    1.000    1.667    4.500    4.667    2.667 
#    0.000    0.000    0.000    0.000    0.000    0.000 
#    0.000    0.000    0.000    0.000    0.000    0.000 
#
# Total GULP energy -148662.367894 kJ/mol
# GULP energy per Si atom -12388.530658 kJ/mol
# Density = 2.208397 g / cm^3
# Si number density = 22.134345 Si / 1000 Ang^3
#
#
#
# Elastic Constant Matrix: (Units=GPa)
#
#
# Indices 1 2 3 4 5 6 
#
# 1 134.4073 61.3905 32.9560 -12.6522 4.9926 15.6990
# 2 61.3905 157.1046 43.8871 -20.3826 2.5902 7.3779
# 3 32.9560 43.8871 128.6682 -10.1089 6.3109 -1.6234
# 4 -12.6522 -20.3826 -10.1089 35.9311 8.7370 0.5387
# 5 4.9926 2.5902 6.3109 8.7370 20.0348 -0.7784
# 6 15.6990 7.3779 -1.6234 0.5387 -0.7784 45.1876
#
#
#
# Elastic Compliance Matrix: (Units=1/GPa)
#
#
# Indices 1 2 3 4 5 6 
#
# 1 0.009765 -0.003021 -0.001214 0.002082 -0.002686 -0.003014
# 2 -0.003021 0.008566 -0.001800 0.003634 -0.001391 -0.000481
# 3 -0.001214 -0.001800 0.009001 0.001812 -0.003053 0.000965
# 4 0.002082 0.003634 0.001812 0.035306 -0.017032 -0.001966
# 5 -0.002686 -0.001391 -0.003053 -0.017032 0.059240 0.002274
# 6 -0.003014 -0.000481 0.000965 -0.001966 0.002274 0.023353
#
#
# Mechanical properties :
#
#
# Convention : Reuss Voigt Hill
#
# Bulk Modulus (GPa) = 65.52021 77.40523 71.46272
# Shear Modulus (GPa) = 30.79050 39.02714 34.90882
#
# Velocity S-wave (km/s) = 3.73376 4.20360 3.97562
# Velocity P-wave (km/s) = 6.94646 7.65551 7.30959
#
# Compressibility (1/GPa) = 0.01526247
#
# Stress axis : x y z
#
# Youngs Moduli (GPa) = 102.40438 116.74652 111.09884
#
# Poissons Ratio (x) = 0.35269 0.13482
# Poissons Ratio (y) = 0.30936 0.19999
# Poissons Ratio (z) = 0.12427 0.21016
#
# Static dielectric constant tensor:
#      x y z
#    x 3.954870 0.318380 0.094790 
#    y 0.318380 4.589240 -0.045850 
#    z 0.094790 -0.045850 4.182770 
# 
# 
# High freq. dielectric constant tensor:
#      x y z
#    x 1.867250 0.004010 0.001030 
#    y 0.004010 1.887420 0.001660 
#    z 0.001030 0.001660 1.883200 
# 
# From -- ./inp_files/32314.got.cif
#   From: 2010.06.25/outbox.cif.g09.slc.cpg/sg2_17_cif.got.tgz:32314.got - 2010.06.27 13:26:56.
