data_PCOD8026545
_publ_section_title
;
Structure prediction by ZEFSAII (Michael W. Deem and Ramdas Pophale) SiO2 
 PCOD8026545
Probable space group: P -1
;
_chemical_formula_sum "Si O2"
_cell_formula_units_Z 14
_cell_length_a 11.713069
_cell_length_b 11.713074
_cell_length_c 9.693455
_cell_angle_alpha 75.755365
_cell_angle_beta 75.755394
_cell_angle_gamma 137.925091
_cell_volume 648.877220
_symmetry_space_group_name_H-M "P -1"
_symmetry_group_IT_number 2
_symmetry_cell_setting 'triclinic'
loop_
_space_group_symop_operation_xyz
x,y,z
-x,-y,-z
loop_
_atom_site_type_symbol
_atom_site_label
_atom_site_fract_x
_atom_site_fract_y
_atom_site_fract_z
Si Si1 0.991785 0.880494 0.362448
Si Si2 0.403472 0.021429 0.931261
Si Si3 0.816933 0.972399 0.457307
Si Si4 0.882455 0.617543 0.250001
Si Si5 0.619506 0.508215 0.137551
Si Si6 0.472397 0.316931 0.957308
Si Si7 0.478569 0.096527 0.568740
O O1 0.900502 0.935225 0.349649
O O2 0.839386 0.660306 0.386218
O O3 0.990258 0.839917 0.537408
O O4 0.243678 0.088399 0.170589
O O5 0.457891 0.042104 0.750001
O O6 0.136609 0.789833 0.108803
O O7 0.500000 0.000000 0.000000
O O8 0.529296 0.252091 0.866222
O O9 0.588403 0.743677 0.670588
O O10 0.752092 0.029297 0.366223
O O11 0.839694 0.660611 0.113782
O O12 0.710166 0.363389 0.391199
O O13 0.660081 0.509740 0.962593
O O14 0.564781 0.599505 0.150346
O O15 0.500000 0.000000 0.500000
#
# Coordination Sequence:
#
# PCOD8026545 Si02
#       7
#     2   2   2   2   2   2   2
#     4   9  19  36  63  93 128 162 202 268 323 383
#     4  11  27  45  66  92 130 175 219 267 315 383
#     4   9  20  38  61  92 131 160 209 261 327 375
#     4  10  24  42  68  94 128 164 218 272 322 382
#     4   9  19  36  63  93 128 162 202 268 323 383
#     4   9  20  38  61  92 131 160 209 261 327 375
#     4  11  27  45  66  92 130 175 219 267 315 383
#
# _framework density 21.575731000000001
#
# number of rings (size 3 to 8) (size 9 to 14) (size 15 to 20)
#    0.000    2.286    0.000    0.000   14.000    3.429 
#    0.000    0.000    0.000    0.000    0.000    0.000 
#    0.000    0.000    0.000    0.000    0.000    0.000 
#
# Total GULP energy -173563.958194 kJ/mol
# GULP energy per Si atom -12397.425585 kJ/mol
# Density = 2.152662 g / cm^3
# Si number density = 21.575731 Si / 1000 Ang^3
#
#
#
# Elastic Constant Matrix: (Units=GPa)
#
#
# Indices 1 2 3 4 5 6 
#
# 1 174.1213 90.7319 50.4100 28.6193 17.9375 -3.9387
# 2 90.7319 139.3222 38.1286 28.8000 2.9611 -10.6625
# 3 50.4100 38.1286 73.5910 33.1618 12.0698 -5.1518
# 4 28.6193 28.8000 33.1618 29.0462 -2.1866 -4.8342
# 5 17.9375 2.9611 12.0698 -2.1866 34.2578 7.2034
# 6 -3.9387 -10.6625 -5.1518 -4.8342 7.2034 34.1822
#
#
#
# Elastic Compliance Matrix: (Units=1/GPa)
#
#
# Indices 1 2 3 4 5 6 
#
# 1 0.009988 -0.005338 -0.002575 -0.001961 -0.003911 -0.000356
# 2 -0.005338 0.012087 0.000587 -0.006994 0.000652 0.002117
# 3 -0.002575 0.000587 0.034857 -0.038453 -0.013995 0.002651
# 4 -0.001961 -0.006994 -0.038453 0.088758 0.020854 -0.000045
# 5 -0.003911 0.000652 -0.013995 0.020854 0.039050 -0.007636
# 6 -0.000356 0.002117 0.002651 -0.000045 -0.007636 0.031877
#
#
# Mechanical properties :
#
#
# Convention : Reuss Voigt Hill
#
# Bulk Modulus (GPa) = 23.65246 82.84174 53.24710
# Shear Modulus (GPa) = 20.37791 33.34817 26.86304
#
# Velocity S-wave (km/s) = 3.07658 3.93572 3.53237
# Velocity P-wave (km/s) = 4.85868 7.68976 6.43192
#
# Compressibility (1/GPa) = 0.04227891
#
# Stress axis : x y z
#
# Youngs Moduli (GPa) = 100.12429 82.73146 28.68824
#
# Poissons Ratio (x) = 0.44163 0.07388
# Poissons Ratio (y) = 0.53448 -0.01684
# Poissons Ratio (z) = 0.25786 -0.04855
#
# Static dielectric constant tensor:
#      x y z
#    x 4.043460 0.423100 0.205220 
#    y 0.423100 5.051960 0.563850 
#    z 0.205220 0.563850 3.831200 
# 
# 
# High freq. dielectric constant tensor:
#      x y z
#    x 1.841930 0.004730 0.003750 
#    y 0.004730 1.853190 0.010310 
#    z 0.003750 0.010310 1.842130 
# 
# From -- ./inp_files/168892.got.cif
#   From: 2010.06.25/outbox.cif.g09.slc.cpg/sg2_85_cif.got.tgz:168892.got - 2010.06.27 13:26:56.
