data_PCOD8026875
_publ_section_title
;
Structure prediction by ZEFSAII (Michael W. Deem and Ramdas Pophale) SiO2 
 PCOD8026875
Probable space group: P -1
;
_chemical_formula_sum "Si O2"
_cell_formula_units_Z 16
_cell_length_a 8.957967
_cell_length_b 22.451308
_cell_length_c 5.033071
_cell_angle_alpha 130.075757
_cell_angle_beta 55.252575
_cell_angle_gamma 130.859398
_cell_volume 566.123949
_symmetry_space_group_name_H-M "P -1"
_symmetry_group_IT_number 2
_symmetry_cell_setting 'triclinic'
loop_
_space_group_symop_operation_xyz
x,y,z
-x,-y,-z
loop_
_atom_site_type_symbol
_atom_site_label
_atom_site_fract_x
_atom_site_fract_y
_atom_site_fract_z
Si Si1 0.423490 0.843937 0.510313
Si Si2 0.934015 0.165149 0.888830
Si Si3 0.847230 0.537186 0.155438
Si Si4 0.920036 0.283325 0.818797
Si Si5 0.302982 0.283083 0.313080
Si Si6 0.693558 0.844002 0.647586
Si Si7 0.416726 0.397401 0.049818
Si Si8 0.293915 0.004290 0.659648
O O1 0.473545 0.804753 0.613069
O O2 0.635985 0.924873 0.446781
O O3 0.316209 0.767114 0.179212
O O4 0.252055 0.877615 0.838542
O O5 0.942562 0.254800 0.015501
O O6 0.162651 0.179316 0.767328
O O7 0.884797 0.091480 0.494355
O O8 0.990273 0.613447 0.023230
O O9 0.652192 0.470389 0.989964
O O10 0.745449 0.568936 0.587321
O O11 0.000000 0.500000 0.000000
O O12 0.059383 0.250399 0.398504
O O13 0.340473 0.204602 0.169256
O O14 0.432648 0.329586 0.054660
O O15 0.347308 0.354956 0.709064
O O16 0.776869 0.948862 0.904435
O O17 0.500000 0.000000 0.500000
#
# Coordination Sequence:
#
# PCOD8026875 Si02
#       8
#     2   2   2   2   2   2   2   2
#     4  12  25  44  71 102 143 190 244 304 368 435
#     4  11  25  47  71 100 142 192 245 305 368 438
#     4  10  24  44  75 110 147 190 244 299 367 439
#     4  10  24  43  70 102 146 186 240 297 367 434
#     4  10  25  47  79 105 152 195 247 299 373 435
#     4  11  27  42  75 108 139 195 248 301 366 444
#     4  10  24  50  73 107 151 196 238 308 365 436
#     4  12  24  47  67 101 148 189 242 306 371 432
#
# _framework density 28.262364000000002
#
# number of rings (size 3 to 8) (size 9 to 14) (size 15 to 20)
#    0.000    1.250    2.500    0.750   10.500    7.000 
#    0.000    5.625    0.000    0.000    0.000    0.000 
#    0.000    0.000    0.000    0.000    0.000    0.000 
#
# Total GULP energy -198236.904042 kJ/mol
# GULP energy per Si atom -12389.806503 kJ/mol
# Density = 2.819804 g / cm^3
# Si number density = 28.262364 Si / 1000 Ang^3
#
#
#
# Elastic Constant Matrix: (Units=GPa)
#
#
# Indices 1 2 3 4 5 6 
#
# 1 135.4988 23.0779 18.9234 8.3333 -19.8712 -0.9660
# 2 23.0779 113.5654 8.2085 10.4468 -4.8816 1.4377
# 3 18.9234 8.2085 82.4137 1.4058 -27.9173 0.8469
# 4 8.3333 10.4468 1.4058 44.0005 -3.8967 -0.7319
# 5 -19.8712 -4.8816 -27.9173 -3.8967 44.0294 -0.7077
# 6 -0.9660 1.4377 0.8469 -0.7319 -0.7077 36.5771
#
#
#
# Elastic Compliance Matrix: (Units=1/GPa)
#
#
# Indices 1 2 3 4 5 6 
#
# 1 0.008223 -0.001408 -0.000710 -0.000927 0.003028 0.000329
# 2 -0.001408 0.009314 -0.000628 -0.001948 -0.000180 -0.000431
# 3 -0.000710 -0.000628 0.015583 0.000628 0.009544 -0.000158
# 4 -0.000927 -0.001948 0.000628 0.023518 0.001854 0.000544
# 5 0.003028 -0.000180 0.009544 0.001854 0.030282 0.000489
# 6 0.000329 -0.000431 -0.000158 0.000544 0.000489 0.027389
#
#
# Mechanical properties :
#
#
# Convention : Reuss Voigt Hill
#
# Bulk Modulus (GPa) = 36.19452 47.98860 42.09156
# Shear Modulus (GPa) = 38.75668 43.67260 41.21464
#
# Velocity S-wave (km/s) = 3.70715 3.93524 3.82290
# Velocity P-wave (km/s) = 5.58197 6.13716 5.86613
#
# Compressibility (1/GPa) = 0.02762849
#
# Stress axis : x y z
#
# Youngs Moduli (GPa) = 121.61706 107.36577 64.17149
#
# Poissons Ratio (x) = 0.15121 0.04553
# Poissons Ratio (y) = 0.17129 0.04028
# Poissons Ratio (z) = 0.08629 0.06739
#
# Static dielectric constant tensor:
#      x y z
#    x 5.307710 0.211870 -0.095380 
#    y 0.211870 6.193580 0.115960 
#    z -0.095380 0.115960 5.179710 
# 
# 
# High freq. dielectric constant tensor:
#      x y z
#    x 2.162370 0.009330 -0.000980 
#    y 0.009330 2.142750 0.005480 
#    z -0.000980 0.005480 2.148870 
# 
# From -- ./inp_files/55686.got.cif
#   From: 2010.06.25/outbox.cif.g09.slc.cpg/sg2_28_cif.got.tgz:55686.got - 2010.06.27 13:26:56.
