data_PCOD8026011
_publ_section_title
;
Structure prediction by ZEFSAII (Michael W. Deem and Ramdas Pophale) SiO2 
 PCOD8026011
Probable space group: P -1
;
_chemical_formula_sum "Si O2"
_cell_formula_units_Z 14
_cell_length_a 6.784400
_cell_length_b 9.742309
_cell_length_c 16.534286
_cell_angle_alpha 52.180746
_cell_angle_beta 137.851649
_cell_angle_gamma 111.060900
_cell_volume 569.885329
_symmetry_space_group_name_H-M "P -1"
_symmetry_group_IT_number 2
_symmetry_cell_setting 'triclinic'
loop_
_space_group_symop_operation_xyz
x,y,z
-x,-y,-z
loop_
_atom_site_type_symbol
_atom_site_label
_atom_site_fract_x
_atom_site_fract_y
_atom_site_fract_z
Si Si1 0.704411 0.757517 0.283177
Si Si2 0.815407 0.118652 0.131454
Si Si3 0.794334 0.354384 0.636668
Si Si4 0.128392 0.796428 0.708097
Si Si5 0.948052 0.174100 0.977515
Si Si6 0.736780 0.607135 0.104377
Si Si7 0.357726 0.121635 0.603698
O O1 0.381467 0.708112 0.183493
O O2 0.762491 0.767311 0.392903
O O3 0.991425 0.623830 0.382549
O O4 0.676909 0.942061 0.159423
O O5 0.991935 0.135660 0.263786
O O6 0.009063 0.116369 0.110196
O O7 0.555642 0.288774 0.979671
O O8 0.500000 0.500000 0.500000
O O9 0.687744 0.162143 0.668536
O O10 0.971736 0.372590 0.764525
O O11 0.300916 0.595649 0.845186
O O12 0.850264 0.804550 0.561243
O O13 0.355294 0.915755 0.695776
O O14 0.201302 0.294332 0.995599
O O15 0.000000 0.000000 0.000000
#
# Coordination Sequence:
#
# PCOD8026011 Si02
#       7
#     2   2   2   2   2   2   2
#     4  11  23  42  72 106 136 178 240 294 350 412
#     4  11  24  43  69 103 143 185 227 285 360 423
#     4  12  24  43  73 104 139 180 241 300 338 406
#     4  10  24  47  68  99 150 187 227 285 348 435
#     4  12  23  40  72 108 138 181 230 295 358 400
#     4  12  23  43  71 108 144 176 235 296 347 415
#     4  10  23  47  71  98 140 192 231 284 352 411
#
# _framework density 24.566344999999998
#
# number of rings (size 3 to 8) (size 9 to 14) (size 15 to 20)
#    0.000    0.857    5.714    1.714    0.000    1.143 
#    2.571   10.714    0.000    0.000    0.000    0.000 
#    0.000    0.000    0.000    0.000    0.000    0.000 
#
# Total GULP energy -173536.653094 kJ/mol
# GULP energy per Si atom -12395.475221 kJ/mol
# Density = 2.451043 g / cm^3
# Si number density = 24.566345 Si / 1000 Ang^3
#
#
#
# Elastic Constant Matrix: (Units=GPa)
#
#
# Indices 1 2 3 4 5 6 
#
# 1 122.4660 23.8341 32.9187 1.5698 -15.1969 -0.9587
# 2 23.8341 94.8123 7.6284 -13.1939 -9.7482 11.7467
# 3 32.9187 7.6284 92.3457 -3.8269 -14.8377 -14.5636
# 4 1.5698 -13.1939 -3.8269 33.2467 -5.2342 -3.7150
# 5 -15.1969 -9.7482 -14.8377 -5.2342 48.3847 -0.2928
# 6 -0.9587 11.7467 -14.5636 -3.7150 -0.2928 33.1605
#
#
#
# Elastic Compliance Matrix: (Units=1/GPa)
#
#
# Indices 1 2 3 4 5 6 
#
# 1 0.009633 -0.002165 -0.003162 -0.001505 0.001454 -0.000499
# 2 -0.002165 0.012544 -0.000342 0.004939 0.002252 -0.004083
# 3 -0.003162 -0.000342 0.013667 0.002847 0.003476 0.006382
# 4 -0.001505 0.004939 0.002847 0.033597 0.005050 0.003266
# 5 0.001454 0.002252 0.003476 0.005050 0.023199 0.001541
# 6 -0.000499 -0.004083 0.006382 0.003266 0.001541 0.034771
#
#
# Mechanical properties :
#
#
# Convention : Reuss Voigt Hill
#
# Bulk Modulus (GPa) = 40.80817 48.70961 44.75889
# Shear Modulus (GPa) = 34.03263 39.30791 36.67027
#
# Velocity S-wave (km/s) = 3.72605 4.00443 3.86774
# Velocity P-wave (km/s) = 5.92948 6.42273 6.18102
#
# Compressibility (1/GPa) = 0.02450490
#
# Stress axis : x y z
#
# Youngs Moduli (GPa) = 103.81253 79.72166 73.16705
#
# Poissons Ratio (x) = 0.17261 0.23139
# Poissons Ratio (y) = 0.22477 0.02501
# Poissons Ratio (z) = 0.32831 0.02725
#
# Static dielectric constant tensor:
#      x y z
#    x 4.611540 0.160520 -0.272570 
#    y 0.160520 4.645580 0.002520 
#    z -0.272570 0.002520 4.488840 
# 
# 
# High freq. dielectric constant tensor:
#      x y z
#    x 1.972910 0.006190 -0.011550 
#    y 0.006190 1.968570 0.001510 
#    z -0.011550 0.001510 1.993300 
# 
# From -- ./inp_files/482694.got.cif
#   From: 2010.06.25/outbox.cif.g09.slc.cpg/sg2_242_cif.got.tgz:482694.got - 2010.06.27 13:26:56.
