data_PCOD8026927
_publ_section_title
;
Structure prediction by ZEFSAII (Michael W. Deem and Ramdas Pophale) SiO2 
 PCOD8026927
Probable space group: P -1
;
_chemical_formula_sum "Si O2"
_cell_formula_units_Z 16
_cell_length_a 5.089681
_cell_length_b 16.708186
_cell_length_c 8.643786
_cell_angle_alpha 93.819002
_cell_angle_beta 91.814807
_cell_angle_gamma 116.932850
_cell_volume 652.298538
_symmetry_space_group_name_H-M "P -1"
_symmetry_group_IT_number 2
_symmetry_cell_setting 'triclinic'
loop_
_space_group_symop_operation_xyz
x,y,z
-x,-y,-z
loop_
_atom_site_type_symbol
_atom_site_label
_atom_site_fract_x
_atom_site_fract_y
_atom_site_fract_z
Si Si1 0.609133 0.938836 0.592253
Si Si2 0.925018 0.724360 0.514428
Si Si3 0.077490 0.122515 0.610363
Si Si4 0.016931 0.464366 0.163322
Si Si5 0.345537 0.346618 0.175653
Si Si6 0.401799 0.226416 0.907484
Si Si7 0.653670 0.941169 0.943902
Si Si8 0.300404 0.652876 0.334594
O O1 0.625321 0.858711 0.480981
O O2 0.525842 0.908606 0.763197
O O3 0.500000 0.000000 0.500000
O O4 0.942533 0.018548 0.638532
O O5 0.099997 0.835106 0.497575
O O6 0.837453 0.709197 0.688196
O O7 0.634576 0.687195 0.399559
O O8 0.115353 0.674526 0.463172
O O9 0.135374 0.175139 0.777741
O O10 0.697667 0.396121 0.216845
O O11 0.232978 0.419146 0.142104
O O12 0.155232 0.545804 0.298070
O O13 0.000000 0.500000 0.000000
O O14 0.278540 0.275851 0.028136
O O15 0.686843 0.298908 0.825113
O O16 0.483268 0.154662 0.982880
O O17 0.500000 0.000000 0.000000
O O18 0.000000 0.000000 0.000000
#
# Coordination Sequence:
#
# PCOD8026927 Si02
#       8
#     2   2   2   2   2   2   2   2
#     4  11  24  45  71 102 139 198 233 310 363 433
#     4  11  26  46  70 110 141 191 236 301 359 427
#     4  10  24  43  71  96 145 181 248 283 371 428
#     4  12  26  47  74 110 144 187 245 292 371 428
#     4  12  27  46  76 105 149 188 241 306 356 433
#     4  11  25  48  74 107 146 197 245 302 364 436
#     4  12  27  46  73 109 147 188 247 306 359 434
#     4  11  26  45  77 102 147 191 239 298 364 438
#
# _framework density 24.528645999999998
#
# number of rings (size 3 to 8) (size 9 to 14) (size 15 to 20)
#    0.000    0.750    2.500    3.375   10.500    4.000 
#    2.250    0.000    0.000    0.000    0.000    0.000 
#    0.000    0.000    0.000    0.000    0.000    0.000 
#
# Total GULP energy -198260.312101 kJ/mol
# GULP energy per Si atom -12391.269506 kJ/mol
# Density = 2.447282 g / cm^3
# Si number density = 24.528646 Si / 1000 Ang^3
#
#
#
# Elastic Constant Matrix: (Units=GPa)
#
#
# Indices 1 2 3 4 5 6 
#
# 1 85.8500 4.1939 3.9051 0.4558 -18.0121 -21.2114
# 2 4.1939 98.2310 22.7205 -2.8611 -20.7984 -17.8678
# 3 3.9051 22.7205 135.9323 -11.4767 -22.3969 -9.5929
# 4 0.4558 -2.8611 -11.4767 36.6712 -11.6194 -7.0036
# 5 -18.0121 -20.7984 -22.3969 -11.6194 42.0668 0.7985
# 6 -21.2114 -17.8678 -9.5929 -7.0036 0.7985 35.1219
#
#
#
# Elastic Compliance Matrix: (Units=1/GPa)
#
#
# Indices 1 2 3 4 5 6 
#
# 1 0.017682 0.004329 0.002630 0.007906 0.013013 0.014880
# 2 0.004329 0.014431 0.000663 0.006930 0.011042 0.011268
# 3 0.002630 0.000663 0.009493 0.006685 0.008247 0.005664
# 4 0.007906 0.006930 0.006685 0.039830 0.021039 0.017591
# 5 0.013013 0.011042 0.008247 0.021039 0.044646 0.018909
# 6 0.014880 0.011268 0.005664 0.017591 0.018909 0.047816
#
#
# Mechanical properties :
#
#
# Convention : Reuss Voigt Hill
#
# Bulk Modulus (GPa) = 17.58988 42.40581 29.99785
# Shear Modulus (GPa) = 28.15247 42.05157 35.10202
#
# Velocity S-wave (km/s) = 3.39150 4.14501 3.78704
# Velocity P-wave (km/s) = 4.74585 6.34302 5.60165
#
# Compressibility (1/GPa) = 0.05685087
#
# Stress axis : x y z
#
# Youngs Moduli (GPa) = 56.55513 69.29378 105.33828
#
# Poissons Ratio (x) = -0.29996 -0.27706
# Poissons Ratio (y) = -0.24482 -0.06986
# Poissons Ratio (z) = -0.14875 -0.04596
#
# Static dielectric constant tensor:
#      x y z
#    x 4.382640 0.535180 -0.023770 
#    y 0.535180 6.000150 0.486980 
#    z -0.023770 0.486980 5.784950 
# 
# 
# High freq. dielectric constant tensor:
#      x y z
#    x 1.974330 -0.002220 -0.003750 
#    y -0.002220 1.997800 0.001320 
#    z -0.003750 0.001320 1.988090 
# 
# From -- ./inp_files/135339.got.cif
#   From: 2010.06.25/outbox.cif.g09.slc.cpg/sg2_68_cif.got.tgz:135339.got - 2010.06.27 13:26:56.
