data_PCOD8026075
_publ_section_title
;
Structure prediction by ZEFSAII (Michael W. Deem and Ramdas Pophale) SiO2 
 PCOD8026075
Probable space group: P -1
;
_chemical_formula_sum "Si O2"
_cell_formula_units_Z 14
_cell_length_a 6.384007
_cell_length_b 17.746959
_cell_length_c 9.586440
_cell_angle_alpha 50.026707
_cell_angle_beta 51.456830
_cell_angle_gamma 56.919466
_cell_volume 631.525696
_symmetry_space_group_name_H-M "P -1"
_symmetry_group_IT_number 2
_symmetry_cell_setting 'triclinic'
loop_
_space_group_symop_operation_xyz
x,y,z
-x,-y,-z
loop_
_atom_site_type_symbol
_atom_site_label
_atom_site_fract_x
_atom_site_fract_y
_atom_site_fract_z
Si Si1 0.042488 0.208563 0.985997
Si Si2 0.870453 0.879304 0.257519
Si Si3 0.539188 0.747201 0.715083
Si Si4 0.288313 0.423615 0.950825
Si Si5 0.422003 0.933002 0.990754
Si Si6 0.358680 0.432170 0.314203
Si Si7 0.174437 0.415852 0.702273
O O1 0.300040 0.155252 0.042692
O O2 0.760970 0.186586 0.190301
O O3 0.086276 0.172770 0.850393
O O4 0.007464 0.328764 0.863455
O O5 0.723936 0.819705 0.496624
O O6 0.674927 0.993825 0.189507
O O7 0.166590 0.883712 0.194771
O O8 0.497177 0.669772 0.704346
O O9 0.696801 0.684707 0.855627
O O10 0.497542 0.476325 0.881939
O O11 0.353498 0.406118 0.780514
O O12 0.000000 0.500000 0.000000
O O13 0.500000 0.000000 0.000000
O O14 0.386019 0.404507 0.499745
O O15 0.041240 0.473796 0.347610
#
# Coordination Sequence:
#
# PCOD8026075 Si02
#       7
#     2   2   2   2   2   2   2
#     4  11  23  42  70 101 133 173 226 282 332 401
#     4  10  23  48  70  98 133 173 220 279 343 408
#     4  12  24  43  69 101 139 178 227 280 333 397
#     4  12  24  39  60  95 138 181 226 273 322 385
#     4   9  22  47  73  96 132 170 217 281 345 408
#     4  11  23  44  62  92 139 184 227 273 326 388
#     4  11  23  41  66  93 134 184 228 272 328 391
#
# _framework density 22.168536
#
# number of rings (size 3 to 8) (size 9 to 14) (size 15 to 20)
#    0.000    1.143    4.286    1.714    2.000    1.714 
#    5.143    6.429    0.000    0.000    0.000    0.000 
#    0.000    0.000    0.000    0.000    0.000    0.000 
#
# Total GULP energy -173585.193260 kJ/mol
# GULP energy per Si atom -12398.942376 kJ/mol
# Density = 2.211808 g / cm^3
# Si number density = 22.168536 Si / 1000 Ang^3
#
#
#
# Elastic Constant Matrix: (Units=GPa)
#
#
# Indices 1 2 3 4 5 6 
#
# 1 113.6552 32.4157 53.0613 -4.4712 -4.0948 -17.1948
# 2 32.4157 74.5867 40.6192 -1.7528 -0.0929 -26.9946
# 3 53.0613 40.6192 148.8258 -9.4552 -6.6174 -18.5406
# 4 -4.4712 -1.7528 -9.4552 30.8164 6.4123 -2.6435
# 5 -4.0948 -0.0929 -6.6174 6.4123 39.4979 -0.9495
# 6 -17.1948 -26.9946 -18.5406 -2.6435 -0.9495 45.4545
#
#
#
# Elastic Compliance Matrix: (Units=1/GPa)
#
#
# Indices 1 2 3 4 5 6 
#
# 1 0.011246 -0.002694 -0.003031 0.000550 0.000598 0.001463
# 2 -0.002694 0.019773 -0.003248 0.000683 -0.000661 0.009425
# 3 -0.003031 -0.003248 0.008940 0.001998 0.000868 0.000705
# 4 0.000550 0.000683 0.001998 0.034536 -0.005133 0.003330
# 5 0.000598 -0.000661 0.000868 -0.005133 0.026368 0.000440
# 6 0.001463 0.009425 0.000705 0.003330 0.000440 0.028641
#
#
# Mechanical properties :
#
#
# Convention : Reuss Voigt Hill
#
# Bulk Modulus (GPa) = 45.42664 65.47336 55.45000
# Shear Modulus (GPa) = 32.30235 37.21851 34.76043
#
# Velocity S-wave (km/s) = 3.82137 4.10187 3.96410
# Velocity P-wave (km/s) = 6.32507 7.21334 6.78376
#
# Compressibility (1/GPa) = 0.02201352
#
# Stress axis : x y z
#
# Youngs Moduli (GPa) = 88.91829 50.57328 111.86035
#
# Poissons Ratio (x) = 0.13626 0.33901
# Poissons Ratio (y) = 0.23957 0.36332
# Poissons Ratio (z) = 0.26948 0.16426
#
# Static dielectric constant tensor:
#      x y z
#    x 3.956210 0.048570 0.255650 
#    y 0.048570 4.064480 -0.163350 
#    z 0.255650 -0.163350 4.011380 
# 
# 
# High freq. dielectric constant tensor:
#      x y z
#    x 1.873050 -0.001550 0.001480 
#    y -0.001550 1.870880 -0.004800 
#    z 0.001480 -0.004800 1.868100 
# 
# From -- ./inp_files/115545.got.cif
#   From: 2010.06.25/outbox.cif.g09.slc.cpg/sg2_58_cif.got.tgz:115545.got - 2010.06.27 13:26:56.
