data_PCOD8026507
_publ_section_title
;
Structure prediction by ZEFSAII (Michael W. Deem and Ramdas Pophale) SiO2 
 PCOD8026507
Probable space group: P -1
;
_chemical_formula_sum "Si O2"
_cell_formula_units_Z 16
_cell_length_a 25.802695
_cell_length_b 8.883377
_cell_length_c 21.630728
_cell_angle_alpha 30.934202
_cell_angle_beta 162.234588
_cell_angle_gamma 151.396546
_cell_volume 716.237937
_symmetry_space_group_name_H-M "P -1"
_symmetry_group_IT_number 2
_symmetry_cell_setting 'triclinic'
loop_
_space_group_symop_operation_xyz
x,y,z
-x,-y,-z
loop_
_atom_site_type_symbol
_atom_site_label
_atom_site_fract_x
_atom_site_fract_y
_atom_site_fract_z
Si Si1 0.304768 0.869124 0.856139
Si Si2 0.921303 0.180376 0.893685
Si Si3 0.706202 0.570070 0.528857
Si Si4 0.340805 0.290162 0.149523
Si Si5 0.314298 0.598645 0.186634
Si Si6 0.544722 0.234638 0.579672
Si Si7 0.963425 0.169157 0.543474
Si Si8 0.659733 0.850883 0.066382
O O1 0.151870 0.901617 0.626065
O O2 0.310170 0.056889 0.859713
O O3 0.258842 0.495593 0.943133
O O4 0.500000 0.000000 0.000000
O O5 0.766310 0.312960 0.650003
O O6 0.844338 0.948696 0.945228
O O7 0.102984 0.498806 0.002843
O O8 0.000000 0.000000 0.000000
O O9 0.498825 0.527856 0.290239
O O10 0.707409 0.490276 0.631883
O O11 0.849422 0.920829 0.553775
O O12 0.451785 0.111626 0.302827
O O13 0.357691 0.283917 0.326753
O O14 0.441322 0.724828 0.345793
O O15 0.381872 0.873822 0.114225
O O16 0.000000 0.500000 0.500000
O O17 0.155217 0.147849 0.753599
O O18 0.500000 0.500000 0.000000
#
# Coordination Sequence:
#
# PCOD8026507 Si02
#       8
#     2   2   2   2   2   2   2   2
#     4  12  26  48  75 107 142 191 244 297 355 432
#     4  11  21  39  66  97 128 176 223 280 353 407
#     4  11  22  43  68  97 141 173 227 287 346 429
#     4  11  24  41  71  99 141 178 232 285 361 421
#     4  11  24  44  69  99 143 177 232 291 351 419
#     4  10  24  42  67 104 135 184 224 284 358 428
#     4  12  28  47  74 105 143 193 243 297 359 421
#     4  12  28  50  74 104 146 193 244 298 360 421
#
# _framework density 22.338944000000001
#
# number of rings (size 3 to 8) (size 9 to 14) (size 15 to 20)
#    0.000    0.750    2.500    5.625    5.250    3.000 
#    2.250    0.000    0.000    0.000    0.000    0.000 
#    0.000    0.000    0.000    0.000    0.000    0.000 
#
# Total GULP energy -198226.709091 kJ/mol
# GULP energy per Si atom -12389.169318 kJ/mol
# Density = 2.228810 g / cm^3
# Si number density = 22.338944 Si / 1000 Ang^3
#
#
#
# Elastic Constant Matrix: (Units=GPa)
#
#
# Indices 1 2 3 4 5 6 
#
# 1 100.7853 24.4585 19.6323 -5.1274 0.7281 -0.3117
# 2 24.4585 105.6987 14.2782 -10.4291 -0.4289 19.5482
# 3 19.6323 14.2782 84.0361 -6.5648 3.6424 0.3272
# 4 -5.1274 -10.4291 -6.5648 40.4549 0.9351 7.7324
# 5 0.7281 -0.4289 3.6424 0.9351 36.3765 -2.5865
# 6 -0.3117 19.5482 0.3272 7.7324 -2.5865 36.6917
#
#
#
# Elastic Compliance Matrix: (Units=1/GPa)
#
#
# Indices 1 2 3 4 5 6 
#
# 1 0.010954 -0.002496 -0.002133 0.000126 0.000063 0.001420
# 2 -0.002496 0.011910 -0.001089 0.003963 -0.000315 -0.007214
# 3 -0.002133 -0.001089 0.012759 0.001543 -0.001285 0.000033
# 4 0.000126 0.003963 0.001543 0.027574 -0.001390 -0.008033
# 5 0.000063 -0.000315 -0.001285 -0.001390 0.027823 0.002434
# 6 0.001420 -0.007214 0.000033 -0.008033 0.002434 0.032974
#
#
# Mechanical properties :
#
#
# Convention : Reuss Voigt Hill
#
# Bulk Modulus (GPa) = 41.34764 45.25089 43.29926
# Shear Modulus (GPa) = 34.84500 38.18137 36.51319
#
# Velocity S-wave (km/s) = 3.95376 4.13871 4.04729
# Velocity P-wave (km/s) = 6.27633 6.56803 6.42384
#
# Compressibility (1/GPa) = 0.02418517
#
# Stress axis : x y z
#
# Youngs Moduli (GPa) = 91.29246 83.96603 78.37528
#
# Poissons Ratio (x) = 0.20962 0.16719
# Poissons Ratio (y) = 0.22791 0.08534
# Poissons Ratio (z) = 0.19475 0.09143
#
# Static dielectric constant tensor:
#      x y z
#    x 3.926540 -0.279830 0.330730 
#    y -0.279830 4.534630 -0.491300 
#    z 0.330730 -0.491300 3.835160 
# 
# 
# High freq. dielectric constant tensor:
#      x y z
#    x 1.881480 0.008960 0.019620 
#    y 0.008960 1.881700 -0.012940 
#    z 0.019620 -0.012940 1.895070 
# 
# From -- ./inp_files/494805.got.cif
#   From: 2010.06.25/outbox.cif.g09.slc.cpg/sg2_248_cif.got.tgz:494805.got - 2010.06.27 13:26:56.
