data_PCOD8026929
_publ_section_title
;
Structure prediction by ZEFSAII (Michael W. Deem and Ramdas Pophale) SiO2 
 PCOD8026929
Probable space group: P -1
;
_chemical_formula_sum "Si O2"
_cell_formula_units_Z 14
_cell_length_a 29.333625
_cell_length_b 9.668164
_cell_length_c 5.314880
_cell_angle_alpha 117.494803
_cell_angle_beta 57.337029
_cell_angle_gamma 151.653933
_cell_volume 602.155757
_symmetry_space_group_name_H-M "P -1"
_symmetry_group_IT_number 2
_symmetry_cell_setting 'triclinic'
loop_
_space_group_symop_operation_xyz
x,y,z
-x,-y,-z
loop_
_atom_site_type_symbol
_atom_site_label
_atom_site_fract_x
_atom_site_fract_y
_atom_site_fract_z
Si Si1 0.291078 0.264303 0.219558
Si Si2 0.717329 0.261871 0.823841
Si Si3 0.495319 0.091369 0.841981
Si Si4 0.981345 0.683642 0.646162
Si Si5 0.778850 0.237359 0.113640
Si Si6 0.121475 0.830296 0.703215
Si Si7 0.159175 0.170962 0.252629
O O1 0.411290 0.560490 0.140942
O O2 0.254521 0.340304 0.271725
O O3 0.241091 0.128578 0.530654
O O4 0.253352 0.021533 0.968585
O O5 0.742567 0.238024 0.468229
O O6 0.798580 0.602081 0.883887
O O7 0.725098 0.174898 0.973123
O O8 0.603998 0.046549 0.973254
O O9 0.500000 0.000000 0.500000
O O10 0.500000 0.000000 0.000000
O O11 0.915271 0.439546 0.411621
O O12 0.059023 0.752602 0.596728
O O13 0.900559 0.554850 0.978617
O O14 0.061921 0.005378 0.558137
O O15 0.106461 0.888442 0.051177
#
# Coordination Sequence:
#
# PCOD8026929 Si02
#       7
#     2   2   2   2   2   2   2
#     4  10  24  43  71  99 131 183 227 279 333 400
#     4  12  28  45  67 103 142 172 224 282 339 408
#     4  12  25  46  77 104 129 173 229 286 334 393
#     4   9  21  38  64  96 135 180 226 275 332 395
#     4  11  28  46  64 101 146 179 215 277 347 401
#     4   9  19  38  65 102 126 173 242 278 315 398
#     4  11  22  39  73  95 132 180 240 274 324 397
#
# _framework density 23.249796
#
# number of rings (size 3 to 8) (size 9 to 14) (size 15 to 20)
#    0.000    1.429    1.429    3.000   10.000    2.286 
#    0.000    0.000    0.000    0.000    0.000    0.000 
#    0.000    0.000    0.000    0.000    0.000    0.000 
#
# Total GULP energy -173457.116232 kJ/mol
# GULP energy per Si atom -12389.794017 kJ/mol
# Density = 2.319688 g / cm^3
# Si number density = 23.249796 Si / 1000 Ang^3
#
#
#
# Elastic Constant Matrix: (Units=GPa)
#
#
# Indices 1 2 3 4 5 6 
#
# 1 59.9829 30.3658 26.9177 -12.5479 1.0436 -3.6981
# 2 30.3658 106.9212 40.6074 -29.5521 -12.5751 13.4249
# 3 26.9177 40.6074 147.8238 -7.6202 -7.2930 12.4019
# 4 -12.5479 -29.5521 -7.6202 40.8781 8.1320 -7.1850
# 5 1.0436 -12.5751 -7.2930 8.1320 36.1158 -6.5682
# 6 -3.6981 13.4249 12.4019 -7.1850 -6.5682 28.9648
#
#
#
# Elastic Compliance Matrix: (Units=1/GPa)
#
#
# Indices 1 2 3 4 5 6 
#
# 1 0.022006 -0.005083 -0.003108 0.004263 -0.002732 0.006934
# 2 -0.005083 0.014433 -0.002208 0.007282 0.002349 -0.004054
# 3 -0.003108 -0.002208 0.008148 -0.001736 0.000791 -0.003113
# 4 0.004263 0.007282 -0.001736 0.032451 -0.004340 0.004978
# 5 -0.002732 0.002349 0.000791 -0.004340 0.030460 0.004054
# 6 0.006934 -0.004054 -0.003113 0.004978 0.004054 0.040776
#
#
# Mechanical properties :
#
#
# Convention : Reuss Voigt Hill
#
# Bulk Modulus (GPa) = 42.03468 56.72332 49.37900
# Shear Modulus (GPa) = 28.24846 35.64754 31.94800
#
# Velocity S-wave (km/s) = 3.48946 3.91991 3.71093
# Velocity P-wave (km/s) = 5.86123 6.70357 6.29650
#
# Compressibility (1/GPa) = 0.02378988
#
# Stress axis : x y z
#
# Youngs Moduli (GPa) = 45.44175 69.28639 122.73111
#
# Poissons Ratio (x) = 0.35220 0.38140
# Poissons Ratio (y) = 0.23099 0.27095
# Poissons Ratio (z) = 0.14121 0.15296
#
# Static dielectric constant tensor:
#      x y z
#    x 4.064340 0.050120 -0.130630 
#    y 0.050120 4.329980 -0.231920 
#    z -0.130630 -0.231920 4.207980 
# 
# 
# High freq. dielectric constant tensor:
#      x y z
#    x 1.906310 0.005180 0.001150 
#    y 0.005180 1.921900 -0.017470 
#    z 0.001150 -0.017470 1.927090 
# 
# From -- ./inp_files/56777.got.cif
#   From: 2010.06.25/outbox.cif.g09.slc.cpg/sg2_29_cif.got.tgz:56777.got - 2010.06.27 13:26:56.
