data_PCOD8026812
_publ_section_title
;
Structure prediction by ZEFSAII (Michael W. Deem and Ramdas Pophale) SiO2 
 PCOD8026812
Probable space group: P -1
;
_chemical_formula_sum "Si O2"
_cell_formula_units_Z 16
_cell_length_a 14.219822
_cell_length_b 7.919990
_cell_length_c 22.702398
_cell_angle_alpha 116.029089
_cell_angle_beta 158.164424
_cell_angle_gamma 75.749226
_cell_volume 748.585395
_symmetry_space_group_name_H-M "P -1"
_symmetry_group_IT_number 2
_symmetry_cell_setting 'triclinic'
loop_
_space_group_symop_operation_xyz
x,y,z
-x,-y,-z
loop_
_atom_site_type_symbol
_atom_site_label
_atom_site_fract_x
_atom_site_fract_y
_atom_site_fract_z
Si Si1 0.408906 0.376194 0.580509
Si Si2 0.135312 0.577512 0.874519
Si Si3 0.944004 0.380859 0.609002
Si Si4 0.137851 0.160132 0.195401
Si Si5 0.255979 0.241088 0.685494
Si Si6 0.945323 0.745559 0.968614
Si Si7 0.605019 0.879773 0.366751
Si Si8 0.596213 0.224063 0.558925
O O1 0.230593 0.503772 0.498971
O O2 0.271675 0.151351 0.503041
O O3 0.473605 0.348461 0.546472
O O4 0.713100 0.504014 0.813799
O O5 0.132956 0.509807 0.795103
O O6 0.992542 0.732147 0.820456
O O7 0.941491 0.366743 0.770754
O O8 0.462382 0.716889 0.106865
O O9 0.151297 0.400005 0.677364
O O10 0.755297 0.130151 0.476513
O O11 0.447637 0.196982 0.404783
O O12 0.924059 0.903676 0.028996
O O13 0.188189 0.238369 0.169625
O O14 0.340540 0.272744 0.670788
O O15 0.000000 0.000000 0.500000
O O16 0.265646 0.790626 0.154057
O O17 0.500000 0.000000 0.500000
#
# Coordination Sequence:
#
# PCOD8026812 Si02
#       8
#     2   2   2   2   2   2   2   2
#     4  12  23  38  65  95 131 172 209 263 331 391
#     4  12  21  42  67  93 129 170 213 267 325 387
#     4  11  24  42  67  89 126 173 223 267 316 378
#     4  11  21  36  63  93 131 166 210 253 324 400
#     4  10  24  43  68  91 123 174 227 273 316 363
#     4  11  21  36  62  96 129 167 208 261 329 394
#     4  11  23  42  62  95 133 166 216 273 317 384
#     4  12  24  39  62 102 139 165 204 263 333 402
#
# _framework density 21.373646999999998
#
# number of rings (size 3 to 8) (size 9 to 14) (size 15 to 20)
#    0.000    0.750    3.750    5.625    1.750    1.500 
#    0.000    0.000    5.500    4.500    0.000    0.000 
#    0.000    0.000    0.000    0.000    0.000    0.000 
#
# Total GULP energy -198231.999361 kJ/mol
# GULP energy per Si atom -12389.499960 kJ/mol
# Density = 2.132500 g / cm^3
# Si number density = 21.373647 Si / 1000 Ang^3
#
#
#
# Elastic Constant Matrix: (Units=GPa)
#
#
# Indices 1 2 3 4 5 6 
#
# 1 85.6030 31.4020 30.1119 -5.4049 -14.6098 -15.7422
# 2 31.4020 88.6507 40.5557 4.5939 4.2271 -2.2892
# 3 30.1119 40.5557 127.0961 -2.2746 -7.3875 3.0121
# 4 -5.4049 4.5939 -2.2746 25.1556 -6.5489 -6.0701
# 5 -14.6098 4.2271 -7.3875 -6.5489 29.8855 -0.6021
# 6 -15.7422 -2.2892 3.0121 -6.0701 -0.6021 38.9466
#
#
#
# Elastic Compliance Matrix: (Units=1/GPa)
#
#
# Indices 1 2 3 4 5 6 
#
# 1 0.019443 -0.007059 -0.001646 0.010902 0.012676 0.009466
# 2 -0.007059 0.016409 -0.004132 -0.007822 -0.008566 -0.002921
# 3 -0.001646 -0.004132 0.009785 0.001611 0.002524 -0.001375
# 4 0.010902 -0.007822 0.001611 0.051364 0.018334 0.012111
# 5 0.012676 -0.008566 0.002524 0.018334 0.045672 0.007988
# 6 0.009466 -0.002921 -0.001375 0.012111 0.007988 0.031448
#
#
# Mechanical properties :
#
#
# Convention : Reuss Voigt Hill
#
# Bulk Modulus (GPa) = 50.09554 56.16543 53.13048
# Shear Modulus (GPa) = 24.21883 32.08291 28.15087
#
# Velocity S-wave (km/s) = 3.36983 3.87854 3.63310
# Velocity P-wave (km/s) = 6.21529 6.81120 6.52006
#
# Compressibility (1/GPa) = 0.01996186
#
# Stress axis : x y z
#
# Youngs Moduli (GPa) = 51.43245 60.94040 102.19817
#
# Poissons Ratio (x) = 0.43017 0.16827
# Poissons Ratio (y) = 0.36305 0.42233
# Poissons Ratio (z) = 0.08468 0.25183
#
# Static dielectric constant tensor:
#      x y z
#    x 4.294610 -0.354930 -0.097090 
#    y -0.354930 4.046990 0.268270 
#    z -0.097090 0.268270 3.990700 
# 
# 
# High freq. dielectric constant tensor:
#      x y z
#    x 1.838470 -0.021690 -0.017400 
#    y -0.021690 1.838460 0.011260 
#    z -0.017400 0.011260 1.837770 
# 
# From -- ./inp_files/611771.got.cif
#   From: 2010.06.25/outbox.cif.g09.slc.cpg/sg2_306_cif.got.tgz:611771.got - 2010.06.27 13:26:56.
