data_PCOD8026085
_publ_section_title
;
Structure prediction by ZEFSAII (Michael W. Deem and Ramdas Pophale) SiO2 
 PCOD8026085
Probable space group: P -1
;
_chemical_formula_sum "Si O2"
_cell_formula_units_Z 16
_cell_length_a 11.929819
_cell_length_b 8.033094
_cell_length_c 8.254155
_cell_angle_alpha 58.662754
_cell_angle_beta 92.799063
_cell_angle_gamma 76.931035
_cell_volume 644.827295
_symmetry_space_group_name_H-M "P -1"
_symmetry_group_IT_number 2
_symmetry_cell_setting 'triclinic'
loop_
_space_group_symop_operation_xyz
x,y,z
-x,-y,-z
loop_
_atom_site_type_symbol
_atom_site_label
_atom_site_fract_x
_atom_site_fract_y
_atom_site_fract_z
Si Si1 0.192309 0.690345 0.428715
Si Si2 0.754110 0.955675 0.225270
Si Si3 0.015170 0.215112 0.845142
Si Si4 0.718611 0.613135 0.899659
Si Si5 0.159313 0.095360 0.399072
Si Si6 0.913272 0.427852 0.215444
Si Si7 0.588850 0.780731 0.135152
Si Si8 0.627682 0.348518 0.801887
O O1 0.181390 0.557082 0.652120
O O2 0.320004 0.631230 0.383213
O O3 0.105581 0.646824 0.309646
O O4 0.154116 0.929123 0.350232
O O5 0.884922 0.824595 0.260489
O O6 0.771255 0.020401 0.378181
O O7 0.675646 0.797836 0.280586
O O8 0.703062 0.142848 0.003684
O O9 0.048569 0.362088 0.907926
O O10 0.000000 0.000000 0.000000
O O11 0.836281 0.426221 0.049365
O O12 0.656283 0.719656 0.002714
O O13 0.757570 0.777067 0.717698
O O14 0.629926 0.534848 0.824028
O O15 0.023428 0.229174 0.348806
O O16 0.509378 0.632218 0.244827
O O17 0.500000 0.000000 0.000000
#
# Coordination Sequence:
#
# PCOD8026085 Si02
#       8
#     2   2   2   2   2   2   2   2
#     4  12  25  43  67 102 146 184 227 280 343 411
#     4  11  23  44  69  99 140 180 228 282 345 411
#     4  12  23  40  69  97 141 181 224 279 350 404
#     4  12  25  44  69 103 137 178 241 282 343 414
#     4  12  26  42  67 105 145 185 228 280 346 416
#     4  12  26  43  67 104 148 183 226 284 342 418
#     4  10  23  48  72  96 134 183 230 292 345 402
#     4  11  25  45  73 100 136 185 234 286 344 402
#
# _framework density 24.812843999999998
#
# number of rings (size 3 to 8) (size 9 to 14) (size 15 to 20)
#    0.000    0.500    3.750    5.250    3.500    0.000 
#    0.000    9.375    0.000    0.000    0.000    0.000 
#    0.000    0.000    0.000    0.000    0.000    0.000 
#
# Total GULP energy -198307.693243 kJ/mol
# GULP energy per Si atom -12394.230828 kJ/mol
# Density = 2.475637 g / cm^3
# Si number density = 24.812844 Si / 1000 Ang^3
#
#
#
# Elastic Constant Matrix: (Units=GPa)
#
#
# Indices 1 2 3 4 5 6 
#
# 1 106.2058 -0.7902 44.3429 15.2711 -7.2254 19.3779
# 2 -0.7902 76.9512 13.4181 9.9232 7.3012 16.4492
# 3 44.3429 13.4181 55.8187 -3.3661 -4.8535 1.0583
# 4 15.2711 9.9232 -3.3661 34.5401 4.7475 -4.0075
# 5 -7.2254 7.3012 -4.8535 4.7475 27.0409 2.7418
# 6 19.3779 16.4492 1.0583 -4.0075 2.7418 43.1296
#
#
#
# Elastic Compliance Matrix: (Units=1/GPa)
#
#
# Indices 1 2 3 4 5 6 
#
# 1 0.024753 0.009526 -0.022329 -0.018415 0.004913 -0.016230
# 2 0.009526 0.019798 -0.012982 -0.012390 -0.001682 -0.012556
# 3 -0.022329 -0.012982 0.039610 0.019348 -0.000354 0.015832
# 4 -0.018415 -0.012390 0.019348 0.045622 -0.007863 0.017263
# 5 0.004913 -0.001682 -0.000354 -0.007863 0.040558 -0.004866
# 6 -0.016230 -0.012556 0.015832 0.017263 -0.004866 0.036792
#
#
# Mechanical properties :
#
#
# Convention : Reuss Voigt Hill
#
# Bulk Modulus (GPa) = 30.68415 39.21305 34.94860
# Shear Modulus (GPa) = 18.54822 33.07578 25.81200
#
# Velocity S-wave (km/s) = 2.73706 3.65500 3.22882
# Velocity P-wave (km/s) = 4.73093 5.80085 5.29300
#
# Compressibility (1/GPa) = 0.03259012
#
# Stress axis : x y z
#
# Youngs Moduli (GPa) = 40.39964 50.50976 25.24604
#
# Poissons Ratio (x) = -0.48114 0.56372
# Poissons Ratio (y) = -0.38483 0.32774
# Poissons Ratio (z) = 0.90209 0.65571
#
# Static dielectric constant tensor:
#      x y z
#    x 1.938500 0.685040 -2.003160 
#    y 0.685040 4.576460 0.153740 
#    z -2.003160 0.153740 3.278200 
# 
# 
# High freq. dielectric constant tensor:
#      x y z
#    x 2.003050 0.016760 -0.007340 
#    y 0.016760 1.989320 0.002920 
#    z -0.007340 0.002920 1.979860 
# 
# From -- ./inp_files/237154.got.cif
#   From: 2010.06.25/outbox.cif.g09.slc.cpg/sg2_119_cif.got.tgz:237154.got - 2010.06.27 13:26:56.
