data_PCOD8026957
_publ_section_title
;
Structure prediction by ZEFSAII (Michael W. Deem and Ramdas Pophale) SiO2 
 PCOD8026957
Probable space group: P -1
;
_chemical_formula_sum "Si O2"
_cell_formula_units_Z 16
_cell_length_a 14.616040
_cell_length_b 9.236982
_cell_length_c 9.209204
_cell_angle_alpha 77.621201
_cell_angle_beta 49.813789
_cell_angle_gamma 106.582458
_cell_volume 763.661836
_symmetry_space_group_name_H-M "P -1"
_symmetry_group_IT_number 2
_symmetry_cell_setting 'triclinic'
loop_
_space_group_symop_operation_xyz
x,y,z
-x,-y,-z
loop_
_atom_site_type_symbol
_atom_site_label
_atom_site_fract_x
_atom_site_fract_y
_atom_site_fract_z
Si Si1 0.345654 0.471327 0.169772
Si Si2 0.620343 0.992482 0.202915
Si Si3 0.130116 0.779898 0.600455
Si Si4 0.820966 0.879488 0.067339
Si Si5 0.354369 0.817519 0.138491
Si Si6 0.690744 0.228310 0.342051
Si Si7 0.849062 0.882785 0.369893
Si Si8 0.201491 0.427362 0.020964
O O1 0.365699 0.648832 0.178063
O O2 0.237141 0.306573 0.420175
O O3 0.279188 0.428530 0.086565
O O4 0.500000 0.500000 0.000000
O O5 0.708059 0.905369 0.093164
O O6 0.447626 0.840316 0.396307
O O7 0.658723 0.061459 0.313906
O O8 0.670513 0.159508 0.009434
O O9 0.218579 0.787036 0.370388
O O10 0.169333 0.706107 0.715800
O O11 0.962516 0.637563 0.762741
O O12 0.167600 0.977374 0.552395
O O13 0.785522 0.857631 0.279281
O O14 0.799301 0.700011 0.070943
O O15 0.983364 0.050206 0.829106
O O16 0.500000 0.000000 0.000000
O O17 0.710370 0.378721 0.183150
#
# Coordination Sequence:
#
# PCOD8026957 Si02
#       8
#     2   2   2   2   2   2   2   2
#     4  12  29  45  67  97 141 172 219 279 331 403
#     4  11  24  41  72  93 132 178 225 273 331 392
#     4  11  24  44  71  95 139 175 221 277 326 400
#     4  10  24  43  72  96 132 174 226 270 327 399
#     4  12  26  45  68 100 129 179 223 270 340 394
#     4  11  23  44  67  97 135 174 224 281 328 383
#     4  10  24  46  66 100 134 178 216 273 335 384
#     4  11  27  44  66 103 131 179 221 273 338 391
#
# _framework density 20.951682999999999
#
# number of rings (size 3 to 8) (size 9 to 14) (size 15 to 20)
#    0.000    1.000    3.750    1.125    8.750    3.000 
#    0.000    0.000    0.000    0.000    0.000    0.000 
#    0.000    0.000    0.000    0.000    0.000    0.000 
#
# Total GULP energy -198480.957794 kJ/mol
# GULP energy per Si atom -12405.059862 kJ/mol
# Density = 2.090400 g / cm^3
# Si number density = 20.951683 Si / 1000 Ang^3
#
#
#
# Elastic Constant Matrix: (Units=GPa)
#
#
# Indices 1 2 3 4 5 6 
#
# 1 135.2037 29.4053 56.8553 1.1477 -4.3194 -11.0840
# 2 29.4053 99.0347 59.7311 -2.0246 -4.9600 -13.0570
# 3 56.8553 59.7311 142.9641 -4.2911 8.5299 -16.8980
# 4 1.1477 -2.0246 -4.2911 36.5123 -7.9131 1.1505
# 5 -4.3194 -4.9600 8.5299 -7.9131 29.5309 1.7404
# 6 -11.0840 -13.0570 -16.8980 1.1505 1.7404 36.3111
#
#
#
# Elastic Compliance Matrix: (Units=1/GPa)
#
#
# Indices 1 2 3 4 5 6 
#
# 1 0.009090 -0.000373 -0.003486 -0.000281 0.002144 0.000924
# 2 -0.000373 0.014173 -0.005744 0.000949 0.004117 0.002082
# 3 -0.003486 -0.005744 0.011356 -0.000011 -0.004899 0.002390
# 4 -0.000281 0.000949 -0.000011 0.029218 0.008013 -0.001059
# 5 0.002144 0.004117 -0.004899 0.008013 0.038562 -0.002247
# 6 0.000924 0.002082 0.002390 -0.001059 -0.002247 0.029824
#
#
# Mechanical properties :
#
#
# Convention : Reuss Voigt Hill
#
# Bulk Modulus (GPa) = 64.88570 74.35399 69.61985
# Shear Modulus (GPa) = 31.93516 35.88493 33.91005
#
# Velocity S-wave (km/s) = 3.90837 4.14302 4.02741
# Velocity P-wave (km/s) = 7.16963 7.64536 7.41131
#
# Compressibility (1/GPa) = 0.01541172
#
# Stress axis : x y z
#
# Youngs Moduli (GPa) = 110.01022 70.55784 88.06176
#
# Poissons Ratio (x) = 0.02630 0.30702
# Poissons Ratio (y) = 0.04100 0.50585
# Poissons Ratio (z) = 0.38354 0.40530
#
# Static dielectric constant tensor:
#      x y z
#    x 3.932340 -0.004480 -0.020930 
#    y -0.004480 3.740310 0.059420 
#    z -0.020930 0.059420 3.898280 
# 
# 
# High freq. dielectric constant tensor:
#      x y z
#    x 1.831340 -0.003840 0.000460 
#    y -0.003840 1.823220 0.006140 
#    z 0.000460 0.006140 1.828520 
# 
# From -- ./inp_files/205721.got.cif
#   From: 2010.06.25/outbox.cif.g09.slc.cpg/sg2_103_cif.got.tgz:205721.got - 2010.06.27 13:26:56.
