data_PCOD8026648
_publ_section_title
;
Structure prediction by ZEFSAII (Michael W. Deem and Ramdas Pophale) SiO2 
 PCOD8026648
Probable space group: P -1
;
_chemical_formula_sum "Si O2"
_cell_formula_units_Z 14
_cell_length_a 17.798005
_cell_length_b 9.338779
_cell_length_c 9.158304
_cell_angle_alpha 59.429308
_cell_angle_beta 150.237487
_cell_angle_gamma 120.262333
_cell_volume 643.623727
_symmetry_space_group_name_H-M "P -1"
_symmetry_group_IT_number 2
_symmetry_cell_setting 'triclinic'
loop_
_space_group_symop_operation_xyz
x,y,z
-x,-y,-z
loop_
_atom_site_type_symbol
_atom_site_label
_atom_site_fract_x
_atom_site_fract_y
_atom_site_fract_z
Si Si1 0.570013 0.833816 0.730448
Si Si2 0.915942 0.390063 0.638149
Si Si3 0.170334 0.278401 0.312316
Si Si4 0.656454 0.617198 0.728271
Si Si5 0.871293 0.337971 0.269507
Si Si6 0.647231 0.433837 0.343168
Si Si7 0.163654 0.024346 0.684228
O O1 0.645330 0.758393 0.757188
O O2 0.416897 0.713439 0.580194
O O3 0.500000 0.000000 0.500000
O O4 0.703687 0.860734 0.062913
O O5 0.929028 0.301749 0.548632
O O6 0.738294 0.369132 0.394463
O O7 0.987398 0.588350 0.637058
O O8 0.004875 0.299303 0.958096
O O9 0.289993 0.277734 0.381673
O O10 0.230296 0.433518 0.436968
O O11 0.152784 0.106443 0.463624
O O12 0.500000 0.500000 0.500000
O O13 0.769647 0.487580 0.031959
O O14 0.787948 0.161817 0.156427
O O15 0.500000 0.500000 0.000000
O O16 0.000000 0.000000 0.500000
#
# Coordination Sequence:
#
# PCOD8026648 Si02
#       7
#     2   2   2   2   2   2   2
#     4  12  28  46  70 106 141 183 230 295 358 409
#     4  10  24  42  73 100 138 188 240 282 351 427
#     4  11  25  43  73 104 138 187 237 287 354 417
#     4  11  23  47  75 101 143 183 238 287 350 426
#     4  10  24  45  72 103 140 191 233 287 356 418
#     4  12  23  44  69 104 139 184 232 289 351 423
#     4  12  28  45  70 105 148 180 235 296 352 412
#
# _framework density 21.751836999999998
#
# number of rings (size 3 to 8) (size 9 to 14) (size 15 to 20)
#    0.000    0.857    2.857    3.000   10.000    1.714 
#    0.000    2.143    0.000    0.000    0.000    0.000 
#    0.000    0.000    0.000    0.000    0.000    0.000 
#
# Total GULP energy -173576.020865 kJ/mol
# GULP energy per Si atom -12398.287205 kJ/mol
# Density = 2.170233 g / cm^3
# Si number density = 21.751837 Si / 1000 Ang^3
#
#
#
# Elastic Constant Matrix: (Units=GPa)
#
#
# Indices 1 2 3 4 5 6 
#
# 1 154.4682 49.7141 47.3660 -17.1278 4.8823 13.9912
# 2 49.7141 103.4639 16.6671 -15.6126 -2.8189 -3.9119
# 3 47.3660 16.6671 109.9544 -7.3919 -0.7349 -1.6716
# 4 -17.1278 -15.6126 -7.3919 37.3218 3.4660 -2.4621
# 5 4.8823 -2.8189 -0.7349 3.4660 41.3107 2.7939
# 6 13.9912 -3.9119 -1.6716 -2.4621 2.7939 38.8377
#
#
#
# Elastic Compliance Matrix: (Units=1/GPa)
#
#
# Indices 1 2 3 4 5 6 
#
# 1 0.009325 -0.003827 -0.003374 0.001892 -0.001333 -0.003674
# 2 -0.003827 0.012136 0.000088 0.003446 0.000806 0.002765
# 3 -0.003374 0.000088 0.010608 0.000661 0.000424 0.001693
# 4 0.001892 0.003446 0.000661 0.029590 -0.002578 0.001755
# 5 -0.001333 0.000806 0.000424 -0.002578 0.024735 -0.001363
# 6 -0.003674 0.002765 0.001693 0.001755 -0.001363 0.027632
#
#
# Mechanical properties :
#
#
# Convention : Reuss Voigt Hill
#
# Bulk Modulus (GPa) = 56.04592 66.15341 61.09967
# Shear Modulus (GPa) = 37.25756 40.43666 38.84711
#
# Velocity S-wave (km/s) = 4.14314 4.31629 4.23060
# Velocity P-wave (km/s) = 6.97922 7.43769 7.21210
#
# Compressibility (1/GPa) = 0.01784251
#
# Stress axis : x y z
#
# Youngs Moduli (GPa) = 107.24017 82.39773 94.26818
#
# Poissons Ratio (x) = 0.31532 0.31811
# Poissons Ratio (y) = 0.41038 -0.00829
# Poissons Ratio (z) = 0.36188 -0.00724
#
# Static dielectric constant tensor:
#      x y z
#    x 3.872450 -0.239450 -0.237670 
#    y -0.239450 3.534130 -0.171190 
#    z -0.237670 -0.171190 3.785950 
# 
# 
# High freq. dielectric constant tensor:
#      x y z
#    x 1.868750 0.009380 -0.003410 
#    y 0.009380 1.849190 0.006340 
#    z -0.003410 0.006340 1.863580 
# 
# From -- ./inp_files/186477.got.cif
#   From: 2010.06.25/outbox.cif.g09.slc.cpg/sg2_94_cif.got.tgz:186477.got - 2010.06.27 13:26:56.
