data_PCOD8026326
_publ_section_title
;
Structure prediction by ZEFSAII (Michael W. Deem and Ramdas Pophale) SiO2 
 PCOD8026326
Probable space group: P -1
;
_chemical_formula_sum "Si O2"
_cell_formula_units_Z 16
_cell_length_a 14.843648
_cell_length_b 8.239950
_cell_length_c 20.734629
_cell_angle_alpha 39.926535
_cell_angle_beta 30.599600
_cell_angle_gamma 39.388309
_cell_volume 777.600147
_symmetry_space_group_name_H-M "P -1"
_symmetry_group_IT_number 2
_symmetry_cell_setting 'triclinic'
loop_
_space_group_symop_operation_xyz
x,y,z
-x,-y,-z
loop_
_atom_site_type_symbol
_atom_site_label
_atom_site_fract_x
_atom_site_fract_y
_atom_site_fract_z
Si Si1 0.778085 0.017280 0.705329
Si Si2 0.554872 0.479335 0.792497
Si Si3 0.229468 0.210340 0.905153
Si Si4 0.338090 0.147106 0.604963
Si Si5 0.515497 0.058341 0.658574
Si Si6 0.533873 0.242484 0.014012
Si Si7 0.807377 0.247904 0.482517
Si Si8 0.805894 0.303829 0.137080
O O1 0.653387 0.832576 0.849859
O O2 0.991110 0.857790 0.645511
O O3 0.693824 0.300144 0.707741
O O4 0.789051 0.061341 0.609190
O O5 0.338779 0.586828 0.866676
O O6 0.619762 0.734613 0.688587
O O7 0.577996 0.297971 0.896853
O O8 0.362923 0.107484 0.793881
O O9 0.249733 0.486563 0.833419
O O10 0.289987 0.999046 0.991597
O O11 0.017773 0.256853 0.997615
O O12 0.417964 0.174212 0.617030
O O13 0.228465 0.453552 0.558199
O O14 0.500000 0.000000 0.500000
O O15 0.197931 0.978664 0.747154
O O16 0.657931 0.219554 0.531632
O O17 0.500000 0.500000 0.000000
#
# Coordination Sequence:
#
# PCOD8026326 Si02
#       8
#     2   2   2   2   2   2   2   2
#     4  11  24  41  65  91 131 163 208 259 313 376
#     4  11  22  42  66  93 127 166 207 260 322 372
#     4  11  22  43  66  94 132 159 212 264 322 368
#     4  11  24  42  65  90 128 169 213 255 312 371
#     4  11  22  42  66  88 127 166 207 263 313 368
#     4  12  23  41  67  93 130 165 207 263 320 374
#     4  11  23  42  63  94 124 169 211 256 308 375
#     4  10  24  41  66  96 127 167 208 265 313 377
#
# _framework density 20.576127
#
# number of rings (size 3 to 8) (size 9 to 14) (size 15 to 20)
#    0.000    1.000    3.750    3.000    1.750    3.500 
#    4.500    0.000    0.000    0.000    0.000    0.000 
#    0.000    0.000    0.000    0.000    0.000    0.000 
#
# Total GULP energy -198441.547450 kJ/mol
# GULP energy per Si atom -12402.596716 kJ/mol
# Density = 2.052929 g / cm^3
# Si number density = 20.576127 Si / 1000 Ang^3
#
#
#
# Elastic Constant Matrix: (Units=GPa)
#
#
# Indices 1 2 3 4 5 6 
#
# 1 72.4891 24.2608 28.6762 3.7018 -8.9559 5.6952
# 2 24.2608 116.7555 42.3028 2.6398 -28.6897 15.1010
# 3 28.6762 42.3028 53.9864 0.2403 -3.3970 4.7840
# 4 3.7018 2.6398 0.2403 37.3607 1.2532 -3.7569
# 5 -8.9559 -28.6897 -3.3970 1.2532 24.2888 -9.3862
# 6 5.6952 15.1010 4.7840 -3.7569 -9.3862 37.5195
#
#
#
# Elastic Compliance Matrix: (Units=1/GPa)
#
#
# Indices 1 2 3 4 5 6 
#
# 1 0.018535 0.002155 -0.010987 -0.002235 0.007739 -0.000568
# 2 0.002155 0.018442 -0.014213 -0.002215 0.020285 -0.001084
# 3 -0.010987 -0.014213 0.034529 0.002333 -0.016480 -0.000904
# 4 -0.002235 -0.002215 0.002333 0.027529 -0.003441 0.002829
# 5 0.007739 0.020285 -0.016480 -0.003441 0.069663 0.009845
# 6 -0.000568 -0.001084 -0.000904 0.002829 0.009845 0.030037
#
#
# Mechanical properties :
#
#
# Convention : Reuss Voigt Hill
#
# Bulk Modulus (GPa) = 39.34503 48.19008 43.76755
# Shear Modulus (GPa) = 19.73985 29.69988 24.71986
#
# Velocity S-wave (km/s) = 3.10071 3.80335 3.46986
# Velocity P-wave (km/s) = 5.65530 6.53900 6.11314
#
# Compressibility (1/GPa) = 0.02541617
#
# Stress axis : x y z
#
# Youngs Moduli (GPa) = 53.95168 54.22526 28.96146
#
# Poissons Ratio (x) = -0.11685 0.31819
# Poissons Ratio (y) = -0.11626 0.41162
# Poissons Ratio (z) = 0.59275 0.77069
#
# Static dielectric constant tensor:
#      x y z
#    x 3.719390 0.100030 -0.189150 
#    y 0.100030 3.887710 -0.071570 
#    z -0.189150 -0.071570 3.695640 
# 
# 
# High freq. dielectric constant tensor:
#      x y z
#    x 1.807820 0.011260 -0.003130 
#    y 0.011260 1.817560 -0.009660 
#    z -0.003130 -0.009660 1.802520 
# 
# From -- ./inp_files/532703.got.cif
#   From: 2010.06.25/outbox.cif.g09.slc.cpg/sg2_267_cif.got.tgz:532703.got - 2010.06.27 13:26:56.
