data_PCOD8026010
_publ_section_title
;
Structure prediction by ZEFSAII (Michael W. Deem and Ramdas Pophale) SiO2 
 PCOD8026010
Probable space group: P -1
;
_chemical_formula_sum "Si O2"
_cell_formula_units_Z 16
_cell_length_a 9.465228
_cell_length_b 21.788940
_cell_length_c 24.329463
_cell_angle_alpha 162.009825
_cell_angle_beta 144.932088
_cell_angle_gamma 28.516813
_cell_volume 734.783110
_symmetry_space_group_name_H-M "P -1"
_symmetry_group_IT_number 2
_symmetry_cell_setting 'triclinic'
loop_
_space_group_symop_operation_xyz
x,y,z
-x,-y,-z
loop_
_atom_site_type_symbol
_atom_site_label
_atom_site_fract_x
_atom_site_fract_y
_atom_site_fract_z
Si Si1 0.794200 0.208062 0.382794
Si Si2 0.268888 0.458584 0.217458
Si Si3 0.425301 0.507565 0.117552
Si Si4 0.359755 0.031023 0.263378
Si Si5 0.322684 0.768480 0.417108
Si Si6 0.196229 0.161651 0.855042
Si Si7 0.709758 0.313845 0.326386
Si Si8 0.244304 0.272414 0.638444
O O1 0.792970 0.148844 0.267315
O O2 0.459267 0.414373 0.472162
O O3 0.020349 0.288380 0.534144
O O4 0.904873 0.974046 0.254797
O O5 0.334974 0.649795 0.378526
O O6 0.492677 0.298704 0.202165
O O7 0.931742 0.609758 0.260692
O O8 0.310287 0.286714 0.035493
O O9 0.423547 0.567638 0.231873
O O10 0.620013 0.578906 0.208205
O O11 0.087067 0.645472 0.106607
O O12 0.574481 0.225167 0.916595
O O13 0.528008 0.014938 0.247296
O O14 0.463870 0.136769 0.433836
O O15 0.006115 0.226849 0.311964
O O16 0.000000 0.000000 0.500000
O O17 0.500000 0.000000 0.500000
#
# Coordination Sequence:
#
# PCOD8026010 Si02
#       8
#     2   2   2   2   2   2   2   2
#     4  10  23  47  71  98 135 183 230 288 338 405
#     4  11  26  44  66 102 138 184 229 287 338 405
#     4  12  25  44  68 110 139 172 228 289 347 416
#     4  12  25  45  71 103 139 186 225 279 344 415
#     4  12  23  44  74  99 142 178 221 285 356 401
#     4  12  24  44  69 101 141 175 230 288 347 405
#     4  10  25  47  66  99 134 186 237 272 341 403
#     4  11  22  44  71 102 136 177 231 284 353 408
#
# _framework density 21.775134000000001
#
# number of rings (size 3 to 8) (size 9 to 14) (size 15 to 20)
#    0.000    0.750    3.750    4.125    1.750    4.500 
#    6.750    0.000    0.000    0.000    0.000    0.000 
#    0.000    0.000    0.000    0.000    0.000    0.000 
#
# Total GULP energy -198417.874671 kJ/mol
# GULP energy per Si atom -12401.117167 kJ/mol
# Density = 2.172557 g / cm^3
# Si number density = 21.775134 Si / 1000 Ang^3
#
#
#
# Elastic Constant Matrix: (Units=GPa)
#
#
# Indices 1 2 3 4 5 6 
#
# 1 103.3199 47.2875 30.7669 -10.7796 0.9032 -2.3444
# 2 47.2875 116.8865 39.2907 -10.6958 -17.1011 -5.6504
# 3 30.7669 39.2907 75.1798 -24.6991 -1.0402 1.0627
# 4 -10.7796 -10.6958 -24.6991 28.3349 -2.7139 -5.9837
# 5 0.9032 -17.1011 -1.0402 -2.7139 39.5221 4.0233
# 6 -2.3444 -5.6504 1.0627 -5.9837 4.0233 41.6544
#
#
#
# Elastic Compliance Matrix: (Units=1/GPa)
#
#
# Indices 1 2 3 4 5 6 
#
# 1 0.012611 -0.004462 -0.002638 0.000698 -0.002291 0.000493
# 2 -0.004462 0.012826 -0.004965 -0.000451 0.005385 0.001030
# 3 -0.002638 -0.004965 0.022519 0.016937 -0.000442 0.001079
# 4 0.000698 -0.000451 0.016937 0.051864 0.003115 0.006696
# 5 -0.002291 0.005385 -0.000442 0.003115 0.028055 -0.001649
# 6 0.000493 0.001030 0.001079 0.006696 -0.001649 0.025268
#
#
# Mechanical properties :
#
#
# Convention : Reuss Voigt Hill
#
# Bulk Modulus (GPa) = 41.97308 58.89739 50.43524
# Shear Modulus (GPa) = 26.99566 33.77169 30.38368
#
# Velocity S-wave (km/s) = 3.52482 3.94246 3.73948
# Velocity P-wave (km/s) = 5.99027 6.91597 6.46970
#
# Compressibility (1/GPa) = 0.02382479
#
# Stress axis : x y z
#
# Youngs Moduli (GPa) = 79.29801 77.96608 44.40726
#
# Poissons Ratio (x) = 0.34792 0.11714
# Poissons Ratio (y) = 0.35386 0.22049
# Poissons Ratio (z) = 0.20918 0.38711
#
# Static dielectric constant tensor:
#      x y z
#    x 4.158500 0.056740 -0.053510 
#    y 0.056740 3.998670 -0.083760 
#    z -0.053510 -0.083760 3.912810 
# 
# 
# High freq. dielectric constant tensor:
#      x y z
#    x 1.865500 -0.000250 -0.006680 
#    y -0.000250 1.857080 -0.003840 
#    z -0.006680 -0.003840 1.853800 
# 
# From -- ./inp_files/532691.got.cif
#   From: 2010.06.25/outbox.cif.g09.slc.cpg/sg2_267_cif.got.tgz:532691.got - 2010.06.27 13:26:56.
