data_PCOD8026705
_publ_section_title
;
Structure prediction by ZEFSAII (Michael W. Deem and Ramdas Pophale) SiO2 
 PCOD8026705
Probable space group: P -1
;
_chemical_formula_sum "Si O2"
_cell_formula_units_Z 12
_cell_length_a 20.446664
_cell_length_b 8.072608
_cell_length_c 11.728568
_cell_angle_alpha 141.171295
_cell_angle_beta 156.146051
_cell_angle_gamma 42.146958
_cell_volume 487.656952
_symmetry_space_group_name_H-M "P -1"
_symmetry_group_IT_number 2
_symmetry_cell_setting 'triclinic'
loop_
_space_group_symop_operation_xyz
x,y,z
-x,-y,-z
loop_
_atom_site_type_symbol
_atom_site_label
_atom_site_fract_x
_atom_site_fract_y
_atom_site_fract_z
Si Si1 0.877769 0.252371 0.904318
Si Si2 0.691543 0.272715 0.073525
Si Si3 0.812206 0.499467 0.164751
Si Si4 0.098855 0.232185 0.921534
Si Si5 0.238432 0.910600 0.590917
Si Si6 0.331506 0.410477 0.581720
O O1 0.948750 0.502412 0.087795
O O2 0.752564 0.139899 0.557476
O O3 0.787241 0.351787 0.927979
O O4 0.000000 0.000000 0.000000
O O5 0.719409 0.348102 0.028782
O O6 0.738508 0.508463 0.359372
O O7 0.502375 0.224501 0.761476
O O8 0.804502 0.993431 0.126537
O O9 0.000000 0.500000 0.500000
O O10 0.722329 0.794755 0.163990
O O11 0.061459 0.868771 0.337514
O O12 0.205275 0.285056 0.231670
O O13 0.370877 0.697465 0.747432
#
# Coordination Sequence:
#
# PCOD8026705 Si02
#       6
#     2   2   2   2   2   2
#     4  11  22  38  59  94 126 160 205 257 319 356
#     4  11  24  43  64  92 128 170 205 258 313 375
#     4  12  24  37  62  94 130 161 207 258 310 369
#     4  11  23  40  68  91 126 163 215 259 304 377
#     4  11  24  40  65  96 124 166 210 260 308 369
#     4  10  24  43  65  91 125 168 214 252 314 373
#
# _framework density 24.607462999999999
#
# number of rings (size 3 to 8) (size 9 to 14) (size 15 to 20)
#    0.000    1.000    3.333    3.500    4.667    3.333 
#    0.000    3.333    0.000    0.000    0.000    0.000 
#    0.000    0.000    0.000    0.000    0.000    0.000 
#
# Total GULP energy -148722.892213 kJ/mol
# GULP energy per Si atom -12393.574351 kJ/mol
# Density = 2.455146 g / cm^3
# Si number density = 24.607463 Si / 1000 Ang^3
#
#
#
# Elastic Constant Matrix: (Units=GPa)
#
#
# Indices 1 2 3 4 5 6 
#
# 1 134.3888 36.5719 43.7849 14.8745 -40.9326 -12.8598
# 2 36.5719 133.6876 14.6067 15.7564 0.7028 -6.2173
# 3 43.7849 14.6067 52.6105 -3.5732 -10.1108 -9.5197
# 4 14.8745 15.7564 -3.5732 35.0616 -0.4344 -6.0087
# 5 -40.9326 0.7028 -10.1108 -0.4344 30.7674 7.3051
# 6 -12.8598 -6.2173 -9.5197 -6.0087 7.3051 46.6025
#
#
#
# Elastic Compliance Matrix: (Units=1/GPa)
#
#
# Indices 1 2 3 4 5 6 
#
# 1 0.020215 -0.003415 -0.012353 -0.008377 0.023301 -0.002133
# 2 -0.003415 0.008843 -0.000670 -0.002558 -0.005138 0.000576
# 3 -0.012353 -0.000670 0.029509 0.009300 -0.007765 0.004946
# 4 -0.008377 -0.002558 0.009300 0.034943 -0.008754 0.005124
# 5 0.023301 -0.005138 -0.007765 -0.008754 0.062552 -0.006776
# 6 -0.002133 0.000576 0.004946 0.005124 -0.006776 0.023679
#
#
# Mechanical properties :
#
#
# Convention : Reuss Voigt Hill
#
# Bulk Modulus (GPa) = 38.92404 56.73488 47.82946
# Shear Modulus (GPa) = 22.60600 37.53454 30.07027
#
# Velocity S-wave (km/s) = 3.03424 3.90979 3.49950
# Velocity P-wave (km/s) = 5.30356 6.59454 5.98397
#
# Compressibility (1/GPa) = 0.02569106
#
# Stress axis : x y z
#
# Youngs Moduli (GPa) = 49.46763 113.08573 33.88828
#
# Poissons Ratio (x) = 0.38617 0.41862
# Poissons Ratio (y) = 0.16892 0.02271
# Poissons Ratio (z) = 0.61107 0.07578
#
# Static dielectric constant tensor:
#      x y z
#    x 4.790040 -0.111320 -0.629110 
#    y -0.111320 5.242440 0.162700 
#    z -0.629110 0.162700 4.167930 
# 
# 
# High freq. dielectric constant tensor:
#      x y z
#    x 1.981110 -0.004520 -0.036970 
#    y -0.004520 1.999730 0.006380 
#    z -0.036970 0.006380 1.950360 
# 
# From -- ./inp_files/294358.got.cif
#   From: 2010.06.25/outbox.cif.g09.slc.cpg/sg2_148_cif.got.tgz:294358.got - 2010.06.27 13:26:56.
