data_PCOD8026283
_publ_section_title
;
Structure prediction by ZEFSAII (Michael W. Deem and Ramdas Pophale) SiO2 
 PCOD8026283
Probable space group: P -1
;
_chemical_formula_sum "Si O2"
_cell_formula_units_Z 14
_cell_length_a 14.269242
_cell_length_b 26.009891
_cell_length_c 14.629237
_cell_angle_alpha 20.337774
_cell_angle_beta 159.687541
_cell_angle_gamma 157.365729
_cell_volume 610.736741
_symmetry_space_group_name_H-M "P -1"
_symmetry_group_IT_number 2
_symmetry_cell_setting 'triclinic'
loop_
_space_group_symop_operation_xyz
x,y,z
-x,-y,-z
loop_
_atom_site_type_symbol
_atom_site_label
_atom_site_fract_x
_atom_site_fract_y
_atom_site_fract_z
Si Si1 0.832617 0.614450 0.629033
Si Si2 0.583446 0.215713 0.631291
Si Si3 0.224344 0.874432 0.867855
Si Si4 0.812746 0.108188 0.644629
Si Si5 0.700790 0.748029 0.462564
Si Si6 0.788608 0.281122 0.513107
Si Si7 0.563208 0.505841 0.221237
O O1 0.500000 0.500000 0.500000
O O2 0.838052 0.740220 0.503154
O O3 0.009027 0.726537 0.520532
O O4 0.000000 0.500000 0.000000
O O5 0.673052 0.193299 0.648620
O O6 0.503330 0.371911 0.310612
O O7 0.300420 0.059666 0.652308
O O8 0.823636 0.221526 0.919289
O O9 0.946021 0.818837 0.643910
O O10 0.491138 0.848486 0.100432
O O11 0.768282 0.149530 0.639051
O O12 0.500000 0.000000 0.500000
O O13 0.000000 0.000000 0.000000
O O14 0.523328 0.568922 0.632556
O O15 0.104159 0.395344 0.634383
O O16 0.605563 0.381270 0.144006
#
# Coordination Sequence:
#
# PCOD8026283 Si02
#       7
#     2   2   2   2   2   2   2
#     4  12  25  45  75 104 137 186 243 293 349 419
#     4  10  24  41  67  95 138 173 225 266 341 403
#     4  10  24  41  62  99 130 174 219 277 321 415
#     4  12  28  48  71 106 144 183 239 298 354 419
#     4  11  23  41  69  91 138 169 227 270 345 387
#     4  12  25  42  69  92 139 173 224 269 351 393
#     4  11  23  42  63 102 128 178 215 280 324 419
#
# _framework density 22.923134000000001
#
# number of rings (size 3 to 8) (size 9 to 14) (size 15 to 20)
#    0.000    0.857    0.000    6.857    4.000    9.714 
#    0.000    0.000    0.000    0.000    0.000    0.000 
#    0.000    0.000    0.000    0.000    0.000    0.000 
#
# Total GULP energy -173568.364967 kJ/mol
# GULP energy per Si atom -12397.740355 kJ/mol
# Density = 2.287096 g / cm^3
# Si number density = 22.923134 Si / 1000 Ang^3
#
#
#
# Elastic Constant Matrix: (Units=GPa)
#
#
# Indices 1 2 3 4 5 6 
#
# 1 153.7435 36.8905 26.2819 -4.7583 13.6467 -24.0249
# 2 36.8905 167.9736 71.6704 35.0382 24.0822 -14.0307
# 3 26.2819 71.6704 144.6603 11.5905 32.8718 -10.3036
# 4 -4.7583 35.0382 11.5905 55.0612 8.8505 -0.3396
# 5 13.6467 24.0822 32.8718 8.8505 32.9309 -12.2430
# 6 -24.0249 -14.0307 -10.3036 -0.3396 -12.2430 42.9654
#
#
#
# Elastic Compliance Matrix: (Units=1/GPa)
#
#
# Indices 1 2 3 4 5 6 
#
# 1 0.007595 -0.001491 -0.000329 0.001848 -0.000952 0.003424
# 2 -0.001491 0.009035 -0.003573 -0.005008 -0.000697 0.001022
# 3 -0.000329 -0.003573 0.010487 0.001407 -0.008567 -0.001266
# 4 0.001848 -0.005008 0.001407 0.022004 -0.004984 -0.001511
# 5 -0.000952 -0.000697 -0.008567 -0.004984 0.044853 0.009927
# 6 0.003424 0.001022 -0.001266 -0.001511 0.009927 0.028036
#
#
# Mechanical properties :
#
#
# Convention : Reuss Voigt Hill
#
# Bulk Modulus (GPa) = 61.23218 81.78478 71.50848
# Shear Modulus (GPa) = 36.16921 48.29381 42.23151
#
# Velocity S-wave (km/s) = 3.97652 4.59494 4.29687
# Velocity P-wave (km/s) = 6.91763 7.99416 7.47530
#
# Compressibility (1/GPa) = 0.01633128
#
# Stress axis : x y z
#
# Youngs Moduli (GPa) = 131.66290 110.67881 95.35913
#
# Poissons Ratio (x) = 0.16498 0.03139
# Poissons Ratio (y) = 0.19625 0.34073
# Poissons Ratio (z) = 0.04334 0.39547
#
# Static dielectric constant tensor:
#      x y z
#    x 4.525940 0.072730 0.051570 
#    y 0.072730 4.344210 -0.001870 
#    z 0.051570 -0.001870 4.173870 
# 
# 
# High freq. dielectric constant tensor:
#      x y z
#    x 1.914360 -0.003740 0.008780 
#    y -0.003740 1.915290 0.000200 
#    z 0.008780 0.000200 1.917530 
# 
# From -- ./inp_files/535715.got.cif
#   From: 2010.06.25/outbox.cif.g09.slc.cpg/sg2_268_cif.got.tgz:535715.got - 2010.06.27 13:26:56.
