data_PCOD8026557
_publ_section_title
;
Structure prediction by ZEFSAII (Michael W. Deem and Ramdas Pophale) SiO2 
 PCOD8026557
Probable space group: P -1
;
_chemical_formula_sum "Si O2"
_cell_formula_units_Z 16
_cell_length_a 11.518854
_cell_length_b 11.964966
_cell_length_c 8.548867
_cell_angle_alpha 110.390885
_cell_angle_beta 50.951334
_cell_angle_gamma 130.411161
_cell_volume 693.118366
_symmetry_space_group_name_H-M "P -1"
_symmetry_group_IT_number 2
_symmetry_cell_setting 'triclinic'
loop_
_space_group_symop_operation_xyz
x,y,z
-x,-y,-z
loop_
_atom_site_type_symbol
_atom_site_label
_atom_site_fract_x
_atom_site_fract_y
_atom_site_fract_z
Si Si1 0.676160 0.498575 0.355348
Si Si2 0.721498 0.983885 0.190979
Si Si3 0.930851 0.342205 0.415989
Si Si4 0.612472 0.226881 0.121443
Si Si5 0.951620 0.280803 0.024407
Si Si6 0.620112 0.027351 0.601361
Si Si7 0.484978 0.297336 0.967323
Si Si8 0.727470 0.577260 0.693545
O O1 0.500000 0.500000 0.500000
O O2 0.604887 0.333420 0.299379
O O3 0.767402 0.549922 0.472937
O O4 0.834395 0.609078 0.150792
O O5 0.584367 0.032257 0.309809
O O6 0.915067 0.124244 0.024593
O O7 0.719843 0.974855 0.377966
O O8 0.667803 0.839392 0.076431
O O9 0.917009 0.344000 0.240691
O O10 0.740304 0.206329 0.592759
O O11 0.000000 0.500000 0.500000
O O12 0.080511 0.311716 0.324715
O O13 0.813525 0.258942 0.991467
O O14 0.588909 0.255681 0.975656
O O15 0.430037 0.058689 0.231703
O O16 0.388669 0.355650 0.178751
O O17 0.628914 0.421485 0.787721
#
# Coordination Sequence:
#
# PCOD8026557 Si02
#       8
#     2   2   2   2   2   2   2   2
#     4  12  24  43  63  94 133 176 213 271 330 390
#     4   9  19  41  64  91 129 168 210 271 324 392
#     4  11  22  42  70 102 132 170 217 277 321 387
#     4  11  22  42  67  97 131 169 217 280 322 385
#     4  10  24  42  68  99 128 169 227 263 332 392
#     4   9  20  38  65  98 127 166 216 263 336 387
#     4  11  23  41  64  93 129 176 216 272 328 382
#     4  11  25  41  62  92 130 172 225 262 329 399
#
# _framework density 23.08408
#
# number of rings (size 3 to 8) (size 9 to 14) (size 15 to 20)
#    0.000    1.500    1.250    4.125    1.750    5.000 
#    2.250    2.500    0.000    0.000    0.000    0.000 
#    0.000    0.000    0.000    0.000    0.000    0.000 
#
# Total GULP energy -198299.474959 kJ/mol
# GULP energy per Si atom -12393.717185 kJ/mol
# Density = 2.303154 g / cm^3
# Si number density = 23.084080 Si / 1000 Ang^3
#
#
#
# Elastic Constant Matrix: (Units=GPa)
#
#
# Indices 1 2 3 4 5 6 
#
# 1 70.8014 11.7028 20.5556 -18.0997 6.3887 2.0494
# 2 11.7028 127.8206 57.3831 -15.8013 8.1636 10.1770
# 3 20.5556 57.3831 100.9804 -21.7666 10.0032 -3.2709
# 4 -18.0997 -15.8013 -21.7666 37.1097 10.7714 6.3666
# 5 6.3887 8.1636 10.0032 10.7714 32.5036 -0.5597
# 6 2.0494 10.1770 -3.2709 6.3666 -0.5597 26.4606
#
#
#
# Elastic Compliance Matrix: (Units=1/GPa)
#
#
# Indices 1 2 3 4 5 6 
#
# 1 0.018066 0.001233 -0.001318 0.011555 -0.007370 -0.004973
# 2 0.001233 0.011505 -0.005876 0.003917 -0.002729 -0.006247
# 3 -0.001318 -0.005876 0.015683 0.007212 -0.005440 0.002450
# 4 0.011555 0.003917 0.007212 0.046923 -0.021253 -0.013250
# 5 -0.007370 -0.002729 -0.005440 -0.021253 0.041737 0.006944
# 6 -0.004973 -0.006247 0.002450 -0.013250 0.006944 0.044218
#
#
# Mechanical properties :
#
#
# Convention : Reuss Voigt Hill
#
# Bulk Modulus (GPa) = 30.00253 53.20949 41.60601
# Shear Modulus (GPa) = 24.85526 33.21216 29.03371
#
# Velocity S-wave (km/s) = 3.28491 3.79720 3.55031
# Velocity P-wave (km/s) = 5.23572 6.50579 5.90500
#
# Compressibility (1/GPa) = 0.03333052
#
# Stress axis : x y z
#
# Youngs Moduli (GPa) = 55.35288 86.92244 63.76186
#
# Poissons Ratio (x) = -0.10716 0.08406
# Poissons Ratio (y) = -0.06824 0.37468
# Poissons Ratio (z) = 0.07297 0.51077
#
# Static dielectric constant tensor:
#      x y z
#    x 4.144300 0.105570 0.071830 
#    y 0.105570 4.209480 -0.207780 
#    z 0.071830 -0.207780 4.131820 
# 
# 
# High freq. dielectric constant tensor:
#      x y z
#    x 1.893180 0.008380 0.012890 
#    y 0.008380 1.919900 -0.006820 
#    z 0.012890 -0.006820 1.914410 
# 
# From -- ./inp_files/262774.got.cif
#   From: 2010.06.25/outbox.cif.g09.slc.cpg/sg2_132_cif.got.tgz:262774.got - 2010.06.27 13:26:56.
