data_PCOD8026919
_publ_section_title
;
Structure prediction by ZEFSAII (Michael W. Deem and Ramdas Pophale) SiO2 
 PCOD8026919
Probable space group: P -1
;
_chemical_formula_sum "Si O2"
_cell_formula_units_Z 14
_cell_length_a 7.904498
_cell_length_b 9.311596
_cell_length_c 10.696616
_cell_angle_alpha 53.558825
_cell_angle_beta 105.877331
_cell_angle_gamma 104.649307
_cell_volume 605.029033
_symmetry_space_group_name_H-M "P -1"
_symmetry_group_IT_number 2
_symmetry_cell_setting 'triclinic'
loop_
_space_group_symop_operation_xyz
x,y,z
-x,-y,-z
loop_
_atom_site_type_symbol
_atom_site_label
_atom_site_fract_x
_atom_site_fract_y
_atom_site_fract_z
Si Si1 0.283320 0.983465 0.596112
Si Si2 0.517371 0.802142 0.064221
Si Si3 0.526342 0.298498 0.621161
Si Si4 0.861634 0.701914 0.049902
Si Si5 0.648182 0.364434 0.105457
Si Si6 0.931753 0.314993 0.651307
Si Si7 0.947553 0.964056 0.701838
O O1 0.385830 0.802434 0.714730
O O2 0.104866 0.915682 0.670709
O O3 0.394430 0.155629 0.591853
O O4 0.232763 0.034439 0.418087
O O5 0.515150 0.695796 0.244619
O O6 0.694787 0.787227 0.029324
O O7 0.348388 0.728427 0.982364
O O8 0.500000 0.000000 0.000000
O O9 0.500000 0.500000 0.500000
O O10 0.721428 0.267983 0.634095
O O11 0.825252 0.493445 0.107788
O O12 0.010852 0.697171 0.187232
O O13 0.924041 0.819826 0.882011
O O14 0.500000 0.500000 0.000000
O O15 0.000000 0.500000 0.500000
O O16 0.009515 0.160274 0.668588
#
# Coordination Sequence:
#
# PCOD8026919 Si02
#       7
#     2   2   2   2   2   2   2
#     4  11  25  48  71 105 150 187 247 298 359 440
#     4  11  22  44  72 105 140 185 241 296 358 430
#     4  12  27  44  75 104 139 194 243 296 362 436
#     4  11  25  46  72 106 146 186 244 293 367 432
#     4  10  24  43  71 105 145 189 238 299 356 430
#     4  12  26  47  71 103 147 188 236 305 368 430
#     4  11  26  45  74 105 145 193 236 304 368 421
#
# _framework density 23.139385000000001
#
# number of rings (size 3 to 8) (size 9 to 14) (size 15 to 20)
#    0.000    0.857    1.429    4.714    6.000    3.429 
#    2.571    0.000    0.000    0.000    0.000    0.000 
#    0.000    0.000    0.000    0.000    0.000    0.000 
#
# Total GULP energy -173498.857309 kJ/mol
# GULP energy per Si atom -12392.775522 kJ/mol
# Density = 2.308672 g / cm^3
# Si number density = 23.139385 Si / 1000 Ang^3
#
#
#
# Elastic Constant Matrix: (Units=GPa)
#
#
# Indices 1 2 3 4 5 6 
#
# 1 67.1372 24.2890 30.9117 2.0470 -6.1038 5.0013
# 2 24.2890 174.1428 68.1124 -5.4300 4.2388 15.5632
# 3 30.9117 68.1124 195.8748 3.9202 -3.4229 12.3687
# 4 2.0470 -5.4300 3.9202 55.0697 -1.6327 6.9473
# 5 -6.1038 4.2388 -3.4229 -1.6327 37.5506 2.5152
# 6 5.0013 15.5632 12.3687 6.9473 2.5152 35.0887
#
#
#
# Elastic Compliance Matrix: (Units=1/GPa)
#
#
# Indices 1 2 3 4 5 6 
#
# 1 0.016708 -0.001538 -0.001975 -0.000409 0.002767 -0.001121
# 2 -0.001538 0.007048 -0.002103 0.001164 -0.001031 -0.002322
# 3 -0.001975 -0.002103 0.006225 -0.000444 0.000527 -0.000930
# 4 -0.000409 0.001164 -0.000444 0.018863 0.000856 -0.004098
# 5 0.002767 -0.001031 0.000527 0.000856 0.027433 -0.002259
# 6 -0.001121 -0.002322 -0.000930 -0.004098 -0.002259 0.030990
#
#
# Mechanical properties :
#
#
# Convention : Reuss Voigt Hill
#
# Bulk Modulus (GPa) = 53.33263 75.97565 64.65414
# Shear Modulus (GPa) = 40.08061 46.46460 43.27260
#
# Velocity S-wave (km/s) = 4.16641 4.48597 4.32914
# Velocity P-wave (km/s) = 6.80028 7.72898 7.27945
#
# Compressibility (1/GPa) = 0.01875025
#
# Stress axis : x y z
#
# Youngs Moduli (GPa) = 59.85173 141.87626 160.64253
#
# Poissons Ratio (x) = 0.21820 0.31721
# Poissons Ratio (y) = 0.09205 0.33782
# Poissons Ratio (z) = 0.11819 0.29836
#
# Static dielectric constant tensor:
#      x y z
#    x 4.065020 0.116330 0.234300 
#    y 0.116330 4.715570 0.061730 
#    z 0.234300 0.061730 4.421670 
# 
# 
# High freq. dielectric constant tensor:
#      x y z
#    x 1.901490 0.002390 0.009250 
#    y 0.002390 1.939060 0.000510 
#    z 0.009250 0.000510 1.937230 
# 
# From -- ./inp_files/377773.got.cif
#   From: 2010.06.25/outbox.cif.g09.slc.cpg/sg2_189_cif.got.tgz:377773.got - 2010.06.27 13:26:56.
