data_PCOD8026603
_publ_section_title
;
Structure prediction by ZEFSAII (Michael W. Deem and Ramdas Pophale) SiO2 
 PCOD8026603
Probable space group: P -1
;
_chemical_formula_sum "Si O2"
_cell_formula_units_Z 14
_cell_length_a 8.522326
_cell_length_b 9.186097
_cell_length_c 11.595434
_cell_angle_alpha 117.383937
_cell_angle_beta 78.951206
_cell_angle_gamma 129.195664
_cell_volume 618.180180
_symmetry_space_group_name_H-M "P -1"
_symmetry_group_IT_number 2
_symmetry_cell_setting 'triclinic'
loop_
_space_group_symop_operation_xyz
x,y,z
-x,-y,-z
loop_
_atom_site_type_symbol
_atom_site_label
_atom_site_fract_x
_atom_site_fract_y
_atom_site_fract_z
Si Si1 0.126394 0.941801 0.309296
Si Si2 0.245303 0.114364 0.594523
Si Si3 0.666895 0.507306 0.767026
Si Si4 0.958255 0.294206 0.383551
Si Si5 0.331235 0.125727 0.122081
Si Si6 0.283698 0.825866 0.837195
Si Si7 0.917467 0.446548 0.862655
O O1 0.190529 0.793297 0.237304
O O2 0.885173 0.808437 0.323568
O O3 0.264164 0.113231 0.452525
O O4 0.163476 0.047328 0.217069
O O5 0.472819 0.273764 0.671150
O O6 0.102856 0.869701 0.565855
O O7 0.838541 0.623738 0.686032
O O8 0.596478 0.650163 0.852454
O O9 0.755862 0.486991 0.866539
O O10 0.000000 0.500000 0.500000
O O11 0.753306 0.154618 0.283295
O O12 0.502026 0.123698 0.157581
O O13 0.248391 0.969243 0.968634
O O14 0.113040 0.584138 0.804435
O O15 0.000000 0.500000 0.000000
#
# Coordination Sequence:
#
# PCOD8026603 Si02
#       7
#     2   2   2   2   2   2   2
#     4  11  24  44  70  97 143 178 230 282 340 403
#     4  11  25  45  69 102 137 183 230 282 338 404
#     4  11  26  43  72 101 135 182 230 280 344 404
#     4  11  25  44  67 103 139 178 228 283 343 405
#     4  11  23  45  69 101 133 184 228 281 345 403
#     4  10  24  42  70  96 140 176 228 284 346 402
#     4  11  23  43  68 100 134 180 222 285 343 407
#
# _framework density 22.647119
#
# number of rings (size 3 to 8) (size 9 to 14) (size 15 to 20)
#    0.000    1.143    2.857    2.571    4.000    6.286 
#    0.000    2.143    0.000    0.000    0.000    0.000 
#    0.000    0.000    0.000    0.000    0.000    0.000 
#
# Total GULP energy -173533.957252 kJ/mol
# GULP energy per Si atom -12395.282661 kJ/mol
# Density = 2.259557 g / cm^3
# Si number density = 22.647119 Si / 1000 Ang^3
#
#
#
# Elastic Constant Matrix: (Units=GPa)
#
#
# Indices 1 2 3 4 5 6 
#
# 1 95.4678 32.7308 62.3292 7.9651 4.3852 -9.2879
# 2 32.7308 86.8000 31.9920 18.4513 -2.8934 -13.2095
# 3 62.3292 31.9920 141.9071 5.3922 8.9649 -11.4181
# 4 7.9651 18.4513 5.3922 30.8678 -0.3461 0.3811
# 5 4.3852 -2.8934 8.9649 -0.3461 32.0889 10.4995
# 6 -9.2879 -13.2095 -11.4181 0.3811 10.4995 35.5539
#
#
#
# Elastic Compliance Matrix: (Units=1/GPa)
#
#
# Indices 1 2 3 4 5 6 
#
# 1 0.015791 -0.003377 -0.005948 -0.001047 -0.001251 0.001341
# 2 -0.003377 0.015802 -0.001457 -0.008365 0.000769 0.004383
# 3 -0.005948 -0.001457 0.010314 0.000547 -0.002868 0.002058
# 4 -0.001047 -0.008365 0.000547 0.037630 0.000911 -0.003878
# 5 -0.001251 0.000769 -0.002868 0.000911 0.036012 -0.011607
# 6 0.001341 0.004383 0.002058 -0.003878 -0.011607 0.034235
#
#
# Mechanical properties :
#
#
# Convention : Reuss Voigt Hill
#
# Bulk Modulus (GPa) = 49.15760 64.25320 56.70540
# Shear Modulus (GPa) = 28.06941 32.84364 30.45652
#
# Velocity S-wave (km/s) = 3.52437 3.81233 3.67117
# Velocity P-wave (km/s) = 6.18988 6.91459 6.56224
#
# Compressibility (1/GPa) = 0.02034273
#
# Stress axis : x y z
#
# Youngs Moduli (GPa) = 63.32663 63.28192 96.95800
#
# Poissons Ratio (x) = 0.21373 0.57668
# Poissons Ratio (y) = 0.21388 0.14128
# Poissons Ratio (z) = 0.37665 0.09221
#
# Static dielectric constant tensor:
#      x y z
#    x 2.712670 0.289040 -0.183720 
#    y 0.289040 3.902850 -0.007880 
#    z -0.183720 -0.007880 4.076730 
# 
# 
# High freq. dielectric constant tensor:
#      x y z
#    x 1.895530 -0.010680 0.002440 
#    y -0.010680 1.892740 0.000730 
#    z 0.002440 0.000730 1.895210 
# 
# From -- ./inp_files/159422.got.cif
#   From: 2010.06.25/outbox.cif.g09.slc.cpg/sg2_80_cif.got.tgz:159422.got - 2010.06.27 13:26:56.
