data_PCOD8026270
_publ_section_title
;
Structure prediction by ZEFSAII (Michael W. Deem and Ramdas Pophale) SiO2 
 PCOD8026270
Probable space group: P -1
;
_chemical_formula_sum "Si O2"
_cell_formula_units_Z 16
_cell_length_a 9.604172
_cell_length_b 23.237464
_cell_length_c 11.331534
_cell_angle_alpha 148.685197
_cell_angle_beta 71.995036
_cell_angle_gamma 129.700944
_cell_volume 815.217759
_symmetry_space_group_name_H-M "P -1"
_symmetry_group_IT_number 2
_symmetry_cell_setting 'triclinic'
loop_
_space_group_symop_operation_xyz
x,y,z
-x,-y,-z
loop_
_atom_site_type_symbol
_atom_site_label
_atom_site_fract_x
_atom_site_fract_y
_atom_site_fract_z
Si Si1 0.836470 0.987900 0.326305
Si Si2 0.390285 0.819906 0.209755
Si Si3 0.126584 0.151914 0.321755
Si Si4 0.558393 0.409620 0.789606
Si Si5 0.767899 0.407751 0.950850
Si Si6 0.289351 0.426706 0.585878
Si Si7 0.804289 0.718756 0.893023
Si Si8 0.021339 0.297490 0.964520
O O1 0.935385 0.081699 0.339188
O O2 0.936208 0.131748 0.644594
O O3 0.563063 0.835580 0.125918
O O4 0.907241 0.902128 0.188387
O O5 0.356589 0.767785 0.264813
O O6 0.155837 0.702561 0.996282
O O7 0.500000 0.000000 0.500000
O O8 0.340712 0.223841 0.462926
O O9 0.231468 0.314807 0.512891
O O10 0.000000 0.000000 0.000000
O O11 0.617730 0.375247 0.831333
O O12 0.500000 0.500000 0.000000
O O13 0.760701 0.529750 0.854863
O O14 0.802284 0.507312 0.230743
O O15 0.000000 0.500000 0.000000
O O16 0.553483 0.581053 0.766305
O O17 0.168750 0.315707 0.305021
O O18 0.936651 0.707511 0.919263
#
# Coordination Sequence:
#
# PCOD8026270 Si02
#       8
#     2   2   2   2   2   2   2   2
#     4  11  22  38  66  95 129 173 212 273 332 379
#     4  10  24  41  59  96 133 167 209 272 330 380
#     4  12  24  41  64  97 137 167 214 277 338 385
#     4  12  22  39  70 100 124 170 225 276 318 390
#     4  12  23  42  70  96 129 172 223 271 325 392
#     4  11  23  40  63  94 132 171 212 267 333 388
#     4  11  22  39  66  94 129 167 218 271 324 388
#     4  11  21  40  64  97 129 166 222 270 319 388
#
# _framework density 19.626657999999999
#
# number of rings (size 3 to 8) (size 9 to 14) (size 15 to 20)
#    0.000    0.750    7.500    0.375    1.750    2.000 
#    0.000    1.875    0.000    1.500    0.000    0.000 
#    0.000    0.000    0.000    0.000    0.000    0.000 
#
# Total GULP energy -198319.749522 kJ/mol
# GULP energy per Si atom -12394.984345 kJ/mol
# Density = 1.958199 g / cm^3
# Si number density = 19.626658 Si / 1000 Ang^3
#
#
#
# Elastic Constant Matrix: (Units=GPa)
#
#
# Indices 1 2 3 4 5 6 
#
# 1 130.1099 62.5725 36.1566 -2.7418 15.2188 -12.6298
# 2 62.5725 146.4707 31.2830 8.1327 5.6320 -4.1850
# 3 36.1566 31.2830 82.7138 0.6143 12.6313 -3.0803
# 4 -2.7418 8.1327 0.6143 30.9584 -6.1682 1.4121
# 5 15.2188 5.6320 12.6313 -6.1682 27.1700 8.8715
# 6 -12.6298 -4.1850 -3.0803 1.4121 8.8715 41.1876
#
#
#
# Elastic Compliance Matrix: (Units=1/GPa)
#
#
# Indices 1 2 3 4 5 6 
#
# 1 0.011374 -0.004054 -0.002450 0.000835 -0.005526 0.004054
# 2 -0.004054 0.009029 -0.001772 -0.002504 0.000835 -0.000552
# 3 -0.002450 -0.001772 0.014801 -0.001293 -0.005923 0.001496
# 4 0.000835 -0.002504 -0.001293 0.035155 0.009744 -0.003399
# 5 -0.005526 0.000835 -0.005923 0.009744 0.048912 -0.012922
# 6 0.004054 -0.000552 0.001496 -0.003399 -0.012922 0.028478
#
#
# Mechanical properties :
#
#
# Convention : Reuss Voigt Hill
#
# Bulk Modulus (GPa) = 53.61476 68.81317 61.21397
# Shear Modulus (GPa) = 29.32253 35.14868 32.23561
#
# Velocity S-wave (km/s) = 3.86944 4.23645 4.05710
# Velocity P-wave (km/s) = 6.88041 7.68552 7.29408
#
# Compressibility (1/GPa) = 0.01865158
#
# Stress axis : x y z
#
# Youngs Moduli (GPa) = 87.92336 110.75813 67.56315
#
# Poissons Ratio (x) = 0.44897 0.16553
# Poissons Ratio (y) = 0.35640 0.11974
# Poissons Ratio (z) = 0.21541 0.19629
#
# Static dielectric constant tensor:
#      x y z
#    x 4.486200 0.132260 0.201920 
#    y 0.132260 3.741030 0.171060 
#    z 0.201920 0.171060 3.680760 
# 
# 
# High freq. dielectric constant tensor:
#      x y z
#    x 1.760270 -0.010530 0.000200 
#    y -0.010530 1.784940 0.018630 
#    z 0.000200 0.018630 1.750790 
# 
# From -- ./inp_files/216463.got.cif
#   From: 2010.06.25/outbox.cif.g09.slc.cpg/sg2_109_cif.got.tgz:216463.got - 2010.06.27 13:26:56.
