data_PCOD8026608
_publ_section_title
;
Structure prediction by ZEFSAII (Michael W. Deem and Ramdas Pophale) SiO2 
 PCOD8026608
Probable space group: P -1
;
_chemical_formula_sum "Si O2"
_cell_formula_units_Z 14
_cell_length_a 12.199609
_cell_length_b 5.212567
_cell_length_c 28.067799
_cell_angle_alpha 68.008414
_cell_angle_beta 18.676604
_cell_angle_gamma 68.680139
_cell_volume 529.739758
_symmetry_space_group_name_H-M "P -1"
_symmetry_group_IT_number 2
_symmetry_cell_setting 'triclinic'
loop_
_space_group_symop_operation_xyz
x,y,z
-x,-y,-z
loop_
_atom_site_type_symbol
_atom_site_label
_atom_site_fract_x
_atom_site_fract_y
_atom_site_fract_z
Si Si1 0.788430 0.023984 0.317795
Si Si2 0.684834 0.602918 0.462517
Si Si3 0.708966 0.595102 0.953113
Si Si4 0.611115 0.616771 0.272096
Si Si5 0.419266 0.491085 0.179335
Si Si6 0.477185 0.884829 0.214078
Si Si7 0.702827 0.974297 0.557071
O O1 0.576006 0.319794 0.392734
O O2 0.526681 0.860562 0.401540
O O3 0.144931 0.098680 0.140384
O O4 0.853156 0.886759 0.352157
O O5 0.500000 0.500000 0.500000
O O6 0.012617 0.426826 0.359059
O O7 0.028989 0.386229 0.847507
O O8 0.500000 0.500000 0.000000
O O9 0.466296 0.610050 0.098264
O O10 0.690885 0.746493 0.178557
O O11 0.488377 0.308383 0.333152
O O12 0.320290 0.816488 0.403115
O O13 0.547777 0.711384 0.148976
O O14 0.608617 0.194633 0.129799
O O15 0.078327 0.887699 0.391841
#
# Coordination Sequence:
#
# PCOD8026608 Si02
#       7
#     2   2   2   2   2   2   2
#     4  10  24  42  71 100 146 183 241 297 363 430
#     4  11  23  42  70 107 137 192 236 302 364 422
#     4  11  28  49  71 108 147 198 242 295 360 440
#     4  11  26  46  75 106 143 194 239 303 367 426
#     4  12  28  44  74 105 150 193 239 297 363 426
#     4  12  25  48  73 107 147 187 247 300 361 438
#     4  11  22  43  74 113 138 182 241 309 371 421
#
# _framework density 26.428070000000002
#
# number of rings (size 3 to 8) (size 9 to 14) (size 15 to 20)
#    0.000    0.857    1.429    4.286   12.000    4.000 
#    0.000    0.000    0.000    0.000    0.000    0.000 
#    0.000    0.000    0.000    0.000    0.000    0.000 
#
# Total GULP energy -173596.386128 kJ/mol
# GULP energy per Si atom -12399.741866 kJ/mol
# Density = 2.636792 g / cm^3
# Si number density = 26.428070 Si / 1000 Ang^3
#
#
#
# Elastic Constant Matrix: (Units=GPa)
#
#
# Indices 1 2 3 4 5 6 
#
# 1 145.5822 35.9790 25.0611 -0.9784 20.8831 0.2256
# 2 35.9790 104.4348 -1.8187 10.5433 7.7873 9.4427
# 3 25.0611 -1.8187 90.8244 0.6878 5.0711 7.2910
# 4 -0.9784 10.5433 0.6878 20.9607 5.9809 9.3731
# 5 20.8831 7.7873 5.0711 5.9809 44.2436 8.1507
# 6 0.2256 9.4427 7.2910 9.3731 8.1507 48.9226
#
#
#
# Elastic Compliance Matrix: (Units=1/GPa)
#
#
# Indices 1 2 3 4 5 6 
#
# 1 0.008590 -0.003077 -0.002322 0.002649 -0.003793 0.001025
# 2 -0.003077 0.011297 0.001209 -0.005337 0.000300 -0.001374
# 3 -0.002322 0.001209 0.011837 -0.000216 -0.000089 -0.001930
# 4 0.002649 -0.005337 -0.000216 0.056194 -0.006285 -0.008669
# 5 -0.003793 0.000300 -0.000089 -0.006285 0.025774 -0.003117
# 6 0.001025 -0.001374 -0.001930 -0.008669 -0.003117 0.023169
#
#
# Mechanical properties :
#
#
# Convention : Reuss Voigt Hill
#
# Bulk Modulus (GPa) = 42.83832 51.03157 46.93494
# Shear Modulus (GPa) = 32.67532 41.60005 37.13768
#
# Velocity S-wave (km/s) = 3.52004 3.97178 3.75272
# Velocity P-wave (km/s) = 5.72412 6.35491 6.04774
#
# Compressibility (1/GPa) = 0.02334359
#
# Stress axis : x y z
#
# Youngs Moduli (GPa) = 116.42110 88.51834 84.48228
#
# Poissons Ratio (x) = 0.27236 0.19619
# Poissons Ratio (y) = 0.35821 -0.10215
# Poissons Ratio (z) = 0.27036 -0.10704
#
# Static dielectric constant tensor:
#      x y z
#    x 4.261960 -0.258730 0.226620 
#    y -0.258730 5.297500 -0.266630 
#    z 0.226620 -0.266630 4.653580 
# 
# 
# High freq. dielectric constant tensor:
#      x y z
#    x 2.066270 -0.016290 0.010110 
#    y -0.016290 2.075340 -0.008400 
#    z 0.010110 -0.008400 2.058940 
# 
# From -- ./inp_files/90993.got.cif
#   From: 2010.06.25/outbox.cif.g09.slc.cpg/sg2_46_cif.got.tgz:90993.got - 2010.06.27 13:26:56.
