data_PCOD8026862
_publ_section_title
;
Structure prediction by ZEFSAII (Michael W. Deem and Ramdas Pophale) SiO2 
 PCOD8026862
Probable space group: P -1
;
_chemical_formula_sum "Si O2"
_cell_formula_units_Z 16
_cell_length_a 12.781875
_cell_length_b 18.191506
_cell_length_c 8.295829
_cell_angle_alpha 127.333975
_cell_angle_beta 147.594992
_cell_angle_gamma 42.154558
_cell_volume 692.756506
_symmetry_space_group_name_H-M "P -1"
_symmetry_group_IT_number 2
_symmetry_cell_setting 'triclinic'
loop_
_space_group_symop_operation_xyz
x,y,z
-x,-y,-z
loop_
_atom_site_type_symbol
_atom_site_label
_atom_site_fract_x
_atom_site_fract_y
_atom_site_fract_z
Si Si1 0.767667 0.556556 0.169867
Si Si2 0.957902 0.858149 0.154789
Si Si3 0.168782 0.906513 0.217252
Si Si4 0.675222 0.317874 0.046093
Si Si5 0.776541 0.614180 0.914762
Si Si6 0.457841 0.000210 0.758771
Si Si7 0.680286 0.374815 0.793920
Si Si8 0.089367 0.219443 0.675077
O O1 0.000000 0.500000 0.500000
O O2 0.567610 0.645070 0.141878
O O3 0.783519 0.621533 0.126735
O O4 0.701097 0.474494 0.891460
O O5 0.973340 0.840228 0.345565
O O6 0.081154 0.913452 0.298851
O O7 0.073160 0.736132 0.069975
O O8 0.689189 0.949642 0.884601
O O9 0.392857 0.911518 0.525925
O O10 0.229858 0.794750 0.070899
O O11 0.000000 0.000000 0.000000
O O12 0.851373 0.309691 0.399760
O O13 0.645104 0.400357 0.974132
O O14 0.536217 0.628722 0.562788
O O15 0.794680 0.716738 0.014735
O O16 0.000000 0.500000 0.000000
O O17 0.255754 0.128008 0.633939
O O18 0.500000 0.000000 0.000000
#
# Coordination Sequence:
#
# PCOD8026862 Si02
#       8
#     2   2   2   2   2   2   2   2
#     4  12  25  42  67 102 133 181 226 278 344 402
#     4  10  25  42  72  94 139 177 226 276 337 403
#     4  11  24  46  67 102 134 181 222 281 341 394
#     4  11  24  43  66  95 139 171 223 284 334 405
#     4  12  25  43  72  97 136 177 230 281 337 406
#     4  10  24  43  69  98 137 174 231 275 331 406
#     4  11  24  44  67  98 135 178 227 280 340 399
#     4  11  23  45  65 101 131 178 226 280 338 404
#
# _framework density 23.096136000000001
#
# number of rings (size 3 to 8) (size 9 to 14) (size 15 to 20)
#    0.000    1.000    1.250    4.500    8.750    3.500 
#    0.000    0.000    0.000    0.000    0.000    0.000 
#    0.000    0.000    0.000    0.000    0.000    0.000 
#
# Total GULP energy -198229.021419 kJ/mol
# GULP energy per Si atom -12389.313839 kJ/mol
# Density = 2.304357 g / cm^3
# Si number density = 23.096136 Si / 1000 Ang^3
#
#
#
# Elastic Constant Matrix: (Units=GPa)
#
#
# Indices 1 2 3 4 5 6 
#
# 1 111.2246 27.7885 26.1344 -25.3672 5.5283 -9.9939
# 2 27.7885 74.0123 24.0806 -4.5180 18.4899 -9.3445
# 3 26.1344 24.0806 128.4036 -4.2481 5.9059 -2.3088
# 4 -25.3672 -4.5180 -4.2481 43.7328 -1.6704 6.6455
# 5 5.5283 18.4899 5.9059 -1.6704 35.4081 -15.2501
# 6 -9.9939 -9.3445 -2.3088 6.6455 -15.2501 40.4582
#
#
#
# Elastic Compliance Matrix: (Units=1/GPa)
#
#
# Indices 1 2 3 4 5 6 
#
# 1 0.011724 -0.003661 -0.001529 0.006104 0.001239 0.001428
# 2 -0.003661 0.017628 -0.002207 -0.000842 -0.008280 0.000058
# 3 -0.001529 -0.002207 0.008508 -0.000229 -0.000234 -0.000452
# 4 0.006104 -0.000842 -0.000229 0.026781 -0.000652 -0.003344
# 5 0.001239 -0.008280 -0.000234 -0.000652 0.037879 0.012765
# 6 0.001428 0.000058 -0.000452 -0.003344 0.012765 0.030418
#
#
# Mechanical properties :
#
#
# Convention : Reuss Voigt Hill
#
# Bulk Modulus (GPa) = 43.35283 52.18305 47.76794
# Shear Modulus (GPa) = 32.17087 39.62894 35.89991
#
# Velocity S-wave (km/s) = 3.73622 4.14675 3.94683
# Velocity P-wave (km/s) = 6.11750 6.75057 6.44182
#
# Compressibility (1/GPa) = 0.02306654
#
# Stress axis : x y z
#
# Youngs Moduli (GPa) = 85.29836 56.72656 117.53573
#
# Poissons Ratio (x) = 0.20767 0.17971
# Poissons Ratio (y) = 0.31227 0.25938
# Poissons Ratio (z) = 0.13042 0.12519
#
# Static dielectric constant tensor:
#      x y z
#    x 3.496250 -0.924230 0.489780 
#    y -0.924230 3.554460 -0.265630 
#    z 0.489780 -0.265630 4.194120 
# 
# 
# High freq. dielectric constant tensor:
#      x y z
#    x 1.919410 -0.003290 0.009230 
#    y -0.003290 1.923950 -0.011810 
#    z 0.009230 -0.011810 1.908030 
# 
# From -- ./inp_files/46349.got.cif
#   From: 2010.06.25/outbox.cif.g09.slc.cpg/sg2_24_cif.got.tgz:46349.got - 2010.06.27 13:26:56.
