data_PCOD8026691
_publ_section_title
;
Structure prediction by ZEFSAII (Michael W. Deem and Ramdas Pophale) SiO2 
 PCOD8026691
Probable space group: P -1
;
_chemical_formula_sum "Si O2"
_cell_formula_units_Z 16
_cell_length_a 8.828230
_cell_length_b 6.672761
_cell_length_c 18.163149
_cell_angle_alpha 60.833643
_cell_angle_beta 71.278123
_cell_angle_gamma 52.495078
_cell_volume 740.729616
_symmetry_space_group_name_H-M "P -1"
_symmetry_group_IT_number 2
_symmetry_cell_setting 'triclinic'
loop_
_space_group_symop_operation_xyz
x,y,z
-x,-y,-z
loop_
_atom_site_type_symbol
_atom_site_label
_atom_site_fract_x
_atom_site_fract_y
_atom_site_fract_z
Si Si1 0.038902 0.200625 0.050329
Si Si2 0.122469 0.097798 0.222525
Si Si3 0.165594 0.492495 0.565188
Si Si4 0.312943 0.797391 0.959554
Si Si5 0.166896 0.583594 0.385340
Si Si6 0.497082 0.981920 0.783619
Si Si7 0.762101 0.393983 0.314031
Si Si8 0.552559 0.114290 0.352346
O O1 0.083256 0.081486 0.146538
O O2 0.846206 0.234156 0.047222
O O3 0.000000 0.500000 0.000000
O O4 0.224560 0.982703 0.013100
O O5 0.936616 0.349135 0.245541
O O6 0.180541 0.814615 0.301993
O O7 0.288146 0.156864 0.195415
O O8 0.129717 0.653875 0.465651
O O9 0.175721 0.665910 0.599197
O O10 0.998112 0.443544 0.618511
O O11 0.364658 0.198151 0.583316
O O12 0.368617 0.958495 0.867987
O O13 0.500000 0.500000 0.000000
O O14 0.364798 0.294851 0.397435
O O15 0.414935 0.298791 0.724668
O O16 0.497560 0.831497 0.736155
O O17 0.711485 0.179022 0.334837
#
# Coordination Sequence:
#
# PCOD8026691 Si02
#       8
#     2   2   2   2   2   2   2   2
#     4  11  26  47  70 100 138 175 220 278 334 401
#     4  12  24  42  69  96 132 176 218 272 330 393
#     4  10  24  43  64  92 134 175 219 277 327 387
#     4  11  26  45  71 101 133 177 221 274 338 400
#     4  11  23  42  64  97 130 173 223 271 332 387
#     4  11  25  42  66  97 131 172 219 270 328 393
#     4  11  23  42  66  94 130 174 222 269 328 389
#     4  11  22  43  65  93 130 173 219 274 324 389
#
# _framework density 21.600325000000002
#
# number of rings (size 3 to 8) (size 9 to 14) (size 15 to 20)
#    0.000    1.000    2.500    3.375    3.500    5.000 
#    2.250    0.000    0.000    0.000    0.000    0.000 
#    0.000    0.000    0.000    0.000    0.000    0.000 
#
# Total GULP energy -198492.159485 kJ/mol
# GULP energy per Si atom -12405.759968 kJ/mol
# Density = 2.155116 g / cm^3
# Si number density = 21.600325 Si / 1000 Ang^3
#
#
#
# Elastic Constant Matrix: (Units=GPa)
#
#
# Indices 1 2 3 4 5 6 
#
# 1 115.2840 57.9114 38.0158 18.8480 7.8059 0.3773
# 2 57.9114 103.1915 40.4314 19.0273 2.8076 5.5756
# 3 38.0158 40.4314 120.0755 15.6960 9.6918 14.2136
# 4 18.8480 19.0273 15.6960 37.9161 3.4122 1.2800
# 5 7.8059 2.8076 9.6918 3.4122 34.6809 8.0462
# 6 0.3773 5.5756 14.2136 1.2800 8.0462 39.2262
#
#
#
# Elastic Compliance Matrix: (Units=1/GPa)
#
#
# Indices 1 2 3 4 5 6 
#
# 1 0.012868 -0.006128 -0.001741 -0.002475 -0.002109 0.001891
# 2 -0.006128 0.014792 -0.002563 -0.003410 0.001540 -0.001319
# 3 -0.001741 -0.002563 0.010475 -0.001953 -0.001426 -0.003058
# 4 -0.002475 -0.003410 -0.001953 0.030260 -0.001734 0.000584
# 5 -0.002109 0.001540 -0.001426 -0.001734 0.031149 -0.006015
# 6 0.001891 -0.001319 -0.003058 0.000584 -0.006015 0.027985
#
#
# Mechanical properties :
#
#
# Convention : Reuss Voigt Hill
#
# Bulk Modulus (GPa) = 57.89962 67.91869 62.90915
# Shear Modulus (GPa) = 32.43610 35.84412 34.14011
#
# Velocity S-wave (km/s) = 3.87932 4.07802 3.97991
# Velocity P-wave (km/s) = 6.85045 7.32703 7.09274
#
# Compressibility (1/GPa) = 0.01727127
#
# Stress axis : x y z
#
# Youngs Moduli (GPa) = 77.71381 67.60390 95.46881
#
# Poissons Ratio (x) = 0.41427 0.16618
# Poissons Ratio (y) = 0.47622 0.24469
# Poissons Ratio (z) = 0.13528 0.17327
#
# Static dielectric constant tensor:
#      x y z
#    x 4.042830 -0.062370 0.114750 
#    y -0.062370 3.920640 0.217180 
#    z 0.114750 0.217180 3.849710 
# 
# 
# High freq. dielectric constant tensor:
#      x y z
#    x 1.863540 -0.006420 0.004260 
#    y -0.006420 1.855170 0.009300 
#    z 0.004260 0.009300 1.850750 
# 
# From -- ./inp_files/48831.got.cif
#   From: 2010.06.25/outbox.cif.g09.slc.cpg/sg2_25_cif.got.tgz:48831.got - 2010.06.27 13:26:56.
