data_PCOD8026309
_publ_section_title
;
Structure prediction by ZEFSAII (Michael W. Deem and Ramdas Pophale) SiO2 
 PCOD8026309
Probable space group: P -1
;
_chemical_formula_sum "Si O2"
_cell_formula_units_Z 14
_cell_length_a 11.298811
_cell_length_b 9.153397
_cell_length_c 5.248869
_cell_angle_alpha 78.497058
_cell_angle_beta 87.104285
_cell_angle_gamma 80.534615
_cell_volume 524.617099
_symmetry_space_group_name_H-M "P -1"
_symmetry_group_IT_number 2
_symmetry_cell_setting 'triclinic'
loop_
_space_group_symop_operation_xyz
x,y,z
-x,-y,-z
loop_
_atom_site_type_symbol
_atom_site_label
_atom_site_fract_x
_atom_site_fract_y
_atom_site_fract_z
Si Si1 0.063728 0.544712 0.726422
Si Si2 0.482840 0.867333 0.866824
Si Si3 0.104306 0.782849 0.978363
Si Si4 0.640362 0.404432 0.885684
Si Si5 0.662026 0.574583 0.313963
Si Si6 0.669497 0.871386 0.452768
Si Si7 0.926500 0.913257 0.344357
O O1 0.197659 0.463886 0.723071
O O2 0.000000 0.500000 0.500000
O O3 0.059287 0.726041 0.723788
O O4 0.000000 0.500000 0.000000
O O5 0.608375 0.810783 0.729754
O O6 0.381605 0.951291 0.650178
O O7 0.436878 0.731135 0.066123
O O8 0.500000 0.000000 0.000000
O O9 0.219492 0.665364 0.090946
O O10 0.006052 0.780270 0.217076
O O11 0.130588 0.953667 0.894376
O O12 0.615816 0.496168 0.595494
O O13 0.598232 0.512810 0.095772
O O14 0.636396 0.758106 0.270357
O O15 0.812891 0.848575 0.498740
O O16 0.000000 0.000000 0.500000
#
# Coordination Sequence:
#
# PCOD8026309 Si02
#       7
#     2   2   2   2   2   2   2
#     4  11  23  41  67 101 149 195 242 297 370 447
#     4  11  28  48  79 102 150 200 253 320 370 451
#     4  10  24  41  65 108 143 198 242 302 379 446
#     4  11  26  50  75 111 153 201 245 309 384 449
#     4  11  27  45  77 108 152 195 252 314 373 449
#     4  11  27  49  72 113 142 198 262 310 378 447
#     4  11  25  42  74 104 151 194 249 315 370 455
#
# _framework density 26.686126999999999
#
# number of rings (size 3 to 8) (size 9 to 14) (size 15 to 20)
#    0.000    1.143    1.429    2.571   16.000    1.143 
#    0.000    0.000    0.000    0.000    0.000    0.000 
#    0.000    0.000    0.000    0.000    0.000    0.000 
#
# Total GULP energy -173583.090986 kJ/mol
# GULP energy per Si atom -12398.792213 kJ/mol
# Density = 2.662539 g / cm^3
# Si number density = 26.686127 Si / 1000 Ang^3
#
#
#
# Elastic Constant Matrix: (Units=GPa)
#
#
# Indices 1 2 3 4 5 6 
#
# 1 132.7559 58.4073 64.0943 22.9391 -22.4390 29.5993
# 2 58.4073 159.9563 49.0217 12.0276 -11.5695 -0.4188
# 3 64.0943 49.0217 156.4905 23.1736 -18.8793 8.1180
# 4 22.9391 12.0276 23.1736 60.1444 9.3197 -1.7342
# 5 -22.4390 -11.5695 -18.8793 9.3197 51.2922 5.6243
# 6 29.5993 -0.4188 8.1180 -1.7342 5.6243 40.7996
#
#
#
# Elastic Compliance Matrix: (Units=1/GPa)
#
#
# Indices 1 2 3 4 5 6 
#
# 1 0.015370 -0.003859 -0.002807 -0.005452 0.007110 -0.011844
# 2 -0.003859 0.007954 -0.001268 0.000593 -0.000828 0.003273
# 3 -0.002807 -0.001268 0.008524 -0.002278 0.002043 -0.000051
# 4 -0.005452 0.000593 -0.002278 0.020821 -0.007569 0.006343
# 5 0.007110 -0.000828 0.002043 -0.007569 0.025580 -0.009421
# 6 -0.011844 0.003273 -0.000051 0.006343 -0.009421 0.034714
#
#
# Mechanical properties :
#
#
# Convention : Reuss Voigt Hill
#
# Bulk Modulus (GPa) = 62.58234 88.02769 75.30501
# Shear Modulus (GPa) = 37.26982 48.95919 43.11451
#
# Velocity S-wave (km/s) = 3.74116 4.28791 4.02383
# Velocity P-wave (km/s) = 6.49338 7.58767 7.06175
#
# Compressibility (1/GPa) = 0.01597895
#
# Stress axis : x y z
#
# Youngs Moduli (GPa) = 65.06209 125.72859 117.32249
#
# Poissons Ratio (x) = 0.48517 0.32930
# Poissons Ratio (y) = 0.25107 0.14881
# Poissons Ratio (z) = 0.18262 0.15947
#
# Static dielectric constant tensor:
#      x y z
#    x 5.063150 -0.355760 0.015800 
#    y -0.355760 6.261480 0.157800 
#    z 0.015800 0.157800 5.188200 
# 
# 
# High freq. dielectric constant tensor:
#      x y z
#    x 2.087410 -0.009560 -0.008160 
#    y -0.009560 2.098980 0.004240 
#    z -0.008160 0.004240 2.073250 
# 
# From -- ./inp_files/60638.got.cif
#   From: 2010.06.25/outbox.cif.g09.slc.cpg/sg2_31_cif.got.tgz:60638.got - 2010.06.27 13:26:56.
