data_PCOD8026581
_publ_section_title
;
Structure prediction by ZEFSAII (Michael W. Deem and Ramdas Pophale) SiO2 
 PCOD8026581
Probable space group: P -1
;
_chemical_formula_sum "Si O2"
_cell_formula_units_Z 16
_cell_length_a 25.997084
_cell_length_b 5.299464
_cell_length_c 8.769195
_cell_angle_alpha 92.927448
_cell_angle_beta 139.765477
_cell_angle_gamma 69.299123
_cell_volume 680.440676
_symmetry_space_group_name_H-M "P -1"
_symmetry_group_IT_number 2
_symmetry_cell_setting 'triclinic'
loop_
_space_group_symop_operation_xyz
x,y,z
-x,-y,-z
loop_
_atom_site_type_symbol
_atom_site_label
_atom_site_fract_x
_atom_site_fract_y
_atom_site_fract_z
Si Si1 0.467997 0.305873 0.515271
Si Si2 0.095992 0.060433 0.220529
Si Si3 0.833610 0.392152 0.404765
Si Si4 0.001059 0.579029 0.248611
Si Si5 0.252824 0.708664 0.064181
Si Si6 0.822867 0.661570 0.951614
Si Si7 0.747555 0.838536 0.462709
Si Si8 0.538034 0.187712 0.008416
O O1 0.500000 0.500000 0.500000
O O2 0.359622 0.485069 0.296251
O O3 0.516905 0.221287 0.784667
O O4 0.500000 0.000000 0.500000
O O5 0.202178 0.978245 0.456480
O O6 0.031255 0.331715 0.184979
O O7 0.100350 0.787302 0.308747
O O8 0.058862 0.110372 0.965000
O O9 0.752196 0.668096 0.311611
O O10 0.905458 0.449020 0.466652
O O11 0.789547 0.234567 0.201501
O O12 0.931553 0.558074 0.212158
O O13 0.202102 0.556261 0.026755
O O14 0.235344 0.009609 0.106130
O O15 0.799026 0.641806 0.720319
O O16 0.644280 0.040483 0.277840
O O17 0.500000 0.500000 0.000000
O O18 0.500000 0.000000 0.000000
#
# Coordination Sequence:
#
# PCOD8026581 Si02
#       8
#     2   2   2   2   2   2   2   2
#     4  12  26  47  74  99 140 183 230 282 347 414
#     4   9  20  38  66  95 130 168 232 280 321 388
#     4  11  24  39  72  93 136 172 237 273 324 403
#     4   9  21  40  63  98 127 180 224 275 328 392
#     4  12  28  45  66 102 140 177 215 281 347 402
#     4  11  26  45  67  96 144 177 216 275 348 399
#     4  10  24  42  69  98 127 180 232 278 327 400
#     4  12  26  44  72 104 139 177 232 289 345 411
#
# _framework density 23.514173
#
# number of rings (size 3 to 8) (size 9 to 14) (size 15 to 20)
#    0.000    1.250    0.000    4.875   12.250    1.000 
#    0.000    0.000    0.000    0.000    0.000    0.000 
#    0.000    0.000    0.000    0.000    0.000    0.000 
#
# Total GULP energy -198252.382402 kJ/mol
# GULP energy per Si atom -12390.773900 kJ/mol
# Density = 2.346065 g / cm^3
# Si number density = 23.514173 Si / 1000 Ang^3
#
#
#
# Elastic Constant Matrix: (Units=GPa)
#
#
# Indices 1 2 3 4 5 6 
#
# 1 112.5382 36.2964 15.0751 -2.9497 13.8106 8.6497
# 2 36.2964 79.1948 19.2564 8.4738 8.0180 10.0259
# 3 15.0751 19.2564 48.1686 6.1728 11.6553 -9.9037
# 4 -2.9497 8.4738 6.1728 35.2559 -12.5002 -2.0678
# 5 13.8106 8.0180 11.6553 -12.5002 45.0512 -10.5501
# 6 8.6497 10.0259 -9.9037 -2.0678 -10.5501 35.1603
#
#
#
# Elastic Compliance Matrix: (Units=1/GPa)
#
#
# Indices 1 2 3 4 5 6 
#
# 1 0.011015 -0.004114 -0.001930 0.001219 -0.002449 -0.002743
# 2 -0.004114 0.017706 -0.005708 -0.005257 -0.003513 -0.007008
# 3 -0.001930 -0.005708 0.027077 -0.004782 -0.004853 0.007992
# 4 0.001219 -0.005257 -0.004782 0.035529 0.013027 0.005851
# 5 -0.002449 -0.003513 -0.004853 0.013027 0.030846 0.010259
# 6 -0.002743 -0.007008 0.007992 0.005851 0.010259 0.036788
#
#
# Mechanical properties :
#
#
# Convention : Reuss Voigt Hill
#
# Bulk Modulus (GPa) = 30.96647 42.35082 36.65865
# Shear Modulus (GPa) = 25.87617 34.37838 30.12727
#
# Velocity S-wave (km/s) = 3.32090 3.82780 3.58332
# Velocity P-wave (km/s) = 5.28227 6.13073 5.72225
#
# Compressibility (1/GPa) = 0.03229299
#
# Stress axis : x y z
#
# Youngs Moduli (GPa) = 90.78777 56.47841 36.93232
#
# Poissons Ratio (x) = 0.23235 0.07129
# Poissons Ratio (y) = 0.37351 0.21080
# Poissons Ratio (z) = 0.17524 0.32237
#
# Static dielectric constant tensor:
#      x y z
#    x 4.855190 0.009240 0.212050 
#    y 0.009240 4.173060 -0.012050 
#    z 0.212050 -0.012050 4.402000 
# 
# 
# High freq. dielectric constant tensor:
#      x y z
#    x 1.949210 -0.000680 0.008710 
#    y -0.000680 1.927280 0.000390 
#    z 0.008710 0.000390 1.936220 
# 
# From -- ./inp_files/356024.got.cif
#   From: 2010.06.25/outbox.cif.g09.slc.cpg/sg2_179_cif.got.tgz:356024.got - 2010.06.27 13:26:56.
