data_PCOD8026266
_publ_section_title
;
Structure prediction by ZEFSAII (Michael W. Deem and Ramdas Pophale) SiO2 
 PCOD8026266
Probable space group: P -1
;
_chemical_formula_sum "Si O2"
_cell_formula_units_Z 12
_cell_length_a 8.843734
_cell_length_b 8.950832
_cell_length_c 8.723512
_cell_angle_alpha 69.423285
_cell_angle_beta 47.747850
_cell_angle_gamma 74.856129
_cell_volume 478.215951
_symmetry_space_group_name_H-M "P -1"
_symmetry_group_IT_number 2
_symmetry_cell_setting 'triclinic'
loop_
_space_group_symop_operation_xyz
x,y,z
-x,-y,-z
loop_
_atom_site_type_symbol
_atom_site_label
_atom_site_fract_x
_atom_site_fract_y
_atom_site_fract_z
Si Si1 0.595256 0.586891 0.198896
Si Si2 0.859275 0.350497 0.620716
Si Si3 0.399654 0.065168 0.354554
Si Si4 0.862108 0.048495 0.934235
Si Si5 0.112866 0.203015 0.247978
Si Si6 0.519329 0.257282 0.471397
O O1 0.378198 0.597198 0.254903
O O2 0.652402 0.402715 0.267956
O O3 0.606528 0.688762 0.311196
O O4 0.767220 0.644443 0.947227
O O5 0.894945 0.225813 0.780769
O O6 0.000000 0.500000 0.500000
O O7 0.913206 0.269964 0.448599
O O8 0.252108 0.099240 0.304746
O O9 0.371447 0.204497 0.451526
O O10 0.335243 0.897690 0.535430
O O11 0.627192 0.038385 0.144112
O O12 0.937621 0.918975 0.805420
O O13 0.000000 0.000000 0.000000
#
# Coordination Sequence:
#
# PCOD8026266 Si02
#       6
#     2   2   2   2   2   2
#     4  11  24  49  70 106 143 189 233 294 356 421
#     4  12  29  46  72 107 148 184 239 295 356 421
#     4  11  23  45  74 101 141 190 233 290 354 419
#     4  12  28  46  71 109 145 185 243 293 351 424
#     4  12  26  49  76 102 144 193 236 288 361 421
#     4  10  24  40  75 101 138 185 238 287 350 419
#
# _framework density 25.093267999999998
#
# number of rings (size 3 to 8) (size 9 to 14) (size 15 to 20)
#    0.000    0.667    3.333    3.000   11.667    1.333 
#    0.000    4.167    0.000    0.000    0.000    0.000 
#    0.000    0.000    0.000    0.000    0.000    0.000 
#
# Total GULP energy -148798.677644 kJ/mol
# GULP energy per Si atom -12399.889804 kJ/mol
# Density = 2.503615 g / cm^3
# Si number density = 25.093268 Si / 1000 Ang^3
#
#
#
# Elastic Constant Matrix: (Units=GPa)
#
#
# Indices 1 2 3 4 5 6 
#
# 1 86.4813 26.6201 29.1228 -4.4266 29.6957 16.5474
# 2 26.6201 131.1580 37.6730 -30.6194 18.7116 19.5132
# 3 29.1228 37.6730 96.9675 -23.4335 17.7789 -20.7224
# 4 -4.4266 -30.6194 -23.4335 50.9843 -3.5465 12.2722
# 5 29.6957 18.7116 17.7789 -3.5465 38.9540 8.8415
# 6 16.5474 19.5132 -20.7224 12.2722 8.8415 32.3896
#
#
#
# Elastic Compliance Matrix: (Units=1/GPa)
#
#
# Indices 1 2 3 4 5 6 
#
# 1 0.019408 0.002277 -0.007636 0.002464 -0.008845 -0.014692
# 2 0.002277 0.014505 -0.007977 0.009754 0.000074 -0.018722
# 3 -0.007636 -0.007977 0.021697 -0.001917 -0.006094 0.024978
# 4 0.002464 0.009754 -0.001917 0.029743 0.001572 -0.020061
# 5 -0.008845 0.000074 -0.006094 0.001572 0.037639 -0.010295
# 6 -0.014692 -0.018722 0.024978 -0.020061 -0.010295 0.076051
#
#
# Mechanical properties :
#
#
# Convention : Reuss Voigt Hill
#
# Bulk Modulus (GPa) = 34.55525 55.71541 45.13533
# Shear Modulus (GPa) = 21.24392 39.21164 30.22778
#
# Velocity S-wave (km/s) = 2.91279 3.95731 3.47452
# Velocity P-wave (km/s) = 5.01130 6.56749 5.84145
#
# Compressibility (1/GPa) = 0.02893916
#
# Stress axis : x y z
#
# Youngs Moduli (GPa) = 51.52439 68.94033 46.08914
#
# Poissons Ratio (x) = -0.15699 0.35195
# Poissons Ratio (y) = -0.11733 0.36764
# Poissons Ratio (z) = 0.39346 0.54991
#
# Static dielectric constant tensor:
#      x y z
#    x 4.520890 -0.406180 -0.105340 
#    y -0.406180 6.956270 1.798410 
#    z -0.105340 1.798410 6.719490 
# 
# 
# High freq. dielectric constant tensor:
#      x y z
#    x 2.002590 0.005720 0.018070 
#    y 0.005720 2.014030 -0.013180 
#    z 0.018070 -0.013180 2.011650 
# 
# From -- ./inp_files/157056.got.cif
#   From: 2010.06.25/outbox.cif.g09.slc.cpg/sg2_79_cif.got.tgz:157056.got - 2010.06.27 13:26:56.
