data_PCOD8026576
_publ_section_title
;
Structure prediction by ZEFSAII (Michael W. Deem and Ramdas Pophale) SiO2 
 PCOD8026576
Probable space group: P -1
;
_chemical_formula_sum "Si O2"
_cell_formula_units_Z 14
_cell_length_a 22.626540
_cell_length_b 9.490236
_cell_length_c 12.112223
_cell_angle_alpha 127.677251
_cell_angle_beta 22.031564
_cell_angle_gamma 139.340612
_cell_volume 588.942068
_symmetry_space_group_name_H-M "P -1"
_symmetry_group_IT_number 2
_symmetry_cell_setting 'triclinic'
loop_
_space_group_symop_operation_xyz
x,y,z
-x,-y,-z
loop_
_atom_site_type_symbol
_atom_site_label
_atom_site_fract_x
_atom_site_fract_y
_atom_site_fract_z
Si Si1 0.922994 0.739697 0.329117
Si Si2 0.069418 0.441594 0.245552
Si Si3 0.338508 0.131503 0.888699
Si Si4 0.939877 0.972875 0.216370
Si Si5 0.771225 0.304995 0.494484
Si Si6 0.518771 0.100789 0.342573
Si Si7 0.542941 0.633933 0.852878
O O1 0.905045 0.515502 0.273953
O O2 0.695886 0.669894 0.704493
O O3 0.997598 0.833956 0.118678
O O4 0.089614 0.942032 0.221978
O O5 0.000000 0.500000 0.500000
O O6 0.062340 0.226465 0.183029
O O7 0.914699 0.351106 0.367867
O O8 0.298624 0.662393 0.920837
O O9 0.411862 0.046850 0.813971
O O10 0.398582 0.374186 0.931270
O O11 0.446013 0.161535 0.601409
O O12 0.692292 0.816525 0.583447
O O13 0.000000 0.000000 0.000000
O O14 0.669935 0.059592 0.493870
O O15 0.589601 0.296779 0.849056
#
# Coordination Sequence:
#
# PCOD8026576 Si02
#       7
#     2   2   2   2   2   2   2
#     4  10  24  44  72  97 131 176 228 276 323 393
#     4  12  28  46  65 101 141 175 217 279 337 400
#     4  11  23  42  71 103 129 172 228 281 325 386
#     4  10  24  46  67  96 140 173 218 273 331 398
#     4  12  25  45  72  96 134 180 223 276 333 387
#     4  11  25  42  68 103 135 170 226 276 332 396
#     4  10  24  42  69  96 134 174 231 269 325 395
#
# _framework density 23.771439000000001
#
# number of rings (size 3 to 8) (size 9 to 14) (size 15 to 20)
#    0.857    0.286    2.857    2.143    4.000    3.429 
#    0.000    1.429    0.000    0.000    0.000    0.000 
#    0.000    0.000    0.000    0.000    0.000    0.000 
#
# Total GULP energy -173557.974879 kJ/mol
# GULP energy per Si atom -12396.998206 kJ/mol
# Density = 2.371733 g / cm^3
# Si number density = 23.771439 Si / 1000 Ang^3
#
#
#
# Elastic Constant Matrix: (Units=GPa)
#
#
# Indices 1 2 3 4 5 6 
#
# 1 116.3063 25.0269 28.1711 -19.7576 -2.3673 10.7813
# 2 25.0269 83.0933 39.2512 -35.5374 6.0312 24.6235
# 3 28.1711 39.2512 85.8736 -34.3906 -11.7594 13.3250
# 4 -19.7576 -35.5374 -34.3906 45.8657 4.5417 -4.8864
# 5 -2.3673 6.0312 -11.7594 4.5417 37.0315 -5.8610
# 6 10.7813 24.6235 13.3250 -4.8864 -5.8610 35.9379
#
#
#
# Elastic Compliance Matrix: (Units=1/GPa)
#
#
# Indices 1 2 3 4 5 6 
#
# 1 0.009684 -0.000632 -0.001821 0.002187 -0.000371 -0.001560
# 2 -0.000632 0.026912 -0.004367 0.016623 -0.010391 -0.016065
# 3 -0.001821 -0.004367 0.018908 0.009348 0.005240 -0.001347
# 4 0.002187 0.016623 0.009348 0.042120 -0.006481 -0.010841
# 5 -0.000371 -0.010391 0.005240 -0.006481 0.032672 0.009736
# 6 -0.001560 -0.016065 -0.001347 -0.010841 0.009736 0.039914
#
#
# Mechanical properties :
#
#
# Convention : Reuss Voigt Hill
#
# Bulk Modulus (GPa) = 23.88623 52.24130 38.06376
# Shear Modulus (GPa) = 25.27756 36.62194 30.94975
#
# Velocity S-wave (km/s) = 3.26446 3.92929 3.61220
# Velocity P-wave (km/s) = 4.92737 6.52763 5.78312
#
# Compressibility (1/GPa) = 0.04186513
#
# Stress axis : x y z
#
# Youngs Moduli (GPa) = 103.26764 37.15851 52.88667
#
# Poissons Ratio (x) = 0.02347 0.09630
# Poissons Ratio (y) = 0.06524 0.23094
# Poissons Ratio (z) = 0.18803 0.16226
#
# Static dielectric constant tensor:
#      x y z
#    x 4.308350 -0.187140 -0.011180 
#    y -0.187140 4.669970 -0.417600 
#    z -0.011180 -0.417600 4.460430 
# 
# 
# High freq. dielectric constant tensor:
#      x y z
#    x 1.938750 0.001670 0.002530 
#    y 0.001670 1.943380 -0.017040 
#    z 0.002530 -0.017040 1.956650 
# 
# From -- ./inp_files/469475.got.cif
#   From: 2010.06.25/outbox.cif.g09.slc.cpg/sg2_235_cif.got.tgz:469475.got - 2010.06.27 13:26:56.
