data_PCOD8026859
_publ_section_title
;
Structure prediction by ZEFSAII (Michael W. Deem and Ramdas Pophale) SiO2 
 PCOD8026859
Probable space group: P -1
;
_chemical_formula_sum "Si O2"
_cell_formula_units_Z 14
_cell_length_a 12.257250
_cell_length_b 8.523682
_cell_length_c 9.728385
_cell_angle_alpha 108.837499
_cell_angle_beta 53.489935
_cell_angle_gamma 130.490914
_cell_volume 617.925121
_symmetry_space_group_name_H-M "P -1"
_symmetry_group_IT_number 2
_symmetry_cell_setting 'triclinic'
loop_
_space_group_symop_operation_xyz
x,y,z
-x,-y,-z
loop_
_atom_site_type_symbol
_atom_site_label
_atom_site_fract_x
_atom_site_fract_y
_atom_site_fract_z
Si Si1 0.035873 0.384875 0.647224
Si Si2 0.678374 0.419014 0.291176
Si Si3 0.629155 0.740179 0.342976
Si Si4 0.051724 0.864435 0.870565
Si Si5 0.219593 0.840204 0.987444
Si Si6 0.498859 0.674733 0.127895
Si Si7 0.876750 0.579233 0.692610
O O1 0.010816 0.541017 0.633691
O O2 0.202932 0.525547 0.652088
O O3 0.069629 0.296662 0.460266
O O4 0.873476 0.215301 0.811381
O O5 0.724514 0.630973 0.250301
O O6 0.483091 0.293909 0.450387
O O7 0.694582 0.278410 0.130839
O O8 0.511331 0.647633 0.271645
O O9 0.767613 0.987825 0.300851
O O10 0.077921 0.755383 0.947622
O O11 0.896473 0.723093 0.842220
O O12 0.000000 0.000000 0.000000
O O13 0.355526 0.088732 0.959398
O O14 0.316802 0.627288 0.224475
O O15 0.500000 0.500000 0.000000
#
# Coordination Sequence:
#
# PCOD8026859 Si02
#       7
#     2   2   2   2   2   2   2
#     4  11  24  42  68 106 132 179 224 288 335 400
#     4  11  22  44  70 101 132 176 239 279 334 405
#     4  10  24  43  69  98 136 178 224 287 336 403
#     4  11  23  43  70 100 131 185 228 276 337 411
#     4  11  25  43  75  97 132 183 239 274 327 418
#     4  11  25  46  66 100 138 180 219 286 350 402
#     4  11  24  44  67  97 146 172 221 283 352 397
#
# _framework density 22.656466999999999
#
# number of rings (size 3 to 8) (size 9 to 14) (size 15 to 20)
#    0.000    1.143    2.857    3.000    4.000    5.143 
#    5.143    2.143    0.000    0.000    0.000    0.000 
#    0.000    0.000    0.000    0.000    0.000    0.000 
#
# Total GULP energy -173491.352456 kJ/mol
# GULP energy per Si atom -12392.239461 kJ/mol
# Density = 2.260490 g / cm^3
# Si number density = 22.656467 Si / 1000 Ang^3
#
#
#
# Elastic Constant Matrix: (Units=GPa)
#
#
# Indices 1 2 3 4 5 6 
#
# 1 106.3347 34.7068 22.2335 -3.5651 4.3461 9.8058
# 2 34.7068 84.6310 43.1537 1.1921 13.3064 5.2245
# 3 22.2335 43.1537 111.0971 -10.5512 14.6365 2.7650
# 4 -3.5651 1.1921 -10.5512 31.9006 -3.9382 3.0452
# 5 4.3461 13.3064 14.6365 -3.9382 38.2485 5.6215
# 6 9.8058 5.2245 2.7650 3.0452 5.6215 39.3289
#
#
#
# Elastic Compliance Matrix: (Units=1/GPa)
#
#
# Indices 1 2 3 4 5 6 
#
# 1 0.011164 -0.004372 -0.000447 0.001612 0.000947 -0.002432
# 2 -0.004372 0.017092 -0.005609 -0.003434 -0.003657 0.000002
# 3 -0.000447 -0.005609 0.011918 0.003831 -0.002169 0.000032
# 4 0.001612 -0.003434 0.003831 0.033672 0.003501 -0.003323
# 5 0.000947 -0.003657 -0.002169 0.003501 0.029092 -0.004027
# 6 -0.002432 0.000002 0.000032 -0.003323 -0.004027 0.026863
#
#
# Mechanical properties :
#
#
# Convention : Reuss Voigt Hill
#
# Bulk Modulus (GPa) = 51.76268 55.80562 53.78415
# Shear Modulus (GPa) = 31.82762 35.36019 33.59390
#
# Velocity S-wave (km/s) = 3.75212 3.95487 3.85483
# Velocity P-wave (km/s) = 6.45504 6.74828 6.60329
#
# Compressibility (1/GPa) = 0.01931894
#
# Stress axis : x y z
#
# Youngs Moduli (GPa) = 89.57123 58.50725 83.90728
#
# Poissons Ratio (x) = 0.25579 0.03753
# Poissons Ratio (y) = 0.39159 0.47059
# Poissons Ratio (z) = 0.04006 0.32814
#
# Static dielectric constant tensor:
#      x y z
#    x 3.862160 -0.645170 -0.006930 
#    y -0.645170 4.193220 -0.700100 
#    z -0.006930 -0.700100 4.773290 
# 
# 
# High freq. dielectric constant tensor:
#      x y z
#    x 1.903540 0.004990 -0.002780 
#    y 0.004990 1.873900 -0.007030 
#    z -0.002780 -0.007030 1.909910 
# 
# From -- ./inp_files/243743.got.cif
#   From: 2010.06.25/outbox.cif.g09.slc.cpg/sg2_122_cif.got.tgz:243743.got - 2010.06.27 13:26:56.
