data_PCOD8026310
_publ_section_title
;
Structure prediction by ZEFSAII (Michael W. Deem and Ramdas Pophale) SiO2 
 PCOD8026310
Probable space group: P -1
;
_chemical_formula_sum "Si O2"
_cell_formula_units_Z 14
_cell_length_a 7.866783
_cell_length_b 11.930839
_cell_length_c 11.610665
_cell_angle_alpha 49.268437
_cell_angle_beta 70.585999
_cell_angle_gamma 53.287972
_cell_volume 658.997731
_symmetry_space_group_name_H-M "P -1"
_symmetry_group_IT_number 2
_symmetry_cell_setting 'triclinic'
loop_
_space_group_symop_operation_xyz
x,y,z
-x,-y,-z
loop_
_atom_site_type_symbol
_atom_site_label
_atom_site_fract_x
_atom_site_fract_y
_atom_site_fract_z
Si Si1 0.882886 0.778899 0.846411
Si Si2 0.589009 0.031391 0.576401
Si Si3 0.130629 0.966645 0.659205
Si Si4 0.161341 0.644937 0.499739
Si Si5 0.546796 0.608671 0.576092
Si Si6 0.462196 0.381907 0.170194
Si Si7 0.017904 0.504557 0.822799
O O1 0.052072 0.615985 0.837773
O O2 0.967539 0.906469 0.762039
O O3 0.654385 0.888732 0.758477
O O4 0.860956 0.698538 0.026138
O O5 0.811542 0.020337 0.496709
O O6 0.426093 0.224365 0.533919
O O7 0.500000 0.000000 0.500000
O O8 0.360030 0.821737 0.760274
O O9 0.039839 0.158153 0.607549
O O10 0.343501 0.660136 0.510140
O O11 0.240284 0.552343 0.420231
O O12 0.107374 0.523151 0.669222
O O13 0.515990 0.560961 0.743929
O O14 0.232722 0.411532 0.186912
O O15 0.500000 0.500000 0.000000
#
# Coordination Sequence:
#
# PCOD8026310 Si02
#       7
#     2   2   2   2   2   2   2
#     4  11  20  36  62  91 123 165 208 263 312 370
#     4  11  21  38  63  98 122 161 220 267 303 372
#     4  11  21  37  64  87 123 167 214 256 311 378
#     4  11  23  43  64  92 125 174 214 255 318 391
#     4  10  24  41  65  89 130 169 211 264 318 378
#     4  11  23  39  62  97 127 160 212 277 313 363
#     4  11  23  36  62  96 127 162 211 266 322 366
#
# _framework density 21.244385000000001
#
# number of rings (size 3 to 8) (size 9 to 14) (size 15 to 20)
#    0.000    1.143    4.286    3.857    2.000    0.571 
#    0.000    1.429    0.000    0.000    0.000    0.000 
#    0.000    0.000    0.000    0.000    0.000    0.000 
#
# Total GULP energy -173487.307777 kJ/mol
# GULP energy per Si atom -12391.950555 kJ/mol
# Density = 2.119603 g / cm^3
# Si number density = 21.244385 Si / 1000 Ang^3
#
#
#
# Elastic Constant Matrix: (Units=GPa)
#
#
# Indices 1 2 3 4 5 6 
#
# 1 70.0636 27.6286 35.6294 -4.0210 3.6424 3.8894
# 2 27.6286 151.1796 67.0944 -12.3098 6.4083 -0.5648
# 3 35.6294 67.0944 164.4864 -23.0179 8.7728 -4.7345
# 4 -4.0210 -12.3098 -23.0179 28.3331 -4.4667 0.9919
# 5 3.6424 6.4083 8.7728 -4.4667 33.7885 -4.7190
# 6 3.8894 -0.5648 -4.7345 0.9919 -4.7190 24.2530
#
#
#
# Elastic Compliance Matrix: (Units=1/GPa)
#
#
# Indices 1 2 3 4 5 6 
#
# 1 0.016732 -0.001724 -0.003089 -0.000964 -0.001297 -0.003539
# 2 -0.001724 0.008297 -0.002854 0.000963 -0.000552 -0.000234
# 3 -0.003089 -0.002854 0.008727 0.005279 -0.000438 0.001831
# 4 -0.000964 0.000963 0.005279 0.040475 0.003946 0.000320
# 5 -0.001297 -0.000552 -0.000438 0.003946 0.031320 0.006042
# 6 -0.003539 -0.000234 0.001831 0.000320 0.006042 0.043314
#
#
# Mechanical properties :
#
#
# Convention : Reuss Voigt Hill
#
# Bulk Modulus (GPa) = 54.27699 71.82608 63.05153
# Shear Modulus (GPa) = 29.35324 34.30005 31.82665
#
# Velocity S-wave (km/s) = 3.72115 4.02250 3.87476
# Velocity P-wave (km/s) = 6.63829 7.44694 7.05421
#
# Compressibility (1/GPa) = 0.01842401
#
# Stress axis : x y z
#
# Youngs Moduli (GPa) = 59.76661 120.52500 114.58246
#
# Poissons Ratio (x) = 0.20775 0.35392
# Poissons Ratio (y) = 0.10302 0.32696
# Poissons Ratio (z) = 0.18461 0.34392
#
# Static dielectric constant tensor:
#      x y z
#    x 3.981110 0.005930 -0.117940 
#    y 0.005930 3.759850 -0.254630 
#    z -0.117940 -0.254630 4.156260 
# 
# 
# High freq. dielectric constant tensor:
#      x y z
#    x 1.837850 0.002090 -0.001410 
#    y 0.002090 1.798810 -0.027340 
#    z -0.001410 -0.027340 1.837310 
# 
# From -- ./inp_files/392047.got.cif
#   From: 2010.06.25/outbox.cif.g09.slc.cpg/sg2_197_cif.got.tgz:392047.got - 2010.06.27 13:26:56.
