data_PCOD8026476
_publ_section_title
;
Structure prediction by ZEFSAII (Michael W. Deem and Ramdas Pophale) SiO2 
 PCOD8026476
Probable space group: P -1
;
_chemical_formula_sum "Si O2"
_cell_formula_units_Z 14
_cell_length_a 25.072191
_cell_length_b 5.446990
_cell_length_c 8.177926
_cell_angle_alpha 98.146735
_cell_angle_beta 144.835121
_cell_angle_gamma 97.928524
_cell_volume 570.169306
_symmetry_space_group_name_H-M "P -1"
_symmetry_group_IT_number 2
_symmetry_cell_setting 'triclinic'
loop_
_space_group_symop_operation_xyz
x,y,z
-x,-y,-z
loop_
_atom_site_type_symbol
_atom_site_label
_atom_site_fract_x
_atom_site_fract_y
_atom_site_fract_z
Si Si1 0.020770 0.573822 0.866394
Si Si2 0.588313 0.279412 0.687298
Si Si3 0.814897 0.517231 0.261842
Si Si4 0.512245 0.514012 0.783970
Si Si5 0.193412 0.515495 0.125281
Si Si6 0.886666 0.787115 0.790488
Si Si7 0.408170 0.059946 0.716929
O O1 0.901951 0.406926 0.489438
O O2 0.098359 0.595179 0.915589
O O3 0.047530 0.401391 0.062418
O O4 0.037871 0.888945 0.976657
O O5 0.587133 0.518361 0.825411
O O6 0.562864 0.347824 0.447212
O O7 0.500000 0.000000 0.500000
O O8 0.698697 0.271841 0.966702
O O9 0.827261 0.731090 0.461934
O O10 0.821250 0.636622 0.103049
O O11 0.436474 0.197582 0.620444
O O12 0.590821 0.697436 0.139228
O O13 0.188943 0.315046 0.248267
O O14 0.298794 0.795735 0.423775
O O15 0.500000 0.000000 0.000000
#
# Coordination Sequence:
#
# PCOD8026476 Si02
#       7
#     2   2   2   2   2   2   2
#     4  10  25  51  72 110 147 193 247 307 366 442
#     4  11  25  44  66 104 143 183 245 292 363 440
#     4  12  24  47  73 104 143 197 238 310 366 438
#     4  10  24  42  66 102 138 191 235 298 357 440
#     4  10  26  44  71 109 144 189 249 302 367 438
#     4  10  26  48  74 106 149 190 249 299 372 434
#     4  11  23  44  71  98 145 187 239 295 369 431
#
# _framework density 24.554110999999999
#
# number of rings (size 3 to 8) (size 9 to 14) (size 15 to 20)
#    0.857    0.571    0.000    3.857    6.000    2.857 
#   15.429    0.000    0.000    0.000    0.000    0.000 
#    0.000    0.000    0.000    0.000    0.000    0.000 
#
# Total GULP energy -173453.661120 kJ/mol
# GULP energy per Si atom -12389.547223 kJ/mol
# Density = 2.449822 g / cm^3
# Si number density = 24.554111 Si / 1000 Ang^3
#
#
#
# Elastic Constant Matrix: (Units=GPa)
#
#
# Indices 1 2 3 4 5 6 
#
# 1 143.1096 44.2972 90.8240 3.5708 -13.9500 27.5696
# 2 44.2972 117.7344 48.3427 -2.2463 3.3626 36.3183
# 3 90.8240 48.3427 159.9553 4.6236 14.9761 24.4245
# 4 3.5708 -2.2463 4.6236 24.4546 1.9261 0.5727
# 5 -13.9500 3.3626 14.9761 1.9261 63.0603 -3.4145
# 6 27.5696 36.3183 24.4245 0.5727 -3.4145 44.2899
#
#
#
# Elastic Compliance Matrix: (Units=1/GPa)
#
#
# Indices 1 2 3 4 5 6 
#
# 1 0.012649 -0.001279 -0.006755 -0.000966 0.004351 -0.002752
# 2 -0.001279 0.012354 -0.001661 0.001919 -0.001068 -0.008525
# 3 -0.006755 -0.001661 0.011130 -0.000930 -0.004068 -0.000873
# 4 -0.000966 0.001919 -0.000930 0.041523 -0.001423 -0.001107
# 5 0.004351 -0.001068 -0.004068 -0.001423 0.017985 0.001815
# 6 -0.002752 -0.008525 -0.000873 -0.001107 0.001815 0.031918
#
#
# Mechanical properties :
#
#
# Convention : Reuss Voigt Hill
#
# Bulk Modulus (GPa) = 59.72779 87.52523 73.62651
# Shear Modulus (GPa) = 32.78036 42.18332 37.48184
#
# Velocity S-wave (km/s) = 3.65776 4.14934 3.91128
# Velocity P-wave (km/s) = 6.49744 7.66024 7.10268
#
# Compressibility (1/GPa) = 0.01674262
#
# Stress axis : x y z
#
# Youngs Moduli (GPa) = 79.05839 80.94527 89.84590
#
# Poissons Ratio (x) = 0.10356 0.60689
# Poissons Ratio (y) = 0.10115 0.14923
# Poissons Ratio (z) = 0.53402 0.13445
#
# Static dielectric constant tensor:
#      x y z
#    x 5.348970 -0.170900 -0.416830 
#    y -0.170900 4.307840 0.127290 
#    z -0.416830 0.127290 4.566680 
# 
# 
# High freq. dielectric constant tensor:
#      x y z
#    x 2.021420 0.007020 -0.007760 
#    y 0.007020 1.949500 0.001410 
#    z -0.007760 0.001410 1.970840 
# 
# From -- ./inp_files/358091.got.cif
#   From: 2010.06.25/outbox.cif.g09.slc.cpg/sg2_180_cif.got.tgz:358091.got - 2010.06.27 13:26:56.
