data_PCOD8026594
_publ_section_title
;
Structure prediction by ZEFSAII (Michael W. Deem and Ramdas Pophale) SiO2 
 PCOD8026594
Probable space group: P -1
;
_chemical_formula_sum "Si O2"
_cell_formula_units_Z 14
_cell_length_a 17.726184
_cell_length_b 10.000076
_cell_length_c 6.142797
_cell_angle_alpha 133.715470
_cell_angle_beta 118.307593
_cell_angle_gamma 44.802848
_cell_volume 554.317388
_symmetry_space_group_name_H-M "P -1"
_symmetry_group_IT_number 2
_symmetry_cell_setting 'triclinic'
loop_
_space_group_symop_operation_xyz
x,y,z
-x,-y,-z
loop_
_atom_site_type_symbol
_atom_site_label
_atom_site_fract_x
_atom_site_fract_y
_atom_site_fract_z
Si Si1 0.659035 0.708668 0.877136
Si Si2 0.068083 0.821404 0.077649
Si Si3 0.960087 0.791107 0.280625
Si Si4 0.710085 0.386116 0.944763
Si Si5 0.477623 0.215048 0.590307
Si Si6 0.836517 0.637284 0.755584
Si Si7 0.703986 0.983350 0.573592
O O1 0.663747 0.508775 0.788039
O O2 0.546198 0.827137 0.734009
O O3 0.752416 0.603648 0.705667
O O4 0.670055 0.876109 0.228073
O O5 0.182292 0.622355 0.896632
O O6 0.014528 0.724969 0.035207
O O7 0.091750 0.946224 0.435834
O O8 0.000000 0.000000 0.000000
O O9 0.048225 0.618288 0.393486
O O10 0.863348 0.769173 0.111155
O O11 0.748079 0.121784 0.698708
O O12 0.624935 0.538950 0.187842
O O13 0.586639 0.192638 0.744901
O O14 0.500000 0.000000 0.500000
O O15 0.789438 0.787053 0.638005
#
# Coordination Sequence:
#
# PCOD8026594 Si02
#       7
#     2   2   2   2   2   2   2
#     4  12  25  46  75 102 146 184 240 290 353 421
#     4  11  24  42  69 102 142 181 237 287 352 417
#     4  10  24  42  70 105 136 189 229 293 346 419
#     4  12  27  46  71 109 140 188 236 293 355 421
#     4  12  26  48  75 104 145 186 235 296 358 418
#     4  11  23  45  72 102 144 180 237 288 353 417
#     4  12  27  47  74 106 142 192 235 294 353 427
#
# _framework density 25.256291000000001
#
# number of rings (size 3 to 8) (size 9 to 14) (size 15 to 20)
#    0.000    0.571    4.286    2.571    4.000    2.857 
#    0.000    3.571    0.000    0.000    0.000    0.000 
#    0.000    0.000    0.000    0.000    0.000    0.000 
#
# Total GULP energy -173445.613290 kJ/mol
# GULP energy per Si atom -12388.972378 kJ/mol
# Density = 2.519881 g / cm^3
# Si number density = 25.256291 Si / 1000 Ang^3
#
#
#
# Elastic Constant Matrix: (Units=GPa)
#
#
# Indices 1 2 3 4 5 6 
#
# 1 97.5051 29.9691 -0.1778 -11.3978 4.6122 3.2881
# 2 29.9691 157.3558 48.3166 -31.6512 7.1668 10.5055
# 3 -0.1778 48.3166 41.3608 -4.1747 4.3805 6.6787
# 4 -11.3978 -31.6512 -4.1747 46.8757 -5.8155 6.2599
# 5 4.6122 7.1668 4.3805 -5.8155 34.9259 0.5361
# 6 3.2881 10.5055 6.6787 6.2599 0.5361 54.0576
#
#
#
# Elastic Compliance Matrix: (Units=1/GPa)
#
#
# Indices 1 2 3 4 5 6 
#
# 1 0.011413 -0.003112 0.004020 0.000975 -0.001200 -0.000687
# 2 -0.003112 0.012671 -0.013987 0.006823 0.000722 -0.001342
# 3 0.004020 -0.013987 0.040718 -0.005025 -0.003575 -0.001940
# 4 0.000975 0.006823 -0.005025 0.026696 0.003606 -0.003892
# 5 -0.001200 0.000722 -0.003575 0.003606 0.029696 -0.000338
# 6 -0.000687 -0.001342 -0.001940 -0.003892 -0.000338 0.019495
#
#
# Mechanical properties :
#
#
# Convention : Reuss Voigt Hill
#
# Bulk Modulus (GPa) = 25.87497 50.27083 38.07290
# Shear Modulus (GPa) = 27.81957 41.71277 34.76617
#
# Velocity S-wave (km/s) = 3.32247 4.06837 3.71419
# Velocity P-wave (km/s) = 4.99856 6.48200 5.78800
#
# Compressibility (1/GPa) = 0.03864739
#
# Stress axis : x y z
#
# Youngs Moduli (GPa) = 87.61562 78.91797 24.55892
#
# Poissons Ratio (x) = 0.24556 -0.09874
# Poissons Ratio (y) = 0.27262 0.34350
# Poissons Ratio (z) = -0.35225 1.10381
#
# Static dielectric constant tensor:
#      x y z
#    x 3.917310 0.444000 -0.159350 
#    y 0.444000 4.608090 -0.147080 
#    z -0.159350 -0.147080 4.886360 
# 
# 
# High freq. dielectric constant tensor:
#      x y z
#    x 2.018690 -0.005450 0.003630 
#    y -0.005450 2.019860 -0.002110 
#    z 0.003630 -0.002110 1.994640 
# 
# From -- ./inp_files/48165.got.cif
#   From: 2010.06.25/outbox.cif.g09.slc.cpg/sg2_25_cif.got.tgz:48165.got - 2010.06.27 13:26:56.
