data_PCOD8026497
_publ_section_title
;
Structure prediction by ZEFSAII (Michael W. Deem and Ramdas Pophale) SiO2 
 PCOD8026497
Probable space group: P -1
;
_chemical_formula_sum "Si O2"
_cell_formula_units_Z 12
_cell_length_a 9.669468
_cell_length_b 5.168274
_cell_length_c 21.340651
_cell_angle_alpha 76.582743
_cell_angle_beta 42.288445
_cell_angle_gamma 101.008667
_cell_volume 581.093106
_symmetry_space_group_name_H-M "P -1"
_symmetry_group_IT_number 2
_symmetry_cell_setting 'triclinic'
loop_
_space_group_symop_operation_xyz
x,y,z
-x,-y,-z
loop_
_atom_site_type_symbol
_atom_site_label
_atom_site_fract_x
_atom_site_fract_y
_atom_site_fract_z
Si Si1 0.001804 0.849331 0.169778
Si Si2 0.599881 0.284841 0.498389
Si Si3 0.625899 0.860849 0.080237
Si Si4 0.309075 0.865009 0.732819
Si Si5 0.561528 0.243439 0.172620
Si Si6 0.141682 0.780142 0.259079
O O1 0.827914 0.468880 0.239610
O O2 0.080056 0.919027 0.212186
O O3 0.873527 0.037020 0.186829
O O4 0.241853 0.994919 0.037967
O O5 0.500000 0.500000 0.500000
O O6 0.895696 0.483954 0.388412
O O7 0.500000 0.000000 0.500000
O O8 0.511730 0.148277 0.605040
O O9 0.689956 0.620619 0.101017
O O10 0.329355 0.679856 0.179673
O O11 0.720104 0.146354 0.083449
O O12 0.448723 0.842116 0.746702
O O13 0.280960 0.054359 0.250236
#
# Coordination Sequence:
#
# PCOD8026497 Si02
#       6
#     2   2   2   2   2   2
#     4  12  24  41  72  92 136 167 227 255 316 387
#     4  12  24  44  69  95 126 165 220 273 316 378
#     4  10  24  42  66  98 130 177 208 265 321 378
#     4  12  25  43  66 103 123 177 212 269 321 380
#     4  10  25  42  64  97 139 163 217 257 335 377
#     4  10  25  43  67  95 130 171 217 267 318 381
#
# _framework density 20.650734
#
# number of rings (size 3 to 8) (size 9 to 14) (size 15 to 20)
#    1.000    0.000    3.333    2.500    4.667    5.333 
#    0.000    0.833    0.000    0.000    0.000    0.000 
#    0.000    0.000    0.000    0.000    0.000    0.000 
#
# Total GULP energy -148787.209526 kJ/mol
# GULP energy per Si atom -12398.934127 kJ/mol
# Density = 2.060373 g / cm^3
# Si number density = 20.650734 Si / 1000 Ang^3
#
#
#
# Elastic Constant Matrix: (Units=GPa)
#
#
# Indices 1 2 3 4 5 6 
#
# 1 111.1195 33.2764 58.4402 -5.4311 23.6984 -2.0567
# 2 33.2764 127.6832 21.0394 -11.2263 3.2871 -13.8703
# 3 58.4402 21.0394 129.0276 0.8721 10.1265 -10.5541
# 4 -5.4311 -11.2263 0.8721 26.2272 -7.5303 8.4884
# 5 23.6984 3.2871 10.1265 -7.5303 30.6380 -0.4856
# 6 -2.0567 -13.8703 -10.5541 8.4884 -0.4856 20.0780
#
#
#
# Elastic Compliance Matrix: (Units=1/GPa)
#
#
# Indices 1 2 3 4 5 6 
#
# 1 0.014931 -0.003081 -0.005890 0.000701 -0.009166 -0.004213
# 2 -0.003081 0.009332 0.000141 0.002190 0.001958 0.005327
# 3 -0.005890 0.000141 0.010970 -0.003701 0.000114 0.006828
# 4 0.000701 0.002190 -0.003701 0.049693 0.012326 -0.021072
# 5 -0.009166 0.001958 0.000114 0.012326 0.042452 -0.003711
# 6 -0.004213 0.005327 0.006828 -0.021072 -0.003711 0.065462
#
#
# Mechanical properties :
#
#
# Convention : Reuss Voigt Hill
#
# Bulk Modulus (GPa) = 56.90608 65.92694 61.41651
# Shear Modulus (GPa) = 23.10989 32.39360 27.75174
#
# Velocity S-wave (km/s) = 3.34890 3.96490 3.66985
# Velocity P-wave (km/s) = 6.52455 7.27700 6.91102
#
# Compressibility (1/GPa) = 0.01757282
#
# Stress axis : x y z
#
# Youngs Moduli (GPa) = 66.97563 107.15386 91.15973
#
# Poissons Ratio (x) = 0.33011 0.53695
# Poissons Ratio (y) = 0.20633 -0.01284
# Poissons Ratio (z) = 0.39450 -0.01509
#
# Static dielectric constant tensor:
#      x y z
#    x 3.570380 -0.022920 -0.004120 
#    y -0.022920 3.768360 -0.010410 
#    z -0.004120 -0.010410 3.808340 
# 
# 
# High freq. dielectric constant tensor:
#      x y z
#    x 1.802700 -0.004080 0.008060 
#    y -0.004080 1.814920 -0.000780 
#    z 0.008060 -0.000780 1.810810 
# 
# From -- ./inp_files/32912.got.cif
#   From: 2010.06.25/outbox.cif.g09.slc.cpg/sg2_17_cif.got.tgz:32912.got - 2010.06.27 13:26:56.
