data_PCOD8026082
_publ_section_title
;
Structure prediction by ZEFSAII (Michael W. Deem and Ramdas Pophale) SiO2 
 PCOD8026082
Probable space group: P -1
;
_chemical_formula_sum "Si O2"
_cell_formula_units_Z 16
_cell_length_a 13.898141
_cell_length_b 9.334830
_cell_length_c 12.023246
_cell_angle_alpha 37.029554
_cell_angle_beta 125.175336
_cell_angle_gamma 131.883652
_cell_volume 696.137054
_symmetry_space_group_name_H-M "P -1"
_symmetry_group_IT_number 2
_symmetry_cell_setting 'triclinic'
loop_
_space_group_symop_operation_xyz
x,y,z
-x,-y,-z
loop_
_atom_site_type_symbol
_atom_site_label
_atom_site_fract_x
_atom_site_fract_y
_atom_site_fract_z
Si Si1 0.688191 0.134838 0.799569
Si Si2 0.624642 0.940526 0.641917
Si Si3 0.110900 0.759773 0.958123
Si Si4 0.345421 0.400326 0.562344
Si Si5 0.710954 0.132952 0.199715
Si Si6 0.164961 0.695958 0.597739
Si Si7 0.896511 0.717637 0.370310
Si Si8 0.497007 0.650122 0.098654
O O1 0.608821 0.318797 0.644830
O O2 0.707032 0.102863 0.701229
O O3 0.826747 0.287542 0.857419
O O4 0.616334 0.844329 0.983512
O O5 0.578297 0.634740 0.830286
O O6 0.500000 0.000000 0.500000
O O7 0.725213 0.035860 0.547083
O O8 0.217122 0.859258 0.871695
O O9 0.057135 0.975739 0.816156
O O10 0.000000 0.500000 0.000000
O O11 0.211572 0.369191 0.552045
O O12 0.453870 0.405686 0.716998
O O13 0.329649 0.172453 0.603436
O O14 0.793012 0.323660 0.235027
O O15 0.595596 0.203638 0.041031
O O16 0.161407 0.449601 0.677073
O O17 0.023187 0.688174 0.514863
#
# Coordination Sequence:
#
# PCOD8026082 Si02
#       8
#     2   2   2   2   2   2   2   2
#     4  12  25  45  77 100 146 197 236 297 365 425
#     4  12  25  45  74 110 144 191 242 292 369 428
#     4  11  28  46  71 104 146 195 242 290 367 430
#     4  11  24  47  72  99 148 190 235 290 368 427
#     4  11  27  44  71 107 146 188 237 302 355 428
#     4  11  25  45  74 106 138 189 242 302 355 418
#     4  10  23  48  71  99 144 184 243 296 354 426
#     4  12  25  46  71 110 147 183 248 294 353 440
#
# _framework density 22.983981
#
# number of rings (size 3 to 8) (size 9 to 14) (size 15 to 20)
#    0.000    0.750    5.000    1.500    7.000    1.500 
#    0.000    1.250    0.000    0.000    0.000    0.000 
#    0.000    0.000    0.000    0.000    0.000    0.000 
#
# Total GULP energy -198350.084483 kJ/mol
# GULP energy per Si atom -12396.880280 kJ/mol
# Density = 2.293167 g / cm^3
# Si number density = 22.983981 Si / 1000 Ang^3
#
#
#
# Elastic Constant Matrix: (Units=GPa)
#
#
# Indices 1 2 3 4 5 6 
#
# 1 79.5040 32.0382 21.7302 8.5309 21.3399 -3.2089
# 2 32.0382 149.1999 60.0353 1.4152 12.4167 -5.1263
# 3 21.7302 60.0353 113.4903 -4.1722 15.5669 -4.8336
# 4 8.5309 1.4152 -4.1722 57.2180 -7.2412 5.1294
# 5 21.3399 12.4167 15.5669 -7.2412 25.5891 0.5650
# 6 -3.2089 -5.1263 -4.8336 5.1294 0.5650 28.3261
#
#
#
# Elastic Compliance Matrix: (Units=1/GPa)
#
#
# Indices 1 2 3 4 5 6 
#
# 1 0.018419 -0.002456 -0.000159 -0.004914 -0.015525 0.002815
# 2 -0.002456 0.008956 -0.004280 -0.000195 0.000236 0.000643
# 3 -0.000159 -0.004280 0.011849 0.000251 -0.004957 0.001283
# 4 -0.004914 -0.000195 0.000251 0.019856 0.009755 -0.004339
# 5 -0.015525 0.000236 -0.004957 0.009755 0.057808 -0.005481
# 6 0.002815 0.000643 0.001283 -0.004339 -0.005481 0.036852
#
#
# Mechanical properties :
#
#
# Convention : Reuss Voigt Hill
#
# Bulk Modulus (GPa) = 39.31492 63.31130 51.31311
# Shear Modulus (GPa) = 28.40765 37.45267 32.93016
#
# Velocity S-wave (km/s) = 3.51946 4.04110 3.78927
# Velocity P-wave (km/s) = 5.80155 7.02706 6.44351
#
# Compressibility (1/GPa) = 0.02543564
#
# Stress axis : x y z
#
# Youngs Moduli (GPa) = 54.29153 111.65546 84.39244
#
# Poissons Ratio (x) = 0.27422 0.01341
# Poissons Ratio (y) = 0.13334 0.36117
# Poissons Ratio (z) = 0.00863 0.47785
#
# Static dielectric constant tensor:
#      x y z
#    x 4.803440 1.328800 -0.867740 
#    y 1.328800 6.704560 -1.863470 
#    z -0.867740 -1.863470 5.447650 
# 
# 
# High freq. dielectric constant tensor:
#      x y z
#    x 1.894430 -0.004890 0.010530 
#    y -0.004890 1.927170 -0.007560 
#    z 0.010530 -0.007560 1.913160 
# 
# From -- ./inp_files/446707.got.cif
#   From: 2010.06.25/outbox.cif.g09.slc.cpg/sg2_224_cif.got.tgz:446707.got - 2010.06.27 13:26:56.
