data_PCOD8026029
_publ_section_title
;
Structure prediction by ZEFSAII (Michael W. Deem and Ramdas Pophale) SiO2 
 PCOD8026029
Probable space group: P -1
;
_chemical_formula_sum "Si O2"
_cell_formula_units_Z 16
_cell_length_a 13.872366
_cell_length_b 8.782531
_cell_length_c 11.269937
_cell_angle_alpha 90.609641
_cell_angle_beta 31.762813
_cell_angle_gamma 76.675508
_cell_volume 643.591744
_symmetry_space_group_name_H-M "P -1"
_symmetry_group_IT_number 2
_symmetry_cell_setting 'triclinic'
loop_
_space_group_symop_operation_xyz
x,y,z
-x,-y,-z
loop_
_atom_site_type_symbol
_atom_site_label
_atom_site_fract_x
_atom_site_fract_y
_atom_site_fract_z
Si Si1 0.709552 0.720914 0.268564
Si Si2 0.154012 0.302852 0.357043
Si Si3 0.789029 0.178271 0.412360
Si Si4 0.832682 0.963527 0.835553
Si Si5 0.457194 0.007004 0.357895
Si Si6 0.152559 0.655755 0.866886
Si Si7 0.097436 0.727561 0.195289
Si Si8 0.448241 0.410332 0.947096
O O1 0.600858 0.822937 0.265518
O O2 0.689621 0.545269 0.291242
O O3 0.594725 0.831692 0.503782
O O4 0.947185 0.676762 0.017225
O O5 0.088660 0.177419 0.350931
O O6 0.000000 0.500000 0.500000
O O7 0.122764 0.260381 0.527408
O O8 0.379074 0.275880 0.080707
O O9 0.746851 0.011052 0.465370
O O10 0.749643 0.250933 0.319357
O O11 0.648048 0.315565 0.656875
O O12 0.026020 0.119252 0.196787
O O13 0.857146 0.132438 0.781112
O O14 0.590950 0.022636 0.110769
O O15 0.101858 0.745645 0.048992
O O16 0.270752 0.541448 0.049616
O O17 0.500000 0.500000 0.000000
#
# Coordination Sequence:
#
# PCOD8026029 Si02
#       8
#     2   2   2   2   2   2   2   2
#     4  10  24  42  65 100 146 192 229 286 346 423
#     4  10  23  47  73  96 137 185 236 292 348 415
#     4  12  25  44  71 104 145 187 233 290 356 417
#     4  12  25  47  72 106 143 188 234 299 350 419
#     4  11  24  43  67 102 145 186 236 285 354 411
#     4  11  25  43  71 106 145 186 238 286 352 428
#     4  11  26  45  72 104 141 188 238 291 357 420
#     4  11  25  47  73 105 137 186 238 296 355 421
#
# _framework density 24.860481
#
# number of rings (size 3 to 8) (size 9 to 14) (size 15 to 20)
#    0.000    1.000    2.500    3.375    7.000    4.000 
#    2.250    1.250    0.000    0.000    0.000    0.000 
#    0.000    0.000    0.000    0.000    0.000    0.000 
#
# Total GULP energy -198367.160602 kJ/mol
# GULP energy per Si atom -12397.947538 kJ/mol
# Density = 2.480390 g / cm^3
# Si number density = 24.860481 Si / 1000 Ang^3
#
#
#
# Elastic Constant Matrix: (Units=GPa)
#
#
# Indices 1 2 3 4 5 6 
#
# 1 61.6634 6.9314 21.6165 -14.9093 21.1467 17.7002
# 2 6.9314 121.0588 47.8834 -9.2284 20.6302 20.4575
# 3 21.6165 47.8834 121.3718 -25.0255 22.5733 -1.4286
# 4 -14.9093 -9.2284 -25.0255 48.2680 -1.5873 3.3721
# 5 21.1467 20.6302 22.5733 -1.5873 41.2910 -2.9570
# 6 17.7002 20.4575 -1.4286 3.3721 -2.9570 35.2587
#
#
#
# Elastic Compliance Matrix: (Units=1/GPa)
#
#
# Indices 1 2 3 4 5 6 
#
# 1 0.032912 0.007679 -0.003133 0.011010 -0.020264 -0.023857
# 2 0.007679 0.013601 -0.004536 0.003231 -0.009055 -0.012999
# 3 -0.003133 -0.004536 0.011852 0.003950 -0.002161 0.004126
# 4 0.011010 0.003231 0.003950 0.027226 -0.009126 -0.010611
# 5 -0.020264 -0.009055 -0.002161 -0.009126 0.041360 0.019681
# 6 -0.023857 -0.012999 0.004126 -0.010611 0.019681 0.050712
#
#
# Mechanical properties :
#
#
# Convention : Reuss Voigt Hill
#
# Bulk Modulus (GPa) = 17.12803 50.77295 33.95049
# Shear Modulus (GPa) = 25.36725 40.14105 32.75415
#
# Velocity S-wave (km/s) = 3.19781 4.02263 3.63370
# Velocity P-wave (km/s) = 4.53203 6.48405 5.59385
#
# Compressibility (1/GPa) = 0.05838382
#
# Stress axis : x y z
#
# Youngs Moduli (GPa) = 30.38446 73.52403 84.37557
#
# Poissons Ratio (x) = -0.56458 0.26434
# Poissons Ratio (y) = -0.23332 0.38275
# Poissons Ratio (z) = 0.09519 0.33352
#
# Static dielectric constant tensor:
#      x y z
#    x 4.213010 0.004100 -0.062230 
#    y 0.004100 4.673260 -0.118140 
#    z -0.062230 -0.118140 4.660170 
# 
# 
# High freq. dielectric constant tensor:
#      x y z
#    x 1.973130 0.005010 0.001730 
#    y 0.005010 2.002040 0.001960 
#    z 0.001730 0.001960 2.002920 
# 
# From -- ./inp_files/447442.got.cif
#   From: 2010.06.25/outbox.cif.g09.slc.cpg/sg2_224_cif.got.tgz:447442.got - 2010.06.27 13:26:56.
