data_PCOD8026481
_publ_section_title
;
Structure prediction by ZEFSAII (Michael W. Deem and Ramdas Pophale) SiO2 
 PCOD8026481
Probable space group: P -1
;
_chemical_formula_sum "Si O2"
_cell_formula_units_Z 14
_cell_length_a 14.863070
_cell_length_b 12.197733
_cell_length_c 12.014264
_cell_angle_alpha 61.060961
_cell_angle_beta 117.982513
_cell_angle_gamma 161.085239
_cell_volume 617.400102
_symmetry_space_group_name_H-M "P -1"
_symmetry_group_IT_number 2
_symmetry_cell_setting 'triclinic'
loop_
_space_group_symop_operation_xyz
x,y,z
-x,-y,-z
loop_
_atom_site_type_symbol
_atom_site_label
_atom_site_fract_x
_atom_site_fract_y
_atom_site_fract_z
Si Si1 0.285021 0.170161 0.379563
Si Si2 0.164908 0.070393 0.598334
Si Si3 0.561336 0.198980 0.996807
Si Si4 0.607865 0.277350 0.231402
Si Si5 0.126495 0.168526 0.868051
Si Si6 0.132696 0.927780 0.871592
Si Si7 0.156859 0.782027 0.381045
O O1 0.183588 0.015216 0.521501
O O2 0.549283 0.560764 0.357935
O O3 0.339117 0.093159 0.400891
O O4 0.083154 0.018155 0.256446
O O5 0.009129 0.817482 0.730719
O O6 0.000000 0.000000 0.500000
O O7 0.501474 0.106682 0.136272
O O8 0.881613 0.595791 0.965999
O O9 0.500000 0.000000 0.000000
O O10 0.364857 0.089099 0.901896
O O11 0.621241 0.444655 0.160371
O O12 0.917374 0.580811 0.276135
O O13 0.378835 0.967166 0.338979
O O14 0.257316 0.191229 0.880407
O O15 0.000000 0.000000 0.000000
O O16 0.000000 0.500000 0.500000
#
# Coordination Sequence:
#
# PCOD8026481 Si02
#       7
#     2   2   2   2   2   2   2
#     4  10  24  42  66 105 144 180 231 296 351 421
#     4  11  23  42  68 100 146 178 232 292 356 425
#     4  12  28  47  68 100 142 185 241 286 348 428
#     4  11  25  45  70 102 142 177 233 306 348 415
#     4  11  22  43  73 108 142 180 234 299 364 423
#     4  12  25  45  71 104 135 190 233 286 365 415
#     4  11  25  46  70 101 136 188 238 283 354 419
#
# _framework density 22.675733999999999
#
# number of rings (size 3 to 8) (size 9 to 14) (size 15 to 20)
#    0.000    0.857    2.857    3.429    6.000    4.000 
#    0.000    0.000    0.000    0.000    0.000    0.000 
#    0.000    0.000    0.000    0.000    0.000    0.000 
#
# Total GULP energy -173498.327391 kJ/mol
# GULP energy per Si atom -12392.737671 kJ/mol
# Density = 2.262412 g / cm^3
# Si number density = 22.675734 Si / 1000 Ang^3
#
#
#
# Elastic Constant Matrix: (Units=GPa)
#
#
# Indices 1 2 3 4 5 6 
#
# 1 135.5665 35.6313 43.3765 10.9276 -11.7662 -17.6090
# 2 35.6313 69.3495 24.7259 1.0350 -9.0343 -3.3601
# 3 43.3765 24.7259 122.8872 1.9519 -34.6464 -16.8268
# 4 10.9276 1.0350 1.9519 35.3297 3.7521 -4.4204
# 5 -11.7662 -9.0343 -34.6464 3.7521 46.1408 -3.7356
# 6 -17.6090 -3.3601 -16.8268 -4.4204 -3.7356 37.3864
#
#
#
# Elastic Compliance Matrix: (Units=1/GPa)
#
#
# Indices 1 2 3 4 5 6 
#
# 1 0.009723 -0.004019 -0.001972 -0.002463 0.000664 0.003106
# 2 -0.004019 0.017230 -0.002014 0.000637 0.000695 -0.001106
# 3 -0.001972 -0.002014 0.012503 -0.000300 0.008951 0.005377
# 4 -0.002463 0.000637 -0.000300 0.029627 -0.002978 0.001968
# 5 0.000664 0.000695 0.008951 -0.002978 0.029508 0.007000
# 6 0.003106 -0.001106 0.005377 0.001968 0.007000 0.031463
#
#
# Mechanical properties :
#
#
# Convention : Reuss Voigt Hill
#
# Bulk Modulus (GPa) = 42.64853 59.47452 51.06152
# Shear Modulus (GPa) = 32.49277 38.70935 35.60106
#
# Velocity S-wave (km/s) = 3.78951 4.13617 3.96663
# Velocity P-wave (km/s) = 6.16409 7.00683 6.59893
#
# Compressibility (1/GPa) = 0.02344747
#
# Stress axis : x y z
#
# Youngs Moduli (GPa) = 102.84604 58.03796 79.97823
#
# Poissons Ratio (x) = 0.23325 0.15771
# Poissons Ratio (y) = 0.41334 0.16106
# Poissons Ratio (z) = 0.20280 0.11687
#
# Static dielectric constant tensor:
#      x y z
#    x 4.341180 0.017560 -0.065280 
#    y 0.017560 3.941150 -0.121750 
#    z -0.065280 -0.121750 4.286570 
# 
# 
# High freq. dielectric constant tensor:
#      x y z
#    x 1.902290 0.003260 -0.017400 
#    y 0.003260 1.880020 0.000310 
#    z -0.017400 0.000310 1.911790 
# 
# From -- ./inp_files/82595.got.cif
#   From: 2010.06.25/outbox.cif.g09.slc.cpg/sg2_42_cif.got.tgz:82595.got - 2010.06.27 13:26:56.
