data_PCOD8026465
_publ_section_title
;
Structure prediction by ZEFSAII (Michael W. Deem and Ramdas Pophale) SiO2 
 PCOD8026465
Probable space group: P -1
;
_chemical_formula_sum "Si O2"
_cell_formula_units_Z 16
_cell_length_a 13.158204
_cell_length_b 10.661110
_cell_length_c 10.838391
_cell_angle_alpha 134.773035
_cell_angle_beta 100.893951
_cell_angle_gamma 110.651596
_cell_volume 760.161139
_symmetry_space_group_name_H-M "P -1"
_symmetry_group_IT_number 2
_symmetry_cell_setting 'triclinic'
loop_
_space_group_symop_operation_xyz
x,y,z
-x,-y,-z
loop_
_atom_site_type_symbol
_atom_site_label
_atom_site_fract_x
_atom_site_fract_y
_atom_site_fract_z
Si Si1 0.636141 0.684792 0.745892
Si Si2 0.067578 0.932333 0.049557
Si Si3 0.438866 0.111177 0.708530
Si Si4 0.056132 0.204448 0.818790
Si Si5 0.407498 0.017059 0.903854
Si Si6 0.908747 0.420099 0.543601
Si Si7 0.349907 0.620338 0.270157
Si Si8 0.861520 0.062779 0.462825
O O1 0.500000 0.500000 0.500000
O O2 0.656069 0.537881 0.735913
O O3 0.765289 0.878422 0.815245
O O4 0.626677 0.843564 0.938806
O O5 0.052170 0.970957 0.215551
O O6 0.977417 0.648530 0.805311
O O7 0.000000 0.000000 0.000000
O O8 0.492834 0.175214 0.907988
O O9 0.556797 0.330188 0.793299
O O10 0.412908 0.874138 0.513944
O O11 0.299545 0.069603 0.630333
O O12 0.964048 0.209503 0.705907
O O13 0.131446 0.127487 0.717121
O O14 0.188569 0.476191 0.089812
O O15 0.258978 0.739800 0.638805
O O16 0.500000 0.000000 0.000000
O O17 0.924072 0.254732 0.501995
O O18 0.000000 0.500000 0.500000
#
# Coordination Sequence:
#
# PCOD8026465 Si02
#       8
#     2   2   2   2   2   2   2   2
#     4  12  27  44  66  99 134 172 221 270 325 393
#     4  12  25  42  69  97 131 176 216 273 329 381
#     4  10  24  43  68  93 130 173 214 267 326 381
#     4  11  23  43  66  97 132 167 219 266 325 387
#     4  11  24  44  68  99 132 173 217 268 326 391
#     4  11  22  43  68  96 132 170 216 270 324 386
#     4  11  23  45  66  95 131 170 217 268 322 389
#     4  10  24  42  65  99 129 169 217 267 322 388
#
# _framework density 21.048168
#
# number of rings (size 3 to 8) (size 9 to 14) (size 15 to 20)
#    0.000    1.000    2.500    4.500    3.500    5.000 
#    4.500    0.000    0.000    0.000    0.000    0.000 
#    0.000    0.000    0.000    0.000    0.000    0.000 
#
# Total GULP energy -198380.058416 kJ/mol
# GULP energy per Si atom -12398.753651 kJ/mol
# Density = 2.100026 g / cm^3
# Si number density = 21.048168 Si / 1000 Ang^3
#
#
#
# Elastic Constant Matrix: (Units=GPa)
#
#
# Indices 1 2 3 4 5 6 
#
# 1 100.6268 48.6838 25.6999 -11.0665 12.0301 9.9074
# 2 48.6838 129.1813 35.5023 -14.9950 32.0440 18.1069
# 3 25.6999 35.5023 91.8722 -5.1866 28.7455 2.8825
# 4 -11.0665 -14.9950 -5.1866 36.4824 -10.0714 2.8032
# 5 12.0301 32.0440 28.7455 -10.0714 24.2382 -7.6950
# 6 9.9074 18.1069 2.8825 2.8032 -7.6950 48.3996
#
#
#
# Elastic Compliance Matrix: (Units=1/GPa)
#
#
# Indices 1 2 3 4 5 6 
#
# 1 0.012800 -0.004866 -0.003069 0.002794 0.004881 -0.000003
# 2 -0.004866 0.016638 0.003832 -0.000970 -0.027638 -0.009794
# 3 -0.003069 0.003832 0.020018 -0.004648 -0.031345 -0.006712
# 4 0.002794 -0.000970 -0.004648 0.032424 0.019279 0.001255
# 5 0.004881 -0.027638 -0.031345 0.019279 0.130341 0.030813
# 6 -0.000003 -0.009794 -0.006712 0.001255 0.030813 0.029552
#
#
# Mechanical properties :
#
#
# Convention : Reuss Voigt Hill
#
# Bulk Modulus (GPa) = 24.24344 60.16139 42.20242
# Shear Modulus (GPa) = 18.95876 35.94365 27.45121
#
# Velocity S-wave (km/s) = 3.00448 4.13690 3.61530
# Velocity P-wave (km/s) = 4.85581 7.17380 6.12545
#
# Compressibility (1/GPa) = 0.04124826
#
# Stress axis : x y z
#
# Youngs Moduli (GPa) = 78.12494 60.10421 49.95426
#
# Poissons Ratio (x) = 0.29249 0.15333
# Poissons Ratio (y) = 0.38018 -0.19142
# Poissons Ratio (z) = 0.23980 -0.23031
#
# Static dielectric constant tensor:
#      x y z
#    x 3.984860 0.281870 -0.134270 
#    y 0.281870 3.548290 0.099910 
#    z -0.134270 0.099910 3.726720 
# 
# 
# High freq. dielectric constant tensor:
#      x y z
#    x 1.835380 0.011490 -0.005420 
#    y 0.011490 1.840180 -0.008100 
#    z -0.005420 -0.008100 1.826020 
# 
# From -- ./inp_files/429092.got.cif
#   From: 2010.06.25/outbox.cif.g09.slc.cpg/sg2_215_cif.got.tgz:429092.got - 2010.06.27 13:26:56.
