data_PCOD8026330
_publ_section_title
;
Structure prediction by ZEFSAII (Michael W. Deem and Ramdas Pophale) SiO2 
 PCOD8026330
Probable space group: P -1
;
_chemical_formula_sum "Si O2"
_cell_formula_units_Z 16
_cell_length_a 17.849102
_cell_length_b 21.625651
_cell_length_c 5.274393
_cell_angle_alpha 73.812501
_cell_angle_beta 107.710482
_cell_angle_gamma 159.300234
_cell_volume 685.426576
_symmetry_space_group_name_H-M "P -1"
_symmetry_group_IT_number 2
_symmetry_cell_setting 'triclinic'
loop_
_space_group_symop_operation_xyz
x,y,z
-x,-y,-z
loop_
_atom_site_type_symbol
_atom_site_label
_atom_site_fract_x
_atom_site_fract_y
_atom_site_fract_z
Si Si1 0.305815 0.070377 0.315294
Si Si2 0.253715 0.650540 0.503989
Si Si3 0.919179 0.297393 0.494474
Si Si4 0.251376 0.180095 0.076203
Si Si5 0.472610 0.403824 0.549963
Si Si6 0.283275 0.940697 0.070918
Si Si7 0.947342 0.719746 0.604129
Si Si8 0.729731 0.260506 0.059338
O O1 0.529247 0.220504 0.508223
O O2 0.301461 0.142805 0.181455
O O3 0.306669 0.031195 0.100122
O O4 0.098474 0.894090 0.471576
O O5 0.279607 0.717412 0.690239
O O6 0.072226 0.462286 0.615958
O O7 0.155042 0.612453 0.195518
O O8 0.720509 0.119587 0.656151
O O9 0.825581 0.261593 0.185684
O O10 0.065559 0.346148 0.541032
O O11 0.342202 0.285918 0.296734
O O12 0.357638 0.288346 0.809176
O O13 0.000000 0.000000 0.000000
O O14 0.500000 0.500000 0.500000
O O15 0.711747 0.560607 0.609172
O O16 0.478849 0.071085 0.935679
O O17 0.056484 0.767722 0.897839
#
# Coordination Sequence:
#
# PCOD8026330 Si02
#       8
#     2   2   2   2   2   2   2   2
#     4  10  24  44  67 100 141 183 240 284 353 426
#     4  11  24  42  65  96 135 184 235 296 355 414
#     4  11  25  40  66  98 136 182 242 297 353 420
#     4  12  28  49  81 112 144 189 231 289 357 425
#     4  12  29  49  78 112 149 185 234 289 351 428
#     4  10  24  41  66  97 139 191 231 299 349 421
#     4  11  25  43  70  99 143 186 234 290 358 412
#     4  11  24  44  64  96 134 188 238 295 356 415
#
# _framework density 23.343128
#
# number of rings (size 3 to 8) (size 9 to 14) (size 15 to 20)
#    0.000    1.000    1.250    3.375   12.250    1.500 
#    0.000    0.000    0.000    0.000    0.000    0.000 
#    0.000    0.000    0.000    0.000    0.000    0.000 
#
# Total GULP energy -198311.962163 kJ/mol
# GULP energy per Si atom -12394.497635 kJ/mol
# Density = 2.329000 g / cm^3
# Si number density = 23.343128 Si / 1000 Ang^3
#
#
#
# Elastic Constant Matrix: (Units=GPa)
#
#
# Indices 1 2 3 4 5 6 
#
# 1 97.9615 67.6831 43.5118 -23.4468 22.9184 5.5690
# 2 67.6831 113.1712 33.4992 -5.1324 5.0899 -5.9116
# 3 43.5118 33.4992 112.9044 -14.8262 2.5311 -13.9244
# 4 -23.4468 -5.1324 -14.8262 46.3811 -0.5491 4.9087
# 5 22.9184 5.0899 2.5311 -0.5491 35.2615 -5.0465
# 6 5.5690 -5.9116 -13.9244 4.9087 -5.0465 35.0020
#
#
#
# Elastic Compliance Matrix: (Units=1/GPa)
#
#
# Indices 1 2 3 4 5 6 
#
# 1 0.037243 -0.018984 -0.008361 0.015684 -0.023198 -0.018002
# 2 -0.018984 0.019420 0.001457 -0.007864 0.010671 0.009521
# 3 -0.008361 0.001457 0.012325 -0.000842 0.005381 0.007373
# 4 0.015684 -0.007864 -0.000842 0.029258 -0.009930 -0.009694
# 5 -0.023198 0.010671 0.005381 -0.009930 0.043546 0.015305
# 6 -0.018002 0.009521 0.007373 -0.009694 0.015305 0.039541
#
#
# Mechanical properties :
#
#
# Convention : Reuss Voigt Hill
#
# Bulk Modulus (GPa) = 58.10234 68.15836 63.13035
# Shear Modulus (GPa) = 20.93391 35.28512 28.10952
#
# Velocity S-wave (km/s) = 2.99790 3.89213 3.47391
# Velocity P-wave (km/s) = 6.07682 7.03279 6.57221
#
# Compressibility (1/GPa) = 0.01721101
#
# Stress axis : x y z
#
# Youngs Moduli (GPa) = 26.85072 51.49459 81.13584
#
# Poissons Ratio (x) = 0.97759 0.67835
# Poissons Ratio (y) = 0.50975 -0.11820
# Poissons Ratio (z) = 0.22449 -0.07502
#
# Static dielectric constant tensor:
#      x y z
#    x 4.409420 0.133950 -0.245980 
#    y 0.133950 4.556750 -0.111820 
#    z -0.245980 -0.111820 4.901150 
# 
# 
# High freq. dielectric constant tensor:
#      x y z
#    x 1.926720 0.002150 0.004750 
#    y 0.002150 1.945600 -0.003390 
#    z 0.004750 -0.003390 1.923770 
# 
# From -- ./inp_files/53628.got.cif
#   From: 2010.06.25/outbox.cif.g09.slc.cpg/sg2_27_cif.got.tgz:53628.got - 2010.06.27 13:26:56.
