data_PCOD8026716
_publ_section_title
;
Structure prediction by ZEFSAII (Michael W. Deem and Ramdas Pophale) SiO2 
 PCOD8026716
Probable space group: P -1
;
_chemical_formula_sum "Si O2"
_cell_formula_units_Z 16
_cell_length_a 6.933570
_cell_length_b 10.920887
_cell_length_c 15.793542
_cell_angle_alpha 94.337010
_cell_angle_beta 40.110990
_cell_angle_gamma 80.414780
_cell_volume 719.904435
_symmetry_space_group_name_H-M "P -1"
_symmetry_group_IT_number 2
_symmetry_cell_setting 'triclinic'
loop_
_space_group_symop_operation_xyz
x,y,z
-x,-y,-z
loop_
_atom_site_type_symbol
_atom_site_label
_atom_site_fract_x
_atom_site_fract_y
_atom_site_fract_z
Si Si1 0.580889 0.497001 0.310183
Si Si2 0.625897 0.727505 0.404723
Si Si3 0.645495 0.227920 0.325702
Si Si4 0.672898 0.109378 0.642351
Si Si5 0.645221 0.051083 0.162050
Si Si6 0.705960 0.346021 0.740321
Si Si7 0.374137 0.146510 0.087154
Si Si8 0.336528 0.395099 0.024591
O O1 0.485818 0.615780 0.416174
O O2 0.463061 0.382618 0.379034
O O3 0.390979 0.534762 0.287425
O O4 0.959340 0.455512 0.167041
O O5 0.440849 0.805771 0.553343
O O6 0.561164 0.833716 0.356379
O O7 0.998943 0.659351 0.298582
O O8 0.571553 0.136758 0.276176
O O9 0.009559 0.205913 0.190797
O O10 0.796908 0.215286 0.648518
O O11 0.466287 0.068950 0.781383
O O12 0.000000 0.000000 0.500000
O O13 0.419667 0.142129 0.171992
O O14 0.000000 0.000000 0.000000
O O15 0.399992 0.363475 0.902489
O O16 0.509334 0.254691 0.008064
O O17 0.500000 0.000000 0.000000
O O18 0.500000 0.500000 0.000000
#
# Coordination Sequence:
#
# PCOD8026716 Si02
#       8
#     2   2   2   2   2   2   2   2
#     4  10  24  43  65  98 134 173 224 281 337 405
#     4  11  24  44  69  99 130 178 227 276 339 412
#     4  11  25  43  68  96 135 177 221 278 340 409
#     4  11  26  46  68  98 138 179 226 284 342 415
#     4  12  26  41  67 100 132 175 227 275 341 404
#     4  11  24  41  69  97 133 175 224 280 341 404
#     4  11  24  44  66  96 139 178 223 283 345 404
#     4  11  23  41  69  98 135 180 225 282 342 408
#
# _framework density 22.225171
#
# number of rings (size 3 to 8) (size 9 to 14) (size 15 to 20)
#    0.000    1.000    2.500    3.000    5.250    4.500 
#    0.000    0.000    0.000    0.000    0.000    0.000 
#    0.000    0.000    0.000    0.000    0.000    0.000 
#
# Total GULP energy -198333.811225 kJ/mol
# GULP energy per Si atom -12395.863202 kJ/mol
# Density = 2.217459 g / cm^3
# Si number density = 22.225171 Si / 1000 Ang^3
#
#
#
# Elastic Constant Matrix: (Units=GPa)
#
#
# Indices 1 2 3 4 5 6 
#
# 1 105.7867 33.6375 2.8472 1.1761 15.4037 -23.2191
# 2 33.6375 125.1742 12.1804 -4.8169 6.6217 -17.7001
# 3 2.8472 12.1804 76.7678 3.9794 19.0884 -2.0460
# 4 1.1761 -4.8169 3.9794 34.5285 0.5734 6.5778
# 5 15.4037 6.6217 19.0884 0.5734 41.8441 -1.9377
# 6 -23.2191 -17.7001 -2.0460 6.5778 -1.9377 32.7383
#
#
#
# Elastic Compliance Matrix: (Units=1/GPa)
#
#
# Indices 1 2 3 4 5 6 
#
# 1 0.012557 -0.002228 0.001335 -0.002340 -0.004477 0.007990
# 2 -0.002228 0.009192 -0.001371 0.000918 0.000123 0.003127
# 3 0.001335 -0.001371 0.015092 -0.002077 -0.007078 0.001148
# 4 -0.002340 0.000918 -0.002077 0.030809 0.000897 -0.007430
# 5 -0.004477 0.000123 -0.007078 0.000897 0.028649 -0.002036
# 6 0.007990 0.003127 0.001148 -0.007430 -0.002036 0.039347
#
#
# Mechanical properties :
#
#
# Convention : Reuss Voigt Hill
#
# Bulk Modulus (GPa) = 30.94536 45.00655 37.97595
# Shear Modulus (GPa) = 33.12475 39.09308 36.10891
#
# Velocity S-wave (km/s) = 3.86478 4.19854 4.03511
# Velocity P-wave (km/s) = 5.81972 6.61800 6.23165
#
# Compressibility (1/GPa) = 0.03231502
#
# Stress axis : x y z
#
# Youngs Moduli (GPa) = 79.63637 108.79186 66.25843
#
# Poissons Ratio (x) = 0.24236 -0.08847
# Poissons Ratio (y) = 0.17741 0.09082
# Poissons Ratio (z) = -0.10633 0.14912
#
# Static dielectric constant tensor:
#      x y z
#    x 4.125230 -0.221310 0.132570 
#    y -0.221310 4.204680 0.013260 
#    z 0.132570 0.013260 3.999570 
# 
# 
# High freq. dielectric constant tensor:
#      x y z
#    x 1.879600 -0.005850 0.012350 
#    y -0.005850 1.884510 0.003010 
#    z 0.012350 0.003010 1.879110 
# 
# From -- ./inp_files/482860.got.cif
#   From: 2010.06.25/outbox.cif.g09.slc.cpg/sg2_242_cif.got.tgz:482860.got - 2010.06.27 13:26:56.
