data_PCOD8026214
_publ_section_title
;
Structure prediction by ZEFSAII (Michael W. Deem and Ramdas Pophale) SiO2 
 PCOD8026214
Probable space group: P -1
;
_chemical_formula_sum "Si O2"
_cell_formula_units_Z 14
_cell_length_a 7.137738
_cell_length_b 17.829644
_cell_length_c 9.647304
_cell_angle_alpha 118.972917
_cell_angle_beta 131.184017
_cell_angle_gamma 43.322855
_cell_volume 633.931289
_symmetry_space_group_name_H-M "P -1"
_symmetry_group_IT_number 2
_symmetry_cell_setting 'triclinic'
loop_
_space_group_symop_operation_xyz
x,y,z
-x,-y,-z
loop_
_atom_site_type_symbol
_atom_site_label
_atom_site_fract_x
_atom_site_fract_y
_atom_site_fract_z
Si Si1 0.119910 0.191896 0.589836
Si Si2 0.624186 0.402151 0.370184
Si Si3 0.214368 0.718889 0.213938
Si Si4 0.201192 0.867654 0.110032
Si Si5 0.245294 0.324026 0.152553
Si Si6 0.879882 0.106204 0.220082
Si Si7 0.713090 0.485264 0.217004
O O1 0.461162 0.157321 0.759037
O O2 0.937238 0.298326 0.501096
O O3 0.916233 0.211961 0.646700
O O4 0.151370 0.096992 0.432630
O O5 0.500000 0.500000 0.500000
O O6 0.375685 0.380212 0.188651
O O7 0.703275 0.422777 0.280804
O O8 0.187576 0.789357 0.134839
O O9 0.582891 0.608123 0.306639
O O10 0.009588 0.675472 0.057764
O O11 0.116921 0.857189 0.903278
O O12 0.942072 0.991333 0.149124
O O13 0.543201 0.197102 0.213847
O O14 0.082917 0.401408 0.278688
O O15 0.500000 0.500000 0.000000
#
# Coordination Sequence:
#
# PCOD8026214 Si02
#       7
#     2   2   2   2   2   2   2
#     4  11  24  44  67 101 139 169 229 278 338 403
#     4  11  24  43  65  98 138 181 217 274 337 395
#     4  11  24  42  66 105 133 176 225 276 341 399
#     4  11  25  47  71  96 138 176 228 286 334 398
#     4  10  24  42  67  96 136 173 229 269 330 405
#     4  10  24  48  70  98 130 185 228 275 347 392
#     4  10  24  40  65  99 131 177 218 265 336 400
#
# _framework density 22.084412
#
# number of rings (size 3 to 8) (size 9 to 14) (size 15 to 20)
#    0.000    1.429    2.857    0.429   10.000    6.286 
#    0.000    0.000    0.000    0.000    0.000    0.000 
#    0.000    0.000    0.000    0.000    0.000    0.000 
#
# Total GULP energy -173483.359763 kJ/mol
# GULP energy per Si atom -12391.668554 kJ/mol
# Density = 2.203415 g / cm^3
# Si number density = 22.084412 Si / 1000 Ang^3
#
#
#
# Elastic Constant Matrix: (Units=GPa)
#
#
# Indices 1 2 3 4 5 6 
#
# 1 86.0842 57.6314 27.3702 -8.4691 -28.1320 2.1423
# 2 57.6314 129.5014 17.1350 4.5688 -7.0790 -8.1653
# 3 27.3702 17.1350 90.1915 17.6415 -13.4224 -1.0315
# 4 -8.4691 4.5688 17.6415 23.5917 10.6345 -2.4266
# 5 -28.1320 -7.0790 -13.4224 10.6345 29.1545 -4.2952
# 6 2.1423 -8.1653 -1.0315 -2.4266 -4.2952 38.3356
#
#
#
# Elastic Compliance Matrix: (Units=1/GPa)
#
#
# Indices 1 2 3 4 5 6 
#
# 1 0.027151 -0.010760 -0.004762 0.006817 0.018699 -0.001411
# 2 -0.010760 0.012420 0.001155 -0.004740 -0.004746 0.002446
# 3 -0.004762 0.001155 0.018102 -0.020638 0.011695 0.001003
# 4 0.006817 -0.004740 -0.020638 0.075392 -0.031681 -0.000723
# 5 0.018699 -0.004746 0.011695 -0.031681 0.068713 0.003952
# 6 -0.001411 0.002446 0.001003 -0.000723 0.003952 0.027109
#
#
# Mechanical properties :
#
#
# Convention : Reuss Voigt Hill
#
# Bulk Modulus (GPa) = 34.55684 56.67227 45.61455
# Shear Modulus (GPa) = 18.70782 31.79239 25.25011
#
# Velocity S-wave (km/s) = 2.91366 3.79830 3.38501
# Velocity P-wave (km/s) = 5.19623 6.70474 5.99810
#
# Compressibility (1/GPa) = 0.02893783
#
# Stress axis : x y z
#
# Youngs Moduli (GPa) = 36.83151 80.51772 55.24248
#
# Poissons Ratio (x) = 0.86637 0.26306
# Poissons Ratio (y) = 0.39631 -0.06379
# Poissons Ratio (z) = 0.17539 -0.09297
#
# Static dielectric constant tensor:
#      x y z
#    x 3.915690 -0.399710 -0.120570 
#    y -0.399710 4.371940 0.238820 
#    z -0.120570 0.238820 3.746810 
# 
# 
# High freq. dielectric constant tensor:
#      x y z
#    x 1.856480 -0.015720 -0.006270 
#    y -0.015720 1.885150 0.011480 
#    z -0.006270 0.011480 1.873120 
# 
# From -- ./inp_files/139263.got.cif
#   From: 2010.06.25/outbox.cif.g09.slc.cpg/sg2_70_cif.got.tgz:139263.got - 2010.06.27 13:26:56.
