data_PCOD8026536
_publ_section_title
;
Structure prediction by ZEFSAII (Michael W. Deem and Ramdas Pophale) SiO2 
 PCOD8026536
Probable space group: P -1
;
_chemical_formula_sum "Si O2"
_cell_formula_units_Z 16
_cell_length_a 25.814839
_cell_length_b 5.138980
_cell_length_c 9.372931
_cell_angle_alpha 96.327414
_cell_angle_beta 37.469040
_cell_angle_gamma 95.807839
_cell_volume 751.618349
_symmetry_space_group_name_H-M "P -1"
_symmetry_group_IT_number 2
_symmetry_cell_setting 'triclinic'
loop_
_space_group_symop_operation_xyz
x,y,z
-x,-y,-z
loop_
_atom_site_type_symbol
_atom_site_label
_atom_site_fract_x
_atom_site_fract_y
_atom_site_fract_z
Si Si1 0.048078 0.768285 0.450090
Si Si2 0.794913 0.181063 0.082559
Si Si3 0.310244 0.323167 0.685018
Si Si4 0.141414 0.535386 0.771813
Si Si5 0.979884 0.227780 0.166480
Si Si6 0.671276 0.621745 0.669218
Si Si7 0.427818 0.896593 0.043198
Si Si8 0.520982 0.767561 0.544839
O O1 0.055130 0.843652 0.605966
O O2 0.000000 0.500000 0.500000
O O3 0.141996 0.764815 0.181771
O O4 0.000000 0.000000 0.500000
O O5 0.717816 0.375092 0.227960
O O6 0.833003 0.232933 0.160796
O O7 0.768678 0.876242 0.127217
O O8 0.350588 0.291195 0.438691
O O9 0.378714 0.241725 0.646240
O O10 0.096090 0.611654 0.728442
O O11 0.226295 0.380825 0.533513
O O12 0.070360 0.371799 0.005113
O O13 0.000000 0.000000 0.000000
O O14 0.628621 0.339163 0.778833
O O15 0.631606 0.860561 0.859845
O O16 0.468514 0.786697 0.805369
O O17 0.500000 0.000000 0.000000
O O18 0.500000 0.500000 0.500000
O O19 0.500000 0.000000 0.500000
#
# Coordination Sequence:
#
# PCOD8026536 Si02
#       8
#     2   2   2   2   2   2   2   2
#     4  12  25  45  69  99 136 184 234 279 339 413
#     4  11  23  43  72 100 134 182 238 281 335 421
#     4  11  24  44  73 100 135 182 233 279 347 411
#     4  10  24  42  68 101 138 182 229 289 358 396
#     4  11  25  44  69 101 143 182 233 290 355 409
#     4  11  24  42  75 103 137 176 241 291 334 410
#     4  12  25  45  74 105 134 181 238 284 338 413
#     4  12  27  47  70 101 146 184 222 281 360 414
#
# _framework density 21.287400999999999
#
# number of rings (size 3 to 8) (size 9 to 14) (size 15 to 20)
#    0.000    0.750    2.500    4.875   10.500    0.000 
#    6.750    0.000    0.000    0.000    0.000    0.000 
#    0.000    0.000    0.000    0.000    0.000    0.000 
#
# Total GULP energy -198348.813907 kJ/mol
# GULP energy per Si atom -12396.800869 kJ/mol
# Density = 2.123895 g / cm^3
# Si number density = 21.287401 Si / 1000 Ang^3
#
#
#
# Elastic Constant Matrix: (Units=GPa)
#
#
# Indices 1 2 3 4 5 6 
#
# 1 127.5224 43.6236 59.9934 -2.0474 -7.8998 -2.3178
# 2 43.6236 129.6620 37.7296 -3.2769 -2.5048 -4.9290
# 3 59.9934 37.7296 127.0900 2.7079 7.1043 3.5255
# 4 -2.0474 -3.2769 2.7079 43.0201 -0.3046 3.0691
# 5 -7.8998 -2.5048 7.1043 -0.3046 43.0948 4.0324
# 6 -2.3178 -4.9290 3.5255 3.0691 4.0324 29.9540
#
#
#
# Elastic Compliance Matrix: (Units=1/GPa)
#
#
# Indices 1 2 3 4 5 6 
#
# 1 0.011006 -0.002244 -0.004706 0.000623 0.002609 0.000621
# 2 -0.002244 0.009032 -0.001689 0.000588 0.000264 0.001416
# 3 -0.004706 -0.001689 0.010798 -0.000946 -0.002610 -0.001465
# 4 0.000623 0.000588 -0.000946 0.023544 0.000681 -0.002248
# 5 0.002609 0.000264 -0.002610 0.000681 0.024396 -0.002801
# 6 0.000621 0.001416 -0.001465 -0.002248 -0.002801 0.034445
#
#
# Mechanical properties :
#
#
# Convention : Reuss Voigt Hill
#
# Bulk Modulus (GPa) = 73.74804 74.10752 73.92778
# Shear Modulus (GPa) = 37.03204 39.40895 38.22050
#
# Velocity S-wave (km/s) = 4.17540 4.30732 4.24187
# Velocity P-wave (km/s) = 7.61344 7.72177 7.66780
#
# Compressibility (1/GPa) = 0.01355968
#
# Stress axis : x y z
#
# Youngs Moduli (GPa) = 90.85877 110.71146 92.61081
#
# Poissons Ratio (x) = 0.24842 0.43580
# Poissons Ratio (y) = 0.20387 0.15640
# Poissons Ratio (z) = 0.42755 0.18697
#
# Static dielectric constant tensor:
#      x y z
#    x 4.221410 -0.240240 -0.219210 
#    y -0.240240 3.911360 -0.053700 
#    z -0.219210 -0.053700 3.785080 
# 
# 
# High freq. dielectric constant tensor:
#      x y z
#    x 1.833350 -0.008390 -0.008390 
#    y -0.008390 1.845530 0.002510 
#    z -0.008390 0.002510 1.847570 
# 
# From -- ./inp_files/350758.got.cif
#   From: 2010.06.25/outbox.cif.g09.slc.cpg/sg2_176_cif.got.tgz:350758.got - 2010.06.27 13:26:56.
