data_PCOD8026672
_publ_section_title
;
Structure prediction by ZEFSAII (Michael W. Deem and Ramdas Pophale) SiO2 
 PCOD8026672
Probable space group: P -1
;
_chemical_formula_sum "Si O2"
_cell_formula_units_Z 16
_cell_length_a 18.654229
_cell_length_b 6.309900
_cell_length_c 7.246367
_cell_angle_alpha 115.783239
_cell_angle_beta 77.491813
_cell_angle_gamma 107.475428
_cell_volume 728.903364
_symmetry_space_group_name_H-M "P -1"
_symmetry_group_IT_number 2
_symmetry_cell_setting 'triclinic'
loop_
_space_group_symop_operation_xyz
x,y,z
-x,-y,-z
loop_
_atom_site_type_symbol
_atom_site_label
_atom_site_fract_x
_atom_site_fract_y
_atom_site_fract_z
Si Si1 0.776317 0.776896 0.254832
Si Si2 0.427868 0.620581 0.221447
Si Si3 0.443944 0.120122 0.965061
Si Si4 0.294962 0.811214 0.444142
Si Si5 0.671957 0.294573 0.997974
Si Si6 0.097318 0.871311 0.881786
Si Si7 0.157951 0.448426 0.558074
Si Si8 0.027991 0.098532 0.321393
O O1 0.733939 0.500773 0.138811
O O2 0.834964 0.891829 0.105256
O O3 0.823150 0.769262 0.414075
O O4 0.714372 0.937263 0.370343
O O5 0.514276 0.783596 0.215853
O O6 0.376320 0.750451 0.430304
O O7 0.428055 0.347471 0.179081
O O8 0.391482 0.591072 0.022853
O O9 0.365604 0.913470 0.909266
O O10 0.500000 0.000000 0.000000
O O11 0.230497 0.585863 0.458245
O O12 0.288866 0.831723 0.232863
O O13 0.038444 0.831709 0.730745
O O14 0.129402 0.631704 0.781737
O O15 0.059138 0.899960 0.110212
O O16 0.094576 0.337067 0.401111
O O17 0.000000 0.000000 0.500000
#
# Coordination Sequence:
#
# PCOD8026672 Si02
#       8
#     2   2   2   2   2   2   2   2
#     4  11  22  40  58  91 124 158 208 253 309 371
#     4   8  18  35  58  85 118 158 202 252 309 367
#     4   9  16  32  61  88 114 157 206 251 309 368
#     4   9  22  36  58  85 121 159 200 253 301 373
#     4   9  20  35  58  84 117 161 197 252 310 366
#     4  10  24  43  62  91 129 159 211 256 310 376
#     4  11  23  39  61  90 123 163 204 261 308 368
#     4  11  22  44  67  90 123 167 205 258 313 367
#
# _framework density 21.950785
#
# number of rings (size 3 to 8) (size 9 to 14) (size 15 to 20)
#    0.750    1.500    1.250    1.125    1.750    3.500 
#    2.250    0.625    0.000    4.500    0.000    0.000 
#    0.000    0.000    0.000    0.000    0.000    0.000 
#
# Total GULP energy -198242.446875 kJ/mol
# GULP energy per Si atom -12390.152930 kJ/mol
# Density = 2.190082 g / cm^3
# Si number density = 21.950785 Si / 1000 Ang^3
#
#
#
# Elastic Constant Matrix: (Units=GPa)
#
#
# Indices 1 2 3 4 5 6 
#
# 1 61.1458 23.4742 26.9449 -7.4518 -26.9663 -0.2250
# 2 23.4742 79.4792 28.7428 -1.5481 -12.4473 -0.5806
# 3 26.9449 28.7428 73.9096 -11.9520 -16.2218 4.4946
# 4 -7.4518 -1.5481 -11.9520 26.0078 2.8389 -8.9423
# 5 -26.9663 -12.4473 -16.2218 2.8389 38.4843 3.8051
# 6 -0.2250 -0.5806 4.4946 -8.9423 3.8051 27.1857
#
#
#
# Elastic Compliance Matrix: (Units=1/GPa)
#
#
# Indices 1 2 3 4 5 6 
#
# 1 0.027127 -0.003931 -0.004303 0.003825 0.015649 -0.000080
# 2 -0.003931 0.015538 -0.004943 -0.002415 0.000339 0.000275
# 3 -0.004303 -0.004943 0.018785 0.006220 0.003006 -0.001622
# 4 0.003825 -0.002415 0.006220 0.047316 -0.000410 0.014573
# 5 0.015649 0.000339 0.003006 -0.000410 0.038945 -0.005946
# 6 -0.000080 0.000275 -0.001622 0.014573 -0.005946 0.042683
#
#
# Mechanical properties :
#
#
# Convention : Reuss Voigt Hill
#
# Bulk Modulus (GPa) = 28.49211 41.42871 34.96041
# Shear Modulus (GPa) = 21.88700 27.36040 24.62370
#
# Velocity S-wave (km/s) = 3.16111 3.53433 3.35291
# Velocity P-wave (km/s) = 5.13144 5.96404 5.56333
#
# Compressibility (1/GPa) = 0.03509744
#
# Stress axis : x y z
#
# Youngs Moduli (GPa) = 36.86403 64.35661 53.23396
#
# Poissons Ratio (x) = 0.25300 0.22904
# Poissons Ratio (y) = 0.14492 0.26311
# Poissons Ratio (z) = 0.15861 0.31808
#
# Static dielectric constant tensor:
#      x y z
#    x 4.093850 0.290480 -0.203580 
#    y 0.290480 3.990890 0.081020 
#    z -0.203580 0.081020 3.598430 
# 
# 
# High freq. dielectric constant tensor:
#      x y z
#    x 1.868790 0.016210 -0.019300 
#    y 0.016210 1.863310 0.009920 
#    z -0.019300 0.009920 1.835200 
# 
# From -- ./inp_files/340014.got.cif
#   From: 2010.06.25/outbox.cif.g09.slc.cpg/sg2_171_cif.got.tgz:340014.got - 2010.06.27 13:26:56.
