data_PCOD8026166
_publ_section_title
;
Structure prediction by ZEFSAII (Michael W. Deem and Ramdas Pophale) SiO2 
 PCOD8026166
Probable space group: P -1
;
_chemical_formula_sum "Si O2"
_cell_formula_units_Z 16
_cell_length_a 9.002812
_cell_length_b 23.153867
_cell_length_c 8.034869
_cell_angle_alpha 33.910744
_cell_angle_beta 64.969108
_cell_angle_gamma 53.127614
_cell_volume 736.911518
_symmetry_space_group_name_H-M "P -1"
_symmetry_group_IT_number 2
_symmetry_cell_setting 'triclinic'
loop_
_space_group_symop_operation_xyz
x,y,z
-x,-y,-z
loop_
_atom_site_type_symbol
_atom_site_label
_atom_site_fract_x
_atom_site_fract_y
_atom_site_fract_z
Si Si1 0.502120 0.478947 0.854190
Si Si2 0.468659 0.126820 0.760064
Si Si3 0.917716 0.725312 0.240292
Si Si4 0.439750 0.307007 0.095732
Si Si5 0.092815 0.687885 0.904922
Si Si6 0.054972 0.465800 0.745436
Si Si7 0.819130 0.127425 0.766028
Si Si8 0.739423 0.266967 0.795439
O O1 0.388303 0.598045 0.522070
O O2 0.500000 0.500000 0.000000
O O3 0.422100 0.390590 0.060881
O O4 0.719237 0.411444 0.852709
O O5 0.298950 0.186924 0.827236
O O6 0.413379 0.201503 0.436539
O O7 0.656407 0.117667 0.770115
O O8 0.500000 0.000000 0.000000
O O9 0.971306 0.589756 0.589358
O O10 0.049620 0.762078 0.193909
O O11 0.936694 0.743724 0.990195
O O12 0.278574 0.385451 0.852490
O O13 0.642336 0.248781 0.048310
O O14 0.125121 0.785678 0.564737
O O15 0.036100 0.617747 0.961253
O O16 0.000000 0.500000 0.500000
O O17 0.746523 0.177848 0.863372
O O18 0.000000 0.000000 0.000000
#
# Coordination Sequence:
#
# PCOD8026166 Si02
#       8
#     2   2   2   2   2   2   2   2
#     4  12  22  41  72 106 142 183 228 280 344 430
#     4  12  29  49  69  98 138 185 245 295 342 408
#     4  11  24  44  70 101 142 179 224 289 353 415
#     4  12  25  45  72 104 145 186 232 282 354 423
#     4  11  24  45  69 102 143 181 226 284 352 422
#     4  10  24  39  69 110 145 173 223 283 354 419
#     4  12  28  48  70  98 133 185 243 292 346 413
#     4  12  23  43  73 103 138 182 227 282 356 425
#
# _framework density 21.712240000000001
#
# number of rings (size 3 to 8) (size 9 to 14) (size 15 to 20)
#    0.000    0.500    5.000    2.625   10.500    1.500 
#    0.000    3.750    0.000    0.000    0.000    0.000 
#    0.000    0.000    0.000    0.000    0.000    0.000 
#
# Total GULP energy -198420.865571 kJ/mol
# GULP energy per Si atom -12401.304098 kJ/mol
# Density = 2.166282 g / cm^3
# Si number density = 21.712240 Si / 1000 Ang^3
#
#
#
# Elastic Constant Matrix: (Units=GPa)
#
#
# Indices 1 2 3 4 5 6 
#
# 1 134.7453 41.1354 49.7190 -8.1494 -13.1732 -4.4304
# 2 41.1354 126.4818 68.5485 -6.8262 -6.7316 -4.9519
# 3 49.7190 68.5485 103.9689 -11.6732 -15.8638 3.3050
# 4 -8.1494 -6.8262 -11.6732 34.5081 2.3540 2.9068
# 5 -13.1732 -6.7316 -15.8638 2.3540 39.7403 -6.7919
# 6 -4.4304 -4.9519 3.3050 2.9068 -6.7919 42.6735
#
#
#
# Elastic Compliance Matrix: (Units=1/GPa)
#
#
# Indices 1 2 3 4 5 6 
#
# 1 0.009253 -0.000916 -0.003541 0.000576 0.001697 0.001359
# 2 -0.000916 0.012616 -0.008167 -0.000568 -0.001074 0.001869
# 3 -0.003541 -0.008167 0.017760 0.003482 0.003933 -0.002302
# 4 0.000576 -0.000568 0.003482 0.030438 -0.000740 -0.002467
# 5 0.001697 -0.001074 0.003933 -0.000740 0.027882 0.004235
# 6 0.001359 0.001869 -0.002302 -0.002467 0.004235 0.024812
#
#
# Mechanical properties :
#
#
# Convention : Reuss Voigt Hill
#
# Bulk Modulus (GPa) = 69.53006 76.00020 72.76513
# Shear Modulus (GPa) = 32.72232 37.10394 34.91313
#
# Velocity S-wave (km/s) = 3.88634 4.13836 4.01433
# Velocity P-wave (km/s) = 7.22711 7.61013 7.42109
#
# Compressibility (1/GPa) = 0.01438227
#
# Stress axis : x y z
#
# Youngs Moduli (GPa) = 108.07474 79.26723 56.30612
#
# Poissons Ratio (x) = 0.07259 0.19936
# Poissons Ratio (y) = 0.09897 0.45983
# Poissons Ratio (z) = 0.38266 0.64735
#
# Static dielectric constant tensor:
#      x y z
#    x 4.297840 -0.101230 -0.333800 
#    y -0.101230 3.807960 -0.211040 
#    z -0.333800 -0.211040 3.877720 
# 
# 
# High freq. dielectric constant tensor:
#      x y z
#    x 1.872890 0.000220 -0.009010 
#    y 0.000220 1.850300 -0.000390 
#    z -0.009010 -0.000390 1.845440 
# 
# From -- ./inp_files/188012.got.cif
#   From: 2010.06.25/outbox.cif.g09.slc.cpg/sg2_95_cif.got.tgz:188012.got - 2010.06.27 13:26:56.
