data_PCOD8026096
_publ_section_title
;
Structure prediction by ZEFSAII (Michael W. Deem and Ramdas Pophale) SiO2 
 PCOD8026096
Probable space group: P -1
;
_chemical_formula_sum "Si O2"
_cell_formula_units_Z 16
_cell_length_a 20.491178
_cell_length_b 5.451730
_cell_length_c 7.484431
_cell_angle_alpha 111.795435
_cell_angle_beta 128.609541
_cell_angle_gamma 76.784052
_cell_volume 606.635614
_symmetry_space_group_name_H-M "P -1"
_symmetry_group_IT_number 2
_symmetry_cell_setting 'triclinic'
loop_
_space_group_symop_operation_xyz
x,y,z
-x,-y,-z
loop_
_atom_site_type_symbol
_atom_site_label
_atom_site_fract_x
_atom_site_fract_y
_atom_site_fract_z
Si Si1 0.847190 0.446880 0.983089
Si Si2 0.463770 0.201827 0.345299
Si Si3 0.904769 0.940689 0.361918
Si Si4 0.838600 0.408708 0.563137
Si Si5 0.977867 0.753181 0.777802
Si Si6 0.409282 0.912671 0.726732
Si Si7 0.656675 0.500524 0.203675
Si Si8 0.331319 0.579363 0.192485
O O1 0.862220 0.765587 0.086199
O O2 0.934367 0.340218 0.186712
O O3 0.829093 0.309843 0.725034
O O4 0.768653 0.403984 0.965071
O O5 0.500000 0.500000 0.500000
O O6 0.490137 0.092256 0.158631
O O7 0.364674 0.275183 0.212715
O O8 0.500000 0.000000 0.500000
O O9 0.908184 0.791893 0.517765
O O10 0.845133 0.187673 0.361724
O O11 0.000000 0.000000 0.500000
O O12 0.928746 0.552491 0.768591
O O13 0.754350 0.566792 0.421755
O O14 0.000000 0.000000 0.000000
O O15 0.382003 0.706244 0.777288
O O16 0.370096 0.806305 0.444317
O O17 0.384082 0.213936 0.788309
O O18 0.641765 0.359355 0.949389
#
# Coordination Sequence:
#
# PCOD8026096 Si02
#       8
#     2   2   2   2   2   2   2   2
#     4  12  25  46  72 101 144 196 246 315 386 438
#     4  10  23  48  81 113 154 200 251 310 386 464
#     4  12  26  45  68  99 140 191 255 306 378 452
#     4  12  27  47  67 103 148 193 254 316 375 456
#     4  12  25  44  70  99 140 194 248 309 381 447
#     4  11  26  52  76 111 158 202 247 321 386 457
#     4  12  29  46  79 114 155 202 260 313 383 459
#     4  11  27  47  77 115 150 199 256 317 383 462
#
# _framework density 26.374973000000001
#
# number of rings (size 3 to 8) (size 9 to 14) (size 15 to 20)
#    0.000    0.500    3.750    3.750    7.000    5.000 
#    0.000    0.000    0.000    0.000    0.000    0.000 
#    0.000    0.000    0.000    0.000    0.000    0.000 
#
# Total GULP energy -198215.103943 kJ/mol
# GULP energy per Si atom -12388.443996 kJ/mol
# Density = 2.631494 g / cm^3
# Si number density = 26.374973 Si / 1000 Ang^3
#
#
#
# Elastic Constant Matrix: (Units=GPa)
#
#
# Indices 1 2 3 4 5 6 
#
# 1 179.8819 68.8261 38.2545 -1.8430 -0.0583 -18.7108
# 2 68.8261 140.0953 36.5572 2.5424 3.9576 -7.8533
# 3 38.2545 36.5572 76.8490 -1.7056 -3.5536 -5.4455
# 4 -1.8430 2.5424 -1.7056 49.3972 -5.7984 -2.8116
# 5 -0.0583 3.9576 -3.5536 -5.7984 52.7422 -11.8996
# 6 -18.7108 -7.8533 -5.4455 -2.8116 -11.8996 41.7784
#
#
#
# Elastic Compliance Matrix: (Units=1/GPa)
#
#
# Indices 1 2 3 4 5 6 
#
# 1 0.007433 -0.003001 -0.002026 0.000612 0.000788 0.002766
# 2 -0.003001 0.009447 -0.003093 -0.000852 -0.001091 -0.000340
# 3 -0.002026 -0.003093 0.015663 0.000876 0.001624 0.001074
# 4 0.000612 -0.000852 0.000876 0.020831 0.002973 0.002477
# 5 0.000788 -0.001091 0.001624 0.002973 0.020952 0.006527
# 6 0.002766 -0.000340 0.001074 0.002477 0.006527 0.027277
#
#
# Mechanical properties :
#
#
# Convention : Reuss Voigt Hill
#
# Bulk Modulus (GPa) = 61.34433 76.01129 68.67781
# Shear Modulus (GPa) = 40.55896 45.66280 43.11088
#
# Velocity S-wave (km/s) = 3.92571 4.16539 4.04733
# Velocity P-wave (km/s) = 6.62248 7.21222 6.92363
#
# Compressibility (1/GPa) = 0.01630142
#
# Stress axis : x y z
#
# Youngs Moduli (GPa) = 134.54176 105.85565 63.84335
#
# Poissons Ratio (x) = 0.31768 0.12936
# Poissons Ratio (y) = 0.40377 0.19749
# Poissons Ratio (z) = 0.27261 0.32745
#
# Static dielectric constant tensor:
#      x y z
#    x 5.648590 -0.661620 -0.046870 
#    y -0.661620 5.040280 -0.246250 
#    z -0.046870 -0.246250 5.316750 
# 
# 
# High freq. dielectric constant tensor:
#      x y z
#    x 2.079490 -0.021370 -0.008600 
#    y -0.021370 2.049340 -0.001210 
#    z -0.008600 -0.001210 2.077360 
# 
# From -- ./inp_files/350856.got.cif
#   From: 2010.06.25/outbox.cif.g09.slc.cpg/sg2_176_cif.got.tgz:350856.got - 2010.06.27 13:26:56.
