data_PCOD8026348
_publ_section_title
;
Structure prediction by ZEFSAII (Michael W. Deem and Ramdas Pophale) SiO2 
 PCOD8026348
Probable space group: P -1
;
_chemical_formula_sum "Si O2"
_cell_formula_units_Z 12
_cell_length_a 11.415775
_cell_length_b 5.415310
_cell_length_c 23.082597
_cell_angle_alpha 117.756638
_cell_angle_beta 24.476862
_cell_angle_gamma 117.851997
_cell_volume 519.532154
_symmetry_space_group_name_H-M "P -1"
_symmetry_group_IT_number 2
_symmetry_cell_setting 'triclinic'
loop_
_space_group_symop_operation_xyz
x,y,z
-x,-y,-z
loop_
_atom_site_type_symbol
_atom_site_label
_atom_site_fract_x
_atom_site_fract_y
_atom_site_fract_z
Si Si1 0.785698 0.642190 0.192092
Si Si2 0.134496 0.670675 0.145040
Si Si3 0.775282 0.190987 0.694773
Si Si4 0.794571 0.214120 0.556750
Si Si5 0.218273 0.316300 0.178604
Si Si6 0.199218 0.887390 0.945396
O O1 0.488188 0.764944 0.351490
O O2 0.718236 0.409075 0.147138
O O3 0.903255 0.531060 0.187194
O O4 0.035710 0.869406 0.078581
O O5 0.084137 0.481681 0.204410
O O6 0.076660 0.996030 0.215639
O O7 0.445567 0.667962 0.978714
O O8 0.694029 0.130793 0.658020
O O9 0.849788 0.518474 0.713708
O O10 0.493563 0.081723 0.846809
O O11 0.042667 0.025774 0.572170
O O12 0.000000 0.500000 0.500000
O O13 0.000000 0.000000 0.000000
#
# Coordination Sequence:
#
# PCOD8026348 Si02
#       6
#     2   2   2   2   2   2
#     4  11  24  39  64 100 130 168 224 277 335 390
#     4  10  24  41  67  98 136 174 221 278 327 394
#     4  11  24  41  67  95 131 178 223 266 342 401
#     4  11  24  43  64  95 133 177 214 280 338 398
#     4  10  24  43  66  97 135 179 220 272 332 396
#     4  11  22  37  65  97 129 164 216 287 336 383
#
# _framework density 23.097705999999999
#
# number of rings (size 3 to 8) (size 9 to 14) (size 15 to 20)
#    0.000    1.333    3.333    1.000   14.000    0.000 
#    0.000    1.667    0.000    0.000    0.000    0.000 
#    0.000    0.000    0.000    0.000    0.000    0.000 
#
# Total GULP energy -148821.722906 kJ/mol
# GULP energy per Si atom -12401.810242 kJ/mol
# Density = 2.304514 g / cm^3
# Si number density = 23.097706 Si / 1000 Ang^3
#
#
#
# Elastic Constant Matrix: (Units=GPa)
#
#
# Indices 1 2 3 4 5 6 
#
# 1 103.5356 16.9331 31.3389 9.3176 -26.3528 -10.4071
# 2 16.9331 107.4317 31.6498 20.0689 0.7498 -5.4762
# 3 31.3389 31.6498 99.5907 5.7473 -19.7841 -3.7971
# 4 9.3176 20.0689 5.7473 34.7493 1.1666 1.5319
# 5 -26.3528 0.7498 -19.7841 1.1666 28.4688 8.0461
# 6 -10.4071 -5.4762 -3.7971 1.5319 8.0461 36.5733
#
#
#
# Elastic Compliance Matrix: (Units=1/GPa)
#
#
# Indices 1 2 3 4 5 6 
#
# 1 0.013586 -0.001152 -0.001411 -0.003179 0.011426 0.001166
# 2 -0.001152 0.011873 -0.003875 -0.005857 -0.004476 0.002278
# 3 -0.001411 -0.003875 0.013332 0.000192 0.008468 -0.001469
# 4 -0.003179 -0.005857 0.000192 0.033200 -0.003332 -0.002419
# 5 0.011426 -0.004476 0.008468 -0.003332 0.054194 -0.008323
# 6 0.001166 0.002278 -0.001469 -0.002419 -0.008323 0.029795
#
#
# Mechanical properties :
#
#
# Convention : Reuss Voigt Hill
#
# Bulk Modulus (GPa) = 38.58912 52.26686 45.42799
# Shear Modulus (GPa) = 28.17002 35.33402 31.75202
#
# Velocity S-wave (km/s) = 3.49607 3.91546 3.71169
# Velocity P-wave (km/s) = 5.74803 6.56649 6.17085
#
# Compressibility (1/GPa) = 0.02591404
#
# Stress axis : x y z
#
# Youngs Moduli (GPa) = 73.60662 84.22530 75.00932
#
# Poissons Ratio (x) = 0.09703 0.10585
# Poissons Ratio (y) = 0.08480 0.29065
# Poissons Ratio (z) = 0.10387 0.32637
#
# Static dielectric constant tensor:
#      x y z
#    x 4.105930 -0.130670 0.043620 
#    y -0.130670 4.405140 0.237230 
#    z 0.043620 0.237230 4.105280 
# 
# 
# High freq. dielectric constant tensor:
#      x y z
#    x 1.901620 -0.012270 -0.008780 
#    y -0.012270 1.914600 0.016120 
#    z -0.008780 0.016120 1.897160 
# 
# From -- ./inp_files/20960.got.cif
#   From: 2010.06.25/outbox.cif.g09.slc.cpg/sg2_11_cif.got.tgz:20960.got - 2010.06.27 13:26:56.
