data_PCOD8026881
_publ_section_title
;
Structure prediction by ZEFSAII (Michael W. Deem and Ramdas Pophale) SiO2 
 PCOD8026881
Probable space group: P -1
;
_chemical_formula_sum "Si O2"
_cell_formula_units_Z 14
_cell_length_a 5.221084
_cell_length_b 12.070742
_cell_length_c 11.850719
_cell_angle_alpha 106.839075
_cell_angle_beta 84.678669
_cell_angle_gamma 123.256350
_cell_volume 595.721293
_symmetry_space_group_name_H-M "P -1"
_symmetry_group_IT_number 2
_symmetry_cell_setting 'triclinic'
loop_
_space_group_symop_operation_xyz
x,y,z
-x,-y,-z
loop_
_atom_site_type_symbol
_atom_site_label
_atom_site_fract_x
_atom_site_fract_y
_atom_site_fract_z
Si Si1 0.253091 0.940465 0.790766
Si Si2 0.041968 0.886064 0.175591
Si Si3 0.157900 0.717051 0.558642
Si Si4 0.077552 0.315743 0.687621
Si Si5 0.081241 0.541833 0.880254
Si Si6 0.376901 0.548181 0.420391
Si Si7 0.198331 0.284845 0.083572
O O1 0.274389 0.857316 0.661005
O O2 0.011058 0.847388 0.868860
O O3 0.599656 0.025244 0.851454
O O4 0.128712 0.033226 0.779776
O O5 0.029030 0.820904 0.278058
O O6 0.851703 0.763379 0.058255
O O7 0.419449 0.693176 0.498913
O O8 0.999102 0.722827 0.452244
O O9 0.968259 0.587274 0.616411
O O10 0.945485 0.401683 0.771011
O O11 0.449092 0.422189 0.698032
O O12 0.446620 0.647535 0.879825
O O13 0.902920 0.608962 0.862871
O O14 0.000000 0.500000 0.000000
O O15 0.500000 0.500000 0.500000
#
# Coordination Sequence:
#
# PCOD8026881 Si02
#       7
#     2   2   2   2   2   2   2
#     4  12  28  47  73 102 140 202 240 281 345 423
#     4  12  28  47  72 101 145 192 245 287 344 416
#     4  10  24  43  70 103 144 178 241 284 358 424
#     4  11  26  42  71 103 148 178 229 297 361 420
#     4  12  26  44  77 111 139 177 232 299 375 414
#     4   9  21  41  68 100 139 179 226 296 356 410
#     4  12  26  49  75 103 145 182 244 300 347 418
#
# _framework density 23.500921999999999
#
# number of rings (size 3 to 8) (size 9 to 14) (size 15 to 20)
#    0.000    0.857    1.429    3.857   14.000    1.143 
#    0.000    0.000    0.000    0.000    0.000    0.000 
#    0.000    0.000    0.000    0.000    0.000    0.000 
#
# Total GULP energy -173516.328225 kJ/mol
# GULP energy per Si atom -12394.023445 kJ/mol
# Density = 2.344743 g / cm^3
# Si number density = 23.500922 Si / 1000 Ang^3
#
#
#
# Elastic Constant Matrix: (Units=GPa)
#
#
# Indices 1 2 3 4 5 6 
#
# 1 118.2656 28.0186 9.9012 16.1280 -18.6282 -19.3220
# 2 28.0186 79.9404 17.0924 -3.8056 -8.7176 -18.8808
# 3 9.9012 17.0924 75.5110 3.2668 -11.7148 -6.4560
# 4 16.1280 -3.8056 3.2668 39.4433 -1.5259 -8.7644
# 5 -18.6282 -8.7176 -11.7148 -1.5259 34.2963 8.6308
# 6 -19.3220 -18.8808 -6.4560 -8.7644 8.6308 46.9463
#
#
#
# Elastic Compliance Matrix: (Units=1/GPa)
#
#
# Indices 1 2 3 4 5 6 
#
# 1 0.010722 -0.003162 0.000331 -0.004192 0.004552 0.001567
# 2 -0.003162 0.015718 -0.002844 0.004249 0.000137 0.005397
# 3 0.000331 -0.002844 0.014581 -0.001466 0.004393 -0.000084
# 4 -0.004192 0.004249 -0.001466 0.028746 -0.001797 0.005479
# 5 0.004552 0.000137 0.004393 -0.001797 0.034111 -0.004074
# 6 0.001567 0.005397 -0.000084 0.005479 -0.004074 0.025877
#
#
# Mechanical properties :
#
#
# Convention : Reuss Voigt Hill
#
# Bulk Modulus (GPa) = 33.70265 42.63795 38.17030
# Shear Modulus (GPa) = 33.11386 38.71752 35.91569
#
# Velocity S-wave (km/s) = 3.75780 4.06333 3.91355
# Velocity P-wave (km/s) = 5.76196 6.34009 6.05792
#
# Compressibility (1/GPa) = 0.02967126
#
# Stress axis : x y z
#
# Youngs Moduli (GPa) = 93.26976 63.62314 68.58076
#
# Poissons Ratio (x) = 0.20116 -0.02273
# Poissons Ratio (y) = 0.29489 0.19507
# Poissons Ratio (z) = -0.03091 0.18096
#
# Static dielectric constant tensor:
#      x y z
#    x 4.785820 0.252040 -0.161750 
#    y 0.252040 4.700900 -0.264440 
#    z -0.161750 -0.264440 4.435830 
# 
# 
# High freq. dielectric constant tensor:
#      x y z
#    x 1.946710 -0.006200 -0.012530 
#    y -0.006200 1.925620 -0.007430 
#    z -0.012530 -0.007430 1.936270 
# 
# From -- ./inp_files/112758.got.cif
#   From: 2010.06.25/outbox.cif.g09.slc.cpg/sg2_57_cif.got.tgz:112758.got - 2010.06.27 13:26:56.
