data_PCOD8026051
_publ_section_title
;
Structure prediction by ZEFSAII (Michael W. Deem and Ramdas Pophale) SiO2 
 PCOD8026051
Probable space group: P -1
;
_chemical_formula_sum "Si O2"
_cell_formula_units_Z 14
_cell_length_a 14.232459
_cell_length_b 9.255612
_cell_length_c 15.420775
_cell_angle_alpha 132.509643
_cell_angle_beta 27.979980
_cell_angle_gamma 114.935464
_cell_volume 605.815642
_symmetry_space_group_name_H-M "P -1"
_symmetry_group_IT_number 2
_symmetry_cell_setting 'triclinic'
loop_
_space_group_symop_operation_xyz
x,y,z
-x,-y,-z
loop_
_atom_site_type_symbol
_atom_site_label
_atom_site_fract_x
_atom_site_fract_y
_atom_site_fract_z
Si Si1 0.927882 0.853033 0.267553
Si Si2 0.897359 0.281457 0.441859
Si Si3 0.563476 0.404095 0.312419
Si Si4 0.258720 0.230127 0.267639
Si Si5 0.869674 0.628903 0.385804
Si Si6 0.445712 0.167768 0.534295
Si Si7 0.094696 0.134321 0.032046
O O1 0.945060 0.764861 0.315311
O O2 0.807708 0.747063 0.263540
O O3 0.780222 0.130948 0.502937
O O4 0.171018 0.791241 0.998291
O O5 0.715038 0.554219 0.699375
O O6 0.114162 0.198067 0.296980
O O7 0.986198 0.207715 0.243103
O O8 0.500000 0.500000 0.500000
O O9 0.398422 0.309700 0.378728
O O10 0.530929 0.617750 0.367333
O O11 0.101687 0.304705 0.512900
O O12 0.500000 0.000000 0.000000
O O13 0.036832 0.363000 0.119866
O O14 0.500000 0.000000 0.500000
O O15 0.628697 0.030548 0.252220
O O16 0.000000 0.000000 0.000000
#
# Coordination Sequence:
#
# PCOD8026051 Si02
#       7
#     2   2   2   2   2   2   2
#     4  12  26  42  65 104 139 175 242 282 346 426
#     4  10  24  45  72 101 138 183 232 296 346 418
#     4  12  24  42  66  97 142 191 224 277 346 415
#     4  10  23  47  77  97 133 186 240 289 358 412
#     4  11  25  44  71 101 135 189 231 288 350 410
#     4  12  25  37  63  99 144 185 222 279 341 415
#     4  11  22  43  69 100 145 185 228 280 351 421
#
# _framework density 23.109341000000001
#
# number of rings (size 3 to 8) (size 9 to 14) (size 15 to 20)
#    0.000    0.857    2.857    3.857    6.000    0.571 
#    2.571    0.714    0.000    0.000    0.000    0.000 
#    0.000    0.000    0.000    0.000    0.000    0.000 
#
# Total GULP energy -173511.845453 kJ/mol
# GULP energy per Si atom -12393.703247 kJ/mol
# Density = 2.305674 g / cm^3
# Si number density = 23.109341 Si / 1000 Ang^3
#
#
#
# Elastic Constant Matrix: (Units=GPa)
#
#
# Indices 1 2 3 4 5 6 
#
# 1 105.0265 16.2789 21.8406 1.3498 9.8148 -2.8709
# 2 16.2789 139.3132 25.8392 23.5693 4.9854 -9.8972
# 3 21.8406 25.8392 89.4368 17.6211 -13.9408 9.8204
# 4 1.3498 23.5693 17.6211 38.4414 -2.7684 -11.2850
# 5 9.8148 4.9854 -13.9408 -2.7684 38.5241 2.6616
# 6 -2.8709 -9.8972 9.8204 -11.2850 2.6616 31.3405
#
#
#
# Elastic Compliance Matrix: (Units=1/GPa)
#
#
# Indices 1 2 3 4 5 6 
#
# 1 0.010893 -0.000562 -0.004004 0.002470 -0.004204 0.003322
# 2 -0.000562 0.008505 -0.002157 -0.003730 -0.002155 0.002150
# 3 -0.004004 -0.002157 0.016740 -0.008619 0.007430 -0.010028
# 4 0.002470 -0.003730 -0.008619 0.036452 -0.001683 0.015018
# 5 -0.004204 -0.002155 0.007430 -0.001683 0.030330 -0.006576
# 6 0.003322 0.002150 -0.010028 0.015018 -0.006576 0.041999
#
#
# Mechanical properties :
#
#
# Convention : Reuss Voigt Hill
#
# Bulk Modulus (GPa) = 44.06990 51.29932 47.68461
# Shear Modulus (GPa) = 30.13363 39.64905 34.89134
#
# Velocity S-wave (km/s) = 3.61495 4.14661 3.88988
# Velocity P-wave (km/s) = 6.04445 6.72105 6.39171
#
# Compressibility (1/GPa) = 0.02269122
#
# Stress axis : x y z
#
# Youngs Moduli (GPa) = 91.80148 117.58265 59.73893
#
# Poissons Ratio (x) = 0.06603 0.23922
# Poissons Ratio (y) = 0.05155 0.12886
# Poissons Ratio (z) = 0.36761 0.25363
#
# Static dielectric constant tensor:
#      x y z
#    x 4.367540 0.040470 -0.030900 
#    y 0.040470 5.007250 0.420490 
#    z -0.030900 0.420490 4.520740 
# 
# 
# High freq. dielectric constant tensor:
#      x y z
#    x 1.908790 -0.015770 0.002290 
#    y -0.015770 1.933440 0.024220 
#    z 0.002290 0.024220 1.900550 
# 
# From -- ./inp_files/304750.got.cif
#   From: 2010.06.25/outbox.cif.g09.slc.cpg/sg2_153_cif.got.tgz:304750.got - 2010.06.27 13:26:56.
