data_PCOD8026124
_publ_section_title
;
Structure prediction by ZEFSAII (Michael W. Deem and Ramdas Pophale) SiO2 
 PCOD8026124
Probable space group: P -1
;
_chemical_formula_sum "Si O2"
_cell_formula_units_Z 16
_cell_length_a 11.368018
_cell_length_b 7.746125
_cell_length_c 9.072344
_cell_angle_alpha 69.948920
_cell_angle_beta 66.837580
_cell_angle_gamma 96.945576
_cell_volume 659.023358
_symmetry_space_group_name_H-M "P -1"
_symmetry_group_IT_number 2
_symmetry_cell_setting 'triclinic'
loop_
_space_group_symop_operation_xyz
x,y,z
-x,-y,-z
loop_
_atom_site_type_symbol
_atom_site_label
_atom_site_fract_x
_atom_site_fract_y
_atom_site_fract_z
Si Si1 0.927020 0.779468 0.207387
Si Si2 0.187731 0.891111 0.234414
Si Si3 0.458727 0.755325 0.445659
Si Si4 0.168122 0.667334 0.586957
Si Si5 0.624171 0.730427 0.878444
Si Si6 0.879807 0.157700 0.155389
Si Si7 0.478615 0.477186 0.269735
Si Si8 0.632595 0.133826 0.106025
O O1 0.848215 0.559825 0.346096
O O2 0.063160 0.881360 0.197789
O O3 0.834312 0.920021 0.244651
O O4 0.976037 0.777551 0.015614
O O5 0.130751 0.719163 0.427760
O O6 0.242657 0.091905 0.236491
O O7 0.318544 0.883112 0.080347
O O8 0.318413 0.801429 0.508550
O O9 0.428827 0.579244 0.397964
O O10 0.484057 0.700527 0.617456
O O11 0.575035 0.929829 0.274074
O O12 0.084449 0.738067 0.733845
O O13 0.641179 0.596876 0.771078
O O14 0.482317 0.763088 0.885532
O O15 0.605388 0.622327 0.077470
O O16 0.766164 0.236020 0.107023
#
# Coordination Sequence:
#
# PCOD8026124 Si02
#       8
#     2   2   2   2   2   2   2   2
#     4  10  25  47  66  93 133 176 226 275 329 383
#     4  11  23  41  67  93 134 180 212 270 334 394
#     4  11  23  39  64  98 135 169 213 277 333 393
#     4  12  24  41  70 100 128 174 229 275 325 396
#     4  11  21  41  62  95 136 172 216 266 338 397
#     4  10  25  45  70  95 126 178 223 279 329 394
#     4  10  24  36  60  99 134 170 216 268 328 404
#     4  11  22  43  65  93 135 175 211 265 345 397
#
# _framework density 24.278351000000001
#
# number of rings (size 3 to 8) (size 9 to 14) (size 15 to 20)
#    0.000    1.250    2.500    2.625    5.250    2.500 
#    0.000    6.250    0.000    0.000    0.000    0.000 
#    0.000    0.000    0.000    0.000    0.000    0.000 
#
# Total GULP energy -198252.243732 kJ/mol
# GULP energy per Si atom -12390.765233 kJ/mol
# Density = 2.422309 g / cm^3
# Si number density = 24.278351 Si / 1000 Ang^3
#
#
#
# Elastic Constant Matrix: (Units=GPa)
#
#
# Indices 1 2 3 4 5 6 
#
# 1 49.3482 3.1942 26.0303 7.9108 -0.7567 2.8210
# 2 3.1942 84.0364 36.6770 -9.8202 4.9156 9.5588
# 3 26.0303 36.6770 128.0668 -2.3602 33.7841 5.3521
# 4 7.9108 -9.8202 -2.3602 32.4818 4.1280 3.3719
# 5 -0.7567 4.9156 33.7841 4.1280 30.2062 -6.0241
# 6 2.8210 9.5588 5.3521 3.3719 -6.0241 25.2912
#
#
#
# Elastic Compliance Matrix: (Units=1/GPa)
#
#
# Indices 1 2 3 4 5 6 
#
# 1 0.026535 0.000961 -0.009285 -0.008747 0.012651 0.002822
# 2 0.000961 0.014815 -0.004377 0.004349 0.000887 -0.005149
# 3 -0.009285 -0.004377 0.016613 0.005356 -0.020095 -0.006326
# 4 -0.008747 0.004349 0.005356 0.037461 -0.014059 -0.010145
# 5 0.012651 0.000887 -0.020095 -0.014059 0.061469 0.019022
# 6 0.002822 -0.005149 -0.006326 -0.010145 0.019022 0.048393
#
#
# Mechanical properties :
#
#
# Convention : Reuss Voigt Hill
#
# Bulk Modulus (GPa) = 30.71203 43.69495 37.20349
# Shear Modulus (GPa) = 20.70036 30.63250 25.66643
#
# Velocity S-wave (km/s) = 2.92314 3.55592 3.25495
# Velocity P-wave (km/s) = 4.90617 5.90729 5.42985
#
# Compressibility (1/GPa) = 0.03256053
#
# Stress axis : x y z
#
# Youngs Moduli (GPa) = 37.68659 67.49771 60.19236
#
# Poissons Ratio (x) = -0.06484 0.55889
# Poissons Ratio (y) = -0.03620 0.26346
# Poissons Ratio (z) = 0.34992 0.29544
#
# Static dielectric constant tensor:
#      x y z
#    x 4.062940 -0.071260 0.235530 
#    y -0.071260 4.362680 0.154620 
#    z 0.235530 0.154620 4.610620 
# 
# 
# High freq. dielectric constant tensor:
#      x y z
#    x 1.938180 0.002790 0.017360 
#    y 0.002790 1.964350 0.008260 
#    z 0.017360 0.008260 1.979110 
# 
# From -- ./inp_files/242959.got.cif
#   From: 2010.06.25/outbox.cif.g09.slc.cpg/sg2_122_cif.got.tgz:242959.got - 2010.06.27 13:26:56.
