data_PCOD8026670
_publ_section_title
;
Structure prediction by ZEFSAII (Michael W. Deem and Ramdas Pophale) SiO2 
 PCOD8026670
Probable space group: P -1
;
_chemical_formula_sum "Si O2"
_cell_formula_units_Z 16
_cell_length_a 19.042681
_cell_length_b 6.606636
_cell_length_c 9.257525
_cell_angle_alpha 51.003642
_cell_angle_beta 56.358055
_cell_angle_gamma 64.592055
_cell_volume 747.718311
_symmetry_space_group_name_H-M "P -1"
_symmetry_group_IT_number 2
_symmetry_cell_setting 'triclinic'
loop_
_space_group_symop_operation_xyz
x,y,z
-x,-y,-z
loop_
_atom_site_type_symbol
_atom_site_label
_atom_site_fract_x
_atom_site_fract_y
_atom_site_fract_z
Si Si1 0.708167 0.091174 0.077585
Si Si2 0.602163 0.379159 0.602105
Si Si3 0.572233 0.362115 0.321991
Si Si4 0.048374 0.264537 0.464675
Si Si5 0.228857 0.369938 0.283211
Si Si6 0.365660 0.097041 0.045629
Si Si7 0.774226 0.600979 0.390398
Si Si8 0.041536 0.686674 0.758281
O O1 0.622094 0.180952 0.225991
O O2 0.770425 0.870307 0.186579
O O3 0.763341 0.326934 0.890329
O O4 0.685804 0.979475 0.999822
O O5 0.603898 0.264339 0.488410
O O6 0.529983 0.634928 0.582070
O O7 0.693891 0.455069 0.505415
O O8 0.577001 0.161308 0.842618
O O9 0.581875 0.670565 0.161828
O O10 0.146506 0.297894 0.328846
O O11 0.000000 0.500000 0.500000
O O12 0.013463 0.290704 0.332500
O O13 0.037656 0.988367 0.680923
O O14 0.305438 0.183267 0.210323
O O15 0.226666 0.318843 0.478203
O O16 0.860435 0.419276 0.334773
O O17 0.000000 0.500000 0.000000
#
# Coordination Sequence:
#
# PCOD8026670 Si02
#       8
#     2   2   2   2   2   2   2   2
#     4  11  25  41  68  98 137 170 227 274 330 398
#     4  11  22  42  69  90 138 171 225 275 330 396
#     4  10  24  43  62 101 127 180 220 276 334 390
#     4  11  25  47  70  99 136 174 223 276 336 404
#     4  11  25  43  68  94 135 178 221 270 336 396
#     4  11  22  43  65  95 130 178 220 278 327 393
#     4  12  24  44  66  99 132 179 220 272 338 398
#     4  11  28  44  72 103 135 174 222 281 336 399
#
# _framework density 21.398432
#
# number of rings (size 3 to 8) (size 9 to 14) (size 15 to 20)
#    0.000    1.000    3.750    1.875    3.500    2.500 
#    2.250    0.000    0.000    0.000    0.000    0.000 
#    0.000    0.000    0.000    0.000    0.000    0.000 
#
# Total GULP energy -198402.397219 kJ/mol
# GULP energy per Si atom -12400.149826 kJ/mol
# Density = 2.134973 g / cm^3
# Si number density = 21.398432 Si / 1000 Ang^3
#
#
#
# Elastic Constant Matrix: (Units=GPa)
#
#
# Indices 1 2 3 4 5 6 
#
# 1 128.4735 34.7214 43.2327 -4.1674 9.7217 -5.3140
# 2 34.7214 106.8122 41.2364 -3.8038 16.3044 5.1184
# 3 43.2327 41.2364 110.3196 -6.2806 20.4443 -0.4462
# 4 -4.1674 -3.8038 -6.2806 31.4079 -4.3533 0.3783
# 5 9.7217 16.3044 20.4443 -4.3533 34.6938 -7.4802
# 6 -5.3140 5.1184 -0.4462 0.3783 -7.4802 22.4121
#
#
#
# Elastic Compliance Matrix: (Units=1/GPa)
#
#
# Indices 1 2 3 4 5 6 
#
# 1 0.009456 -0.002163 -0.003014 0.000471 0.000837 0.002947
# 2 -0.002163 0.012077 -0.002866 0.000049 -0.004409 -0.004800
# 3 -0.003014 -0.002866 0.012351 0.001007 -0.005306 -0.001602
# 4 0.000471 0.000049 0.001007 0.032585 0.003500 0.000738
# 5 0.000837 -0.004409 -0.005306 0.003500 0.037123 0.013431
# 6 0.002947 -0.004800 -0.001602 0.000738 0.013431 0.050852
#
#
# Mechanical properties :
#
#
# Convention : Reuss Voigt Hill
#
# Bulk Modulus (GPa) = 56.18363 64.88736 60.53550
# Shear Modulus (GPa) = 28.33478 32.79709 30.56593
#
# Velocity S-wave (km/s) = 3.64284 3.91920 3.78354
# Velocity P-wave (km/s) = 6.63375 7.13228 6.88753
#
# Compressibility (1/GPa) = 0.01779878
#
# Stress axis : x y z
#
# Youngs Moduli (GPa) = 105.75076 82.80499 80.96480
#
# Poissons Ratio (x) = 0.17908 0.24401
# Poissons Ratio (y) = 0.22870 0.23205
# Poissons Ratio (z) = 0.31871 0.23733
#
# Static dielectric constant tensor:
#      x y z
#    x 3.986470 -0.100520 0.011350 
#    y -0.100520 4.055800 -0.138300 
#    z 0.011350 -0.138300 4.080570 
# 
# 
# High freq. dielectric constant tensor:
#      x y z
#    x 1.851920 -0.004000 0.005940 
#    y -0.004000 1.845310 -0.007280 
#    z 0.005940 -0.007280 1.849510 
# 
# From -- ./inp_files/49160.got.cif
#   From: 2010.06.25/outbox.cif.g09.slc.cpg/sg2_25_cif.got.tgz:49160.got - 2010.06.27 13:26:56.
