data_PCOD8026657
_publ_section_title
;
Structure prediction by ZEFSAII (Michael W. Deem and Ramdas Pophale) SiO2 
 PCOD8026657
Probable space group: P -1
;
_chemical_formula_sum "Si O2"
_cell_formula_units_Z 16
_cell_length_a 13.950190
_cell_length_b 15.923199
_cell_length_c 5.005760
_cell_angle_alpha 67.692112
_cell_angle_beta 100.281885
_cell_angle_gamma 142.790036
_cell_volume 606.678023
_symmetry_space_group_name_H-M "P -1"
_symmetry_group_IT_number 2
_symmetry_cell_setting 'triclinic'
loop_
_space_group_symop_operation_xyz
x,y,z
-x,-y,-z
loop_
_atom_site_type_symbol
_atom_site_label
_atom_site_fract_x
_atom_site_fract_y
_atom_site_fract_z
Si Si1 0.091435 0.935174 0.363124
Si Si2 0.733805 0.066265 0.892169
Si Si3 0.603803 0.221969 0.774174
Si Si4 0.645228 0.728351 0.780780
Si Si5 0.729331 0.219272 0.348567
Si Si6 0.729943 0.685614 0.378098
Si Si7 0.337426 0.558904 0.128882
Si Si8 0.013962 0.690120 0.892712
O O1 0.196092 0.978301 0.111695
O O2 0.056604 0.824729 0.669168
O O3 0.920763 0.851154 0.288556
O O4 0.196901 0.090331 0.373374
O O5 0.655716 0.069331 0.608946
O O6 0.882375 0.239796 0.867364
O O7 0.589520 0.935771 0.186754
O O8 0.701808 0.279864 0.475800
O O9 0.634332 0.345112 0.747691
O O10 0.652885 0.184834 0.066008
O O11 0.625808 0.671099 0.546112
O O12 0.671118 0.663945 0.076316
O O13 0.485218 0.664994 0.863625
O O14 0.921032 0.338618 0.246329
O O15 0.693887 0.554855 0.581221
O O16 0.178660 0.465586 0.984855
#
# Coordination Sequence:
#
# PCOD8026657 Si02
#       8
#     2   2   2   2   2   2   2   2
#     4  10  24  42  74 109 140 184 240 290 356 414
#     4  11  23  45  74 105 146 184 237 292 351 419
#     4  12  26  44  75 103 144 183 245 291 346 424
#     4  12  25  49  73 106 138 187 241 296 348 431
#     4  11  25  46  71 107 140 190 237 291 350 412
#     4  11  27  46  74 102 146 183 234 297 364 417
#     4  11  27  50  69 110 144 194 231 297 361 422
#     4  10  25  47  73 105 153 188 232 291 358 424
#
# _framework density 26.37313
#
# number of rings (size 3 to 8) (size 9 to 14) (size 15 to 20)
#    0.000    1.000    2.500    2.250    8.750    3.000 
#    9.000    0.000    0.000    0.000    0.000    0.000 
#    0.000    0.000    0.000    0.000    0.000    0.000 
#
# Total GULP energy -198370.481195 kJ/mol
# GULP energy per Si atom -12398.155075 kJ/mol
# Density = 2.631310 g / cm^3
# Si number density = 26.373130 Si / 1000 Ang^3
#
#
#
# Elastic Constant Matrix: (Units=GPa)
#
#
# Indices 1 2 3 4 5 6 
#
# 1 95.1836 12.1780 6.3345 -10.5097 -26.1511 6.0009
# 2 12.1780 79.5561 1.5092 -17.5645 -2.8692 12.6190
# 3 6.3345 1.5092 58.0811 7.4029 -10.0119 11.9020
# 4 -10.5097 -17.5645 7.4029 41.4027 -1.7771 -7.2624
# 5 -26.1511 -2.8692 -10.0119 -1.7771 16.0883 -0.7805
# 6 6.0009 12.6190 11.9020 -7.2624 -0.7805 39.3242
#
#
#
# Elastic Compliance Matrix: (Units=1/GPa)
#
#
# Indices 1 2 3 4 5 6 
#
# 1 0.021481 -0.000315 0.003978 0.005783 0.037850 -0.002561
# 2 -0.000315 0.014497 0.000131 0.005531 0.002592 -0.003570
# 3 0.003978 0.000131 0.022130 -0.003384 0.019519 -0.007585
# 4 0.005783 0.005531 -0.003384 0.029798 0.011771 0.004103
# 5 0.037850 0.002592 0.019519 0.011771 0.137220 -0.007618
# 6 -0.002561 -0.003570 -0.007585 0.004103 -0.007618 0.029868
#
#
# Mechanical properties :
#
#
# Convention : Reuss Voigt Hill
#
# Bulk Modulus (GPa) = 15.22200 30.31824 22.77012
# Shear Modulus (GPa) = 18.56627 33.54965 26.05796
#
# Velocity S-wave (km/s) = 2.65615 3.57054 3.14674
# Velocity P-wave (km/s) = 3.89758 5.34034 4.67495
#
# Compressibility (1/GPa) = 0.06569439
#
# Stress axis : x y z
#
# Youngs Moduli (GPa) = 46.55352 68.98170 45.18685
#
# Poissons Ratio (x) = 0.02176 -0.17974
# Poissons Ratio (y) = 0.01469 -0.00593
# Poissons Ratio (z) = -0.18518 -0.00905
#
# Static dielectric constant tensor:
#      x y z
#    x 5.181660 0.291940 -0.123590 
#    y 0.291940 4.612210 -0.061300 
#    z -0.123590 -0.061300 4.564840 
# 
# 
# High freq. dielectric constant tensor:
#      x y z
#    x 2.079790 0.008790 -0.005250 
#    y 0.008790 2.048190 -0.002490 
#    z -0.005250 -0.002490 2.048550 
# 
# From -- ./inp_files/99605.got.cif
#   From: 2010.06.25/outbox.cif.g09.slc.cpg/sg2_50_cif.got.tgz:99605.got - 2010.06.27 13:26:56.
