data_PCOD8026965
_publ_section_title
;
Structure prediction by ZEFSAII (Michael W. Deem and Ramdas Pophale) SiO2 
 PCOD8026965
Probable space group: P -1
;
_chemical_formula_sum "Si O2"
_cell_formula_units_Z 16
_cell_length_a 17.924442
_cell_length_b 8.799434
_cell_length_c 12.597181
_cell_angle_alpha 148.988678
_cell_angle_beta 44.930000
_cell_angle_gamma 134.507005
_cell_volume 698.294111
_symmetry_space_group_name_H-M "P -1"
_symmetry_group_IT_number 2
_symmetry_cell_setting 'triclinic'
loop_
_space_group_symop_operation_xyz
x,y,z
-x,-y,-z
loop_
_atom_site_type_symbol
_atom_site_label
_atom_site_fract_x
_atom_site_fract_y
_atom_site_fract_z
Si Si1 0.859190 0.704544 0.597543
Si Si2 0.459025 0.374082 0.851525
Si Si3 0.788171 0.291343 0.964994
Si Si4 0.996074 0.388841 0.163566
Si Si5 0.109678 0.251407 0.171646
Si Si6 0.347749 0.704196 0.534766
Si Si7 0.307062 0.748303 0.185826
Si Si8 0.370164 0.419406 0.563516
O O1 0.914024 0.676508 0.639749
O O2 0.759784 0.409040 0.496553
O O3 0.948769 0.688369 0.405842
O O4 0.817980 0.010088 0.824683
O O5 0.555171 0.319807 0.652885
O O6 0.364734 0.054885 0.764670
O O7 0.500000 0.500000 0.000000
O O8 0.417069 0.639267 0.993777
O O9 0.698103 0.410625 0.190919
O O10 0.901044 0.551036 0.984712
O O11 0.737838 0.170704 0.831400
O O12 0.022860 0.314431 0.212989
O O13 0.900479 0.112204 0.046394
O O14 0.228954 0.464239 0.154848
O O15 0.344593 0.489226 0.510868
O O16 0.327425 0.059959 0.418856
O O17 0.500000 0.500000 0.500000
#
# Coordination Sequence:
#
# PCOD8026965 Si02
#       8
#     2   2   2   2   2   2   2   2
#     4  12  24  42  71 100 142 183 229 292 353 414
#     4  11  24  43  71 101 139 184 236 289 350 411
#     4  11  27  44  69 101 140 185 232 288 353 414
#     4  10  24  47  69 103 138 181 240 288 345 420
#     4  10  24  43  73 102 137 184 232 291 350 415
#     4  11  26  42  67 106 138 180 238 287 345 420
#     4  11  24  44  69 100 140 179 233 288 348 415
#     4  12  27  45  70  98 142 186 234 283 350 417
#
# _framework density 22.912980000000001
#
# number of rings (size 3 to 8) (size 9 to 14) (size 15 to 20)
#    0.000    1.000    1.250    3.750    7.000    9.500 
#    0.000    0.000    0.000    0.000    0.000    0.000 
#    0.000    0.000    0.000    0.000    0.000    0.000 
#
# Total GULP energy -198313.031206 kJ/mol
# GULP energy per Si atom -12394.564450 kJ/mol
# Density = 2.286083 g / cm^3
# Si number density = 22.912980 Si / 1000 Ang^3
#
#
#
# Elastic Constant Matrix: (Units=GPa)
#
#
# Indices 1 2 3 4 5 6 
#
# 1 63.8350 33.5319 32.0267 6.1384 11.1055 15.9628
# 2 33.5319 109.9247 69.5165 4.0763 11.0880 13.7611
# 3 32.0267 69.5165 161.0038 6.4007 -5.1700 19.3255
# 4 6.1384 4.0763 6.4007 40.5465 5.3244 3.0458
# 5 11.1055 11.0880 -5.1700 5.3244 37.8812 2.0398
# 6 15.9628 13.7611 19.3255 3.0458 2.0398 28.3540
#
#
#
# Elastic Compliance Matrix: (Units=1/GPa)
#
#
# Indices 1 2 3 4 5 6 
#
# 1 0.021709 -0.003945 -0.001673 -0.001346 -0.004781 -0.008678
# 2 -0.003945 0.014157 -0.005378 0.000575 -0.003760 -0.000775
# 3 -0.001673 -0.005378 0.009381 -0.000939 0.003639 -0.003002
# 4 -0.001346 0.000575 -0.000939 0.025509 -0.003413 -0.001376
# 5 -0.004781 -0.003760 0.003639 -0.003413 0.029863 0.000255
# 6 -0.008678 -0.000775 -0.003002 -0.001376 0.000255 0.042706
#
#
# Mechanical properties :
#
#
# Convention : Reuss Voigt Hill
#
# Bulk Modulus (GPa) = 43.00648 67.21263 55.10955
# Shear Modulus (GPa) = 28.89032 34.66889 31.77960
#
# Velocity S-wave (km/s) = 3.55473 3.89404 3.72824
# Velocity P-wave (km/s) = 5.97146 7.04383 6.52970
#
# Compressibility (1/GPa) = 0.02325231
#
# Stress axis : x y z
#
# Youngs Moduli (GPa) = 46.06480 70.63700 106.60339
#
# Poissons Ratio (x) = 0.27869 0.17836
# Poissons Ratio (y) = 0.18175 0.57334
# Poissons Ratio (z) = 0.07707 0.37990
#
# Static dielectric constant tensor:
#      x y z
#    x 4.150010 0.239290 -0.116860 
#    y 0.239290 4.014720 0.345760 
#    z -0.116860 0.345760 3.853710 
# 
# 
# High freq. dielectric constant tensor:
#      x y z
#    x 1.912620 0.007160 0.000230 
#    y 0.007160 1.898630 0.006620 
#    z 0.000230 0.006620 1.918720 
# 
# From -- ./inp_files/109458.got.cif
#   From: 2010.06.25/outbox.cif.g09.slc.cpg/sg2_55_cif.got.tgz:109458.got - 2010.06.27 13:26:56.
