data_PCOD8026173
_publ_section_title
;
Structure prediction by ZEFSAII (Michael W. Deem and Ramdas Pophale) SiO2 
 PCOD8026173
Probable space group: P -1
;
_chemical_formula_sum "Si O2"
_cell_formula_units_Z 14
_cell_length_a 8.784730
_cell_length_b 19.790950
_cell_length_c 5.032744
_cell_angle_alpha 88.011751
_cell_angle_beta 105.955060
_cell_angle_gamma 132.282534
_cell_volume 608.365803
_symmetry_space_group_name_H-M "P -1"
_symmetry_group_IT_number 2
_symmetry_cell_setting 'triclinic'
loop_
_space_group_symop_operation_xyz
x,y,z
-x,-y,-z
loop_
_atom_site_type_symbol
_atom_site_label
_atom_site_fract_x
_atom_site_fract_y
_atom_site_fract_z
Si Si1 0.159059 0.611280 0.309474
Si Si2 0.220403 0.480250 0.491292
Si Si3 0.272775 0.362936 0.245793
Si Si4 0.715849 0.935251 0.116043
Si Si5 0.417087 0.726947 0.927724
Si Si6 0.876456 0.044887 0.678048
Si Si7 0.187442 0.254004 0.733645
O O1 0.159799 0.530091 0.294012
O O2 0.214349 0.658083 0.041726
O O3 0.921675 0.566339 0.300174
O O4 0.341992 0.689119 0.598607
O O5 0.165596 0.401410 0.283197
O O6 0.470116 0.551801 0.693606
O O7 0.226137 0.291349 0.450325
O O8 0.166178 0.309861 0.922017
O O9 0.496559 0.827865 0.971573
O O10 0.918373 0.944274 0.218719
O O11 0.702684 0.971387 0.381062
O O12 0.747300 0.001753 0.898196
O O13 0.608472 0.731829 0.090404
O O14 0.961573 0.145619 0.650965
#
# Coordination Sequence:
#
# PCOD8026173 Si02
#       7
#     2   2   2   2   2   2   2
#     4  11  23  38  57  82 112 151 184 235 269 332
#     4  10  24  40  58  80 112 148 196 226 280 318
#     4  11  23  38  57  82 112 151 184 235 269 332
#     4   9  17  29  49  78 112 142 174 220 275 328
#     4  11  20  35  56  84 115 146 183 228 281 328
#     4   9  17  29  49  78 112 142 174 220 275 328
#     4  11  20  35  56  84 115 146 183 228 281 328
#
# _framework density 23.012473
#
# number of rings (size 3 to 8) (size 9 to 14) (size 15 to 20)
#    0.000    1.714    2.857    1.714    0.000   12.571 
#    0.000    0.000    0.000    0.000    0.000   20.000 
#    0.000    0.000    0.000    0.000    0.000    0.000 
#
# Total GULP energy -173658.429735 kJ/mol
# GULP energy per Si atom -12404.173553 kJ/mol
# Density = 2.296010 g / cm^3
# Si number density = 23.012473 Si / 1000 Ang^3
#
#
#
# Elastic Constant Matrix: (Units=GPa)
#
#
# Indices 1 2 3 4 5 6 
#
# 1 71.0929 27.3425 4.1269 7.7818 -19.1935 -0.6744
# 2 27.3425 137.3119 21.0414 8.8505 -12.7312 -5.2527
# 3 4.1269 21.0414 72.0009 -2.5823 -18.3300 -7.2515
# 4 7.7818 8.8505 -2.5823 31.8919 -3.2283 -15.9580
# 5 -19.1935 -12.7312 -18.3300 -3.2283 25.1331 1.8878
# 6 -0.6744 -5.2527 -7.2515 -15.9580 1.8878 13.7264
#
#
#
# Elastic Compliance Matrix: (Units=1/GPa)
#
#
# Indices 1 2 3 4 5 6 
#
# 1 0.019762 -0.002802 0.002484 -0.006556 0.015281 -0.008512
# 2 -0.002802 0.008331 -0.002413 -0.002228 0.000097 -0.000828
# 3 0.002484 -0.002413 0.022711 0.019288 0.017370 0.031232
# 4 -0.006556 -0.002228 0.019288 0.095662 0.011306 0.118674
# 5 0.015281 0.000097 0.017370 0.011306 0.064559 0.014230
# 6 -0.008512 -0.000828 0.031232 0.118674 0.014230 0.224627
#
#
# Mechanical properties :
#
#
# Convention : Reuss Voigt Hill
#
# Bulk Modulus (GPa) = 22.05432 42.82525 32.43978
# Shear Modulus (GPa) = 10.95946 29.34328 20.15137
#
# Velocity S-wave (km/s) = 2.18466 3.57473 2.96239
# Velocity P-wave (km/s) = 3.99601 5.97397 5.08214
#
# Compressibility (1/GPa) = 0.04534258
#
# Stress axis : x y z
#
# Youngs Moduli (GPa) = 50.60212 120.02941 44.03200
#
# Poissons Ratio (x) = 0.33633 -0.10938
# Poissons Ratio (y) = 0.14179 0.10624
# Poissons Ratio (z) = -0.12570 0.28961
#
# Static dielectric constant tensor:
#      x y z
#    x 3.792880 -0.071260 -0.298010 
#    y -0.071260 4.422200 0.079110 
#    z -0.298010 0.079110 4.120840 
# 
# 
# High freq. dielectric constant tensor:
#      x y z
#    x 1.871480 -0.004140 -0.018280 
#    y -0.004140 1.920470 0.002110 
#    z -0.018280 0.002110 1.915030 
# 
# From -- ./inp_files/51721.got.cif
#   From: 2010.06.25/outbox.cif.g09.slc.cpg/sg2_26_cif.got.tgz:51721.got - 2010.06.27 13:26:56.
