data_PCOD8026369
_publ_section_title
;
Structure prediction by ZEFSAII (Michael W. Deem and Ramdas Pophale) SiO2 
 PCOD8026369
Probable space group: P -1
;
_chemical_formula_sum "Si O2"
_cell_formula_units_Z 16
_cell_length_a 11.626583
_cell_length_b 11.642278
_cell_length_c 7.657665
_cell_angle_alpha 107.345987
_cell_angle_beta 114.152157
_cell_angle_gamma 114.348325
_cell_volume 712.982497
_symmetry_space_group_name_H-M "P -1"
_symmetry_group_IT_number 2
_symmetry_cell_setting 'triclinic'
loop_
_space_group_symop_operation_xyz
x,y,z
-x,-y,-z
loop_
_atom_site_type_symbol
_atom_site_label
_atom_site_fract_x
_atom_site_fract_y
_atom_site_fract_z
Si Si1 0.365213 0.120287 0.570086
Si Si2 0.865995 0.229198 0.760962
Si Si3 0.789295 0.567668 0.325938
Si Si4 0.867991 0.226495 0.349892
Si Si5 0.538035 0.578019 0.375343
Si Si6 0.807077 0.677291 0.041361
Si Si7 0.841830 0.942731 0.274330
Si Si8 0.702080 0.269248 0.970703
O O1 0.390858 0.245047 0.503874
O O2 0.304765 0.143613 0.721559
O O3 0.238515 0.950517 0.337907
O O4 0.525974 0.142283 0.728112
O O5 0.841701 0.247987 0.548468
O O6 0.051308 0.310533 0.963188
O O7 0.819236 0.309836 0.898247
O O8 0.658570 0.550209 0.359935
O O9 0.852458 0.703836 0.287844
O O10 0.716095 0.414475 0.104044
O O11 0.957221 0.627951 0.549320
O O12 0.734963 0.208255 0.135536
O O13 0.852265 0.074784 0.241618
O O14 0.500000 0.500000 0.500000
O O15 0.365151 0.486316 0.138456
O O16 0.804191 0.816766 0.048663
O O17 0.000000 0.000000 0.500000
#
# Coordination Sequence:
#
# PCOD8026369 Si02
#       8
#     2   2   2   2   2   2   2   2
#     4  11  22  44  69  96 139 178 220 284 340 390
#     4  10  25  43  69  98 136 182 226 269 338 402
#     4  11  22  44  69  94 137 179 222 275 343 400
#     4  10  24  41  69 105 130 185 229 270 337 406
#     4  12  26  41  69 106 132 167 230 288 338 397
#     4  11  21  42  68 100 125 181 221 274 346 390
#     4  11  18  40  72  95 128 174 225 282 332 391
#     4  12  25  42  67  97 148 181 220 274 330 414
#
# _framework density 22.440943000000001
#
# number of rings (size 3 to 8) (size 9 to 14) (size 15 to 20)
#    0.000    1.000    6.250    1.875    1.750    6.000 
#    0.000    1.250    0.000    0.000    0.000    0.000 
#    0.000    0.000    0.000    0.000    0.000    0.000 
#
# Total GULP energy -198248.632444 kJ/mol
# GULP energy per Si atom -12390.539528 kJ/mol
# Density = 2.238987 g / cm^3
# Si number density = 22.440943 Si / 1000 Ang^3
#
#
#
# Elastic Constant Matrix: (Units=GPa)
#
#
# Indices 1 2 3 4 5 6 
#
# 1 148.2184 45.7682 25.9811 -6.9637 9.3475 11.2841
# 2 45.7682 101.0895 43.5734 -5.1031 5.4165 -0.8313
# 3 25.9811 43.5734 34.3044 -2.6721 7.7824 3.2351
# 4 -6.9637 -5.1031 -2.6721 35.4990 4.2525 5.2922
# 5 9.3475 5.4165 7.7824 4.2525 30.8959 4.2548
# 6 11.2841 -0.8313 3.2351 5.2922 4.2548 31.6327
#
#
#
# Elastic Compliance Matrix: (Units=1/GPa)
#
#
# Indices 1 2 3 4 5 6 
#
# 1 0.008351 -0.002715 -0.002167 0.001681 -0.001333 -0.002931
# 2 -0.002715 0.023391 -0.028861 -0.000374 0.003473 0.004130
# 3 -0.002167 -0.028861 0.070935 0.003092 -0.011727 -0.006180
# 4 0.001681 -0.000374 0.003092 0.030026 -0.004621 -0.005328
# 5 -0.001333 0.003473 -0.011727 -0.004621 0.036069 -0.002313
# 6 -0.002931 0.004130 -0.006180 -0.005328 -0.002313 0.034601
#
#
# Mechanical properties :
#
#
# Convention : Reuss Voigt Hill
#
# Bulk Modulus (GPa) = 28.41605 57.13975 42.77790
# Shear Modulus (GPa) = 17.69347 30.82482 24.25915
#
# Velocity S-wave (km/s) = 2.81097 3.71023 3.29146
# Velocity P-wave (km/s) = 4.81929 6.62359 5.79213
#
# Compressibility (1/GPa) = 0.03519137
#
# Stress axis : x y z
#
# Youngs Moduli (GPa) = 119.74490 42.75227 14.09735
#
# Poissons Ratio (x) = 0.11606 0.03055
# Poissons Ratio (y) = 0.32508 0.40687
# Poissons Ratio (z) = 0.25947 1.23388
#
# Static dielectric constant tensor:
#      x y z
#    x 4.254910 -0.194700 -0.118070 
#    y -0.194700 4.087790 0.159120 
#    z -0.118070 0.159120 3.338110 
# 
# 
# High freq. dielectric constant tensor:
#      x y z
#    x 1.893790 -0.006570 0.020740 
#    y -0.006570 1.884780 0.016780 
#    z 0.020740 0.016780 1.868560 
# 
# From -- ./inp_files/259667.got.cif
#   From: 2010.06.25/outbox.cif.g09.slc.cpg/sg2_130_cif.got.tgz:259667.got - 2010.06.27 13:26:56.
