data_PCOD8026724
_publ_section_title
;
Structure prediction by ZEFSAII (Michael W. Deem and Ramdas Pophale) SiO2 
 PCOD8026724
Probable space group: P -1
;
_chemical_formula_sum "Si O2"
_cell_formula_units_Z 16
_cell_length_a 12.284284
_cell_length_b 17.696109
_cell_length_c 8.839226
_cell_angle_alpha 147.866727
_cell_angle_beta 45.640484
_cell_angle_gamma 129.904144
_cell_volume 724.514445
_symmetry_space_group_name_H-M "P -1"
_symmetry_group_IT_number 2
_symmetry_cell_setting 'triclinic'
loop_
_space_group_symop_operation_xyz
x,y,z
-x,-y,-z
loop_
_atom_site_type_symbol
_atom_site_label
_atom_site_fract_x
_atom_site_fract_y
_atom_site_fract_z
Si Si1 0.267521 0.242109 0.857788
Si Si2 0.996168 0.014885 0.850221
Si Si3 0.356721 0.655262 0.815372
Si Si4 0.492144 0.833683 0.718805
Si Si5 0.961825 0.269179 0.842824
Si Si6 0.198575 0.477622 0.123851
Si Si7 0.499982 0.601334 0.884954
Si Si8 0.820322 0.227965 0.231875
O O1 0.343953 0.200015 0.555565
O O2 0.149391 0.110727 0.806702
O O3 0.186829 0.380951 0.124996
O O4 0.396376 0.275226 0.916002
O O5 0.980214 0.858705 0.525250
O O6 0.000000 0.000000 0.000000
O O7 0.850310 0.094691 0.082200
O O8 0.459776 0.772655 0.814187
O O9 0.409258 0.679471 0.978446
O O10 0.382880 0.497459 0.468617
O O11 0.177244 0.670790 0.006926
O O12 0.359311 0.771219 0.625094
O O13 0.500000 0.000000 0.000000
O O14 0.911458 0.212183 0.961340
O O15 0.100898 0.398229 0.945921
O O16 0.126737 0.622037 0.480072
O O17 0.377021 0.508010 0.953328
#
# Coordination Sequence:
#
# PCOD8026724 Si02
#       8
#     2   2   2   2   2   2   2   2
#     4  12  23  45  71  98 140 178 235 280 345 405
#     4  12  30  47  67 103 143 184 232 289 353 411
#     4  10  24  43  66 104 140 175 231 277 357 396
#     4  11  23  41  71  96 135 186 236 278 334 419
#     4  11  25  46  73  98 140 186 238 280 340 423
#     4  12  24  42  76 105 138 184 236 286 336 417
#     4  11  24  42  69 106 142 176 218 297 343 411
#     4  11  24  45  69 106 136 184 237 283 343 412
#
# _framework density 22.083753999999999
#
# number of rings (size 3 to 8) (size 9 to 14) (size 15 to 20)
#    0.000    0.750    3.750    4.125    5.250    3.500 
#    0.000    1.875    0.000    0.000    0.000    0.000 
#    0.000    0.000    0.000    0.000    0.000    0.000 
#
# Total GULP energy -198475.321473 kJ/mol
# GULP energy per Si atom -12404.707592 kJ/mol
# Density = 2.203349 g / cm^3
# Si number density = 22.083754 Si / 1000 Ang^3
#
#
#
# Elastic Constant Matrix: (Units=GPa)
#
#
# Indices 1 2 3 4 5 6 
#
# 1 115.7213 34.4849 40.0505 12.4807 2.8630 -14.9690
# 2 34.4849 81.2052 23.7460 7.8680 9.4916 3.5011
# 3 40.0505 23.7460 135.3493 13.3312 5.4611 -5.4892
# 4 12.4807 7.8680 13.3312 31.4890 3.7234 -0.2515
# 5 2.8630 9.4916 5.4611 3.7234 38.5873 3.5179
# 6 -14.9690 3.5011 -5.4892 -0.2515 3.5179 37.9533
#
#
#
# Elastic Compliance Matrix: (Units=1/GPa)
#
#
# Indices 1 2 3 4 5 6 
#
# 1 0.011540 -0.004230 -0.002248 -0.002568 0.000334 0.004569
# 2 -0.004230 0.015062 -0.001276 -0.001237 -0.002819 -0.002990
# 3 -0.002248 -0.001276 0.008551 -0.002341 -0.000549 0.000503
# 4 -0.002568 -0.001237 -0.002341 0.034355 -0.002417 -0.000786
# 5 0.000334 -0.002819 -0.000549 -0.002417 0.027097 -0.002215
# 6 0.004569 -0.002990 0.000503 -0.000786 -0.002215 0.028699
#
#
# Mechanical properties :
#
#
# Convention : Reuss Voigt Hill
#
# Bulk Modulus (GPa) = 50.90735 58.75984 54.83360
# Shear Modulus (GPa) = 33.93055 37.20556 35.56805
#
# Velocity S-wave (km/s) = 3.92401 4.10902 4.01758
# Velocity P-wave (km/s) = 6.60549 7.01267 6.81212
#
# Compressibility (1/GPa) = 0.01964353
#
# Stress axis : x y z
#
# Youngs Moduli (GPa) = 86.65737 66.39036 116.95205
#
# Poissons Ratio (x) = 0.28086 0.26287
# Poissons Ratio (y) = 0.36659 0.14929
# Poissons Ratio (z) = 0.19478 0.08475
#
# Static dielectric constant tensor:
#      x y z
#    x -25.893310 -7.285290 -0.386670 
#    y -7.285290 2.088110 -0.036030 
#    z -0.386670 -0.036030 3.899540 
# 
# 
# High freq. dielectric constant tensor:
#      x y z
#    x 1.878120 0.005090 -0.005420 
#    y 0.005090 1.860120 0.000780 
#    z -0.005420 0.000780 1.874890 
# 
# From -- ./inp_files/207821.got.cif
#   From: 2010.06.25/outbox.cif.g09.slc.cpg/sg2_104_cif.got.tgz:207821.got - 2010.06.27 13:26:56.
