data_PCOD8026182
_publ_section_title
;
Structure prediction by ZEFSAII (Michael W. Deem and Ramdas Pophale) SiO2 
 PCOD8026182
Probable space group: P -1
;
_chemical_formula_sum "Si O2"
_cell_formula_units_Z 14
_cell_length_a 15.224455
_cell_length_b 9.981724
_cell_length_c 7.873303
_cell_angle_alpha 67.502872
_cell_angle_beta 106.434596
_cell_angle_gamma 144.411530
_cell_volume 642.423076
_symmetry_space_group_name_H-M "P -1"
_symmetry_group_IT_number 2
_symmetry_cell_setting 'triclinic'
loop_
_space_group_symop_operation_xyz
x,y,z
-x,-y,-z
loop_
_atom_site_type_symbol
_atom_site_label
_atom_site_fract_x
_atom_site_fract_y
_atom_site_fract_z
Si Si1 0.449673 0.351103 0.296371
Si Si2 0.606300 0.263538 0.381465
Si Si3 0.207696 0.203199 0.380584
Si Si4 0.902344 0.696241 0.510653
Si Si5 0.002266 0.329775 0.077638
Si Si6 0.225335 0.419450 0.969630
Si Si7 0.729735 0.818602 0.045909
O O1 0.521338 0.288587 0.413851
O O2 0.357503 0.292462 0.440867
O O3 0.578916 0.621540 0.171695
O O4 0.317087 0.174662 0.165668
O O5 0.778433 0.455319 0.448402
O O6 0.626321 0.316150 0.163014
O O7 0.500000 0.000000 0.500000
O O8 0.168715 0.234147 0.520127
O O9 0.259256 0.389692 0.182494
O O10 0.058367 0.920901 0.383458
O O11 0.933619 0.643815 0.721551
O O12 0.833917 0.060132 0.088792
O O13 0.000000 0.500000 0.000000
O O14 0.098273 0.383064 0.946329
O O15 0.187948 0.237355 0.906697
#
# Coordination Sequence:
#
# PCOD8026182 Si02
#       7
#     2   2   2   2   2   2   2
#     4   9  20  37  65  92 115 165 211 258 300 365
#     4  11  25  41  61  91 133 162 204 255 318 378
#     4   9  20  41  66  93 120 157 219 260 303 362
#     4  10  24  40  61  95 127 161 203 267 311 364
#     4  11  24  40  62  94 131 167 207 257 316 378
#     4   9  21  40  67  89 116 177 209 246 310 370
#     4   9  19  38  66  91 119 160 222 256 292 373
#
# _framework density 21.792491999999999
#
# number of rings (size 3 to 8) (size 9 to 14) (size 15 to 20)
#    0.000    2.286    0.000    1.286   18.000    1.714 
#    2.571    2.857    0.000    0.000    0.000    0.000 
#    0.000    0.000    0.000    0.000    0.000    0.000 
#
# Total GULP energy -173453.601266 kJ/mol
# GULP energy per Si atom -12389.542948 kJ/mol
# Density = 2.174289 g / cm^3
# Si number density = 21.792492 Si / 1000 Ang^3
#
#
#
# Elastic Constant Matrix: (Units=GPa)
#
#
# Indices 1 2 3 4 5 6 
#
# 1 135.7994 40.1664 30.2968 -13.4722 -11.0093 10.6083
# 2 40.1664 116.6517 33.7714 -23.2244 5.2186 8.7586
# 3 30.2968 33.7714 78.9206 -27.1502 -6.2025 5.4442
# 4 -13.4722 -23.2244 -27.1502 31.8495 4.2262 0.0670
# 5 -11.0093 5.2186 -6.2025 4.2262 32.5306 -6.0798
# 6 10.6083 8.7586 5.4442 0.0670 -6.0798 28.8519
#
#
#
# Elastic Compliance Matrix: (Units=1/GPa)
#
#
# Indices 1 2 3 4 5 6 
#
# 1 0.008894 -0.002507 -0.002092 -0.000212 0.002754 -0.001534
# 2 -0.002507 0.011734 -0.001987 0.006413 -0.004548 -0.003239
# 3 -0.002092 -0.001987 0.019389 0.014054 0.001091 -0.002089
# 4 -0.000212 0.006413 0.014054 0.048754 -0.005851 -0.005867
# 5 0.002754 -0.004548 0.001091 -0.005851 0.034773 0.007503
# 6 -0.001534 -0.003239 -0.002089 -0.005867 0.007503 0.038196
#
#
# Mechanical properties :
#
#
# Convention : Reuss Voigt Hill
#
# Bulk Modulus (GPa) = 37.24996 59.98232 48.61614
# Shear Modulus (GPa) = 27.19465 33.78887 30.49176
#
# Velocity S-wave (km/s) = 3.53638 3.94189 3.74463
# Velocity P-wave (km/s) = 5.81419 6.94997 6.40729
#
# Compressibility (1/GPa) = 0.02684567
#
# Stress axis : x y z
#
# Youngs Moduli (GPa) = 112.43334 85.21997 51.57555
#
# Poissons Ratio (x) = 0.21365 0.10790
# Poissons Ratio (y) = 0.28187 0.10247
# Poissons Ratio (z) = 0.23522 0.16931
#
# Static dielectric constant tensor:
#      x y z
#    x 4.413860 0.226900 -0.241860 
#    y 0.226900 3.643890 -0.110820 
#    z -0.241860 -0.110820 3.945020 
# 
# 
# High freq. dielectric constant tensor:
#      x y z
#    x 1.861390 0.022170 -0.012480 
#    y 0.022170 1.824350 -0.004970 
#    z -0.012480 -0.004970 1.856070 
# 
# From -- ./inp_files/224075.got.cif
#   From: 2010.06.25/outbox.cif.g09.slc.cpg/sg2_113_cif.got.tgz:224075.got - 2010.06.27 13:26:56.
