data_PCOD8026567
_publ_section_title
;
Structure prediction by ZEFSAII (Michael W. Deem and Ramdas Pophale) SiO2 
 PCOD8026567
Probable space group: P -1
;
_chemical_formula_sum "Si O2"
_cell_formula_units_Z 14
_cell_length_a 11.769287
_cell_length_b 15.213695
_cell_length_c 8.884888
_cell_angle_alpha 149.471692
_cell_angle_beta 125.839011
_cell_angle_gamma 44.246701
_cell_volume 561.621372
_symmetry_space_group_name_H-M "P -1"
_symmetry_group_IT_number 2
_symmetry_cell_setting 'triclinic'
loop_
_space_group_symop_operation_xyz
x,y,z
-x,-y,-z
loop_
_atom_site_type_symbol
_atom_site_label
_atom_site_fract_x
_atom_site_fract_y
_atom_site_fract_z
Si Si1 0.449637 0.758922 0.358885
Si Si2 0.979257 0.532485 0.852016
Si Si3 0.032386 0.148408 0.145333
Si Si4 0.345117 0.769833 0.766150
Si Si5 0.507820 0.490279 0.241996
Si Si6 0.886745 0.215104 0.809765
Si Si7 0.392697 0.145614 0.994826
O O1 0.568416 0.625495 0.395204
O O2 0.297665 0.735336 0.259972
O O3 0.402315 0.987367 0.643645
O O4 0.526414 0.650593 0.101626
O O5 0.030460 0.320601 0.499491
O O6 0.797835 0.696094 0.893329
O O7 0.000000 0.500000 0.000000
O O8 0.097624 0.611309 0.006677
O O9 0.918447 0.227136 0.028753
O O10 0.214005 0.005220 0.005373
O O11 0.000000 0.000000 0.000000
O O12 0.341412 0.637513 0.427488
O O13 0.340213 0.663267 0.759816
O O14 0.526386 0.737003 0.841185
O O15 0.000000 0.000000 0.500000
O O16 0.500000 0.000000 0.000000
#
# Coordination Sequence:
#
# PCOD8026567 Si02
#       7
#     2   2   2   2   2   2   2
#     4  11  24  44  73 106 145 191 249 311 369 448
#     4  12  30  50  77 114 156 205 255 320 381 462
#     4  12  28  48  78 112 157 202 255 312 389 462
#     4  11  25  45  73 103 148 190 254 304 376 441
#     4  10  24  42  69 106 135 190 244 303 372 432
#     4  12  24  47  75 106 154 197 258 302 394 446
#     4  12  26  48  75 108 151 194 254 309 378 447
#
# _framework density 24.927826
#
# number of rings (size 3 to 8) (size 9 to 14) (size 15 to 20)
#    0.000    0.571    2.857    3.857   10.000    2.857 
#    0.000    0.000    0.000    0.000    0.000    0.000 
#    0.000    0.000    0.000    0.000    0.000    0.000 
#
# Total GULP energy -173465.008732 kJ/mol
# GULP energy per Si atom -12390.357767 kJ/mol
# Density = 2.487109 g / cm^3
# Si number density = 24.927826 Si / 1000 Ang^3
#
#
#
# Elastic Constant Matrix: (Units=GPa)
#
#
# Indices 1 2 3 4 5 6 
#
# 1 88.2840 31.3416 49.7193 -9.0791 6.8317 10.1487
# 2 31.3416 123.5227 42.4237 -3.5059 -13.8918 18.7474
# 3 49.7193 42.4237 194.9843 17.5398 -20.2191 12.3083
# 4 -9.0791 -3.5059 17.5398 40.4165 4.9825 -12.4602
# 5 6.8317 -13.8918 -20.2191 4.9825 50.3094 1.2000
# 6 10.1487 18.7474 12.3083 -12.4602 1.2000 52.0182
#
#
#
# Elastic Compliance Matrix: (Units=1/GPa)
#
#
# Indices 1 2 3 4 5 6 
#
# 1 0.015961 -0.003018 -0.004580 0.006191 -0.005470 0.000666
# 2 -0.003018 0.009917 -0.000819 -0.000766 0.002967 -0.003043
# 3 -0.004580 -0.000819 0.007507 -0.005464 0.004001 -0.001988
# 4 0.006191 -0.000766 -0.005464 0.031753 -0.006586 0.008119
# 5 -0.005470 0.002967 0.004001 -0.006586 0.023773 -0.003075
# 6 0.000666 -0.003043 -0.001988 0.008119 -0.003075 0.022677
#
#
# Mechanical properties :
#
#
# Convention : Reuss Voigt Hill
#
# Bulk Modulus (GPa) = 60.41963 72.64004 66.52984
# Shear Modulus (GPa) = 37.33113 47.43592 42.38352
#
# Velocity S-wave (km/s) = 3.87404 4.36699 4.12788
# Velocity P-wave (km/s) = 6.65593 7.39127 7.03322
#
# Compressibility (1/GPa) = 0.01655091
#
# Stress axis : x y z
#
# Youngs Moduli (GPa) = 62.65360 100.84104 133.21696
#
# Poissons Ratio (x) = 0.30429 0.61007
# Poissons Ratio (y) = 0.18906 0.10917
# Poissons Ratio (z) = 0.28692 0.08264
#
# Static dielectric constant tensor:
#      x y z
#    x 4.488510 -0.023460 -0.212370 
#    y -0.023460 4.762810 0.083440 
#    z -0.212370 0.083440 5.061340 
# 
# 
# High freq. dielectric constant tensor:
#      x y z
#    x 1.975790 0.012380 -0.017000 
#    y 0.012380 2.007280 0.007860 
#    z -0.017000 0.007860 2.021850 
# 
# From -- ./inp_files/274937.got.cif
#   From: 2010.06.25/outbox.cif.g09.slc.cpg/sg2_138_cif.got.tgz:274937.got - 2010.06.27 13:26:56.
