data_PCOD8026459
_publ_section_title
;
Structure prediction by ZEFSAII (Michael W. Deem and Ramdas Pophale) SiO2 
 PCOD8026459
Probable space group: P -1
;
_chemical_formula_sum "Si O2"
_cell_formula_units_Z 16
_cell_length_a 9.230688
_cell_length_b 8.856880
_cell_length_c 12.647404
_cell_angle_alpha 84.179566
_cell_angle_beta 98.677463
_cell_angle_gamma 48.316180
_cell_volume 734.316760
_symmetry_space_group_name_H-M "P -1"
_symmetry_group_IT_number 2
_symmetry_cell_setting 'triclinic'
loop_
_space_group_symop_operation_xyz
x,y,z
-x,-y,-z
loop_
_atom_site_type_symbol
_atom_site_label
_atom_site_fract_x
_atom_site_fract_y
_atom_site_fract_z
Si Si1 0.493352 0.997839 0.176342
Si Si2 0.903397 0.200605 0.801626
Si Si3 0.248237 0.056759 0.972076
Si Si4 0.832170 0.211572 0.266208
Si Si5 0.809022 0.513405 0.598982
Si Si6 0.520622 0.320074 0.839184
Si Si7 0.594336 0.124845 0.368774
Si Si8 0.960938 0.721202 0.558628
O O1 0.467464 0.118028 0.268718
O O2 0.678280 0.930542 0.132616
O O3 0.537630 0.789834 0.227522
O O4 0.289478 0.145204 0.067821
O O5 0.906548 0.323367 0.702490
O O6 0.675608 0.313786 0.791459
O O7 0.009929 0.191138 0.920619
O O8 0.039946 0.960195 0.798773
O O9 0.375393 0.810852 0.030422
O O10 0.681838 0.439510 0.177981
O O11 0.703746 0.187617 0.323320
O O12 0.994137 0.178730 0.361112
O O13 0.567799 0.700144 0.576072
O O14 0.848911 0.427801 0.490065
O O15 0.925651 0.588666 0.625209
O O16 0.755770 0.902234 0.458973
#
# Coordination Sequence:
#
# PCOD8026459 Si02
#       8
#     2   2   2   2   2   2   2   2
#     4   9  21  41  70  94 129 173 211 265 318 381
#     4  12  23  44  65  99 133 170 215 269 316 384
#     4   9  20  41  71  92 134 173 209 264 321 384
#     4  12  26  40  68  96 132 168 218 268 322 381
#     4  11  26  42  69  91 133 170 215 269 322 382
#     4  10  24  42  65  97 133 172 211 264 325 374
#     4  12  23  47  65  96 131 171 213 271 325 380
#     4  11  27  44  65  97 127 174 219 265 324 388
#
# _framework density 21.788961
#
# number of rings (size 3 to 8) (size 9 to 14) (size 15 to 20)
#    0.750    0.500    3.750    1.125    7.000    2.000 
#    0.000    0.625    0.000    0.000    0.000    0.000 
#    0.000    0.000    0.000    0.000    0.000    0.000 
#
# Total GULP energy -198349.643281 kJ/mol
# GULP energy per Si atom -12396.852705 kJ/mol
# Density = 2.173937 g / cm^3
# Si number density = 21.788961 Si / 1000 Ang^3
#
#
#
# Elastic Constant Matrix: (Units=GPa)
#
#
# Indices 1 2 3 4 5 6 
#
# 1 84.6451 24.9595 40.1112 -0.3723 8.5542 13.7417
# 2 24.9595 69.8179 13.2948 -5.5350 9.3344 -8.4462
# 3 40.1112 13.2948 69.2641 -5.5263 6.8999 5.1327
# 4 -0.3723 -5.5350 -5.5263 24.6733 9.1211 -6.0490
# 5 8.5542 9.3344 6.8999 9.1211 22.6142 -4.5214
# 6 13.7417 -8.4462 5.1327 -6.0490 -4.5214 36.2905
#
#
#
# Elastic Compliance Matrix: (Units=1/GPa)
#
#
# Indices 1 2 3 4 5 6 
#
# 1 0.019971 -0.006476 -0.009909 -0.004903 -0.001618 -0.008687
# 2 -0.006476 0.019114 0.001073 0.009177 -0.008013 0.007280
# 3 -0.009909 0.001073 0.021010 0.007295 -0.005741 0.001531
# 4 -0.004903 0.009177 0.007295 0.055530 -0.024730 0.009135
# 5 -0.001618 -0.008013 -0.005741 -0.024730 0.060460 0.002970
# 6 -0.008687 0.007280 0.001531 0.009135 0.002970 0.034215
#
#
# Mechanical properties :
#
#
# Convention : Reuss Voigt Hill
#
# Bulk Modulus (GPa) = 33.93210 42.27314 38.10262
# Shear Modulus (GPa) = 19.94030 26.40637 23.17334
#
# Velocity S-wave (km/s) = 3.02844 3.48503 3.26473
# Velocity P-wave (km/s) = 5.27593 5.96969 5.63350
#
# Compressibility (1/GPa) = 0.02947062
#
# Stress axis : x y z
#
# Youngs Moduli (GPa) = 50.07170 52.31899 47.59557
#
# Poissons Ratio (x) = 0.33882 0.47161
# Poissons Ratio (y) = 0.32427 -0.05105
# Poissons Ratio (z) = 0.49615 -0.05612
#
# Static dielectric constant tensor:
#      x y z
#    x 4.045390 0.162800 -0.008570 
#    y 0.162800 3.787890 -0.110850 
#    z -0.008570 -0.110850 3.742850 
# 
# 
# High freq. dielectric constant tensor:
#      x y z
#    x 1.872280 0.011170 -0.001320 
#    y 0.011170 1.836650 -0.012340 
#    z -0.001320 -0.012340 1.849770 
# 
# From -- ./inp_files/494895.got.cif
#   From: 2010.06.25/outbox.cif.g09.slc.cpg/sg2_248_cif.got.tgz:494895.got - 2010.06.27 13:26:56.
