data_PCOD8026159
_publ_section_title
;
Structure prediction by ZEFSAII (Michael W. Deem and Ramdas Pophale) SiO2 
 PCOD8026159
Probable space group: P -1
;
_chemical_formula_sum "Si O2"
_cell_formula_units_Z 14
_cell_length_a 17.911991
_cell_length_b 8.584551
_cell_length_c 5.119112
_cell_angle_alpha 124.514630
_cell_angle_beta 122.914728
_cell_angle_gamma 71.285536
_cell_volume 544.387073
_symmetry_space_group_name_H-M "P -1"
_symmetry_group_IT_number 2
_symmetry_cell_setting 'triclinic'
loop_
_space_group_symop_operation_xyz
x,y,z
-x,-y,-z
loop_
_atom_site_type_symbol
_atom_site_label
_atom_site_fract_x
_atom_site_fract_y
_atom_site_fract_z
Si Si1 0.061221 0.493202 0.360511
Si Si2 0.198319 0.190520 0.184112
Si Si3 0.562850 0.692897 0.412955
Si Si4 0.374295 0.101032 0.748351
Si Si5 0.807863 0.220190 0.305008
Si Si6 0.630088 0.310710 0.788329
Si Si7 0.278529 0.492048 0.288839
O O1 0.120271 0.301692 0.293655
O O2 0.126767 0.671712 0.662977
O O3 0.000000 0.500000 0.500000
O O4 0.000000 0.500000 0.000000
O O5 0.274393 0.151988 0.507807
O O6 0.227688 0.299624 0.080056
O O7 0.159479 0.994882 0.810242
O O8 0.557591 0.826923 0.277233
O O9 0.465655 0.611952 0.211774
O O10 0.636240 0.516531 0.348604
O O11 0.606546 0.803772 0.846562
O O12 0.391655 0.875336 0.606542
O O13 0.796905 0.339860 0.667711
O O14 0.703375 0.226383 0.042386
O O15 0.675009 0.485720 0.883270
#
# Coordination Sequence:
#
# PCOD8026159 Si02
#       7
#     2   2   2   2   2   2   2
#     4  11  27  49  77 108 138 169 222 285 350 425
#     4   9  23  48  71 102 141 183 222 284 342 413
#     4  11  24  41  64  99 144 188 237 290 332 385
#     4  10  24  42  67  99 140 187 235 281 340 402
#     4  10  25  46  70 102 138 185 227 279 348 413
#     4  11  24  39  67  99 138 190 237 287 334 399
#     4  10  24  39  67  97 141 183 235 278 332 393
#
# _framework density 25.716995000000001
#
# number of rings (size 3 to 8) (size 9 to 14) (size 15 to 20)
#    0.000    1.714    0.000    1.286   18.000    2.857 
#    2.571    0.000    0.000    0.000    0.000    0.000 
#    0.000    0.000    0.000    0.000    0.000    0.000 
#
# Total GULP energy -173460.606701 kJ/mol
# GULP energy per Si atom -12390.043336 kJ/mol
# Density = 2.565846 g / cm^3
# Si number density = 25.716995 Si / 1000 Ang^3
#
#
#
# Elastic Constant Matrix: (Units=GPa)
#
#
# Indices 1 2 3 4 5 6 
#
# 1 211.9489 76.2668 34.2149 22.9989 -10.4971 -5.4306
# 2 76.2668 141.7666 31.2897 38.7620 -6.7886 -6.8040
# 3 34.2149 31.2897 64.6270 6.6091 0.4717 6.0487
# 4 22.9989 38.7620 6.6091 44.4746 3.5941 1.4865
# 5 -10.4971 -6.7886 0.4717 3.5941 32.6916 -10.3136
# 6 -5.4306 -6.8040 6.0487 1.4865 -10.3136 36.7343
#
#
#
# Elastic Compliance Matrix: (Units=1/GPa)
#
#
# Indices 1 2 3 4 5 6 
#
# 1 0.006181 -0.002409 -0.002155 -0.000993 0.002081 0.001447
# 2 -0.002409 0.012167 -0.004086 -0.009221 0.004119 0.004100
# 3 -0.002155 -0.004086 0.018879 0.002352 -0.003754 -0.005333
# 4 -0.000993 -0.009221 0.002352 0.031480 -0.007502 -0.005622
# 5 0.002081 0.004119 -0.003754 -0.007502 0.036887 0.012349
# 6 0.001447 0.004100 -0.005333 -0.005622 0.012349 0.032769
#
#
# Mechanical properties :
#
#
# Convention : Reuss Voigt Hill
#
# Bulk Modulus (GPa) = 50.18507 77.98727 64.08617
# Shear Modulus (GPa) = 30.80635 41.21818 36.01227
#
# Velocity S-wave (km/s) = 3.46482 4.00779 3.74616
# Velocity P-wave (km/s) = 5.96350 7.19775 6.60950
#
# Compressibility (1/GPa) = 0.01992625
#
# Stress axis : x y z
#
# Youngs Moduli (GPa) = 161.79476 82.19030 52.96959
#
# Poissons Ratio (x) = 0.19798 0.11415
# Poissons Ratio (y) = 0.38973 0.21645
# Poissons Ratio (z) = 0.34867 0.33585
#
# Static dielectric constant tensor:
#      x y z
#    x 4.771640 -0.471860 0.038360 
#    y -0.471860 5.293690 0.590710 
#    z 0.038360 0.590710 4.827830 
# 
# 
# High freq. dielectric constant tensor:
#      x y z
#    x 2.035590 -0.011590 -0.006870 
#    y -0.011590 2.029880 0.021760 
#    z -0.006870 0.021760 2.032420 
# 
# From -- ./inp_files/105876.got.cif
#   From: 2010.06.25/outbox.cif.g09.slc.cpg/sg2_53_cif.got.tgz:105876.got - 2010.06.27 13:26:56.
