data_PCOD8026633
_publ_section_title
;
Structure prediction by ZEFSAII (Michael W. Deem and Ramdas Pophale) SiO2 
 PCOD8026633
Probable space group: P -1
;
_chemical_formula_sum "Si O2"
_cell_formula_units_Z 16
_cell_length_a 12.510862
_cell_length_b 9.731079
_cell_length_c 10.497032
_cell_angle_alpha 91.603803
_cell_angle_beta 145.139735
_cell_angle_gamma 106.988944
_cell_volume 609.039423
_symmetry_space_group_name_H-M "P -1"
_symmetry_group_IT_number 2
_symmetry_cell_setting 'triclinic'
loop_
_space_group_symop_operation_xyz
x,y,z
-x,-y,-z
loop_
_atom_site_type_symbol
_atom_site_label
_atom_site_fract_x
_atom_site_fract_y
_atom_site_fract_z
Si Si1 0.170505 0.527008 0.058621
Si Si2 0.890727 0.783060 0.716767
Si Si3 0.667148 0.703543 0.745626
Si Si4 0.356731 0.884803 0.241326
Si Si5 0.043314 0.095661 0.734564
Si Si6 0.529051 0.674518 0.006164
Si Si7 0.758183 0.429583 0.514860
Si Si8 0.429408 0.046594 0.805213
O O1 0.992319 0.439134 0.763744
O O2 0.000000 0.500000 0.000000
O O3 0.326318 0.460673 0.244773
O O4 0.354411 0.719270 0.224779
O O5 0.717381 0.774333 0.652385
O O6 0.804385 0.610384 0.562018
O O7 0.943147 0.901944 0.651641
O O8 0.109466 0.843160 0.018319
O O9 0.429327 0.671335 0.558839
O O10 0.868138 0.826641 0.038657
O O11 0.445849 0.971514 0.193349
O O12 0.500000 0.000000 0.500000
O O13 0.229251 0.188905 0.811371
O O14 0.830082 0.094661 0.477942
O O15 0.341624 0.649364 0.721700
O O16 0.500000 0.500000 0.000000
O O17 0.509199 0.763959 0.113935
O O18 0.500000 0.000000 0.000000
#
# Coordination Sequence:
#
# PCOD8026633 Si02
#       8
#     2   2   2   2   2   2   2   2
#     4  11  24  41  68 106 145 188 246 298 359 442
#     4  11  22  46  66 107 143 191 236 302 360 442
#     4  11  23  43  70 107 143 195 240 297 374 431
#     4  11  26  46  72 107 149 187 241 305 371 433
#     4  11  26  43  73  98 144 184 248 294 366 443
#     4  11  26  49  73 100 137 192 246 304 366 439
#     4  10  24  42  71  99 147 187 243 301 363 433
#     4  12  28  47  74 108 147 193 243 304 374 441
#
# _framework density 26.270875
#
# number of rings (size 3 to 8) (size 9 to 14) (size 15 to 20)
#    0.000    1.000    2.500    3.375    7.000    4.000 
#    0.000    3.125    0.000    0.000    0.000    0.000 
#    0.000    0.000    0.000    0.000    0.000    0.000 
#
# Total GULP energy -198329.674789 kJ/mol
# GULP energy per Si atom -12395.604674 kJ/mol
# Density = 2.621108 g / cm^3
# Si number density = 26.270875 Si / 1000 Ang^3
#
#
#
# Elastic Constant Matrix: (Units=GPa)
#
#
# Indices 1 2 3 4 5 6 
#
# 1 97.0779 21.2942 30.2053 8.7643 -11.8874 15.9065
# 2 21.2942 103.9309 14.7151 6.7273 13.0921 18.1289
# 3 30.2053 14.7151 144.3328 7.7381 8.8910 6.0242
# 4 8.7643 6.7273 7.7381 29.4155 -5.4448 5.2871
# 5 -11.8874 13.0921 8.8910 -5.4448 35.7025 -2.5945
# 6 15.9065 18.1289 6.0242 5.2871 -2.5945 35.7039
#
#
#
# Elastic Compliance Matrix: (Units=1/GPa)
#
#
# Indices 1 2 3 4 5 6 
#
# 1 0.012953 -0.002261 -0.002605 -0.001008 0.005372 -0.003644
# 2 -0.002261 0.011852 -0.000049 -0.002179 -0.005790 -0.005100
# 3 -0.002605 -0.000049 0.007768 -0.001809 -0.003066 -0.000080
# 4 -0.001008 -0.002179 -0.001809 0.037010 0.006329 -0.003160
# 5 0.005372 -0.005790 -0.003066 0.006329 0.033838 0.002585
# 6 -0.003644 -0.005100 -0.000080 -0.003160 0.002585 0.032890
#
#
# Mechanical properties :
#
#
# Convention : Reuss Voigt Hill
#
# Bulk Modulus (GPa) = 43.96934 53.08564 48.52749
# Shear Modulus (GPa) = 32.52628 38.77286 35.64957
#
# Velocity S-wave (km/s) = 3.52250 3.84590 3.68774
# Velocity P-wave (km/s) = 5.77211 6.32235 6.05349
#
# Compressibility (1/GPa) = 0.02274312
#
# Stress axis : x y z
#
# Youngs Moduli (GPa) = 77.19982 84.37391 128.73691
#
# Poissons Ratio (x) = 0.19078 0.33538
# Poissons Ratio (y) = 0.17456 0.00628
# Poissons Ratio (z) = 0.20112 0.00412
#
# Static dielectric constant tensor:
#      x y z
#    x 4.615250 0.145640 0.081050 
#    y 0.145640 8.060190 0.884210 
#    z 0.081050 0.884210 5.811160 
# 
# 
# High freq. dielectric constant tensor:
#      x y z
#    x 2.031300 0.001790 -0.003680 
#    y 0.001790 2.050910 -0.000240 
#    z -0.003680 -0.000240 2.091470 
# 
# From -- ./inp_files/452417.got.cif
#   From: 2010.06.25/outbox.cif.g09.slc.cpg/sg2_227_cif.got.tgz:452417.got - 2010.06.27 13:26:56.
