data_PCOD8026954
_publ_section_title
;
Structure prediction by ZEFSAII (Michael W. Deem and Ramdas Pophale) SiO2 
 PCOD8026954
Probable space group: P -1
;
_chemical_formula_sum "Si O2"
_cell_formula_units_Z 16
_cell_length_a 11.656295
_cell_length_b 16.980125
_cell_length_c 8.980132
_cell_angle_alpha 43.274987
_cell_angle_beta 142.471521
_cell_angle_gamma 140.211502
_cell_volume 659.995317
_symmetry_space_group_name_H-M "P -1"
_symmetry_group_IT_number 2
_symmetry_cell_setting 'triclinic'
loop_
_space_group_symop_operation_xyz
x,y,z
-x,-y,-z
loop_
_atom_site_type_symbol
_atom_site_label
_atom_site_fract_x
_atom_site_fract_y
_atom_site_fract_z
Si Si1 0.691882 0.071430 0.420500
Si Si2 0.789441 0.922162 0.292425
Si Si3 0.423085 0.856764 0.213018
Si Si4 0.687615 0.900534 0.891637
Si Si5 0.477474 0.614471 0.006157
Si Si6 0.984372 0.223195 0.250223
Si Si7 0.928195 0.500408 0.092116
Si Si8 0.320399 0.568995 0.577250
O O1 0.534450 0.939331 0.356625
O O2 0.803120 0.015539 0.731202
O O3 0.555777 0.127330 0.292069
O O4 0.867340 0.185611 0.343748
O O5 0.569823 0.914447 0.136875
O O6 0.795850 0.785050 0.504142
O O7 0.820938 0.956027 0.103885
O O8 0.000000 0.000000 0.500000
O O9 0.398814 0.712890 0.395906
O O10 0.202446 0.865908 0.939711
O O11 0.667189 0.761918 0.005498
O O12 0.314064 0.602442 0.986405
O O13 0.344603 0.580088 0.763800
O O14 0.560118 0.508144 0.261661
O O15 0.056632 0.360412 0.066270
O O16 0.078178 0.482626 0.394278
O O17 0.000000 0.500000 0.000000
#
# Coordination Sequence:
#
# PCOD8026954 Si02
#       8
#     2   2   2   2   2   2   2   2
#     4  11  21  43  66  93 134 172 215 269 334 395
#     4  12  24  40  66  98 131 172 219 267 329 398
#     4  11  21  44  67  96 130 176 217 270 333 401
#     4  11  25  40  69  99 130 178 216 273 335 389
#     4  11  23  47  67  97 136 174 227 277 328 397
#     4  11  23  40  66  94 132 169 216 267 329 389
#     4  11  25  41  68 103 128 175 222 276 330 394
#     4  10  24  43  72  94 133 182 220 275 336 388
#
# _framework density 24.242598000000001
#
# number of rings (size 3 to 8) (size 9 to 14) (size 15 to 20)
#    0.000    1.000    3.750    3.000    3.500    1.000 
#    0.000    0.000    0.000    0.000    0.000    0.000 
#    0.000    0.000    0.000    0.000    0.000    0.000 
#
# Total GULP energy -198234.302508 kJ/mol
# GULP energy per Si atom -12389.643907 kJ/mol
# Density = 2.418742 g / cm^3
# Si number density = 24.242598 Si / 1000 Ang^3
#
#
#
# Elastic Constant Matrix: (Units=GPa)
#
#
# Indices 1 2 3 4 5 6 
#
# 1 67.5565 -0.5719 5.9176 9.5085 -5.9435 -3.6469
# 2 -0.5719 54.7396 17.6620 -7.4167 -6.6402 -0.8831
# 3 5.9176 17.6620 129.4278 10.8603 -17.0304 -4.5660
# 4 9.5085 -7.4167 10.8603 32.7934 -0.1569 -5.6909
# 5 -5.9435 -6.6402 -17.0304 -0.1569 33.3327 3.2774
# 6 -3.6469 -0.8831 -4.5660 -5.6909 3.2774 30.9830
#
#
#
# Elastic Compliance Matrix: (Units=1/GPa)
#
#
# Indices 1 2 3 4 5 6 
#
# 1 0.015702 -0.000116 0.000055 -0.004455 0.002710 0.000748
# 2 -0.000116 0.020294 -0.002887 0.005754 0.002482 0.000933
# 3 0.000055 -0.002887 0.008947 -0.003584 0.003973 0.000164
# 4 -0.004455 0.005754 -0.003584 0.035269 -0.001883 0.005789
# 5 0.002710 0.002482 0.003973 -0.001883 0.033284 -0.002891
# 6 0.000748 0.000933 0.000164 0.005789 -0.002891 0.033784
#
#
# Mechanical properties :
#
#
# Convention : Reuss Voigt Hill
#
# Bulk Modulus (GPa) = 25.61075 33.08216 29.34645
# Shear Modulus (GPa) = 30.08529 34.66955 32.37742
#
# Velocity S-wave (km/s) = 3.52662 3.78578 3.65849
# Velocity P-wave (km/s) = 5.21249 5.72586 5.47519
#
# Compressibility (1/GPa) = 0.03904611
#
# Stress axis : x y z
#
# Youngs Moduli (GPa) = 63.68429 49.27459 111.76750
#
# Poissons Ratio (x) = 0.00573 -0.00612
# Poissons Ratio (y) = 0.00741 0.32271
# Poissons Ratio (z) = -0.00349 0.14227
#
# Static dielectric constant tensor:
#      x y z
#    x 4.615690 -0.502500 0.825310 
#    y -0.502500 3.560330 -0.313360 
#    z 0.825310 -0.313360 5.849960 
# 
# 
# High freq. dielectric constant tensor:
#      x y z
#    x 1.947530 -0.016010 0.007030 
#    y -0.016010 1.954240 -0.013880 
#    z 0.007030 -0.013880 1.994760 
# 
# From -- ./inp_files/273177.got.cif
#   From: 2010.06.25/outbox.cif.g09.slc.cpg/sg2_137_cif.got.tgz:273177.got - 2010.06.27 13:26:56.
