data_PCOD8026559
_publ_section_title
;
Structure prediction by ZEFSAII (Michael W. Deem and Ramdas Pophale) SiO2 
 PCOD8026559
Probable space group: P -1
;
_chemical_formula_sum "Si O2"
_cell_formula_units_Z 16
_cell_length_a 11.902774
_cell_length_b 9.804978
_cell_length_c 9.233724
_cell_angle_alpha 127.298605
_cell_angle_beta 106.068489
_cell_angle_gamma 55.994730
_cell_volume 707.485670
_symmetry_space_group_name_H-M "P -1"
_symmetry_group_IT_number 2
_symmetry_cell_setting 'triclinic'
loop_
_space_group_symop_operation_xyz
x,y,z
-x,-y,-z
loop_
_atom_site_type_symbol
_atom_site_label
_atom_site_fract_x
_atom_site_fract_y
_atom_site_fract_z
Si Si1 0.158734 0.333002 0.575529
Si Si2 0.297191 0.662783 0.155672
Si Si3 0.266264 0.036933 0.907308
Si Si4 0.648846 0.760112 0.153256
Si Si5 0.111547 0.644746 0.542192
Si Si6 0.999772 0.928686 0.116127
Si Si7 0.653588 0.347042 0.501192
Si Si8 0.645084 0.040606 0.788211
O O1 0.237296 0.273088 0.713788
O O2 0.153117 0.530682 0.638384
O O3 0.004499 0.388489 0.591469
O O4 0.232364 0.154973 0.369568
O O5 0.139643 0.755172 0.118891
O O6 0.326494 0.703452 0.354814
O O7 0.357973 0.761411 0.137243
O O8 0.368864 0.428407 0.001387
O O9 0.308862 0.184389 0.946602
O O10 0.104842 0.150699 0.956513
O O11 0.305454 0.853908 0.697583
O O12 0.343171 0.962997 0.037793
O O13 0.502985 0.934273 0.276171
O O14 0.250083 0.561292 0.444946
O O15 0.047913 0.879169 0.678863
O O16 0.000000 0.000000 0.000000
O O17 0.500000 0.500000 0.500000
#
# Coordination Sequence:
#
# PCOD8026559 Si02
#       8
#     2   2   2   2   2   2   2   2
#     4  11  24  44  72  98 137 182 230 285 345 400
#     4  12  26  45  73 102 138 186 231 280 351 413
#     4  11  26  44  72 101 140 178 231 287 345 406
#     4  12  28  42  69 107 140 175 237 285 341 411
#     4  10  24  42  69 100 136 177 233 279 341 412
#     4  11  21  45  71 101 137 182 229 285 347 413
#     4  11  27  45  72 100 143 182 230 282 354 405
#     4  12  25  47  72  98 143 183 230 281 352 415
#
# _framework density 22.615299
#
# number of rings (size 3 to 8) (size 9 to 14) (size 15 to 20)
#    0.000    0.750    2.500    3.375    8.750    2.500 
#    0.000    0.000    0.000    0.000    0.000    0.000 
#    0.000    0.000    0.000    0.000    0.000    0.000 
#
# Total GULP energy -198414.880163 kJ/mol
# GULP energy per Si atom -12400.930010 kJ/mol
# Density = 2.256383 g / cm^3
# Si number density = 22.615299 Si / 1000 Ang^3
#
#
#
# Elastic Constant Matrix: (Units=GPa)
#
#
# Indices 1 2 3 4 5 6 
#
# 1 169.0114 63.8467 9.3949 -10.9888 -6.7553 -6.8577
# 2 63.8467 113.8189 30.9961 -27.2489 -2.0291 4.4395
# 3 9.3949 30.9961 89.3278 -19.6454 -0.6220 -1.6979
# 4 -10.9888 -27.2489 -19.6454 40.5854 -1.6365 7.9516
# 5 -6.7553 -2.0291 -0.6220 -1.6365 22.5029 1.6855
# 6 -6.8577 4.4395 -1.6979 7.9516 1.6855 43.9526
#
#
#
# Elastic Compliance Matrix: (Units=1/GPa)
#
#
# Indices 1 2 3 4 5 6 
#
# 1 0.007787 -0.004864 0.000667 -0.001133 0.001695 0.001872
# 2 -0.004864 0.014270 -0.002825 0.007648 0.000583 -0.003715
# 3 0.000667 -0.002825 0.013135 0.004663 0.000646 0.000028
# 4 -0.001133 0.007648 0.004663 0.033216 0.003412 -0.006909
# 5 0.001695 0.000583 0.000646 0.003412 0.045426 -0.002129
# 6 0.001872 -0.003715 0.000028 -0.006909 -0.002129 0.024752
#
#
# Mechanical properties :
#
#
# Convention : Reuss Voigt Hill
#
# Bulk Modulus (GPa) = 47.28290 64.51481 55.89886
# Shear Modulus (GPa) = 31.31312 39.26953 35.29133
#
# Velocity S-wave (km/s) = 3.72506 4.17155 3.95461
# Velocity P-wave (km/s) = 6.28126 7.19663 6.75447
#
# Compressibility (1/GPa) = 0.02114929
#
# Stress axis : x y z
#
# Youngs Moduli (GPa) = 128.41733 70.07868 76.13152
#
# Poissons Ratio (x) = 0.34085 -0.05078
# Poissons Ratio (y) = 0.62459 0.21504
# Poissons Ratio (z) = -0.08565 0.19794
#
# Static dielectric constant tensor:
#      x y z
#    x 4.524920 -0.011870 -0.047960 
#    y -0.011870 4.185720 0.002860 
#    z -0.047960 0.002860 3.802780 
# 
# 
# High freq. dielectric constant tensor:
#      x y z
#    x 1.914220 -0.004400 0.001740 
#    y -0.004400 1.900030 -0.004470 
#    z 0.001740 -0.004470 1.881120 
# 
# From -- ./inp_files/186171.got.cif
#   From: 2010.06.25/outbox.cif.g09.slc.cpg/sg2_94_cif.got.tgz:186171.got - 2010.06.27 13:26:56.
