data_PCOD8026445
_publ_section_title
;
Structure prediction by ZEFSAII (Michael W. Deem and Ramdas Pophale) SiO2 
 PCOD8026445
Probable space group: P -1
;
_chemical_formula_sum "Si O2"
_cell_formula_units_Z 12
_cell_length_a 8.831711
_cell_length_b 14.047884
_cell_length_c 11.077757
_cell_angle_alpha 29.953347
_cell_angle_beta 107.959406
_cell_angle_gamma 122.647781
_cell_volume 534.841405
_symmetry_space_group_name_H-M "P -1"
_symmetry_group_IT_number 2
_symmetry_cell_setting 'triclinic'
loop_
_space_group_symop_operation_xyz
x,y,z
-x,-y,-z
loop_
_atom_site_type_symbol
_atom_site_label
_atom_site_fract_x
_atom_site_fract_y
_atom_site_fract_z
Si Si1 0.332173 0.637732 0.836000
Si Si2 0.431533 0.301212 0.605032
Si Si3 0.090790 0.867730 0.117811
Si Si4 0.789106 0.414241 0.413626
Si Si5 0.243001 0.989535 0.497761
Si Si6 0.166048 0.207177 0.434878
O O1 0.282549 0.622213 0.700275
O O2 0.563987 0.768752 0.766901
O O3 0.271168 0.783573 0.733294
O O4 0.218495 0.386651 0.142287
O O5 0.500000 0.500000 0.500000
O O6 0.610860 0.322696 0.561532
O O7 0.301173 0.332659 0.444686
O O8 0.300029 0.049352 0.910637
O O9 0.119394 0.732535 0.379935
O O10 0.950410 0.686259 0.179377
O O11 0.000000 0.000000 0.000000
O O12 0.196413 0.017621 0.593873
O O13 0.059674 0.919347 0.444803
#
# Coordination Sequence:
#
# PCOD8026445 Si02
#       6
#     2   2   2   2   2   2
#     4  11  24  43  70 101 137 177 227 282 343 406
#     4  12  26  46  71 102 141 186 230 282 345 408
#     4  11  26  47  70  99 139 185 232 285 338 416
#     4  11  26  45  70 103 138 183 231 285 347 404
#     4  10  24  42  65 102 134 182 220 281 337 398
#     4  11  25  43  68 102 140 176 224 281 344 399
#
# _framework density 22.436557000000001
#
# number of rings (size 3 to 8) (size 9 to 14) (size 15 to 20)
#    0.000    1.000    3.333    1.500    7.000    2.667 
#    3.000    0.000    0.000    0.000    0.000    0.000 
#    0.000    0.000    0.000    0.000    0.000    0.000 
#
# Total GULP energy -148832.942147 kJ/mol
# GULP energy per Si atom -12402.745179 kJ/mol
# Density = 2.238549 g / cm^3
# Si number density = 22.436557 Si / 1000 Ang^3
#
#
#
# Elastic Constant Matrix: (Units=GPa)
#
#
# Indices 1 2 3 4 5 6 
#
# 1 128.8564 73.1859 36.7025 -11.9809 -1.0952 15.2692
# 2 73.1859 151.3109 63.9803 -7.5668 0.9100 12.7051
# 3 36.7025 63.9803 97.6249 -10.7787 0.5935 -6.3825
# 4 -11.9809 -7.5668 -10.7787 36.0158 7.5090 -2.5693
# 5 -1.0952 0.9100 0.5935 7.5090 28.6482 -4.0516
# 6 15.2692 12.7051 -6.3825 -2.5693 -4.0516 28.8473
#
#
#
# Elastic Compliance Matrix: (Units=1/GPa)
#
#
# Indices 1 2 3 4 5 6 
#
# 1 0.011393 -0.004446 -0.001395 0.002257 -0.000589 -0.004263
# 2 -0.004446 0.011833 -0.006494 -0.001099 -0.000760 -0.004499
# 3 -0.001395 -0.006494 0.015892 0.003464 -0.000035 0.007418
# 4 0.002257 -0.001099 0.003464 0.031082 -0.007854 0.001721
# 5 -0.000589 -0.000760 -0.000035 -0.007854 0.037708 0.005235
# 6 -0.004263 -0.004499 0.007418 0.001721 0.005235 0.041433
#
#
# Mechanical properties :
#
#
# Convention : Reuss Voigt Hill
#
# Bulk Modulus (GPa) = 69.22257 80.61440 74.91849
# Shear Modulus (GPa) = 27.95980 32.29716 30.12848
#
# Velocity S-wave (km/s) = 3.53395 3.79817 3.66844
# Velocity P-wave (km/s) = 6.89719 7.43255 7.16987
#
# Compressibility (1/GPa) = 0.01444616
#
# Stress axis : x y z
#
# Youngs Moduli (GPa) = 87.77025 84.50975 62.92637
#
# Poissons Ratio (x) = 0.37577 0.08780
# Poissons Ratio (y) = 0.39027 0.40866
# Poissons Ratio (z) = 0.12246 0.54882
#
# Static dielectric constant tensor:
#      x y z
#    x 4.418490 0.125510 -0.120900 
#    y 0.125510 4.137420 -0.267020 
#    z -0.120900 -0.267020 3.876810 
# 
# 
# High freq. dielectric constant tensor:
#      x y z
#    x 1.905300 0.005380 -0.005840 
#    y 0.005380 1.894810 -0.020100 
#    z -0.005840 -0.020100 1.871500 
# 
# From -- ./inp_files/166945.got.cif
#   From: 2010.06.25/outbox.cif.g09.slc.cpg/sg2_84_cif.got.tgz:166945.got - 2010.06.27 13:26:56.
