data_PCOD8026928
_publ_section_title
;
Structure prediction by ZEFSAII (Michael W. Deem and Ramdas Pophale) SiO2 
 PCOD8026928
Probable space group: P -1
;
_chemical_formula_sum "Si O2"
_cell_formula_units_Z 16
_cell_length_a 16.217201
_cell_length_b 6.799841
_cell_length_c 18.375781
_cell_angle_alpha 138.176682
_cell_angle_beta 148.803103
_cell_angle_gamma 51.249357
_cell_volume 699.538589
_symmetry_space_group_name_H-M "P -1"
_symmetry_group_IT_number 2
_symmetry_cell_setting 'triclinic'
loop_
_space_group_symop_operation_xyz
x,y,z
-x,-y,-z
loop_
_atom_site_type_symbol
_atom_site_label
_atom_site_fract_x
_atom_site_fract_y
_atom_site_fract_z
Si Si1 0.549828 0.186954 0.255253
Si Si2 0.545267 0.857738 0.418343
Si Si3 0.785554 0.079553 0.105648
Si Si4 0.199752 0.264680 0.713898
Si Si5 0.006911 0.053878 0.641663
Si Si6 0.701626 0.255460 0.534744
Si Si7 0.241103 0.089223 0.221589
Si Si8 0.988860 0.844842 0.068357
O O1 0.604842 0.525341 0.374618
O O2 0.580144 0.122500 0.345505
O O3 0.662933 0.972430 0.236275
O O4 0.365255 0.140709 0.082397
O O5 0.500000 0.000000 0.500000
O O6 0.682312 0.060459 0.539171
O O7 0.380785 0.860906 0.248376
O O8 0.722324 0.408333 0.139747
O O9 0.853172 0.054757 0.231168
O O10 0.928104 0.012440 0.139492
O O11 0.095814 0.212347 0.547395
O O12 0.083256 0.257036 0.692639
O O13 0.886979 0.252722 0.651144
O O14 0.665404 0.596100 0.613084
O O15 0.129823 0.099162 0.071447
O O16 0.155833 0.989785 0.206030
O O17 0.000000 0.500000 0.000000
#
# Coordination Sequence:
#
# PCOD8026928 Si02
#       8
#     2   2   2   2   2   2   2   2
#     4  11  26  44  66 102 134 178 225 279 338 402
#     4  12  26  40  67  96 135 178 227 277 331 400
#     4  12  24  41  70  97 136 174 222 280 339 397
#     4  10  24  47  69  97 134 174 226 277 337 407
#     4  10  24  43  71  99 129 170 229 275 337 401
#     4  11  24  43  69  96 135 178 228 274 337 403
#     4  11  24  42  65  98 136 182 226 274 335 403
#     4  11  25  41  67 100 140 176 225 279 340 399
#
# _framework density 22.872219999999999
#
# number of rings (size 3 to 8) (size 9 to 14) (size 15 to 20)
#    0.000    1.000    1.250    4.125    5.250    9.500 
#    0.000    0.000    0.000    0.000    0.000    0.000 
#    0.000    0.000    0.000    0.000    0.000    0.000 
#
# Total GULP energy -198425.922890 kJ/mol
# GULP energy per Si atom -12401.620181 kJ/mol
# Density = 2.282016 g / cm^3
# Si number density = 22.872220 Si / 1000 Ang^3
#
#
#
# Elastic Constant Matrix: (Units=GPa)
#
#
# Indices 1 2 3 4 5 6 
#
# 1 89.2086 34.9768 20.2302 -3.0826 -3.4913 8.9905
# 2 34.9768 136.4702 26.2369 13.6258 -6.5139 -2.3182
# 3 20.2302 26.2369 65.4258 3.3949 2.8804 6.4571
# 4 -3.0826 13.6258 3.3949 41.8588 0.2312 2.9326
# 5 -3.4913 -6.5139 2.8804 0.2312 27.7099 0.3000
# 6 8.9905 -2.3182 6.4571 2.9326 0.3000 37.0111
#
#
#
# Elastic Compliance Matrix: (Units=1/GPa)
#
#
# Indices 1 2 3 4 5 6 
#
# 1 0.013545 -0.003178 -0.002781 0.002476 0.001263 -0.003211
# 2 -0.003178 0.009128 -0.002809 -0.003133 0.002041 0.002066
# 3 -0.002781 -0.002809 0.017671 -0.000532 -0.002816 -0.002518
# 4 0.002476 -0.003133 -0.000532 0.025328 -0.000551 -0.002707
# 5 0.001263 0.002041 -0.002816 -0.000551 0.037024 0.000056
# 6 -0.003211 0.002066 -0.002518 -0.002707 0.000056 0.028582
#
#
# Mechanical properties :
#
#
# Convention : Reuss Voigt Hill
#
# Bulk Modulus (GPa) = 43.84496 50.44361 47.14428
# Shear Modulus (GPa) = 31.96629 35.29334 33.62982
#
# Velocity S-wave (km/s) = 3.74251 3.93245 3.83865
# Velocity P-wave (km/s) = 6.15519 6.53615 6.34853
#
# Compressibility (1/GPa) = 0.02280764
#
# Stress axis : x y z
#
# Youngs Moduli (GPa) = 73.82801 109.55857 56.59066
#
# Poissons Ratio (x) = 0.34822 0.15737
# Poissons Ratio (y) = 0.23465 0.15894
# Poissons Ratio (z) = 0.20530 0.30771
#
# Static dielectric constant tensor:
#      x y z
#    x 4.225230 0.004240 0.021770 
#    y 0.004240 4.190910 -0.146730 
#    z 0.021770 -0.146730 4.073470 
# 
# 
# High freq. dielectric constant tensor:
#      x y z
#    x 1.904100 0.002550 0.002930 
#    y 0.002550 1.910900 -0.010710 
#    z 0.002930 -0.010710 1.902210 
# 
# From -- ./inp_files/574952.got.cif
#   From: 2010.06.25/outbox.cif.g09.slc.cpg/sg2_288_cif.got.tgz:574952.got - 2010.06.27 13:26:56.
