data_PCOD8026989
_publ_section_title
;
Structure prediction by ZEFSAII (Michael W. Deem and Ramdas Pophale) SiO2 
 PCOD8026989
Probable space group: P -1
;
_chemical_formula_sum "Si O2"
_cell_formula_units_Z 14
_cell_length_a 8.905893
_cell_length_b 15.656227
_cell_length_c 9.106168
_cell_angle_alpha 141.177801
_cell_angle_beta 53.326880
_cell_angle_gamma 105.229299
_cell_volume 584.284341
_symmetry_space_group_name_H-M "P -1"
_symmetry_group_IT_number 2
_symmetry_cell_setting 'triclinic'
loop_
_space_group_symop_operation_xyz
x,y,z
-x,-y,-z
loop_
_atom_site_type_symbol
_atom_site_label
_atom_site_fract_x
_atom_site_fract_y
_atom_site_fract_z
Si Si1 0.036252 0.991576 0.795974
Si Si2 0.664377 0.036856 0.864613
Si Si3 0.204773 0.177422 0.777585
Si Si4 0.413135 0.376955 0.421834
Si Si5 0.995316 0.503112 0.331625
Si Si6 0.368366 0.464101 0.877323
Si Si7 0.553928 0.269186 0.757288
O O1 0.856061 0.988073 0.795929
O O2 0.084877 0.131356 0.910730
O O3 0.231402 0.840561 0.452489
O O4 0.000000 0.000000 0.000000
O O5 0.721617 0.942225 0.555487
O O6 0.587706 0.209595 0.092446
O O7 0.500000 0.000000 0.000000
O O8 0.387809 0.199818 0.789402
O O9 0.048174 0.335625 0.016731
O O10 0.500000 0.500000 0.500000
O O11 0.308807 0.412374 0.690599
O O12 0.231299 0.384730 0.430762
O O13 0.000000 0.500000 0.500000
O O14 0.170200 0.546009 0.209685
O O15 0.533433 0.312576 0.653555
O O16 0.483676 0.575014 0.929265
#
# Coordination Sequence:
#
# PCOD8026989 Si02
#       7
#     2   2   2   2   2   2   2
#     4  12  26  43  74 104 146 189 243 294 368 427
#     4  12  28  49  74 108 151 192 247 302 368 437
#     4  11  26  49  70 108 147 189 244 303 366 435
#     4  12  28  46  76 107 147 192 247 300 369 434
#     4  11  27  46  76 107 146 191 247 297 364 440
#     4  10  24  46  72 105 148 184 243 296 368 427
#     4  10  24  43  76 100 145 188 242 297 360 425
#
# _framework density 23.960936
#
# number of rings (size 3 to 8) (size 9 to 14) (size 15 to 20)
#    0.000    0.857    0.000    5.571   14.000    1.143 
#    0.000    0.000    0.000    0.000    0.000    0.000 
#    0.000    0.000    0.000    0.000    0.000    0.000 
#
# Total GULP energy -173522.691042 kJ/mol
# GULP energy per Si atom -12394.477932 kJ/mol
# Density = 2.390640 g / cm^3
# Si number density = 23.960936 Si / 1000 Ang^3
#
#
#
# Elastic Constant Matrix: (Units=GPa)
#
#
# Indices 1 2 3 4 5 6 
#
# 1 181.1914 45.9106 34.9389 1.9906 -11.8244 -5.7899
# 2 45.9106 92.4214 22.7888 4.4676 10.0068 19.3168
# 3 34.9389 22.7888 64.9490 -4.9592 9.1042 -1.8431
# 4 1.9906 4.4676 -4.9592 44.8093 -15.1208 4.6118
# 5 -11.8244 10.0068 9.1042 -15.1208 46.5991 4.5788
# 6 -5.7899 19.3168 -1.8431 4.6118 4.5788 46.2056
#
#
#
# Elastic Compliance Matrix: (Units=1/GPa)
#
#
# Indices 1 2 3 4 5 6 
#
# 1 0.007291 -0.003672 -0.002985 0.000599 0.003225 0.001950
# 2 -0.003672 0.015286 -0.003226 -0.002312 -0.003707 -0.006381
# 3 -0.002985 -0.003226 0.018775 0.001129 -0.003559 0.001964
# 4 0.000599 -0.002312 0.001129 0.025960 0.009088 -0.002405
# 5 0.003225 -0.003707 -0.003559 0.009088 0.026891 -0.001760
# 6 0.001950 -0.006381 0.001964 -0.002405 -0.001760 0.025047
#
#
# Mechanical properties :
#
#
# Convention : Reuss Voigt Hill
#
# Bulk Modulus (GPa) = 46.32411 60.64871 53.48641
# Shear Modulus (GPa) = 34.19681 43.18436 38.69059
#
# Velocity S-wave (km/s) = 3.78192 4.24993 4.02274
# Velocity P-wave (km/s) = 6.20046 7.03200 6.62928
#
# Compressibility (1/GPa) = 0.02158703
#
# Stress axis : x y z
#
# Youngs Moduli (GPa) = 137.15436 65.41788 53.26153
#
# Poissons Ratio (x) = 0.24019 0.15898
# Poissons Ratio (y) = 0.50357 0.17184
# Poissons Ratio (z) = 0.40938 0.21107
#
# Static dielectric constant tensor:
#      x y z
#    x 4.392860 -0.091400 -0.190590 
#    y -0.091400 4.700080 -0.011470 
#    z -0.190590 -0.011470 4.591900 
# 
# 
# High freq. dielectric constant tensor:
#      x y z
#    x 1.959820 -0.002240 0.001360 
#    y -0.002240 1.968000 0.006630 
#    z 0.001360 0.006630 1.944620 
# 
# From -- ./inp_files/209164.got.cif
#   From: 2010.06.25/outbox.cif.g09.slc.cpg/sg2_105_cif.got.tgz:209164.got - 2010.06.27 13:26:56.
