data_PCOD8026583
_publ_section_title
;
Structure prediction by ZEFSAII (Michael W. Deem and Ramdas Pophale) SiO2 
 PCOD8026583
Probable space group: P -1
;
_chemical_formula_sum "Si O2"
_cell_formula_units_Z 14
_cell_length_a 9.033801
_cell_length_b 11.778209
_cell_length_c 11.772458
_cell_angle_alpha 137.234512
_cell_angle_beta 131.729891
_cell_angle_gamma 57.206078
_cell_volume 631.261548
_symmetry_space_group_name_H-M "P -1"
_symmetry_group_IT_number 2
_symmetry_cell_setting 'triclinic'
loop_
_space_group_symop_operation_xyz
x,y,z
-x,-y,-z
loop_
_atom_site_type_symbol
_atom_site_label
_atom_site_fract_x
_atom_site_fract_y
_atom_site_fract_z
Si Si1 0.439451 0.537406 0.124047
Si Si2 0.234600 0.690821 0.491310
Si Si3 0.635342 0.606770 0.497200
Si Si4 0.784266 0.949990 0.874013
Si Si5 0.896519 0.662452 0.125296
Si Si6 0.682924 0.089445 0.705195
Si Si7 0.873979 0.981633 0.189972
O O1 0.618747 0.544220 0.312184
O O2 0.313526 0.720745 0.196906
O O3 0.500000 0.500000 0.000000
O O4 0.318880 0.383207 0.981890
O O5 0.413741 0.664820 0.473524
O O6 0.249597 0.540445 0.478485
O O7 0.023745 0.705008 0.330467
O O8 0.239577 0.865052 0.686971
O O9 0.767705 0.760941 0.683488
O O10 0.650736 0.079201 0.818355
O O11 0.738775 0.966302 0.996568
O O12 0.000000 0.000000 0.000000
O O13 0.863925 0.815132 0.134703
O O14 0.000000 0.500000 0.000000
O O15 0.895534 0.992314 0.702659
O O16 0.500000 0.000000 0.500000
#
# Coordination Sequence:
#
# PCOD8026583 Si02
#       7
#     2   2   2   2   2   2   2
#     4  12  28  44  72 104 138 187 230 286 349 419
#     4  11  26  42  73 103 138 181 233 291 344 410
#     4  11  24  48  66 102 144 180 232 290 343 407
#     4  10  24  42  69  98 142 185 222 286 351 407
#     4  12  23  47  72 100 141 181 231 288 353 409
#     4  11  23  45  68 100 142 180 232 289 345 408
#     4  11  25  45  72 103 136 186 234 284 351 417
#
# _framework density 22.177811999999999
#
# number of rings (size 3 to 8) (size 9 to 14) (size 15 to 20)
#    0.000    0.857    4.286    1.286    8.000    1.714 
#    0.000    3.571    0.000    0.000    0.000    0.000 
#    0.000    0.000    0.000    0.000    0.000    0.000 
#
# Total GULP energy -173561.714826 kJ/mol
# GULP energy per Si atom -12397.265345 kJ/mol
# Density = 2.212733 g / cm^3
# Si number density = 22.177812 Si / 1000 Ang^3
#
#
#
# Elastic Constant Matrix: (Units=GPa)
#
#
# Indices 1 2 3 4 5 6 
#
# 1 72.1115 26.3936 50.2582 -0.8372 -2.3030 25.5669
# 2 26.3936 126.8427 46.8634 -9.2852 0.0144 44.0687
# 3 50.2582 46.8634 160.4321 -18.7805 1.0514 31.7273
# 4 -0.8372 -9.2852 -18.7805 46.9331 11.5283 -5.2612
# 5 -2.3030 0.0144 1.0514 11.5283 43.1044 0.0599
# 6 25.5669 44.0687 31.7273 -5.2612 0.0599 37.2537
#
#
#
# Elastic Compliance Matrix: (Units=1/GPa)
#
#
# Indices 1 2 3 4 5 6 
#
# 1 0.021324 0.001595 -0.005031 -0.003270 0.002154 -0.012702
# 2 0.001595 0.013640 -0.001250 0.000416 0.000022 -0.016107
# 3 -0.005031 -0.001250 0.009028 0.003360 -0.001384 -0.002280
# 4 -0.003270 0.000416 0.003360 0.024624 -0.006846 0.002380
# 5 0.002154 0.000022 -0.001384 -0.006846 0.025181 -0.001333
# 6 -0.012702 -0.016107 -0.002280 0.002380 -0.001333 0.056893
#
#
# Mechanical properties :
#
#
# Convention : Reuss Voigt Hill
#
# Bulk Modulus (GPa) = 28.88552 67.37966 48.13259
# Shear Modulus (GPa) = 29.13709 41.18298 35.16003
#
# Velocity S-wave (km/s) = 3.62856 4.31390 3.98599
# Velocity P-wave (km/s) = 5.53246 7.43374 6.55243
#
# Compressibility (1/GPa) = 0.03461942
#
# Stress axis : x y z
#
# Youngs Moduli (GPa) = 46.89482 73.31328 110.76977
#
# Poissons Ratio (x) = -0.11694 0.55729
# Poissons Ratio (y) = -0.07480 0.13849
# Poissons Ratio (z) = 0.23593 0.09166
#
# Static dielectric constant tensor:
#      x y z
#    x 3.450870 0.071750 -0.303240 
#    y 0.071750 3.911950 -0.387790 
#    z -0.303240 -0.387790 4.398400 
# 
# 
# High freq. dielectric constant tensor:
#      x y z
#    x 1.859550 0.027570 0.001960 
#    y 0.027570 1.886850 -0.008510 
#    z 0.001960 -0.008510 1.891090 
# 
# From -- ./inp_files/159070.got.cif
#   From: 2010.06.25/outbox.cif.g09.slc.cpg/sg2_80_cif.got.tgz:159070.got - 2010.06.27 13:26:56.
