data_PCOD8026052
_publ_section_title
;
Structure prediction by ZEFSAII (Michael W. Deem and Ramdas Pophale) SiO2 
 PCOD8026052
Probable space group: P -1
;
_chemical_formula_sum "Si O2"
_cell_formula_units_Z 14
_cell_length_a 19.990535
_cell_length_b 20.159042
_cell_length_c 6.256522
_cell_angle_alpha 46.016132
_cell_angle_beta 55.743905
_cell_angle_gamma 20.546741
_cell_volume 597.388502
_symmetry_space_group_name_H-M "P -1"
_symmetry_group_IT_number 2
_symmetry_cell_setting 'triclinic'
loop_
_space_group_symop_operation_xyz
x,y,z
-x,-y,-z
loop_
_atom_site_type_symbol
_atom_site_label
_atom_site_fract_x
_atom_site_fract_y
_atom_site_fract_z
Si Si1 0.358948 0.451116 0.212254
Si Si2 0.427724 0.512438 0.298361
Si Si3 0.568731 0.830194 0.842097
Si Si4 0.703583 0.968574 0.812539
Si Si5 0.223685 0.766313 0.508117
Si Si6 0.824717 0.651243 0.128896
Si Si7 0.116152 0.559964 0.181343
O O1 0.347820 0.500030 0.368303
O O2 0.572798 0.172425 0.438447
O O3 0.163836 0.590459 0.199156
O O4 0.350856 0.543556 0.853373
O O5 0.238092 0.746275 0.266514
O O6 0.641245 0.284556 0.557600
O O7 0.500000 0.500000 0.000000
O O8 0.690752 0.647484 0.854782
O O9 0.500000 0.000000 0.500000
O O10 0.387365 0.951667 0.964128
O O11 0.688772 0.719661 0.095307
O O12 0.701964 0.870374 0.923169
O O13 0.924548 0.781501 0.877607
O O14 0.000000 0.000000 0.500000
O O15 0.917403 0.503209 0.500495
O O16 0.000000 0.500000 0.000000
#
# Coordination Sequence:
#
# PCOD8026052 Si02
#       7
#     2   2   2   2   2   2   2
#     4  11  26  43  70 110 141 176 233 293 350 423
#     4   9  22  48  72 108 142 176 229 282 351 436
#     4  12  23  42  69  92 137 187 242 294 340 415
#     4  12  25  45  66  99 143 185 235 297 350 403
#     4  10  23  47  79 106 139 186 229 280 359 439
#     4  12  23  45  66  94 135 193 246 284 345 412
#     4  12  26  45  65 103 138 186 239 288 354 407
#
# _framework density 23.435334999999998
#
# number of rings (size 3 to 8) (size 9 to 14) (size 15 to 20)
#    0.000    0.857    4.286    2.571    4.000    2.286 
#    0.000    7.143    0.000    0.000    0.000    0.000 
#    0.000    0.000    0.000    0.000    0.000    0.000 
#
# Total GULP energy -173444.515039 kJ/mol
# GULP energy per Si atom -12388.893931 kJ/mol
# Density = 2.338199 g / cm^3
# Si number density = 23.435335 Si / 1000 Ang^3
#
#
#
# Elastic Constant Matrix: (Units=GPa)
#
#
# Indices 1 2 3 4 5 6 
#
# 1 145.3239 24.9173 5.4116 -3.0364 19.0047 8.5774
# 2 24.9173 146.0139 22.8111 22.8880 3.3201 12.4862
# 3 5.4116 22.8111 96.9107 -5.9605 -6.5300 8.8076
# 4 -3.0364 22.8880 -5.9605 36.3594 0.1462 10.4652
# 5 19.0047 3.3201 -6.5300 0.1462 30.0900 0.7157
# 6 8.5774 12.4862 8.8076 10.4652 0.7157 27.6165
#
#
#
# Elastic Compliance Matrix: (Units=1/GPa)
#
#
# Indices 1 2 3 4 5 6 
#
# 1 0.007950 -0.001372 -0.000074 0.002272 -0.004836 -0.002561
# 2 -0.001372 0.008362 -0.002223 -0.005593 -0.000499 -0.000513
# 3 -0.000074 -0.002223 0.011739 0.004612 0.002925 -0.004540
# 4 0.002272 -0.005593 0.004612 0.035771 0.000323 -0.013212
# 5 -0.004836 -0.000499 0.002925 0.000323 0.036983 -0.000286
# 6 -0.002561 -0.000513 -0.004540 -0.013212 -0.000286 0.043699
#
#
# Mechanical properties :
#
#
# Convention : Reuss Voigt Hill
#
# Bulk Modulus (GPa) = 48.27817 54.94762 51.61290
# Shear Modulus (GPa) = 31.49633 41.15373 36.32503
#
# Velocity S-wave (km/s) = 3.66999 4.19508 3.94129
# Velocity P-wave (km/s) = 6.21319 6.85290 6.54087
#
# Compressibility (1/GPa) = 0.02071329
#
# Stress axis : x y z
#
# Youngs Moduli (GPa) = 125.78109 119.58813 85.18277
#
# Poissons Ratio (x) = 0.16411 0.00633
# Poissons Ratio (y) = 0.17261 0.18933
# Poissons Ratio (z) = 0.00935 0.26580
#
# Static dielectric constant tensor:
#      x y z
#    x 3.098460 0.357130 -0.327780 
#    y 0.357130 4.460380 0.130020 
#    z -0.327780 0.130020 4.044100 
# 
# 
# High freq. dielectric constant tensor:
#      x y z
#    x 1.937720 -0.000690 0.015360 
#    y -0.000690 1.921930 0.010560 
#    z 0.015360 0.010560 1.914520 
# 
# From -- ./inp_files/120346.got.cif
#   From: 2010.06.25/outbox.cif.g09.slc.cpg/sg2_61_cif.got.tgz:120346.got - 2010.06.27 13:26:56.
