data_PCOD8026602
_publ_section_title
;
Structure prediction by ZEFSAII (Michael W. Deem and Ramdas Pophale) SiO2 
 PCOD8026602
Probable space group: P -1
;
_chemical_formula_sum "Si O2"
_cell_formula_units_Z 14
_cell_length_a 23.048414
_cell_length_b 14.235947
_cell_length_c 14.779817
_cell_angle_alpha 35.140819
_cell_angle_beta 19.761047
_cell_angle_gamma 24.181952
_cell_volume 641.854018
_symmetry_space_group_name_H-M "P -1"
_symmetry_group_IT_number 2
_symmetry_cell_setting 'triclinic'
loop_
_space_group_symop_operation_xyz
x,y,z
-x,-y,-z
loop_
_atom_site_type_symbol
_atom_site_label
_atom_site_fract_x
_atom_site_fract_y
_atom_site_fract_z
Si Si1 0.704797 0.735705 0.866563
Si Si2 0.744401 0.685394 0.644989
Si Si3 0.027357 0.251213 0.100992
Si Si4 0.334187 0.353130 0.553855
Si Si5 0.746585 0.435992 0.192167
Si Si6 0.161339 0.023769 0.794490
Si Si7 0.548662 0.275325 0.111218
O O1 0.633651 0.728293 0.874707
O O2 0.994777 0.596224 0.537412
O O3 0.701346 0.599564 0.053349
O O4 0.500000 0.000000 0.000000
O O5 0.536235 0.760039 0.825684
O O6 0.796423 0.843422 0.432875
O O7 0.255202 0.221504 0.789140
O O8 0.154364 0.983429 0.111811
O O9 0.885782 0.366955 0.314194
O O10 0.810212 0.451648 0.187915
O O11 0.574671 0.230953 0.358307
O O12 0.383032 0.330971 0.393855
O O13 0.500000 0.500000 0.500000
O O14 0.004669 0.164416 0.004285
O O15 0.000000 0.000000 0.000000
O O16 0.500000 0.500000 0.000000
#
# Coordination Sequence:
#
# PCOD8026602 Si02
#       7
#     2   2   2   2   2   2   2
#     4  10  24  42  70  95 139 187 217 289 358 403
#     4  10  24  45  65 101 139 176 239 281 345 426
#     4  11  24  44  71 102 134 186 235 288 345 418
#     4  11  23  43  72 100 136 180 235 286 351 412
#     4  11  24  41  65 104 138 173 237 283 334 425
#     4  11  22  40  71  96 137 178 225 292 351 405
#     4  12  26  44  71 100 142 188 228 289 351 414
#
# _framework density 21.811813000000001
#
# number of rings (size 3 to 8) (size 9 to 14) (size 15 to 20)
#    0.000    1.143    2.857    3.000    4.000    7.429 
#    0.000    0.000    0.000    0.000    0.000    0.000 
#    0.000    0.000    0.000    0.000    0.000    0.000 
#
# Total GULP energy -173461.740213 kJ/mol
# GULP energy per Si atom -12390.124301 kJ/mol
# Density = 2.176217 g / cm^3
# Si number density = 21.811813 Si / 1000 Ang^3
#
#
#
# Elastic Constant Matrix: (Units=GPa)
#
#
# Indices 1 2 3 4 5 6 
#
# 1 142.5882 52.5577 47.2709 3.4610 1.9581 -12.2700
# 2 52.5577 135.9088 58.4615 11.2076 16.1395 10.5346
# 3 47.2709 58.4615 80.2736 22.0453 -3.0355 0.0954
# 4 3.4610 11.2076 22.0453 25.9849 17.5476 3.5850
# 5 1.9581 16.1395 -3.0355 17.5476 48.1451 6.7395
# 6 -12.2700 10.5346 0.0954 3.5850 6.7395 33.4455
#
#
#
# Elastic Compliance Matrix: (Units=1/GPa)
#
#
# Indices 1 2 3 4 5 6 
#
# 1 0.010064 -0.001361 -0.006991 0.006985 -0.003513 0.004100
# 2 -0.001361 0.013880 -0.012929 0.011943 -0.009168 -0.004267
# 3 -0.006991 -0.012929 0.037886 -0.040361 0.021523 0.001389
# 4 0.006985 0.011943 -0.040361 0.094695 -0.040928 -0.002987
# 5 -0.003513 -0.009168 0.021523 -0.040928 0.040576 -0.002252
# 6 0.004100 -0.004267 0.001389 -0.002987 -0.002252 0.033518
#
#
# Mechanical properties :
#
#
# Convention : Reuss Voigt Hill
#
# Bulk Modulus (GPa) = 51.89730 75.03896 63.46813
# Shear Modulus (GPa) = 17.88242 34.88045 26.38144
#
# Velocity S-wave (km/s) = 2.86641 4.00328 3.48156
# Velocity P-wave (km/s) = 5.89915 7.47301 6.73223
#
# Compressibility (1/GPa) = 0.01926882
#
# Stress axis : x y z
#
# Youngs Moduli (GPa) = 99.36206 72.04498 26.39481
#
# Poissons Ratio (x) = 0.09808 0.18453
# Poissons Ratio (y) = 0.13526 0.34125
# Poissons Ratio (z) = 0.69464 0.93144
#
# Static dielectric constant tensor:
#      x y z
#    x 3.986390 -0.124470 0.197690 
#    y -0.124470 3.808080 0.040480 
#    z 0.197690 0.040480 4.376000 
# 
# 
# High freq. dielectric constant tensor:
#      x y z
#    x 1.871890 -0.005270 0.014270 
#    y -0.005270 1.855200 0.024510 
#    z 0.014270 0.024510 1.851380 
# 
# From -- ./inp_files/255974.got.cif
#   From: 2010.06.25/outbox.cif.g09.slc.cpg/sg2_128_cif.got.tgz:255974.got - 2010.06.27 13:26:56.
