data_PCOD8026694
_publ_section_title
;
Structure prediction by ZEFSAII (Michael W. Deem and Ramdas Pophale) SiO2 
 PCOD8026694
Probable space group: P -1
;
_chemical_formula_sum "Si O2"
_cell_formula_units_Z 16
_cell_length_a 13.796456
_cell_length_b 8.481914
_cell_length_c 11.730212
_cell_angle_alpha 42.309335
_cell_angle_beta 50.871590
_cell_angle_gamma 65.262969
_cell_volume 713.707725
_symmetry_space_group_name_H-M "P -1"
_symmetry_group_IT_number 2
_symmetry_cell_setting 'triclinic'
loop_
_space_group_symop_operation_xyz
x,y,z
-x,-y,-z
loop_
_atom_site_type_symbol
_atom_site_label
_atom_site_fract_x
_atom_site_fract_y
_atom_site_fract_z
Si Si1 0.329658 0.894860 0.541619
Si Si2 0.372016 0.359793 0.135558
Si Si3 0.321373 0.236271 0.566963
Si Si4 0.175303 0.661487 0.230711
Si Si5 0.070232 0.441925 0.648641
Si Si6 0.446680 0.456479 0.781317
Si Si7 0.881972 0.453734 0.191892
Si Si8 0.686679 0.837376 0.136915
O O1 0.411767 0.677954 0.613546
O O2 0.190844 0.792757 0.660915
O O3 0.379740 0.084319 0.306844
O O4 0.337369 0.015702 0.594358
O O5 0.254488 0.447459 0.245942
O O6 0.500000 0.500000 0.000000
O O7 0.359501 0.400456 0.987173
O O8 0.173690 0.257033 0.671198
O O9 0.405424 0.475160 0.332843
O O10 0.372255 0.186861 0.681065
O O11 0.105175 0.622186 0.424106
O O12 0.068073 0.690789 0.199163
O O13 0.266369 0.892826 0.057146
O O14 0.072856 0.575880 0.695718
O O15 0.424824 0.230066 0.835681
O O16 0.797747 0.670480 0.124446
O O17 0.000000 0.500000 0.000000
#
# Coordination Sequence:
#
# PCOD8026694 Si02
#       8
#     2   2   2   2   2   2   2   2
#     4  11  24  42  70  99 137 175 224 281 337 394
#     4  12  25  44  70 103 132 181 230 273 337 401
#     4  11  21  44  66  95 132 175 222 270 334 404
#     4  11  24  44  65  97 132 175 226 273 333 401
#     4  10  24  43  64  94 135 172 219 276 334 398
#     4  11  24  44  67 103 137 173 225 277 337 397
#     4  10  25  42  65  98 133 175 225 275 339 401
#     4  10  25  39  68  96 132 176 220 276 339 394
#
# _framework density 22.418140000000001
#
# number of rings (size 3 to 8) (size 9 to 14) (size 15 to 20)
#    0.000    1.250    2.500    1.500   10.500    1.000 
#    0.000    2.500    0.000    0.000    0.000    0.000 
#    0.000    0.000    0.000    0.000    0.000    0.000 
#
# Total GULP energy -198356.957620 kJ/mol
# GULP energy per Si atom -12397.309851 kJ/mol
# Density = 2.236712 g / cm^3
# Si number density = 22.418140 Si / 1000 Ang^3
#
#
#
# Elastic Constant Matrix: (Units=GPa)
#
#
# Indices 1 2 3 4 5 6 
#
# 1 89.6854 27.9756 24.0865 -2.0201 -4.7970 21.8763
# 2 27.9756 61.3494 33.4023 -4.2516 1.2355 31.8823
# 3 24.0865 33.4023 119.5538 -4.3522 5.0092 9.8260
# 4 -2.0201 -4.2516 -4.3522 28.6861 2.7068 2.2134
# 5 -4.7970 1.2355 5.0092 2.7068 36.5510 -0.9593
# 6 21.8763 31.8823 9.8260 2.2134 -0.9593 42.1931
#
#
#
# Elastic Compliance Matrix: (Units=1/GPa)
#
#
# Indices 1 2 3 4 5 6 
#
# 1 0.013737 -0.003144 -0.001600 0.000407 0.001984 -0.004350
# 2 -0.003144 0.033369 -0.006577 0.005609 -0.001642 -0.022385
# 3 -0.001600 -0.006577 0.010318 0.000346 -0.001339 0.003348
# 4 0.000407 0.005609 0.000346 0.036564 -0.003062 -0.006517
# 5 0.001984 -0.001642 -0.001339 -0.003062 0.028120 0.001324
# 6 -0.004350 -0.022385 0.003348 -0.006517 0.001324 0.042463
#
#
# Mechanical properties :
#
#
# Convention : Reuss Voigt Hill
#
# Bulk Modulus (GPa) = 28.75018 49.05751 38.90384
# Shear Modulus (GPa) = 25.15003 33.82766 29.48884
#
# Velocity S-wave (km/s) = 3.35305 3.88872 3.63078
# Velocity P-wave (km/s) = 5.27664 6.48794 5.91339
#
# Compressibility (1/GPa) = 0.03478239
#
# Stress axis : x y z
#
# Youngs Moduli (GPa) = 72.79665 29.96773 96.91920
#
# Poissons Ratio (x) = 0.09422 0.15506
# Poissons Ratio (y) = 0.22887 0.63743
# Poissons Ratio (z) = 0.11647 0.19710
#
# Static dielectric constant tensor:
#      x y z
#    x 4.597410 -0.366720 0.276440 
#    y -0.366720 7.614670 -1.538240 
#    z 0.276440 -1.538240 5.055960 
# 
# 
# High freq. dielectric constant tensor:
#      x y z
#    x 1.894690 0.018820 -0.005560 
#    y 0.018820 1.873580 0.011870 
#    z -0.005560 0.011870 1.888690 
# 
# From -- ./inp_files/187660.got.cif
#   From: 2010.06.25/outbox.cif.g09.slc.cpg/sg2_94_cif.got.tgz:187660.got - 2010.06.27 13:26:56.
