data_PCOD8026601
_publ_section_title
;
Structure prediction by ZEFSAII (Michael W. Deem and Ramdas Pophale) SiO2 
 PCOD8026601
Probable space group: P -1
;
_chemical_formula_sum "Si O2"
_cell_formula_units_Z 14
_cell_length_a 9.489083
_cell_length_b 16.969023
_cell_length_c 8.329865
_cell_angle_alpha 71.703193
_cell_angle_beta 74.830325
_cell_angle_gamma 27.911336
_cell_volume 595.742129
_symmetry_space_group_name_H-M "P -1"
_symmetry_group_IT_number 2
_symmetry_cell_setting 'triclinic'
loop_
_space_group_symop_operation_xyz
x,y,z
-x,-y,-z
loop_
_atom_site_type_symbol
_atom_site_label
_atom_site_fract_x
_atom_site_fract_y
_atom_site_fract_z
Si Si1 0.100586 0.702092 0.664337
Si Si2 0.070106 0.343195 0.484293
Si Si3 0.480018 0.942034 0.231250
Si Si4 0.808824 0.940479 0.073121
Si Si5 0.513913 0.607714 0.030351
Si Si6 0.461443 0.236911 0.201979
Si Si7 0.494337 0.359671 0.332961
O O1 0.300175 0.537267 0.806977
O O2 0.267161 0.707985 0.587413
O O3 0.036838 0.696562 0.510148
O O4 0.789222 0.868868 0.740905
O O5 0.150312 0.352992 0.290629
O O6 0.801914 0.516924 0.555826
O O7 0.377159 0.189510 0.594859
O O8 0.745551 0.873771 0.148453
O O9 0.359786 0.947468 0.113345
O O10 0.161253 0.779044 0.064149
O O11 0.679396 0.057130 0.186618
O O12 0.612352 0.656880 0.980329
O O13 0.576806 0.546901 0.864584
O O14 0.622958 0.208554 0.319691
#
# Coordination Sequence:
#
# PCOD8026601 Si02
#       7
#     2   2   2   2   2   2   2
#     4  12  23  45  69 100 130 176 222 269 325 387
#     4  12  25  45  64  99 137 176 215 265 331 398
#     4  11  25  41  71  97 134 171 226 266 326 391
#     4  11  22  44  69 101 124 175 221 279 320 383
#     4  10  24  42  70  95 133 165 227 270 325 381
#     4  10  24  43  70  95 136 169 219 274 330 385
#     4  10  24  43  68  97 132 169 221 271 323 390
#
# _framework density 23.500098999999999
#
# number of rings (size 3 to 8) (size 9 to 14) (size 15 to 20)
#    0.857    0.286    2.857    3.000    4.000    0.571 
#    5.143    2.857    0.000    0.000    0.000    0.000 
#    0.000    0.000    0.000    0.000    0.000    0.000 
#
# Total GULP energy -173494.759662 kJ/mol
# GULP energy per Si atom -12392.482833 kJ/mol
# Density = 2.344661 g / cm^3
# Si number density = 23.500099 Si / 1000 Ang^3
#
#
#
# Elastic Constant Matrix: (Units=GPa)
#
#
# Indices 1 2 3 4 5 6 
#
# 1 68.7258 34.8992 11.2823 0.9193 8.6473 -3.3227
# 2 34.8992 110.6008 55.5631 23.9358 0.9034 -12.6532
# 3 11.2823 55.5631 68.7038 17.6511 4.3860 -12.1653
# 4 0.9193 23.9358 17.6511 40.3371 -2.6465 3.7589
# 5 8.6473 0.9034 4.3860 -2.6465 33.6734 8.7005
# 6 -3.3227 -12.6532 -12.1653 3.7589 8.7005 30.4710
#
#
#
# Elastic Compliance Matrix: (Units=1/GPa)
#
#
# Indices 1 2 3 4 5 6 
#
# 1 0.018676 -0.007833 0.003207 0.002366 -0.005138 0.001240
# 2 -0.007833 0.019350 -0.012580 -0.005876 0.002077 0.002290
# 3 0.003207 -0.012580 0.027776 -0.006046 -0.006886 0.008927
# 4 0.002366 -0.005876 -0.006046 0.032173 0.005484 -0.010131
# 5 -0.005138 0.002077 -0.006886 0.005484 0.035732 -0.013326
# 6 0.001240 0.002290 0.008927 -0.010131 -0.013326 0.042523
#
#
# Mechanical properties :
#
#
# Convention : Reuss Voigt Hill
#
# Bulk Modulus (GPa) = 31.85612 50.16884 41.01248
# Shear Modulus (GPa) = 22.61374 30.64868 26.63121
#
# Velocity S-wave (km/s) = 3.10543 3.61528 3.37001
# Velocity P-wave (km/s) = 5.14232 6.23071 5.71249
#
# Compressibility (1/GPa) = 0.03139114
#
# Stress axis : x y z
#
# Youngs Moduli (GPa) = 53.54389 51.68089 36.00212
#
# Poissons Ratio (x) = 0.40480 -0.11547
# Poissons Ratio (y) = 0.41939 0.45290
# Poissons Ratio (z) = -0.17173 0.65014
#
# Static dielectric constant tensor:
#      x y z
#    x 4.433220 -0.115210 0.102620 
#    y -0.115210 3.817160 0.203670 
#    z 0.102620 0.203670 4.217310 
# 
# 
# High freq. dielectric constant tensor:
#      x y z
#    x 1.941540 -0.007240 0.001890 
#    y -0.007240 1.908570 0.026170 
#    z 0.001890 0.026170 1.921670 
# 
# From -- ./inp_files/214996.got.cif
#   From: 2010.06.25/outbox.cif.g09.slc.cpg/sg2_108_cif.got.tgz:214996.got - 2010.06.27 13:26:56.
