data_PCOD8026383
_publ_section_title
;
Structure prediction by ZEFSAII (Michael W. Deem and Ramdas Pophale) SiO2 
 PCOD8026383
Probable space group: P -1
;
_chemical_formula_sum "Si O2"
_cell_formula_units_Z 16
_cell_length_a 13.585885
_cell_length_b 10.748061
_cell_length_c 14.515163
_cell_angle_alpha 73.109975
_cell_angle_beta 29.943220
_cell_angle_gamma 54.113812
_cell_volume 722.738178
_symmetry_space_group_name_H-M "P -1"
_symmetry_group_IT_number 2
_symmetry_cell_setting 'triclinic'
loop_
_space_group_symop_operation_xyz
x,y,z
-x,-y,-z
loop_
_atom_site_type_symbol
_atom_site_label
_atom_site_fract_x
_atom_site_fract_y
_atom_site_fract_z
Si Si1 0.600451 0.696237 0.624288
Si Si2 0.191329 0.988565 0.594940
Si Si3 0.852231 0.149644 0.507917
Si Si4 0.727468 0.698613 0.027438
Si Si5 0.448951 0.066462 0.249544
Si Si6 0.114236 0.300345 0.297496
Si Si7 0.756372 0.715320 0.295060
Si Si8 0.056914 0.844957 0.045680
O O1 0.453588 0.860948 0.780892
O O2 0.628069 0.758458 0.491526
O O3 0.899181 0.511774 0.456797
O O4 0.387063 0.672307 0.799228
O O5 0.062126 0.934335 0.647478
O O6 0.508678 0.810215 0.404043
O O7 0.196688 0.112879 0.497963
O O8 0.998996 0.104009 0.812432
O O9 0.523225 0.283012 0.753141
O O10 0.929336 0.262805 0.429525
O O11 0.000000 0.000000 0.500000
O O12 0.694187 0.849565 0.077912
O O13 0.714407 0.732415 0.922277
O O14 0.016456 0.499609 0.864573
O O15 0.337697 0.172377 0.221169
O O16 0.885622 0.799380 0.160566
O O17 0.000000 0.000000 0.000000
#
# Coordination Sequence:
#
# PCOD8026383 Si02
#       8
#     2   2   2   2   2   2   2   2
#     4  11  24  41  68  99 130 169 221 278 320 392
#     4  11  23  41  69  95 132 173 217 273 326 390
#     4  11  23  42  64  96 133 169 220 267 320 389
#     4  10  24  41  70  93 134 180 209 274 328 386
#     4  11  22  42  66  97 131 177 216 267 331 385
#     4  11  23  44  65  95 135 173 223 267 322 393
#     4  11  23  46  64 100 136 163 223 273 328 386
#     4  12  23  41  71  97 129 177 217 268 336 390
#
# _framework density 22.138031999999999
#
# number of rings (size 3 to 8) (size 9 to 14) (size 15 to 20)
#    0.000    1.000    5.000    2.625    1.750    2.000 
#    0.000    4.375    0.000    0.000    0.000    0.000 
#    0.000    0.000    0.000    0.000    0.000    0.000 
#
# Total GULP energy -198363.553483 kJ/mol
# GULP energy per Si atom -12397.722093 kJ/mol
# Density = 2.208764 g / cm^3
# Si number density = 22.138032 Si / 1000 Ang^3
#
#
#
# Elastic Constant Matrix: (Units=GPa)
#
#
# Indices 1 2 3 4 5 6 
#
# 1 101.9160 31.2774 9.4859 8.6743 5.5856 8.2911
# 2 31.2774 88.8501 16.9553 0.9291 10.1667 1.9723
# 3 9.4859 16.9553 72.6690 0.9842 6.5900 8.1858
# 4 8.6743 0.9291 0.9842 30.1124 2.6522 2.9953
# 5 5.5856 10.1667 6.5900 2.6522 33.0254 -1.0703
# 6 8.2911 1.9723 8.1858 2.9953 -1.0703 31.2064
#
#
#
# Elastic Compliance Matrix: (Units=1/GPa)
#
#
# Indices 1 2 3 4 5 6 
#
# 1 0.011495 -0.003853 -0.000231 -0.002888 -0.000561 -0.002492
# 2 -0.003853 0.013400 -0.002430 0.000983 -0.003048 0.000615
# 3 -0.000231 -0.002430 0.014998 0.000238 -0.002349 -0.003823
# 4 -0.002888 0.000983 0.000238 0.034517 -0.002723 -0.002764
# 5 -0.000561 -0.003048 -0.002349 -0.002723 0.032075 0.002319
# 6 -0.002492 0.000615 -0.003823 -0.002764 0.002319 0.034016
#
#
# Mechanical properties :
#
#
# Convention : Reuss Voigt Hill
#
# Bulk Modulus (GPa) = 37.22125 42.09692 39.65908
# Shear Modulus (GPa) = 30.77226 32.58327 31.67777
#
# Velocity S-wave (km/s) = 3.73234 3.84060 3.78685
# Velocity P-wave (km/s) = 5.95177 6.22285 6.08882
#
# Compressibility (1/GPa) = 0.02686638
#
# Stress axis : x y z
#
# Youngs Moduli (GPa) = 86.99314 74.62873 66.67341
#
# Poissons Ratio (x) = 0.28753 0.01539
# Poissons Ratio (y) = 0.33517 0.16200
# Poissons Ratio (z) = 0.02008 0.18133
#
# Static dielectric constant tensor:
#      x y z
#    x 4.040280 -0.046820 0.096440 
#    y -0.046820 4.099700 -0.181930 
#    z 0.096440 -0.181930 4.300600 
# 
# 
# High freq. dielectric constant tensor:
#      x y z
#    x 1.871880 -0.006930 0.009600 
#    y -0.006930 1.871270 -0.008850 
#    z 0.009600 -0.008850 1.879940 
# 
# From -- ./inp_files/531710.got.cif
#   From: 2010.06.25/outbox.cif.g09.slc.cpg/sg2_266_cif.got.tgz:531710.got - 2010.06.27 13:26:56.
