data_PCOD8026620
_publ_section_title
;
Structure prediction by ZEFSAII (Michael W. Deem and Ramdas Pophale) SiO2 
 PCOD8026620
Probable space group: P -1
;
_chemical_formula_sum "Si O2"
_cell_formula_units_Z 16
_cell_length_a 15.353806
_cell_length_b 18.194234
_cell_length_c 11.705292
_cell_angle_alpha 28.716920
_cell_angle_beta 45.622509
_cell_angle_gamma 26.977212
_cell_volume 660.101852
_symmetry_space_group_name_H-M "P -1"
_symmetry_group_IT_number 2
_symmetry_cell_setting 'triclinic'
loop_
_space_group_symop_operation_xyz
x,y,z
-x,-y,-z
loop_
_atom_site_type_symbol
_atom_site_label
_atom_site_fract_x
_atom_site_fract_y
_atom_site_fract_z
Si Si1 0.600983 0.229411 0.036272
Si Si2 0.249121 0.597689 0.553078
Si Si3 0.489463 0.132101 0.478662
Si Si4 0.940008 0.281946 0.676048
Si Si5 0.857866 0.544678 0.986317
Si Si6 0.033846 0.537493 0.259545
Si Si7 0.687862 0.123843 0.854676
Si Si8 0.445059 0.452206 0.221842
O O1 0.554666 0.138294 0.288872
O O2 0.559574 0.219397 0.959623
O O3 0.481275 0.513108 0.787497
O O4 0.843635 0.026407 0.098148
O O5 0.139555 0.640333 0.485586
O O6 0.494605 0.321488 0.675308
O O7 0.200246 0.825421 0.309574
O O8 0.162571 0.600341 0.740692
O O9 0.246424 0.342337 0.402025
O O10 0.547223 0.185112 0.461722
O O11 0.627419 0.846032 0.768744
O O12 0.796028 0.344015 0.816120
O O13 0.965439 0.433106 0.482007
O O14 0.954879 0.427341 0.931666
O O15 0.000000 0.500000 0.000000
O O16 0.856728 0.823983 0.085387
O O17 0.500000 0.500000 0.000000
#
# Coordination Sequence:
#
# PCOD8026620 Si02
#       8
#     2   2   2   2   2   2   2   2
#     4  11  22  46  74 103 146 188 243 307 363 426
#     4  11  26  48  73 100 148 202 231 298 371 443
#     4  11  25  45  72 112 145 189 245 308 363 420
#     4  12  24  44  74 108 143 192 246 297 370 435
#     4  12  25  50  70 104 153 196 237 297 366 439
#     4  12  27  45  74 112 142 192 247 310 357 427
#     4  11  27  47  73 105 144 192 249 300 365 432
#     4  10  24  42  71 108 143 184 239 305 369 421
#
# _framework density 24.238683999999999
#
# number of rings (size 3 to 8) (size 9 to 14) (size 15 to 20)
#    0.000    0.750    3.750    2.250    5.250    3.000 
#    2.250    0.000    0.000    0.000    0.000    0.000 
#    0.000    0.000    0.000    0.000    0.000    0.000 
#
# Total GULP energy -198219.595422 kJ/mol
# GULP energy per Si atom -12388.724714 kJ/mol
# Density = 2.418352 g / cm^3
# Si number density = 24.238684 Si / 1000 Ang^3
#
#
#
# Elastic Constant Matrix: (Units=GPa)
#
#
# Indices 1 2 3 4 5 6 
#
# 1 97.9218 22.4977 27.8775 0.0405 -7.8431 13.9427
# 2 22.4977 90.8521 17.9401 21.3887 -14.5848 14.3890
# 3 27.8775 17.9401 69.4315 17.4277 -15.7395 14.3882
# 4 0.0405 21.3887 17.4277 40.0713 -2.8799 -9.0221
# 5 -7.8431 -14.5848 -15.7395 -2.8799 38.6704 -5.9240
# 6 13.9427 14.3890 14.3882 -9.0221 -5.9240 40.3954
#
#
#
# Elastic Compliance Matrix: (Units=1/GPa)
#
#
# Indices 1 2 3 4 5 6 
#
# 1 0.012376 -0.002851 -0.005071 0.003515 -0.000480 -0.000735
# 2 -0.002851 0.015577 0.002218 -0.010559 0.004329 -0.007078
# 3 -0.005071 0.002218 0.022288 -0.012372 0.006615 -0.008772
# 4 0.003515 -0.010559 -0.012372 0.039185 -0.003049 0.015259
# 5 -0.000480 0.004329 0.006615 -0.003049 0.029855 -0.000035
# 6 -0.000735 -0.007078 -0.008772 0.015259 -0.000035 0.034058
#
#
# Mechanical properties :
#
#
# Convention : Reuss Voigt Hill
#
# Bulk Modulus (GPa) = 25.75156 43.87069 34.81112
# Shear Modulus (GPa) = 28.13881 36.48675 32.31278
#
# Velocity S-wave (km/s) = 3.41090 3.88404 3.65514
# Velocity P-wave (km/s) = 5.11464 6.18491 5.67506
#
# Compressibility (1/GPa) = 0.03883259
#
# Stress axis : x y z
#
# Youngs Moduli (GPa) = 80.80300 64.19886 44.86652
#
# Poissons Ratio (x) = 0.18306 0.22752
# Poissons Ratio (y) = 0.23041 -0.09953
# Poissons Ratio (z) = 0.40976 -0.14242
#
# Static dielectric constant tensor:
#      x y z
#    x 4.941690 0.208640 -0.157420 
#    y 0.208640 4.703020 0.084950 
#    z -0.157420 0.084950 4.458880 
# 
# 
# High freq. dielectric constant tensor:
#      x y z
#    x 1.982170 -0.000200 -0.018970 
#    y -0.000200 1.969780 0.019620 
#    z -0.018970 0.019620 1.957070 
# 
# From -- ./inp_files/456901.got.cif
#   From: 2010.06.25/outbox.cif.g09.slc.cpg/sg2_229_cif.got.tgz:456901.got - 2010.06.27 13:26:56.
