data_PCOD8026969
_publ_section_title
;
Structure prediction by ZEFSAII (Michael W. Deem and Ramdas Pophale) SiO2 
 PCOD8026969
Probable space group: P -1
;
_chemical_formula_sum "Si O2"
_cell_formula_units_Z 16
_cell_length_a 13.710676
_cell_length_b 8.952457
_cell_length_c 5.590120
_cell_angle_alpha 79.761304
_cell_angle_beta 92.422938
_cell_angle_gamma 102.012487
_cell_volume 660.432618
_symmetry_space_group_name_H-M "P -1"
_symmetry_group_IT_number 2
_symmetry_cell_setting 'triclinic'
loop_
_space_group_symop_operation_xyz
x,y,z
-x,-y,-z
loop_
_atom_site_type_symbol
_atom_site_label
_atom_site_fract_x
_atom_site_fract_y
_atom_site_fract_z
Si Si1 0.258227 0.986674 0.037702
Si Si2 0.645324 0.283536 0.758750
Si Si3 0.806873 0.490109 0.937655
Si Si4 0.893185 0.397170 0.478022
Si Si5 0.110453 0.154084 0.236330
Si Si6 0.441645 0.264228 0.970197
Si Si7 0.560944 0.430357 0.328272
Si Si8 0.105416 0.908265 0.671798
O O1 0.301672 0.861713 0.230620
O O2 0.163988 0.043279 0.119975
O O3 0.348442 0.127641 0.961663
O O4 0.210056 0.904961 0.813977
O O5 0.689862 0.403129 0.947837
O O6 0.654267 0.372335 0.477660
O O7 0.527327 0.228739 0.811362
O O8 0.835206 0.407295 0.717651
O O9 0.826973 0.671834 0.829770
O O10 0.855152 0.457076 0.203133
O O11 0.901469 0.218454 0.503744
O O12 0.000000 0.500000 0.500000
O O13 0.994095 0.142642 0.156757
O O14 0.109357 0.083728 0.525539
O O15 0.489189 0.283289 0.234984
O O16 0.400543 0.422849 0.881416
O O17 0.500000 0.500000 0.500000
#
# Coordination Sequence:
#
# PCOD8026969 Si02
#       8
#     2   2   2   2   2   2   2   2
#     4  12  26  45  72 105 151 197 252 311 392 453
#     4  11  25  44  70 109 149 195 250 313 374 460
#     4  12  28  46  80 116 150 206 256 317 388 457
#     4  12  26  50  79 111 154 202 262 320 381 456
#     4  11  28  44  73 107 149 202 254 315 383 458
#     4  10  24  43  73 105 145 193 248 317 378 460
#     4   9  22  43  68 100 143 183 249 311 377 441
#     4  11  26  50  70 107 154 195 256 319 386 459
#
# _framework density 24.226541999999998
#
# number of rings (size 3 to 8) (size 9 to 14) (size 15 to 20)
#    0.000    1.000    2.500    1.875   10.500    2.500 
#    0.000    0.000    0.000    0.000    0.000    0.000 
#    0.000    0.000    0.000    0.000    0.000    0.000 
#
# Total GULP energy -198231.165878 kJ/mol
# GULP energy per Si atom -12389.447867 kJ/mol
# Density = 2.417140 g / cm^3
# Si number density = 24.226542 Si / 1000 Ang^3
#
#
#
# Elastic Constant Matrix: (Units=GPa)
#
#
# Indices 1 2 3 4 5 6 
#
# 1 96.5757 62.8129 44.3685 1.0823 22.9709 6.1571
# 2 62.8129 143.6625 36.0935 -0.3458 14.2706 3.4667
# 3 44.3685 36.0935 116.0793 4.3123 26.3320 -1.6286
# 4 1.0823 -0.3458 4.3123 37.1899 -1.9655 4.0844
# 5 22.9709 14.2706 26.3320 -1.9655 44.6065 3.9812
# 6 6.1571 3.4667 -1.6286 4.0844 3.9812 50.8646
#
#
#
# Elastic Compliance Matrix: (Units=1/GPa)
#
#
# Indices 1 2 3 4 5 6 
#
# 1 0.017192 -0.006111 -0.003630 -0.000228 -0.004641 -0.001399
# 2 -0.006111 0.009794 -0.000846 0.000398 0.000533 -0.000029
# 3 -0.003630 -0.000846 0.011435 -0.001633 -0.004805 0.001370
# 4 -0.000228 0.000398 -0.001633 0.027483 0.002383 -0.002445
# 5 -0.004641 0.000533 -0.004805 0.002383 0.027757 -0.001992
# 6 -0.001399 -0.000029 0.001370 -0.002445 -0.001992 0.020228
#
#
# Mechanical properties :
#
#
# Convention : Reuss Voigt Hill
#
# Bulk Modulus (GPa) = 57.97514 71.42971 64.70242
# Shear Modulus (GPa) = 35.50891 40.73504 38.12197
#
# Velocity S-wave (km/s) = 3.83260 4.10496 3.97112
# Velocity P-wave (km/s) = 6.60057 7.21219 6.91315
#
# Compressibility (1/GPa) = 0.01724877
#
# Stress axis : x y z
#
# Youngs Moduli (GPa) = 58.16617 102.10664 87.45166
#
# Poissons Ratio (x) = 0.62394 0.31742
# Poissons Ratio (y) = 0.35544 0.07395
# Poissons Ratio (z) = 0.21112 0.08634
#
# Static dielectric constant tensor:
#      x y z
#    x 5.364150 0.079530 0.001660 
#    y 0.079530 4.497120 -0.215510 
#    z 0.001660 -0.215510 4.820640 
# 
# 
# High freq. dielectric constant tensor:
#      x y z
#    x 1.977250 -0.000100 0.004030 
#    y -0.000100 1.969660 -0.001950 
#    z 0.004030 -0.001950 1.958740 
# 
# From -- ./inp_files/90158.got.cif
#   From: 2010.06.25/outbox.cif.g09.slc.cpg/sg2_46_cif.got.tgz:90158.got - 2010.06.27 13:26:56.
