data_PCOD8026113
_publ_section_title
;
Structure prediction by ZEFSAII (Michael W. Deem and Ramdas Pophale) SiO2 
 PCOD8026113
Probable space group: P -1
;
_chemical_formula_sum "Si O2"
_cell_formula_units_Z 16
_cell_length_a 11.419387
_cell_length_b 8.711607
_cell_length_c 8.205004
_cell_angle_alpha 121.862949
_cell_angle_beta 90.126283
_cell_angle_gamma 81.269829
_cell_volume 682.256602
_symmetry_space_group_name_H-M "P -1"
_symmetry_group_IT_number 2
_symmetry_cell_setting 'triclinic'
loop_
_space_group_symop_operation_xyz
x,y,z
-x,-y,-z
loop_
_atom_site_type_symbol
_atom_site_label
_atom_site_fract_x
_atom_site_fract_y
_atom_site_fract_z
Si Si1 0.738367 0.166185 0.524047
Si Si2 0.843220 0.530658 0.149716
Si Si3 0.993068 0.907515 0.775574
Si Si4 0.687195 0.831631 0.135879
Si Si5 0.747917 0.819803 0.764547
Si Si6 0.438210 0.932158 0.307084
Si Si7 0.201805 0.578536 0.570512
Si Si8 0.965459 0.234038 0.748430
O O1 0.648353 0.203624 0.700131
O O2 0.705627 0.303282 0.444753
O O3 0.867097 0.205107 0.600463
O O4 0.731759 0.963793 0.344397
O O5 0.753309 0.628166 0.067185
O O6 0.766138 0.487918 0.281815
O O7 0.938996 0.658799 0.276160
O O8 0.911200 0.342215 0.969286
O O9 0.855432 0.904720 0.737451
O O10 0.070450 0.704074 0.650684
O O11 0.032903 0.036607 0.705825
O O12 0.000000 0.000000 0.000000
O O13 0.545053 0.830941 0.136615
O O14 0.723878 0.886442 0.987254
O O15 0.787448 0.600422 0.642826
O O16 0.633962 0.894945 0.695072
O O17 0.500000 0.000000 0.500000
#
# Coordination Sequence:
#
# PCOD8026113 Si02
#       8
#     2   2   2   2   2   2   2   2
#     4  11  24  43  70 103 135 185 237 285 347 422
#     4  11  25  43  66 104 145 184 227 293 350 415
#     4  12  24  42  67 103 142 184 227 279 353 429
#     4  11  25  47  72 100 139 188 238 290 347 415
#     4  12  25  45  69 104 140 186 233 290 351 413
#     4  10  23  49  74  99 135 187 241 293 351 410
#     4  12  26  40  67 105 144 184 228 285 353 421
#     4  11  24  43  69  97 145 183 231 286 356 416
#
# _framework density 23.451587
#
# number of rings (size 3 to 8) (size 9 to 14) (size 15 to 20)
#    0.000    0.750    2.500    5.250    5.250    1.000 
#    0.000    8.125    0.000    0.000    0.000    0.000 
#    0.000    0.000    0.000    0.000    0.000    0.000 
#
# Total GULP energy -198341.155283 kJ/mol
# GULP energy per Si atom -12396.322205 kJ/mol
# Density = 2.339821 g / cm^3
# Si number density = 23.451587 Si / 1000 Ang^3
#
#
#
# Elastic Constant Matrix: (Units=GPa)
#
#
# Indices 1 2 3 4 5 6 
#
# 1 102.7722 48.3502 40.7149 6.2660 -12.5342 -12.7067
# 2 48.3502 136.5408 27.8197 -8.9159 -3.3700 6.9681
# 3 40.7149 27.8197 81.4058 -4.6701 -7.7788 2.7976
# 4 6.2660 -8.9159 -4.6701 37.2584 -0.1348 -6.2667
# 5 -12.5342 -3.3700 -7.7788 -0.1348 32.4579 -10.5974
# 6 -12.7067 6.9681 2.7976 -6.2667 -10.5974 37.6235
#
#
#
# Elastic Compliance Matrix: (Units=1/GPa)
#
#
# Indices 1 2 3 4 5 6 
#
# 1 0.016863 -0.005134 -0.006481 -0.003405 0.007218 0.008594
# 2 -0.005134 0.009567 -0.000659 0.002437 -0.002349 -0.003712
# 3 -0.006481 -0.000659 0.016024 0.002482 0.000386 -0.002736
# 4 -0.003405 0.002437 0.002482 0.028850 0.000703 0.003217
# 5 0.007218 -0.002349 0.000386 0.000703 0.037900 0.013637
# 6 0.008594 -0.003712 -0.002736 0.003217 0.013637 0.034749
#
#
# Mechanical properties :
#
#
# Convention : Reuss Voigt Hill
#
# Bulk Modulus (GPa) = 55.84310 61.60984 58.72647
# Shear Modulus (GPa) = 28.65830 35.05689 31.85760
#
# Velocity S-wave (km/s) = 3.49953 3.87054 3.68970
# Velocity P-wave (km/s) = 6.33977 6.80462 6.57631
#
# Compressibility (1/GPa) = 0.01790732
#
# Stress axis : x y z
#
# Youngs Moduli (GPa) = 59.30003 104.53057 62.40687
#
# Poissons Ratio (x) = 0.53664 0.40444
# Poissons Ratio (y) = 0.30444 0.04111
# Poissons Ratio (z) = 0.38431 0.06885
#
# Static dielectric constant tensor:
#      x y z
#    x 4.699270 0.352790 -0.378750 
#    y 0.352790 4.500940 -0.120640 
#    z -0.378750 -0.120640 4.255290 
# 
# 
# High freq. dielectric constant tensor:
#      x y z
#    x 1.910250 0.008440 -0.016750 
#    y 0.008440 1.941000 -0.012430 
#    z -0.016750 -0.012430 1.933390 
# 
# From -- ./inp_files/245947.got.cif
#   From: 2010.06.25/outbox.cif.g09.slc.cpg/sg2_123_cif.got.tgz:245947.got - 2010.06.27 13:26:56.
