data_PCOD8026745
_publ_section_title
;
Structure prediction by ZEFSAII (Michael W. Deem and Ramdas Pophale) SiO2 
 PCOD8026745
Probable space group: P -1
;
_chemical_formula_sum "Si O2"
_cell_formula_units_Z 16
_cell_length_a 11.981727
_cell_length_b 8.827503
_cell_length_c 21.263515
_cell_angle_alpha 140.507323
_cell_angle_beta 148.397776
_cell_angle_gamma 50.149975
_cell_volume 748.601099
_symmetry_space_group_name_H-M "P -1"
_symmetry_group_IT_number 2
_symmetry_cell_setting 'triclinic'
loop_
_space_group_symop_operation_xyz
x,y,z
-x,-y,-z
loop_
_atom_site_type_symbol
_atom_site_label
_atom_site_fract_x
_atom_site_fract_y
_atom_site_fract_z
Si Si1 0.573694 0.953624 0.218444
Si Si2 0.137006 0.538690 0.640591
Si Si3 0.933906 0.743389 0.242526
Si Si4 0.068785 0.008029 0.812373
Si Si5 0.720119 0.236228 0.796027
Si Si6 0.281050 0.042593 0.576499
Si Si7 0.134498 0.766774 0.997689
Si Si8 0.571527 0.726853 0.854922
O O1 0.727982 0.788145 0.200637
O O2 0.684207 0.054040 0.367542
O O3 0.506212 0.183330 0.220951
O O4 0.366797 0.794145 0.087416
O O5 0.153287 0.284057 0.599778
O O6 0.368904 0.664455 0.780861
O O7 0.000000 0.500000 0.500000
O O8 0.029845 0.722061 0.694890
O O9 0.894103 0.871451 0.198688
O O10 0.973140 0.463895 0.162252
O O11 0.147478 0.845102 0.410469
O O12 0.851111 0.078395 0.761915
O O13 0.274768 0.070425 0.974288
O O14 0.497494 0.095260 0.658471
O O15 0.695785 0.485793 0.828341
O O16 0.850313 0.290724 0.939779
O O17 0.000000 0.000000 0.000000
#
# Coordination Sequence:
#
# PCOD8026745 Si02
#       8
#     2   2   2   2   2   2   2   2
#     4  11  24  42  68  97 132 176 215 270 327 382
#     4  11  22  42  65 100 131 167 217 272 320 386
#     4  12  24  43  69  98 129 174 221 270 325 388
#     4  12  23  39  70 100 130 167 225 267 327 382
#     4  10  24  43  66  98 132 175 213 274 325 389
#     4  10  24  46  66  94 137 172 216 267 330 391
#     4  11  25  45  66  97 135 168 219 272 330 386
#     4  11  22  41  68  98 129 170 223 265 326 380
#
# _framework density 21.373199
#
# number of rings (size 3 to 8) (size 9 to 14) (size 15 to 20)
#    0.000    1.000    3.750    2.250    1.750    2.500 
#    0.000    3.750    0.000    0.000    0.000    0.000 
#    0.000    0.000    0.000    0.000    0.000    0.000 
#
# Total GULP energy -198459.399599 kJ/mol
# GULP energy per Si atom -12403.712475 kJ/mol
# Density = 2.132455 g / cm^3
# Si number density = 21.373199 Si / 1000 Ang^3
#
#
#
# Elastic Constant Matrix: (Units=GPa)
#
#
# Indices 1 2 3 4 5 6 
#
# 1 92.4840 36.2755 41.8645 2.4879 -7.5989 -13.5541
# 2 36.2755 139.3067 75.2754 2.7192 -18.2469 -4.3945
# 3 41.8645 75.2754 144.1889 3.6123 -15.9615 -12.8489
# 4 2.4879 2.7192 3.6123 34.8464 1.5430 -10.0411
# 5 -7.5989 -18.2469 -15.9615 1.5430 18.5234 -5.9522
# 6 -13.5541 -4.3945 -12.8489 -10.0411 -5.9522 44.5763
#
#
#
# Elastic Compliance Matrix: (Units=1/GPa)
#
#
# Indices 1 2 3 4 5 6 
#
# 1 0.013308 -0.001718 -0.002326 0.000355 0.002915 0.003676
# 2 -0.001718 0.010864 -0.004480 -0.000546 0.006169 -0.000042
# 3 -0.002326 -0.004480 0.010695 -0.000067 0.004671 0.002542
# 4 0.000355 -0.000546 -0.000067 0.030731 -0.000809 0.006849
# 5 0.002915 0.006169 0.004671 -0.000809 0.069173 0.011895
# 6 0.003676 -0.000042 0.002542 0.006849 0.011895 0.027411
#
#
# Mechanical properties :
#
#
# Convention : Reuss Voigt Hill
#
# Bulk Modulus (GPa) = 56.11899 75.86784 65.99341
# Shear Modulus (GPa) = 27.00249 34.42683 30.71466
#
# Velocity S-wave (km/s) = 3.55826 4.01777 3.79498
# Velocity P-wave (km/s) = 6.57232 7.55626 7.08140
#
# Compressibility (1/GPa) = 0.01781928
#
# Stress axis : x y z
#
# Youngs Moduli (GPa) = 75.14313 92.04815 93.50355
#
# Poissons Ratio (x) = 0.15813 0.21747
# Poissons Ratio (y) = 0.12909 0.41890
# Poissons Ratio (z) = 0.17476 0.41238
#
# Static dielectric constant tensor:
#      x y z
#    x 4.003940 -0.030770 0.007560 
#    y -0.030770 4.083150 -0.097890 
#    z 0.007560 -0.097890 3.929110 
# 
# 
# High freq. dielectric constant tensor:
#      x y z
#    x 1.841930 -0.001050 0.002560 
#    y -0.001050 1.843230 -0.007220 
#    z 0.002560 -0.007220 1.843170 
# 
# From -- ./inp_files/158715.got.cif
#   From: 2010.06.25/outbox.cif.g09.slc.cpg/sg2_80_cif.got.tgz:158715.got - 2010.06.27 13:26:56.
