data_PCOD8026598
_publ_section_title
;
Structure prediction by ZEFSAII (Michael W. Deem and Ramdas Pophale) SiO2 
 PCOD8026598
Probable space group: P -1
;
_chemical_formula_sum "Si O2"
_cell_formula_units_Z 16
_cell_length_a 9.059047
_cell_length_b 8.392877
_cell_length_c 12.312104
_cell_angle_alpha 99.916172
_cell_angle_beta 131.601480
_cell_angle_gamma 79.466943
_cell_volume 686.560616
_symmetry_space_group_name_H-M "P -1"
_symmetry_group_IT_number 2
_symmetry_cell_setting 'triclinic'
loop_
_space_group_symop_operation_xyz
x,y,z
-x,-y,-z
loop_
_atom_site_type_symbol
_atom_site_label
_atom_site_fract_x
_atom_site_fract_y
_atom_site_fract_z
Si Si1 0.049051 0.330073 0.448891
Si Si2 0.175609 0.146373 0.690969
Si Si3 0.333663 0.802823 0.785856
Si Si4 0.715391 0.562357 0.611313
Si Si5 0.531005 0.818750 0.680346
Si Si6 0.212623 0.896665 0.118890
Si Si7 0.814441 0.213810 0.661215
Si Si8 0.525772 0.314800 0.945843
O O1 0.076693 0.180090 0.529126
O O2 0.236674 0.347311 0.466240
O O3 0.000000 0.500000 0.500000
O O4 0.859011 0.284643 0.282457
O O5 0.313164 0.294104 0.787295
O O6 0.014730 0.121111 0.702413
O O7 0.308444 0.978611 0.737896
O O8 0.446374 0.715471 0.727167
O O9 0.463090 0.803080 0.957323
O O10 0.500000 0.500000 0.500000
O O11 0.722980 0.701401 0.721955
O O12 0.860116 0.402160 0.687290
O O13 0.373526 0.840333 0.505360
O O14 0.611486 0.985811 0.777577
O O15 0.202441 0.818476 0.223660
O O16 0.290085 0.750139 0.053662
O O17 0.000000 0.000000 0.000000
O O18 0.500000 0.500000 0.000000
#
# Coordination Sequence:
#
# PCOD8026598 Si02
#       8
#     2   2   2   2   2   2   2   2
#     4  12  23  44  73 107 145 185 247 301 365 437
#     4  12  25  45  75 108 141 190 244 308 362 440
#     4  12  26  46  71 105 147 188 246 296 371 429
#     4  10  24  42  70 108 147 183 235 304 363 432
#     4  11  25  46  73 107 142 191 237 310 363 434
#     4  12  29  49  73 107 152 197 244 299 370 444
#     4  11  25  46  73 109 144 186 245 300 372 431
#     4  12  30  49  74 105 149 201 247 303 366 443
#
# _framework density 23.304572
#
# number of rings (size 3 to 8) (size 9 to 14) (size 15 to 20)
#    0.000    0.500    3.750    3.375   10.500    0.000 
#    0.000    1.250    0.000    0.000    0.000    0.000 
#    0.000    0.000    0.000    0.000    0.000    0.000 
#
# Total GULP energy -198217.929197 kJ/mol
# GULP energy per Si atom -12388.620575 kJ/mol
# Density = 2.325153 g / cm^3
# Si number density = 23.304572 Si / 1000 Ang^3
#
#
#
# Elastic Constant Matrix: (Units=GPa)
#
#
# Indices 1 2 3 4 5 6 
#
# 1 176.7869 40.6251 47.8584 -2.6745 -26.2952 4.1004
# 2 40.6251 91.3515 18.2172 3.3466 -6.8674 -4.3902
# 3 47.8584 18.2172 85.5039 -9.6035 -17.5095 -2.7382
# 4 -2.6745 3.3466 -9.6035 39.7703 10.9419 -7.1446
# 5 -26.2952 -6.8674 -17.5095 10.9419 44.7513 -3.7402
# 6 4.1004 -4.3902 -2.7382 -7.1446 -3.7402 42.2457
#
#
#
# Elastic Compliance Matrix: (Units=1/GPa)
#
#
# Indices 1 2 3 4 5 6 
#
# 1 0.007562 -0.002507 -0.003251 -0.001081 0.002957 -0.001126
# 2 -0.002507 0.012460 -0.001291 -0.001410 0.000383 0.001250
# 3 -0.003251 -0.001291 0.014824 0.002953 0.003130 0.001919
# 4 -0.001081 -0.001410 0.002953 0.028421 -0.006278 0.004401
# 5 0.002957 0.000383 0.003130 -0.006278 0.027009 0.001285
# 6 -0.001126 0.001250 0.001919 0.004401 0.001285 0.024893
#
#
# Mechanical properties :
#
#
# Convention : Reuss Voigt Hill
#
# Bulk Modulus (GPa) = 48.19696 63.00488 55.60092
# Shear Modulus (GPa) = 36.71544 41.81623 39.26583
#
# Velocity S-wave (km/s) = 3.97351 4.24056 4.10920
# Velocity P-wave (km/s) = 6.46359 7.14636 6.81353
#
# Compressibility (1/GPa) = 0.02074820
#
# Stress axis : x y z
#
# Youngs Moduli (GPa) = 132.23653 80.25931 67.45795
#
# Poissons Ratio (x) = 0.20121 0.21928
# Poissons Ratio (y) = 0.33152 0.08711
# Poissons Ratio (z) = 0.42984 0.10364
#
# Static dielectric constant tensor:
#      x y z
#    x 4.428370 -0.271590 0.588780 
#    y -0.271590 4.528170 -0.564160 
#    z 0.588780 -0.564160 1.104170 
# 
# 
# High freq. dielectric constant tensor:
#      x y z
#    x 1.945280 -0.006640 -0.006270 
#    y -0.006640 1.927740 0.004080 
#    z -0.006270 0.004080 1.909210 
# 
# From -- ./inp_files/382448.got.cif
#   From: 2010.06.25/outbox.cif.g09.slc.cpg/sg2_192_cif.got.tgz:382448.got - 2010.06.27 13:26:56.
