data_PCOD8026764
_publ_section_title
;
Structure prediction by ZEFSAII (Michael W. Deem and Ramdas Pophale) SiO2 
 PCOD8026764
Probable space group: P -1
;
_chemical_formula_sum "Si O2"
_cell_formula_units_Z 12
_cell_length_a 9.721303
_cell_length_b 7.075510
_cell_length_c 11.925858
_cell_angle_alpha 88.025013
_cell_angle_beta 117.548364
_cell_angle_gamma 122.789315
_cell_volume 585.174910
_symmetry_space_group_name_H-M "P -1"
_symmetry_group_IT_number 2
_symmetry_cell_setting 'triclinic'
loop_
_space_group_symop_operation_xyz
x,y,z
-x,-y,-z
loop_
_atom_site_type_symbol
_atom_site_label
_atom_site_fract_x
_atom_site_fract_y
_atom_site_fract_z
Si Si1 0.827160 0.399597 0.782919
Si Si2 0.197036 0.800059 0.461687
Si Si3 0.538351 0.314643 0.052150
Si Si4 0.458096 0.344210 0.594324
Si Si5 0.770883 0.199650 0.001677
Si Si6 0.763211 0.513105 0.357959
O O1 0.817059 0.268324 0.670748
O O2 0.660048 0.434722 0.724815
O O3 0.029409 0.657296 0.857557
O O4 0.811581 0.244444 0.884006
O O5 0.280565 0.687313 0.568009
O O6 0.990615 0.716094 0.432025
O O7 0.345983 0.077111 0.520247
O O8 0.636236 0.277312 0.986157
O O9 0.680165 0.396258 0.208963
O O10 0.500000 0.500000 0.000000
O O11 0.332245 0.073414 0.007479
O O12 0.500000 0.500000 0.500000
O O13 0.335185 0.366504 0.639672
#
# Coordination Sequence:
#
# PCOD8026764 Si02
#       6
#     2   2   2   2   2   2
#     4  11  22  46  65  95 131 169 208 266 321 370
#     4  11  24  44  67  92 132 171 208 263 321 378
#     4  11  23  43  67  96 125 170 213 262 313 379
#     4  12  25  39  65  99 128 163 211 266 320 372
#     4  10  24  43  67  91 130 170 213 258 315 381
#     4  11  24  44  67  95 126 172 215 256 321 380
#
# _framework density 20.506689000000001
#
# number of rings (size 3 to 8) (size 9 to 14) (size 15 to 20)
#    0.000    1.000    3.333    3.000    2.333    2.667 
#    0.000    2.500    0.000    0.000    0.000    0.000 
#    0.000    0.000    0.000    0.000    0.000    0.000 
#
# Total GULP energy -148890.841978 kJ/mol
# GULP energy per Si atom -12407.570165 kJ/mol
# Density = 2.046001 g / cm^3
# Si number density = 20.506689 Si / 1000 Ang^3
#
#
#
# Elastic Constant Matrix: (Units=GPa)
#
#
# Indices 1 2 3 4 5 6 
#
# 1 91.8350 35.9700 20.2176 -8.4827 17.8758 -5.0260
# 2 35.9700 147.5204 56.9506 -1.4768 21.7017 5.5485
# 3 20.2176 56.9506 95.7907 -0.6746 4.0478 3.7507
# 4 -8.4827 -1.4768 -0.6746 16.2650 12.0058 1.1776
# 5 17.8758 21.7017 4.0478 12.0058 40.4392 4.0301
# 6 -5.0260 5.5485 3.7507 1.1776 4.0301 32.3753
#
#
#
# Elastic Compliance Matrix: (Units=1/GPa)
#
#
# Indices 1 2 3 4 5 6 
#
# 1 0.015716 -0.001387 -0.002057 0.015900 -0.011087 0.003718
# 2 -0.001387 0.010058 -0.005402 0.003966 -0.005342 -0.000793
# 3 -0.002057 -0.005402 0.013961 -0.003542 0.003595 -0.001330
# 4 0.015900 0.003966 -0.003542 0.097955 -0.038222 0.003394
# 5 -0.011087 -0.005342 0.003595 -0.038222 0.044013 -0.005311
# 6 0.003718 -0.000793 -0.001330 0.003394 -0.005311 0.032292
#
#
# Mechanical properties :
#
#
# Convention : Reuss Voigt Hill
#
# Bulk Modulus (GPa) = 45.37070 62.38026 53.87548
# Shear Modulus (GPa) = 20.91741 32.61642 26.76691
#
# Velocity S-wave (km/s) = 3.19725 3.99247 3.61678
# Velocity P-wave (km/s) = 5.98354 7.19295 6.61594
#
# Compressibility (1/GPa) = 0.02204066
#
# Stress axis : x y z
#
# Youngs Moduli (GPa) = 63.63066 99.42374 71.62997
#
# Poissons Ratio (x) = 0.13794 0.14736
# Poissons Ratio (y) = 0.08828 0.38696
# Poissons Ratio (z) = 0.13090 0.53711
#
# Static dielectric constant tensor:
#      x y z
#    x 3.920960 0.147370 0.047010 
#    y 0.147370 3.655180 0.053050 
#    z 0.047010 0.053050 3.864330 
# 
# 
# High freq. dielectric constant tensor:
#      x y z
#    x 1.816350 0.012730 -0.001690 
#    y 0.012730 1.801440 0.002080 
#    z -0.001690 0.002080 1.814980 
# 
# From -- ./inp_files/18606.got.cif
#   From: 2010.06.25/outbox.cif.g09.slc.cpg/sg2_10_cif.got.tgz:18606.got - 2010.06.27 13:26:56.
