data_PCOD8026890
_publ_section_title
;
Structure prediction by ZEFSAII (Michael W. Deem and Ramdas Pophale) SiO2 
 PCOD8026890
Probable space group: P -1
;
_chemical_formula_sum "Si O2"
_cell_formula_units_Z 14
_cell_length_a 16.194595
_cell_length_b 25.149324
_cell_length_c 15.080136
_cell_angle_alpha 20.229617
_cell_angle_beta 150.895531
_cell_angle_gamma 162.292656
_cell_volume 634.016271
_symmetry_space_group_name_H-M "P -1"
_symmetry_group_IT_number 2
_symmetry_cell_setting 'triclinic'
loop_
_space_group_symop_operation_xyz
x,y,z
-x,-y,-z
loop_
_atom_site_type_symbol
_atom_site_label
_atom_site_fract_x
_atom_site_fract_y
_atom_site_fract_z
Si Si1 0.662601 0.554139 0.806473
Si Si2 0.552832 0.213887 0.972283
Si Si3 0.766301 0.040147 0.383688
Si Si4 0.984977 0.020730 0.151403
Si Si5 0.613724 0.930309 0.757378
Si Si6 0.804332 0.653309 0.417124
Si Si7 0.486533 0.566586 0.788023
O O1 0.492504 0.553484 0.586822
O O2 0.713496 0.659122 0.788308
O O3 0.960712 0.722278 0.786027
O O4 0.471838 0.266048 0.083412
O O5 0.794597 0.502428 0.713525
O O6 0.613266 0.084489 0.200820
O O7 0.527580 0.198779 0.078288
O O8 0.263789 0.073149 0.881763
O O9 0.856922 0.997653 0.616893
O O10 0.546944 0.791280 0.505021
O O11 0.192298 0.310238 0.869006
O O12 0.851313 0.847770 0.209126
O O13 0.500000 0.000000 0.500000
O O14 0.947250 0.186936 0.670420
O O15 0.500000 0.500000 0.000000
#
# Coordination Sequence:
#
# PCOD8026890 Si02
#       7
#     2   2   2   2   2   2   2
#     4  12  22  44  71  98 136 182 231 281 343 411
#     4  12  25  43  69 109 141 175 223 286 351 402
#     4  11  25  43  68  99 138 183 227 273 335 413
#     4  11  21  45  69  97 139 177 226 281 344 402
#     4  12  25  39  68 107 143 176 224 284 348 414
#     4  12  23  44  70 105 138 178 225 287 353 401
#     4  10  24  43  70  94 132 189 232 277 334 404
#
# _framework density 22.081451999999999
#
# number of rings (size 3 to 8) (size 9 to 14) (size 15 to 20)
#    0.000    0.571    4.286    4.714    2.000    2.286 
#    0.000    0.714    0.000    0.000    0.000    0.000 
#    0.000    0.000    0.000    0.000    0.000    0.000 
#
# Total GULP energy -173523.667732 kJ/mol
# GULP energy per Si atom -12394.547695 kJ/mol
# Density = 2.203119 g / cm^3
# Si number density = 22.081452 Si / 1000 Ang^3
#
#
#
# Elastic Constant Matrix: (Units=GPa)
#
#
# Indices 1 2 3 4 5 6 
#
# 1 136.3461 37.8484 52.7835 1.7665 13.7384 3.6475
# 2 37.8484 74.7602 45.5153 -6.2245 17.4777 8.2983
# 3 52.7835 45.5153 125.2240 -1.8551 13.1070 5.6320
# 4 1.7665 -6.2245 -1.8551 37.7401 3.9215 2.6025
# 5 13.7384 17.4777 13.1070 3.9215 45.3544 -0.5769
# 6 3.6475 8.2983 5.6320 2.6025 -0.5769 36.5455
#
#
#
# Elastic Compliance Matrix: (Units=1/GPa)
#
#
# Indices 1 2 3 4 5 6 
#
# 1 0.009321 -0.002934 -0.002804 -0.000991 -0.000794 0.000226
# 2 -0.002934 0.020180 -0.005261 0.004073 -0.005769 -0.003860
# 3 -0.002804 -0.005261 0.011123 -0.000139 -0.000329 -0.000235
# 4 -0.000991 0.004073 -0.000139 0.027785 -0.003668 -0.002841
# 5 -0.000794 -0.005769 -0.000329 -0.003668 0.024951 0.002095
# 6 0.000226 -0.003860 -0.000235 -0.002841 0.002095 0.028489
#
#
# Mechanical properties :
#
#
# Convention : Reuss Voigt Hill
#
# Bulk Modulus (GPa) = 53.68586 67.62498 60.65542
# Shear Modulus (GPa) = 33.32108 37.27353 35.29731
#
# Velocity S-wave (km/s) = 3.88881 4.11299 4.00247
# Velocity P-wave (km/s) = 6.67302 7.29707 6.99201
#
# Compressibility (1/GPa) = 0.01862688
#
# Stress axis : x y z
#
# Youngs Moduli (GPa) = 107.28377 49.55338 89.90544
#
# Poissons Ratio (x) = 0.14537 0.25214
# Poissons Ratio (y) = 0.31472 0.47296
# Poissons Ratio (z) = 0.30087 0.26068
#
# Static dielectric constant tensor:
#      x y z
#    x 4.111870 0.002720 0.069710 
#    y 0.002720 4.293260 -0.360040 
#    z 0.069710 -0.360040 4.227070 
# 
# 
# High freq. dielectric constant tensor:
#      x y z
#    x 1.872570 0.013680 -0.007380 
#    y 0.013680 1.858690 -0.013300 
#    z -0.007380 -0.013300 1.875050 
# 
# From -- ./inp_files/256052.got.cif
#   From: 2010.06.25/outbox.cif.g09.slc.cpg/sg2_129_cif.got.tgz:256052.got - 2010.06.27 13:26:56.
