data_PCOD8026013
_publ_section_title
;
Structure prediction by ZEFSAII (Michael W. Deem and Ramdas Pophale) SiO2 
 PCOD8026013
Probable space group: P -1
;
_chemical_formula_sum "Si O2"
_cell_formula_units_Z 14
_cell_length_a 20.551125
_cell_length_b 9.851074
_cell_length_c 13.433927
_cell_angle_alpha 32.759762
_cell_angle_beta 155.938986
_cell_angle_gamma 138.849497
_cell_volume 598.649280
_symmetry_space_group_name_H-M "P -1"
_symmetry_group_IT_number 2
_symmetry_cell_setting 'triclinic'
loop_
_space_group_symop_operation_xyz
x,y,z
-x,-y,-z
loop_
_atom_site_type_symbol
_atom_site_label
_atom_site_fract_x
_atom_site_fract_y
_atom_site_fract_z
Si Si1 0.765194 0.869943 0.718657
Si Si2 0.196901 0.730406 0.313641
Si Si3 0.150867 0.516143 0.771791
Si Si4 0.868747 0.819829 0.468479
Si Si5 0.559200 0.599864 0.886128
Si Si6 0.553078 0.894358 0.884015
Si Si7 0.911486 0.923086 0.679536
O O1 0.809436 0.851594 0.676040
O O2 0.816661 0.123583 0.689681
O O3 0.571081 0.863741 0.456697
O O4 0.861355 0.632002 0.050623
O O5 0.126430 0.458246 0.402764
O O6 0.378237 0.703074 0.541681
O O7 0.097109 0.896229 0.989075
O O8 0.000000 0.500000 0.500000
O O9 0.153958 0.807754 0.620266
O O10 0.316396 0.390440 0.035620
O O11 0.886808 0.754238 0.651680
O O12 0.696925 0.963182 0.114311
O O13 0.000000 0.000000 0.500000
O O14 0.626219 0.775267 0.957805
O O15 0.558071 0.311745 0.096433
#
# Coordination Sequence:
#
# PCOD8026013 Si02
#       7
#     2   2   2   2   2   2   2
#     4  11  24  44  76 102 138 179 236 293 349 395
#     4  10  23  47  71  99 137 189 228 286 344 408
#     4  12  26  40  71 113 137 175 235 292 346 410
#     4  11  27  43  71 102 142 188 236 275 344 430
#     4   9  20  41  71 101 133 179 235 287 340 400
#     4   9  20  43  69  97 139 186 228 287 343 406
#     4  12  26  44  68 107 145 181 221 295 350 405
#
# _framework density 23.385981000000001
#
# number of rings (size 3 to 8) (size 9 to 14) (size 15 to 20)
#    0.000    1.429    2.857    1.714    4.000    4.000 
#    0.000    0.714    0.000    0.000    0.000    0.000 
#    0.000    0.000    0.000    0.000    0.000    0.000 
#
# Total GULP energy -173523.149668 kJ/mol
# GULP energy per Si atom -12394.510691 kJ/mol
# Density = 2.333275 g / cm^3
# Si number density = 23.385981 Si / 1000 Ang^3
#
#
#
# Elastic Constant Matrix: (Units=GPa)
#
#
# Indices 1 2 3 4 5 6 
#
# 1 80.3219 60.6756 55.1760 -2.4786 -4.4481 -8.4645
# 2 60.6756 47.0666 37.4688 15.3528 -10.4306 10.0504
# 3 55.1760 37.4688 177.0732 14.9432 -9.6188 1.6844
# 4 -2.4786 15.3528 14.9432 37.9947 2.4324 -11.1684
# 5 -4.4481 -10.4306 -9.6188 2.4324 37.4014 4.4922
# 6 -8.4645 10.0504 1.6844 -11.1684 4.4922 21.5964
#
#
#
# Elastic Compliance Matrix: (Units=1/GPa)
#
#
# Indices 1 2 3 4 5 6 
#
# 1 -0.007594 0.023306 -0.000303 -0.017761 0.009676 -0.024996
# 2 0.023306 -0.020973 -0.005582 0.022545 -0.009950 0.033059
# 3 -0.000303 -0.005582 0.006889 0.000125 -0.000072 0.002021
# 4 -0.017761 0.022545 0.000125 0.012095 0.004889 -0.012225
# 5 0.009676 -0.009950 -0.000072 0.004889 0.024062 0.005952
# 6 -0.024996 0.033059 0.002021 -0.012225 0.005952 0.013405
#
#
# Mechanical properties :
#
#
# Convention : Reuss Voigt Hill
#
# Bulk Modulus (GPa) = 75.96083 67.90027 71.93055
# Shear Modulus (GPa) = -1945.39280 29.47459 -957.95910
#
# Velocity S-wave (km/s) = -28.87332 3.55400 -20.26127
# Velocity P-wave (km/s) = 32.84823 6.77782 22.72738
#
# Compressibility (1/GPa) = 0.01316468
#
# Stress axis : x y z
#
# Youngs Moduli (GPa) = -131.68586 -47.67986 145.15274
#
# Poissons Ratio (x) = 1.11123 0.04400
# Poissons Ratio (y) = 3.06909 0.81021
# Poissons Ratio (z) = -0.03992 -0.26614
#
# Static dielectric constant tensor:
#      x y z
#    x 3.885270 -0.169120 0.015310 
#    y -0.169120 4.024130 -0.054460 
#    z 0.015310 -0.054460 4.709690 
# 
# 
# High freq. dielectric constant tensor:
#      x y z
#    x 1.909780 -0.006840 0.002290 
#    y -0.006840 1.895590 0.001480 
#    z 0.002290 0.001480 1.955980 
# 
# From -- ./inp_files/461840.got.cif
#   From: 2010.06.25/outbox.cif.g09.slc.cpg/sg2_231_cif.got.tgz:461840.got - 2010.06.27 13:26:56.
