data_PCOD8026904
_publ_section_title
;
Structure prediction by ZEFSAII (Michael W. Deem and Ramdas Pophale) SiO2 
 PCOD8026904
Probable space group: P -1
;
_chemical_formula_sum "Si O2"
_cell_formula_units_Z 14
_cell_length_a 12.657856
_cell_length_b 21.234280
_cell_length_c 14.403750
_cell_angle_alpha 152.068976
_cell_angle_beta 37.491450
_cell_angle_gamma 159.314933
_cell_volume 627.596068
_symmetry_space_group_name_H-M "P -1"
_symmetry_group_IT_number 2
_symmetry_cell_setting 'triclinic'
loop_
_space_group_symop_operation_xyz
x,y,z
-x,-y,-z
loop_
_atom_site_type_symbol
_atom_site_label
_atom_site_fract_x
_atom_site_fract_y
_atom_site_fract_z
Si Si1 0.779788 0.208688 0.682120
Si Si2 0.844704 0.723977 0.011336
Si Si3 0.171388 0.445382 0.897821
Si Si4 0.742710 0.248086 0.206786
Si Si5 0.174549 0.226259 0.118943
Si Si6 0.144966 0.968848 0.304833
Si Si7 0.099661 0.715968 0.502872
O O1 0.929046 0.243623 0.529334
O O2 0.981041 0.302363 0.751323
O O3 0.455132 0.931226 0.562668
O O4 0.745854 0.347449 0.871113
O O5 0.057245 0.934463 0.212936
O O6 0.500000 0.500000 0.000000
O O7 0.856990 0.811538 0.019639
O O8 0.004256 0.679980 0.822004
O O9 0.475066 0.554879 0.811975
O O10 0.993670 0.264286 0.871665
O O11 0.939078 0.468854 0.290838
O O12 0.513252 0.195420 0.360654
O O13 0.500000 0.000000 0.000000
O O14 0.055533 0.292958 0.322646
O O15 0.000000 0.000000 0.000000
O O16 0.000000 0.000000 0.500000
#
# Coordination Sequence:
#
# PCOD8026904 Si02
#       7
#     2   2   2   2   2   2   2
#     4  10  24  43  73  97 139 184 228 294 354 423
#     4  11  25  45  70  98 145 190 228 296 361 412
#     4  11  23  45  68  99 142 185 229 291 360 416
#     4  10  24  43  71 100 138 183 237 293 348 427
#     4  12  26  43  70 105 143 181 239 295 352 426
#     4  11  24  44  69 103 139 186 242 290 353 424
#     4  11  24  45  70 106 134 182 243 284 356 429
#
# _framework density 22.307341000000001
#
# number of rings (size 3 to 8) (size 9 to 14) (size 15 to 20)
#    0.000    1.143    2.857    2.571    2.000    5.714 
#    0.000    0.000    0.000    0.000    0.000    0.000 
#    0.000    0.000    0.000    0.000    0.000    0.000 
#
# Total GULP energy -173522.620398 kJ/mol
# GULP energy per Si atom -12394.472886 kJ/mol
# Density = 2.225657 g / cm^3
# Si number density = 22.307341 Si / 1000 Ang^3
#
#
#
# Elastic Constant Matrix: (Units=GPa)
#
#
# Indices 1 2 3 4 5 6 
#
# 1 128.6814 67.6635 47.4410 4.3403 8.3900 -8.7492
# 2 67.6635 172.9012 45.4270 4.7545 -4.4477 5.5621
# 3 47.4410 45.4270 91.6523 7.9431 4.4206 -7.2223
# 4 4.3403 4.7545 7.9431 48.2602 -5.4013 -5.4285
# 5 8.3900 -4.4477 4.4206 -5.4013 34.7199 -1.0421
# 6 -8.7492 5.5621 -7.2223 -5.4285 -1.0421 37.5678
#
#
#
# Elastic Compliance Matrix: (Units=1/GPa)
#
#
# Indices 1 2 3 4 5 6 
#
# 1 0.011406 -0.003611 -0.003791 -0.000078 -0.002677 0.002377
# 2 -0.003611 0.007951 -0.002355 -0.000109 0.002101 -0.002428
# 3 -0.003791 -0.002355 0.014414 -0.001741 -0.001433 0.001945
# 4 -0.000078 -0.000109 -0.001741 0.021767 0.003700 0.002911
# 5 -0.002677 0.002101 -0.001433 0.003700 0.030481 0.000170
# 6 0.002377 -0.002428 0.001945 0.002911 0.000170 0.028331
#
#
# Mechanical properties :
#
#
# Convention : Reuss Voigt Hill
#
# Bulk Modulus (GPa) = 70.14256 79.36645 74.75451
# Shear Modulus (GPa) = 36.07097 39.62314 37.84705
#
# Velocity S-wave (km/s) = 4.02556 4.21912 4.12347
# Velocity P-wave (km/s) = 7.28826 7.70652 7.50031
#
# Compressibility (1/GPa) = 0.01425668
#
# Stress axis : x y z
#
# Youngs Moduli (GPa) = 87.67112 125.77697 69.37846
#
# Poissons Ratio (x) = 0.45416 0.26303
# Poissons Ratio (y) = 0.31656 0.16338
# Poissons Ratio (z) = 0.33238 0.29619
#
# Static dielectric constant tensor:
#      x y z
#    x 3.995290 0.081400 -0.108960 
#    y 0.081400 4.562670 -0.114440 
#    z -0.108960 -0.114440 4.018870 
# 
# 
# High freq. dielectric constant tensor:
#      x y z
#    x 1.872170 -0.001300 0.000180 
#    y -0.001300 1.903070 -0.001480 
#    z 0.000180 -0.001480 1.873350 
# 
# From -- ./inp_files/190868.got.cif
#   From: 2010.06.25/outbox.cif.g09.slc.cpg/sg2_96_cif.got.tgz:190868.got - 2010.06.27 13:26:56.
