data_PCOD8026392
_publ_section_title
;
Structure prediction by ZEFSAII (Michael W. Deem and Ramdas Pophale) SiO2 
 PCOD8026392
Probable space group: P -1
;
_chemical_formula_sum "Si O2"
_cell_formula_units_Z 12
_cell_length_a 11.853740
_cell_length_b 5.307323
_cell_length_c 9.285122
_cell_angle_alpha 65.774644
_cell_angle_beta 87.300710
_cell_angle_gamma 61.281865
_cell_volume 458.878219
_symmetry_space_group_name_H-M "P -1"
_symmetry_group_IT_number 2
_symmetry_cell_setting 'triclinic'
loop_
_space_group_symop_operation_xyz
x,y,z
-x,-y,-z
loop_
_atom_site_type_symbol
_atom_site_label
_atom_site_fract_x
_atom_site_fract_y
_atom_site_fract_z
Si Si1 0.492114 0.366254 0.684702
Si Si2 0.994016 0.262429 0.244018
Si Si3 0.642178 0.289941 0.960277
Si Si4 0.116633 0.638280 0.066713
Si Si5 0.106811 0.598790 0.482704
Si Si6 0.344912 0.016942 0.703566
O O1 0.500000 0.500000 0.500000
O O2 0.620902 0.200961 0.819668
O O3 0.460815 0.084474 0.722897
O O4 0.387380 0.680749 0.703642
O O5 0.088586 0.412862 0.228914
O O6 0.905027 0.279684 0.379972
O O7 0.088548 0.873063 0.305052
O O8 0.895459 0.454194 0.075368
O O9 0.735323 0.440999 0.899097
O O10 0.500000 0.500000 0.000000
O O11 0.720625 0.987261 0.136421
O O12 0.000000 0.000000 0.000000
O O13 0.250188 0.289741 0.533505
O O14 0.000000 0.500000 0.500000
#
# Coordination Sequence:
#
# PCOD8026392 Si02
#       6
#     2   2   2   2   2   2
#     4  11  26  49  72 111 148 196 255 324 383 453
#     4  10  24  41  73 105 150 197 241 321 380 455
#     4  10  24  47  77 104 149 202 254 310 383 462
#     4  11  23  47  70 111 147 189 256 315 383 453
#     4  11  24  43  70 108 148 195 255 306 387 454
#     4  11  25  47  76 105 151 199 257 310 387 462
#
# _framework density 26.150728999999998
#
# number of rings (size 3 to 8) (size 9 to 14) (size 15 to 20)
#    0.000    1.333    0.000    4.000    9.333    2.667 
#   18.000    0.000    0.000    0.000    0.000    0.000 
#    0.000    0.000    0.000    0.000    0.000    0.000 
#
# Total GULP energy -148658.375915 kJ/mol
# GULP energy per Si atom -12388.197993 kJ/mol
# Density = 2.609121 g / cm^3
# Si number density = 26.150729 Si / 1000 Ang^3
#
#
#
# Elastic Constant Matrix: (Units=GPa)
#
#
# Indices 1 2 3 4 5 6 
#
# 1 150.6811 13.3354 14.0488 -5.2024 -5.6550 16.6212
# 2 13.3354 62.0827 -9.8228 -16.1934 -8.6773 7.8718
# 3 14.0488 -9.8228 141.4011 -10.2820 -2.8115 3.7353
# 4 -5.2024 -16.1934 -10.2820 45.3538 6.9426 -3.5879
# 5 -5.6550 -8.6773 -2.8115 6.9426 43.5759 -9.6026
# 6 16.6212 7.8718 3.7353 -3.5879 -9.6026 34.4107
#
#
#
# Elastic Compliance Matrix: (Units=1/GPa)
#
#
# Indices 1 2 3 4 5 6 
#
# 1 0.007156 -0.001274 -0.000721 -0.000035 -0.000050 -0.003104
# 2 -0.001274 0.019059 0.002043 0.006585 0.002120 -0.002688
# 3 -0.000721 0.002043 0.007471 0.002246 0.000303 -0.000611
# 4 -0.000035 0.006585 0.002246 0.025309 -0.002537 0.000198
# 5 -0.000050 0.002120 0.000303 -0.002537 0.025169 0.006265
# 6 -0.003104 -0.002688 -0.000611 0.000198 0.006265 0.033011
#
#
# Mechanical properties :
#
#
# Convention : Reuss Voigt Hill
#
# Bulk Modulus (GPa) = 29.60204 43.25418 36.42811
# Shear Modulus (GPa) = 38.95932 47.10829 43.03381
#
# Velocity S-wave (km/s) = 3.86398 4.24891 4.06101
# Velocity P-wave (km/s) = 5.59030 6.37552 5.99578
#
# Compressibility (1/GPa) = 0.03378146
#
# Stress axis : x y z
#
# Youngs Moduli (GPa) = 139.74627 52.46859 133.84979
#
# Poissons Ratio (x) = 0.06683 0.09651
# Poissons Ratio (y) = 0.17800 -0.27339
# Poissons Ratio (z) = 0.10076 -0.10717
#
# Static dielectric constant tensor:
#      x y z
#    x 4.521230 0.421740 1.340650 
#    y 0.421740 4.716610 -0.840400 
#    z 1.340650 -0.840400 1.333640 
# 
# 
# High freq. dielectric constant tensor:
#      x y z
#    x 2.031610 0.019280 0.012160 
#    y 0.019280 2.040510 -0.003300 
#    z 0.012160 -0.003300 2.079230 
# 
# From -- ./inp_files/27078.got.cif
#   From: 2010.06.25/outbox.cif.g09.slc.cpg/sg2_14_cif.got.tgz:27078.got - 2010.06.27 13:26:56.
