data_PCOD8026816
_publ_section_title
;
Structure prediction by ZEFSAII (Michael W. Deem and Ramdas Pophale) SiO2 
 PCOD8026816
Probable space group: P -1
;
_chemical_formula_sum "Si O2"
_cell_formula_units_Z 16
_cell_length_a 11.225386
_cell_length_b 6.856593
_cell_length_c 22.100330
_cell_angle_alpha 66.309703
_cell_angle_beta 32.261225
_cell_angle_gamma 55.710690
_cell_volume 739.354050
_symmetry_space_group_name_H-M "P -1"
_symmetry_group_IT_number 2
_symmetry_cell_setting 'triclinic'
loop_
_space_group_symop_operation_xyz
x,y,z
-x,-y,-z
loop_
_atom_site_type_symbol
_atom_site_label
_atom_site_fract_x
_atom_site_fract_y
_atom_site_fract_z
Si Si1 0.235846 0.373185 0.557493
Si Si2 0.410406 0.391384 0.784813
Si Si3 0.568572 0.967979 0.376755
Si Si4 0.708032 0.007623 0.868290
Si Si5 0.032312 0.891725 0.850552
Si Si6 0.556053 0.065868 0.112871
Si Si7 0.683869 0.462594 0.768212
Si Si8 0.253985 0.821507 0.446258
O O1 0.304136 0.278025 0.608723
O O2 0.208345 0.639409 0.532004
O O3 0.976475 0.381509 0.647635
O O4 0.452453 0.196841 0.441802
O O5 0.147257 0.627694 0.861984
O O6 0.348969 0.185189 0.862131
O O7 0.591997 0.449543 0.742238
O O8 0.536322 0.326614 0.673754
O O9 0.350385 0.972915 0.427109
O O10 0.778648 0.990764 0.242079
O O11 0.692821 0.886072 0.826214
O O12 0.639405 0.283896 0.853791
O O13 0.971026 0.875203 0.807449
O O14 0.500000 0.000000 0.000000
O O15 0.781402 0.057857 0.975448
O O16 0.477315 0.271875 0.170239
O O17 0.000000 0.000000 0.500000
#
# Coordination Sequence:
#
# PCOD8026816 Si02
#       8
#     2   2   2   2   2   2   2   2
#     4  11  24  45  68  94 132 167 216 278 317 382
#     4  11  25  42  64  98 133 169 219 265 323 381
#     4  11  25  45  67  97 130 170 218 267 331 376
#     4   9  21  43  65  95 128 169 216 264 317 379
#     4  11  22  45  66  96 133 170 213 272 321 384
#     4  10  24  43  68  94 133 173 216 262 323 388
#     4  11  23  43  67  98 130 174 215 264 326 381
#     4  12  26  43  68  97 129 174 220 264 323 389
#
# _framework density 21.640511
#
# number of rings (size 3 to 8) (size 9 to 14) (size 15 to 20)
#    0.000    1.250    2.500    2.250    3.500    5.500 
#    6.750    0.000    0.000    0.000    0.000    0.000 
#    0.000    0.000    0.000    0.000    0.000    0.000 
#
# Total GULP energy -198441.806674 kJ/mol
# GULP energy per Si atom -12402.612917 kJ/mol
# Density = 2.159126 g / cm^3
# Si number density = 21.640511 Si / 1000 Ang^3
#
#
#
# Elastic Constant Matrix: (Units=GPa)
#
#
# Indices 1 2 3 4 5 6 
#
# 1 102.6489 39.3792 16.2824 -8.6448 -13.3704 -8.3434
# 2 39.3792 98.0019 31.6072 -25.5514 -6.9861 -7.9428
# 3 16.2824 31.6072 80.9112 -9.0368 -5.0368 1.3774
# 4 -8.6448 -25.5514 -9.0368 35.0440 -2.2285 -1.4799
# 5 -13.3704 -6.9861 -5.0368 -2.2285 32.9214 0.5196
# 6 -8.3434 -7.9428 1.3774 -1.4799 0.5196 37.6535
#
#
#
# Elastic Compliance Matrix: (Units=1/GPa)
#
#
# Indices 1 2 3 4 5 6 
#
# 1 0.012119 -0.004251 -0.000557 0.000070 0.003912 0.001758
# 2 -0.004251 0.016262 -0.004335 0.009925 0.001686 0.003014
# 3 -0.000557 -0.004335 0.014303 0.000394 0.001093 -0.001561
# 4 0.000070 0.009925 0.000394 0.036330 0.004599 0.003459
# 5 0.003912 0.001686 0.001093 0.004599 0.032786 0.000911
# 6 0.001758 0.003014 -0.001561 0.003459 0.000911 0.027764
#
#
# Mechanical properties :
#
#
# Convention : Reuss Voigt Hill
#
# Bulk Modulus (GPa) = 40.98474 50.67774 45.83124
# Shear Modulus (GPa) = 30.12361 34.07666 32.10013
#
# Velocity S-wave (km/s) = 3.73500 3.97252 3.85559
# Velocity P-wave (km/s) = 6.13028 6.67158 6.40665
#
# Compressibility (1/GPa) = 0.02439932
#
# Stress axis : x y z
#
# Youngs Moduli (GPa) = 82.51345 61.49240 69.91332
#
# Poissons Ratio (x) = 0.26138 0.03894
# Poissons Ratio (y) = 0.35073 0.30308
# Poissons Ratio (z) = 0.04596 0.26658
#
# Static dielectric constant tensor:
#      x y z
#    x 4.841790 -0.328270 -0.376430 
#    y -0.328270 3.993180 -0.076840 
#    z -0.376430 -0.076840 3.985190 
# 
# 
# High freq. dielectric constant tensor:
#      x y z
#    x 1.861920 -0.010290 -0.003790 
#    y -0.010290 1.850320 -0.016870 
#    z -0.003790 -0.016870 1.849800 
# 
# From -- ./inp_files/349388.got.cif
#   From: 2010.06.25/outbox.cif.g09.slc.cpg/sg2_175_cif.got.tgz:349388.got - 2010.06.27 13:26:56.
