data_PCOD8026004
_publ_section_title
;
Structure prediction by ZEFSAII (Michael W. Deem and Ramdas Pophale) SiO2 
 PCOD8026004
Probable space group: P -1
;
_chemical_formula_sum "Si O2"
_cell_formula_units_Z 16
_cell_length_a 8.955274
_cell_length_b 4.954107
_cell_length_c 20.241824
_cell_angle_alpha 92.735640
_cell_angle_beta 50.060567
_cell_angle_gamma 110.273868
_cell_volume 626.539427
_symmetry_space_group_name_H-M "P -1"
_symmetry_group_IT_number 2
_symmetry_cell_setting 'triclinic'
loop_
_space_group_symop_operation_xyz
x,y,z
-x,-y,-z
loop_
_atom_site_type_symbol
_atom_site_label
_atom_site_fract_x
_atom_site_fract_y
_atom_site_fract_z
Si Si1 0.700346 0.833956 0.786811
Si Si2 0.953389 0.485269 0.760819
Si Si3 0.444742 0.322421 0.776137
Si Si4 0.286726 0.863247 0.921787
Si Si5 0.968649 0.607210 0.115860
Si Si6 0.286761 0.338478 0.602313
Si Si7 0.810664 0.791639 0.506793
Si Si8 0.548560 0.142006 0.613970
O O1 0.873059 0.741876 0.772788
O O2 0.629685 0.660435 0.734204
O O3 0.466657 0.740603 0.887660
O O4 0.808169 0.189477 0.757623
O O5 0.933030 0.447136 0.844935
O O6 0.196346 0.555649 0.667918
O O7 0.223004 0.304385 0.809633
O O8 0.519778 0.137205 0.701196
O O9 0.411124 0.187886 0.858232
O O10 0.120071 0.678721 0.909729
O O11 0.157639 0.868652 0.024647
O O12 0.500000 0.500000 0.500000
O O13 0.117513 0.151487 0.590543
O O14 0.331965 0.122566 0.638828
O O15 0.745195 0.449905 0.540855
O O16 0.601851 0.864090 0.577198
O O17 0.000000 0.000000 0.500000
#
# Coordination Sequence:
#
# PCOD8026004 Si02
#       8
#     2   2   2   2   2   2   2   2
#     4  11  27  44  69 103 146 185 226 293 353 417
#     4  12  26  47  71 106 139 188 233 295 353 420
#     4  11  23  45  71 100 145 185 242 276 357 412
#     4  10  23  47  71 107 142 190 230 295 340 428
#     4  10  24  43  75 105 139 187 242 284 352 416
#     4  10  25  48  69 100 139 181 233 290 347 414
#     4  11  26  43  69 103 136 176 227 288 353 414
#     4  11  25  43  71  97 135 183 226 285 343 416
#
# _framework density 25.537098
#
# number of rings (size 3 to 8) (size 9 to 14) (size 15 to 20)
#    0.000    1.250    2.500    1.125    8.750    5.000 
#    0.000    0.000    0.000    0.000    0.000    0.000 
#    0.000    0.000    0.000    0.000    0.000    0.000 
#
# Total GULP energy -198265.232417 kJ/mol
# GULP energy per Si atom -12391.577026 kJ/mol
# Density = 2.547897 g / cm^3
# Si number density = 25.537098 Si / 1000 Ang^3
#
#
#
# Elastic Constant Matrix: (Units=GPa)
#
#
# Indices 1 2 3 4 5 6 
#
# 1 93.3250 -15.5586 5.9305 -2.4972 -13.0229 4.6131
# 2 -15.5586 37.7265 -11.9459 1.9833 -7.6950 -6.5353
# 3 5.9305 -11.9459 62.6885 7.9654 5.0564 13.9827
# 4 -2.4972 1.9833 7.9654 28.2001 1.5375 -2.0616
# 5 -13.0229 -7.6950 5.0564 1.5375 33.1072 5.8135
# 6 4.6131 -6.5353 13.9827 -2.0616 5.8135 32.8903
#
#
#
# Elastic Compliance Matrix: (Units=1/GPa)
#
#
# Indices 1 2 3 4 5 6 
#
# 1 0.012821 0.006308 -0.000230 0.000265 0.006820 -0.001636
# 2 0.006308 0.033073 0.005036 -0.003572 0.009270 0.001683
# 3 -0.000230 0.005036 0.019464 -0.006414 -0.000260 -0.007598
# 4 0.000265 -0.003572 -0.006414 0.038025 -0.002351 0.004779
# 5 0.006820 0.009270 -0.000260 -0.002351 0.036164 -0.005543
# 6 -0.001636 0.001683 -0.007598 0.004779 -0.005543 0.035477
#
#
# Mechanical properties :
#
#
# Convention : Reuss Voigt Hill
#
# Bulk Modulus (GPa) = 11.41704 16.73244 14.07474
# Shear Modulus (GPa) = 27.47397 33.19378 30.33387
#
# Velocity S-wave (km/s) = 3.28357 3.60922 3.45024
# Velocity P-wave (km/s) = 4.34237 4.89235 4.62554
#
# Compressibility (1/GPa) = 0.08758838
#
# Stress axis : x y z
#
# Youngs Moduli (GPa) = 77.99624 30.23615 51.37697
#
# Poissons Ratio (x) = -0.19074 0.01180
# Poissons Ratio (y) = -0.49203 -0.25875
# Poissons Ratio (z) = 0.01791 -0.15228
#
# Static dielectric constant tensor:
#      x y z
#    x 5.035100 0.247920 -0.189590 
#    y 0.247920 4.476480 0.075710 
#    z -0.189590 0.075710 4.787660 
# 
# 
# High freq. dielectric constant tensor:
#      x y z
#    x 2.028560 0.010390 -0.012970 
#    y 0.010390 2.014870 0.007540 
#    z -0.012970 0.007540 2.014990 
# 
# From -- ./inp_files/585316.got.cif
#   From: 2010.06.25/outbox.cif.g09.slc.cpg/sg2_293_cif.got.tgz:585316.got - 2010.06.27 13:26:56.
