data_PCOD8026068
_publ_section_title
;
Structure prediction by ZEFSAII (Michael W. Deem and Ramdas Pophale) SiO2 
 PCOD8026068
Probable space group: P -1
;
_chemical_formula_sum "Si O2"
_cell_formula_units_Z 16
_cell_length_a 14.422355
_cell_length_b 26.627650
_cell_length_c 8.396066
_cell_angle_alpha 49.767712
_cell_angle_beta 139.035840
_cell_angle_gamma 159.984549
_cell_volume 693.824288
_symmetry_space_group_name_H-M "P -1"
_symmetry_group_IT_number 2
_symmetry_cell_setting 'triclinic'
loop_
_space_group_symop_operation_xyz
x,y,z
-x,-y,-z
loop_
_atom_site_type_symbol
_atom_site_label
_atom_site_fract_x
_atom_site_fract_y
_atom_site_fract_z
Si Si1 0.010921 0.129401 0.007761
Si Si2 0.202315 0.729982 0.327864
Si Si3 0.508700 0.434800 0.867072
Si Si4 0.451854 0.405635 0.483324
Si Si5 0.656104 0.875472 0.886806
Si Si6 0.177331 0.862114 0.962287
Si Si7 0.660992 0.848736 0.466437
Si Si8 0.637056 0.343616 0.797911
O O1 0.193306 0.262783 0.872547
O O2 0.886697 0.103848 0.070993
O O3 0.275282 0.181795 0.260669
O O4 0.702529 0.966262 0.849075
O O5 0.332365 0.745521 0.620415
O O6 0.174887 0.795018 0.202979
O O7 0.501414 0.845389 0.350762
O O8 0.841566 0.555637 0.150611
O O9 0.564750 0.443980 0.733676
O O10 0.401912 0.467157 0.671584
O O11 0.542244 0.378293 0.559881
O O12 0.064436 0.247545 0.277210
O O13 0.595115 0.788654 0.102473
O O14 0.000000 0.000000 0.000000
O O15 0.500000 0.000000 0.000000
O O16 0.373077 0.703861 0.275295
O O17 0.000000 0.000000 0.500000
O O18 0.000000 0.500000 0.000000
#
# Coordination Sequence:
#
# PCOD8026068 Si02
#       8
#     2   2   2   2   2   2   2   2
#     4  12  25  45  74 104 139 193 234 299 360 427
#     4  11  26  45  68 105 142 187 240 293 353 431
#     4  10  25  46  74 101 143 189 241 293 366 426
#     4  10  23  48  70 100 145 190 231 299 358 425
#     4  12  26  45  71 107 147 186 233 301 359 424
#     4  11  26  44  73 102 142 190 240 297 358 426
#     4  12  23  44  69 100 144 186 240 290 356 423
#     4  12  26  42  72 104 140 188 241 290 357 428
#
# _framework density 23.060592
#
# number of rings (size 3 to 8) (size 9 to 14) (size 15 to 20)
#    0.000    0.750    3.750    2.250    5.250    4.000 
#    0.000    0.000    0.000    0.000    0.000    0.000 
#    0.000    0.000    0.000    0.000    0.000    0.000 
#
# Total GULP energy -198212.861825 kJ/mol
# GULP energy per Si atom -12388.303864 kJ/mol
# Density = 2.300811 g / cm^3
# Si number density = 23.060592 Si / 1000 Ang^3
#
#
#
# Elastic Constant Matrix: (Units=GPa)
#
#
# Indices 1 2 3 4 5 6 
#
# 1 88.2471 30.4292 24.5022 1.9536 2.2113 -20.4692
# 2 30.4292 119.9934 29.0854 1.5089 3.0475 -9.1391
# 3 24.5022 29.0854 124.6208 7.8240 -10.4572 -13.9029
# 4 1.9536 1.5089 7.8240 31.0838 -8.5146 -4.4750
# 5 2.2113 3.0475 -10.4572 -8.5146 39.0935 1.9178
# 6 -20.4692 -9.1391 -13.9029 -4.4750 1.9178 33.3916
#
#
#
# Elastic Compliance Matrix: (Units=1/GPa)
#
#
# Indices 1 2 3 4 5 6 
#
# 1 0.014473 -0.002697 -0.001496 0.000338 -0.001309 0.007631
# 2 -0.002697 0.009489 -0.001739 -0.000114 -0.001090 0.000267
# 3 -0.001496 -0.001739 0.009235 -0.001199 0.002324 0.002158
# 4 0.000338 -0.000114 -0.001199 0.034969 0.007091 0.003956
# 5 -0.001309 -0.001090 0.002324 0.007091 0.027943 -0.000788
# 6 0.007631 0.000267 0.002158 0.003956 -0.000788 0.036173
#
#
# Mechanical properties :
#
#
# Convention : Reuss Voigt Hill
#
# Bulk Modulus (GPa) = 46.87596 55.65500 51.26548
# Shear Modulus (GPa) = 33.05640 37.30340 35.17990
#
# Velocity S-wave (km/s) = 3.79021 4.02633 3.91006
# Velocity P-wave (km/s) = 6.28695 6.76770 6.53175
#
# Compressibility (1/GPa) = 0.02133290
#
# Stress axis : x y z
#
# Youngs Moduli (GPa) = 69.09595 105.38816 108.28060
#
# Poissons Ratio (x) = 0.28427 0.16196
# Poissons Ratio (y) = 0.18638 0.18828
# Poissons Ratio (z) = 0.10335 0.18325
#
# Static dielectric constant tensor:
#      x y z
#    x 4.300540 -0.614320 -0.139260 
#    y -0.614320 4.048960 0.127730 
#    z -0.139260 0.127730 4.137110 
# 
# 
# High freq. dielectric constant tensor:
#      x y z
#    x 1.908550 -0.021630 -0.003680 
#    y -0.021630 1.910060 0.003260 
#    z -0.003680 0.003260 1.924340 
# 
# From -- ./inp_files/320690.got.cif
#   From: 2010.06.25/outbox.cif.g09.slc.cpg/sg2_161_cif.got.tgz:320690.got - 2010.06.27 13:26:56.
