data_PCOD8026498
_publ_section_title
;
Structure prediction by ZEFSAII (Michael W. Deem and Ramdas Pophale) SiO2 
 PCOD8026498
Probable space group: P -1
;
_chemical_formula_sum "Si O2"
_cell_formula_units_Z 16
_cell_length_a 7.774409
_cell_length_b 6.457644
_cell_length_c 18.428559
_cell_angle_alpha 67.239920
_cell_angle_beta 64.588301
_cell_angle_gamma 62.202278
_cell_volume 718.765900
_symmetry_space_group_name_H-M "P -1"
_symmetry_group_IT_number 2
_symmetry_cell_setting 'triclinic'
loop_
_space_group_symop_operation_xyz
x,y,z
-x,-y,-z
loop_
_atom_site_type_symbol
_atom_site_label
_atom_site_fract_x
_atom_site_fract_y
_atom_site_fract_z
Si Si1 0.722047 0.487068 0.388171
Si Si2 0.604908 0.978660 0.905117
Si Si3 0.614776 0.086661 0.529037
Si Si4 0.394789 0.825327 0.836245
Si Si5 0.872775 0.658208 0.213572
Si Si6 0.895913 0.568269 0.587670
Si Si7 0.720739 0.399987 0.766372
Si Si8 0.044980 0.622717 0.906423
O O1 0.733108 0.223983 0.443538
O O2 0.523352 0.713887 0.416905
O O3 0.766762 0.487329 0.294476
O O4 0.916624 0.521851 0.381158
O O5 0.487287 0.845957 0.895736
O O6 0.846105 0.835834 0.885487
O O7 0.595878 0.226328 0.833142
O O8 0.500000 0.000000 0.000000
O O9 0.500000 0.000000 0.500000
O O10 0.767093 0.854614 0.574760
O O11 0.577162 0.671532 0.772631
O O12 0.223116 0.709032 0.889372
O O13 0.292713 0.078292 0.781580
O O14 0.889806 0.585302 0.137091
O O15 0.083204 0.658177 0.209475
O O16 0.765459 0.415235 0.668137
O O17 0.000000 0.500000 0.500000
O O18 0.000000 0.500000 0.000000
#
# Coordination Sequence:
#
# PCOD8026498 Si02
#       8
#     2   2   2   2   2   2   2   2
#     4  10  24  42  66  98 133 181 227 288 341 411
#     4  12  27  47  74 109 144 183 235 293 351 426
#     4  11  22  41  65  96 135 179 227 281 347 406
#     4  12  25  47  74 101 144 187 229 295 352 415
#     4  11  24  45  70 101 139 181 241 286 352 417
#     4  11  23  44  68  98 139 181 229 287 343 409
#     4  11  25  46  71 104 140 186 236 291 355 417
#     4  12  27  46  73 105 140 188 232 292 354 421
#
# _framework density 22.260376999999998
#
# number of rings (size 3 to 8) (size 9 to 14) (size 15 to 20)
#    0.000    0.750    3.750    3.375    1.750    6.000 
#    2.250    0.000    0.000    0.000    0.000    0.000 
#    0.000    0.000    0.000    0.000    0.000    0.000 
#
# Total GULP energy -198228.257500 kJ/mol
# GULP energy per Si atom -12389.266094 kJ/mol
# Density = 2.220971 g / cm^3
# Si number density = 22.260377 Si / 1000 Ang^3
#
#
#
# Elastic Constant Matrix: (Units=GPa)
#
#
# Indices 1 2 3 4 5 6 
#
# 1 104.5959 27.5575 29.0311 5.8542 -2.3967 -1.1656
# 2 27.5575 100.1357 37.6925 -7.9191 3.6075 -18.5861
# 3 29.0311 37.6925 171.0211 -12.3707 1.7839 10.2768
# 4 5.8542 -7.9191 -12.3707 34.0179 6.2791 -0.7643
# 5 -2.3967 3.6075 1.7839 6.2791 19.7408 0.1098
# 6 -1.1656 -18.5861 10.2768 -0.7643 0.1098 46.2173
#
#
#
# Elastic Compliance Matrix: (Units=1/GPa)
#
#
# Indices 1 2 3 4 5 6 
#
# 1 0.011042 -0.003023 -0.001472 -0.003749 0.003223 -0.000680
# 2 -0.003023 0.013248 -0.002465 0.003526 -0.003720 0.005867
# 3 -0.001472 -0.002465 0.006975 0.002361 -0.001095 -0.002538
# 4 -0.003749 0.003526 0.002361 0.033992 -0.012133 0.001389
# 5 0.003223 -0.003720 -0.001095 -0.012133 0.055694 -0.001504
# 6 -0.000680 0.005867 -0.002538 0.001389 -0.001504 0.024570
#
#
# Mechanical properties :
#
#
# Convention : Reuss Voigt Hill
#
# Bulk Modulus (GPa) = 57.65743 62.70166 60.17955
# Shear Modulus (GPa) = 30.26195 38.75997 34.51096
#
# Velocity S-wave (km/s) = 3.69108 4.17731 3.94170
# Velocity P-wave (km/s) = 6.64251 7.17601 6.91441
#
# Compressibility (1/GPa) = 0.01734382
#
# Stress axis : x y z
#
# Youngs Moduli (GPa) = 90.56445 75.48135 143.36555
#
# Poissons Ratio (x) = 0.22821 0.21103
# Poissons Ratio (y) = 0.27382 0.35344
# Poissons Ratio (z) = 0.13331 0.18609
#
# Static dielectric constant tensor:
#      x y z
#    x 3.674040 0.024910 -0.902520 
#    y 0.024910 3.742290 0.794080 
#    z -0.902520 0.794080 1.632770 
# 
# 
# High freq. dielectric constant tensor:
#      x y z
#    x 1.888410 -0.016640 -0.007130 
#    y -0.016640 1.878320 -0.006050 
#    z -0.007130 -0.006050 1.892650 
# 
# From -- ./inp_files/553345.got.cif
#   From: 2010.06.25/outbox.cif.g09.slc.cpg/sg2_277_cif.got.tgz:553345.got - 2010.06.27 13:26:56.
