data_PCOD8026417
_publ_section_title
;
Structure prediction by ZEFSAII (Michael W. Deem and Ramdas Pophale) SiO2 
 PCOD8026417
Probable space group: P -1
;
_chemical_formula_sum "Si O2"
_cell_formula_units_Z 14
_cell_length_a 18.965454
_cell_length_b 12.392618
_cell_length_c 8.815142
_cell_angle_alpha 31.741748
_cell_angle_beta 127.537373
_cell_angle_gamma 143.891793
_cell_volume 621.789735
_symmetry_space_group_name_H-M "P -1"
_symmetry_group_IT_number 2
_symmetry_cell_setting 'triclinic'
loop_
_space_group_symop_operation_xyz
x,y,z
-x,-y,-z
loop_
_atom_site_type_symbol
_atom_site_label
_atom_site_fract_x
_atom_site_fract_y
_atom_site_fract_z
Si Si1 0.707119 0.772881 0.347355
Si Si2 0.432043 0.287635 0.025733
Si Si3 0.202887 0.986736 0.261321
Si Si4 0.127863 0.594933 0.097319
Si Si5 0.661217 0.516395 0.913476
Si Si6 0.846155 0.492798 0.088827
Si Si7 0.904684 0.889756 0.270273
O O1 0.649612 0.595663 0.637526
O O2 0.812051 0.787899 0.407747
O O3 0.595153 0.603454 0.281798
O O4 0.772704 0.099019 0.060031
O O5 0.297730 0.013955 0.242604
O O6 0.500000 0.500000 0.000000
O O7 0.523512 0.257842 0.113746
O O8 0.116754 0.665566 0.595622
O O9 0.268107 0.203594 0.227155
O O10 0.127599 0.040449 0.009257
O O11 0.099154 0.362699 0.455623
O O12 0.190600 0.607557 0.012577
O O13 0.000000 0.500000 0.000000
O O14 0.729839 0.408685 0.123716
O O15 0.958527 0.830553 0.835320
#
# Coordination Sequence:
#
# PCOD8026417 Si02
#       7
#     2   2   2   2   2   2   2
#     4  11  21  41  70  94 130 170 214 263 321 381
#     4   9  22  44  67  92 127 173 215 266 322 374
#     4  10  24  42  63  93 132 168 216 265 319 380
#     4  12  23  40  66  98 134 169 214 259 319 391
#     4  11  22  41  65  94 129 167 216 271 316 375
#     4  12  23  39  65  97 131 171 216 260 319 385
#     4  11  24  41  64  98 131 170 212 263 323 382
#
# _framework density 22.515650000000001
#
# number of rings (size 3 to 8) (size 9 to 14) (size 15 to 20)
#    0.000    1.143    4.286    2.143    0.000    3.429 
#    0.000    6.429    0.000    0.000    0.000    0.000 
#    0.000    0.000    0.000    0.000    0.000    0.000 
#
# Total GULP energy -173505.290145 kJ/mol
# GULP energy per Si atom -12393.235010 kJ/mol
# Density = 2.246440 g / cm^3
# Si number density = 22.515650 Si / 1000 Ang^3
#
#
#
# Elastic Constant Matrix: (Units=GPa)
#
#
# Indices 1 2 3 4 5 6 
#
# 1 102.6152 21.2674 13.0362 21.5508 14.9834 4.8737
# 2 21.2674 91.7928 31.4107 23.5956 3.9988 -8.8748
# 3 13.0362 31.4107 144.8051 14.0385 17.3020 -10.1697
# 4 21.5508 23.5956 14.0385 26.7507 -3.7683 -3.4293
# 5 14.9834 3.9988 17.3020 -3.7683 26.9321 10.4991
# 6 4.8737 -8.8748 -10.1697 -3.4293 10.4991 32.6836
#
#
#
# Elastic Compliance Matrix: (Units=1/GPa)
#
#
# Indices 1 2 3 4 5 6 
#
# 1 0.013920 0.000348 0.001307 -0.013661 -0.010716 0.000434
# 2 0.000348 0.015244 -0.001152 -0.013335 -0.005133 0.003979
# 3 0.001307 -0.001152 0.008932 -0.005384 -0.008817 0.004539
# 4 -0.013661 -0.013335 -0.005384 0.065816 0.023807 -0.004001
# 5 -0.010716 -0.005133 -0.008817 0.023807 0.060434 -0.019455
# 6 0.000434 0.003979 0.004539 -0.004001 -0.019455 0.038854
#
#
# Mechanical properties :
#
#
# Convention : Reuss Voigt Hill
#
# Bulk Modulus (GPa) = 25.57480 52.29354 38.93417
# Shear Modulus (GPa) = 23.23106 35.50655 29.36881
#
# Velocity S-wave (km/s) = 3.21561 3.97542 3.61553
# Velocity P-wave (km/s) = 5.01699 6.65941 5.89568
#
# Compressibility (1/GPa) = 0.03910099
#
# Stress axis : x y z
#
# Youngs Moduli (GPa) = 71.83859 65.60056 111.95154
#
# Poissons Ratio (x) = -0.02284 -0.14628
# Poissons Ratio (y) = -0.02501 0.12902
# Poissons Ratio (z) = -0.09387 0.07560
#
# Static dielectric constant tensor:
#      x y z
#    x 4.526530 0.005440 -0.088020 
#    y 0.005440 3.973030 0.158800 
#    z -0.088020 0.158800 3.907460 
# 
# 
# High freq. dielectric constant tensor:
#      x y z
#    x 1.903720 -0.004030 -0.006790 
#    y -0.004030 1.875720 0.019980 
#    z -0.006790 0.019980 1.879760 
# 
# From -- ./inp_files/27548.got.cif
#   From: 2010.06.25/outbox.cif.g09.slc.cpg/sg2_14_cif.got.tgz:27548.got - 2010.06.27 13:26:56.
