data_PCOD8026671
_publ_section_title
;
Structure prediction by ZEFSAII (Michael W. Deem and Ramdas Pophale) SiO2 
 PCOD8026671
Probable space group: P -1
;
_chemical_formula_sum "Si O2"
_cell_formula_units_Z 16
_cell_length_a 6.658985
_cell_length_b 20.377258
_cell_length_c 9.788013
_cell_angle_alpha 131.432194
_cell_angle_beta 48.645002
_cell_angle_gamma 108.725304
_cell_volume 731.350571
_symmetry_space_group_name_H-M "P -1"
_symmetry_group_IT_number 2
_symmetry_cell_setting 'triclinic'
loop_
_space_group_symop_operation_xyz
x,y,z
-x,-y,-z
loop_
_atom_site_type_symbol
_atom_site_label
_atom_site_fract_x
_atom_site_fract_y
_atom_site_fract_z
Si Si1 0.016762 0.884279 0.467337
Si Si2 0.582806 0.852732 0.812523
Si Si3 0.360014 0.415780 0.949768
Si Si4 0.152711 0.197452 0.098876
Si Si5 0.419237 0.702796 0.057393
Si Si6 0.032551 0.077207 0.760909
Si Si7 0.405035 0.690633 0.558467
Si Si8 0.255204 0.585055 0.732672
O O1 0.729716 0.898324 0.692578
O O2 0.215940 0.796012 0.311819
O O3 0.957533 0.873031 0.318906
O O4 0.153177 0.970807 0.548807
O O5 0.738124 0.857144 0.890792
O O6 0.593107 0.748512 0.630658
O O7 0.279372 0.909986 0.033876
O O8 0.509188 0.348001 0.903135
O O9 0.402310 0.372427 0.721057
O O10 0.500000 0.500000 0.000000
O O11 0.036409 0.444920 0.167176
O O12 0.835415 0.242917 0.322796
O O13 0.311862 0.276366 0.105437
O O14 0.203489 0.123990 0.853874
O O15 0.281099 0.644616 0.935043
O O16 0.263770 0.637879 0.660859
O O17 0.500000 0.500000 0.500000
#
# Coordination Sequence:
#
# PCOD8026671 Si02
#       8
#     2   2   2   2   2   2   2   2
#     4  11  23  43  68  97 140 179 224 282 336 397
#     4  11  22  42  67  96 132 182 225 275 334 400
#     4  12  29  46  71 106 134 175 234 283 344 420
#     4  11  22  42  70  96 134 181 230 273 333 405
#     4  12  24  45  71  98 135 181 226 276 344 407
#     4  10  24  43  62 102 139 178 225 281 334 393
#     4  11  24  43  69  96 133 176 227 280 337 407
#     4  12  27  46  71  98 139 176 221 290 351 406
#
# _framework density 21.877334999999999
#
# number of rings (size 3 to 8) (size 9 to 14) (size 15 to 20)
#    0.000    0.750    3.750    3.375    3.500    5.000 
#    0.000    0.000    0.000    0.000    0.000    0.000 
#    0.000    0.000    0.000    0.000    0.000    0.000 
#
# Total GULP energy -198480.694599 kJ/mol
# GULP energy per Si atom -12405.043412 kJ/mol
# Density = 2.182754 g / cm^3
# Si number density = 21.877335 Si / 1000 Ang^3
#
#
#
# Elastic Constant Matrix: (Units=GPa)
#
#
# Indices 1 2 3 4 5 6 
#
# 1 107.6647 40.4298 45.4398 4.1481 0.7423 3.8810
# 2 40.4298 96.2564 43.3783 -4.1268 -5.8088 14.1108
# 3 45.4398 43.3783 101.0956 0.2823 16.7966 -6.4793
# 4 4.1481 -4.1268 0.2823 47.1735 1.7625 -3.6333
# 5 0.7423 -5.8088 16.7966 1.7625 19.8829 4.8423
# 6 3.8810 14.1108 -6.4793 -3.6333 4.8423 23.8211
#
#
#
# Elastic Compliance Matrix: (Units=1/GPa)
#
#
# Indices 1 2 3 4 5 6 
#
# 1 0.012689 -0.001756 -0.006081 -0.001740 0.005284 -0.004021
# 2 -0.001756 0.021862 -0.013827 -0.000357 0.023333 -0.021223
# 3 -0.006081 -0.013827 0.025097 0.002059 -0.030691 0.022561
# 4 -0.001740 -0.000357 0.002059 0.021914 -0.005042 0.005422
# 5 0.005284 0.023333 -0.030691 -0.005042 0.093724 -0.042852
# 6 -0.004021 -0.021223 0.022561 0.005422 -0.042852 0.070881
#
#
# Mechanical properties :
#
#
# Convention : Reuss Voigt Hill
#
# Bulk Modulus (GPa) = 61.27252 62.61249 61.94251
# Shear Modulus (GPa) = 16.95294 29.89340 23.42317
#
# Velocity S-wave (km/s) = 2.78674 3.70051 3.27564
# Velocity P-wave (km/s) = 6.19860 6.85130 6.53311
#
# Compressibility (1/GPa) = 0.01632053
#
# Stress axis : x y z
#
# Youngs Moduli (GPa) = 78.80601 45.74232 39.84518
#
# Poissons Ratio (x) = 0.08031 0.24229
# Poissons Ratio (y) = 0.13837 0.55095
# Poissons Ratio (z) = 0.47921 0.63249
#
# Static dielectric constant tensor:
#      x y z
#    x 3.896030 0.103840 0.072040 
#    y 0.103840 3.945630 0.012400 
#    z 0.072040 0.012400 3.982200 
# 
# 
# High freq. dielectric constant tensor:
#      x y z
#    x 1.861230 0.001320 0.004800 
#    y 0.001320 1.866130 -0.002610 
#    z 0.004800 -0.002610 1.870030 
# 
# From -- ./inp_files/123010.got.cif
#   From: 2010.06.25/outbox.cif.g09.slc.cpg/sg2_62_cif.got.tgz:123010.got - 2010.06.27 13:26:56.
