data_PCOD8026966
_publ_section_title
;
Structure prediction by ZEFSAII (Michael W. Deem and Ramdas Pophale) SiO2 
 PCOD8026966
Probable space group: P -1
;
_chemical_formula_sum "Si O2"
_cell_formula_units_Z 16
_cell_length_a 9.323098
_cell_length_b 19.578330
_cell_length_c 5.345013
_cell_angle_alpha 61.547405
_cell_angle_beta 121.451035
_cell_angle_gamma 126.775110
_cell_volume 647.161528
_symmetry_space_group_name_H-M "P -1"
_symmetry_group_IT_number 2
_symmetry_cell_setting 'triclinic'
loop_
_space_group_symop_operation_xyz
x,y,z
-x,-y,-z
loop_
_atom_site_type_symbol
_atom_site_label
_atom_site_fract_x
_atom_site_fract_y
_atom_site_fract_z
Si Si1 0.033682 0.920529 0.568177
Si Si2 0.443043 0.867293 0.815116
Si Si3 0.839506 0.267714 0.864888
Si Si4 0.747658 0.050704 0.802436
Si Si5 0.179328 0.579949 0.138183
Si Si6 0.491527 0.548629 0.657257
Si Si7 0.218785 0.268576 0.236201
Si Si8 0.448008 0.720523 0.803920
O O1 0.144217 0.950260 0.354005
O O2 0.850562 0.825152 0.520586
O O3 0.130274 0.899209 0.933752
O O4 0.000000 0.000000 0.500000
O O5 0.382575 0.902450 0.451458
O O6 0.513743 0.795767 0.943823
O O7 0.619459 0.950424 0.954990
O O8 0.259146 0.822075 0.905679
O O9 0.887032 0.352493 0.930503
O O10 0.694510 0.261697 0.530870
O O11 0.041867 0.278252 0.936210
O O12 0.288179 0.549686 0.492247
O O13 0.333460 0.624076 0.981527
O O14 0.000000 0.500000 0.000000
O O15 0.500000 0.500000 0.500000
O O16 0.663385 0.648591 0.619061
O O17 0.500000 0.500000 0.000000
O O18 0.361652 0.272632 0.145670
#
# Coordination Sequence:
#
# PCOD8026966 Si02
#       8
#     2   2   2   2   2   2   2   2
#     4  12  27  45  73 115 156 213 265 327 397 473
#     4  10  24  43  73 102 152 201 262 328 386 473
#     4  11  24  47  74 109 146 207 258 324 398 470
#     4  11  25  45  71 107 154 204 269 319 400 462
#     4  11  26  49  75 112 157 201 262 326 403 483
#     4  12  28  50  80 120 156 208 261 327 403 476
#     4  12  26  49  79 112 162 200 271 328 399 476
#     4  11  25  47  75 110 149 208 261 323 405 466
#
# _framework density 24.723347
#
# number of rings (size 3 to 8) (size 9 to 14) (size 15 to 20)
#    0.000    0.750    2.500    3.375    5.250    3.500 
#    4.500    0.000    0.000    0.000    0.000    0.000 
#    0.000    0.000    0.000    0.000    0.000    0.000 
#
# Total GULP energy -198342.797049 kJ/mol
# GULP energy per Si atom -12396.424816 kJ/mol
# Density = 2.466708 g / cm^3
# Si number density = 24.723347 Si / 1000 Ang^3
#
#
#
# Elastic Constant Matrix: (Units=GPa)
#
#
# Indices 1 2 3 4 5 6 
#
# 1 167.2836 58.3633 32.7329 3.6232 13.0038 7.8872
# 2 58.3633 196.2557 49.3537 -13.4644 -1.6969 4.2991
# 3 32.7329 49.3537 106.1730 2.9530 6.4318 8.8066
# 4 3.6232 -13.4644 2.9530 33.5824 -2.5898 1.4223
# 5 13.0038 -1.6969 6.4318 -2.5898 35.1449 8.2487
# 6 7.8872 4.2991 8.8066 1.4223 8.2487 36.0181
#
#
#
# Elastic Compliance Matrix: (Units=1/GPa)
#
#
# Indices 1 2 3 4 5 6 
#
# 1 0.007129 -0.001985 -0.001039 -0.001654 -0.002568 -0.000417
# 2 -0.001985 0.006591 -0.002632 0.003241 0.001833 -0.000256
# 3 -0.001039 -0.002632 0.011258 -0.001976 -0.001530 -0.001782
# 4 -0.001654 0.003241 -0.001976 0.031799 0.003868 -0.001683
# 5 -0.002568 0.001833 -0.001530 0.003868 0.031625 -0.006678
# 6 -0.000417 -0.000256 -0.001782 -0.001683 -0.006678 0.029917
#
#
# Mechanical properties :
#
#
# Convention : Reuss Voigt Hill
#
# Bulk Modulus (GPa) = 73.17408 83.40133 78.28771
# Shear Modulus (GPa) = 37.26175 42.89989 40.08082
#
# Velocity S-wave (km/s) = 3.88641 4.17009 4.03075
# Velocity P-wave (km/s) = 7.05694 7.54939 7.30731
#
# Compressibility (1/GPa) = 0.01366604
#
# Stress axis : x y z
#
# Youngs Moduli (GPa) = 140.27479 151.71189 88.82772
#
# Poissons Ratio (x) = 0.30120 0.09228
# Poissons Ratio (y) = 0.27849 0.23378
# Poissons Ratio (z) = 0.14572 0.39928
#
# Static dielectric constant tensor:
#      x y z
#    x 4.471930 -0.118260 0.177900 
#    y -0.118260 4.960590 -0.162950 
#    z 0.177900 -0.162950 4.467600 
# 
# 
# High freq. dielectric constant tensor:
#      x y z
#    x 1.986230 -0.014030 0.013070 
#    y -0.014030 2.010820 -0.007040 
#    z 0.013070 -0.007040 1.978190 
# 
# From -- ./inp_files/52576.got.cif
#   From: 2010.06.25/outbox.cif.g09.slc.cpg/sg2_27_cif.got.tgz:52576.got - 2010.06.27 13:26:56.
