data_PCOD8026226
_publ_section_title
;
Structure prediction by ZEFSAII (Michael W. Deem and Ramdas Pophale) SiO2 
 PCOD8026226
Probable space group: P -1
;
_chemical_formula_sum "Si O2"
_cell_formula_units_Z 16
_cell_length_a 12.691959
_cell_length_b 27.399572
_cell_length_c 9.032768
_cell_angle_alpha 29.551839
_cell_angle_beta 144.629657
_cell_angle_gamma 150.955561
_cell_volume 732.102391
_symmetry_space_group_name_H-M "P -1"
_symmetry_group_IT_number 2
_symmetry_cell_setting 'triclinic'
loop_
_space_group_symop_operation_xyz
x,y,z
-x,-y,-z
loop_
_atom_site_type_symbol
_atom_site_label
_atom_site_fract_x
_atom_site_fract_y
_atom_site_fract_z
Si Si1 0.586763 0.600448 0.120931
Si Si2 0.918397 0.248467 0.784386
Si Si3 0.790158 0.382013 0.501009
Si Si4 0.687826 0.049923 0.267945
Si Si5 0.106900 0.128134 0.711260
Si Si6 0.473762 0.837584 0.018733
Si Si7 0.628334 0.200722 0.324220
Si Si8 0.568930 0.656101 0.287889
O O1 0.624824 0.645353 0.213648
O O2 0.527336 0.465536 0.406868
O O3 0.819093 0.692866 0.056188
O O4 0.389909 0.597533 0.822948
O O5 0.862108 0.331438 0.586235
O O6 0.858861 0.244287 0.553451
O O7 0.753297 0.108295 0.024268
O O8 0.698072 0.294722 0.765541
O O9 0.000000 0.500000 0.500000
O O10 0.923097 0.132862 0.402419
O O11 0.579590 0.906489 0.529771
O O12 0.509829 0.064702 0.108604
O O13 0.290436 0.143712 0.767463
O O14 0.207626 0.233588 0.670157
O O15 0.000000 0.000000 0.000000
O O16 0.389187 0.848700 0.731052
O O17 0.614841 0.314931 0.997954
#
# Coordination Sequence:
#
# PCOD8026226 Si02
#       8
#     2   2   2   2   2   2   2   2
#     4  11  25  46  67  96 138 177 225 273 339 398
#     4  11  26  42  70  97 132 180 221 275 340 395
#     4  11  26  45  65  98 134 171 223 280 329 402
#     4  11  23  43  66 100 135 177 220 277 338 396
#     4  11  22  40  67  97 134 170 225 276 324 392
#     4  10  24  40  66  99 130 174 219 273 332 392
#     4  11  22  45  66  98 137 171 230 271 329 403
#     4  10  24  42  67 100 134 175 223 280 324 400
#
# _framework density 21.854868
#
# number of rings (size 3 to 8) (size 9 to 14) (size 15 to 20)
#    0.000    1.250    3.750    1.500    8.750    2.000 
#    0.000    0.625    0.000    0.000    0.000    0.000 
#    0.000    0.000    0.000    0.000    0.000    0.000 
#
# Total GULP energy -198385.803153 kJ/mol
# GULP energy per Si atom -12399.112697 kJ/mol
# Density = 2.180513 g / cm^3
# Si number density = 21.854868 Si / 1000 Ang^3
#
#
#
# Elastic Constant Matrix: (Units=GPa)
#
#
# Indices 1 2 3 4 5 6 
#
# 1 75.8221 16.7484 19.2350 -0.1719 0.6310 14.4183
# 2 16.7484 75.3513 13.6628 10.5649 7.2475 11.4264
# 3 19.2350 13.6628 87.9336 5.3046 -2.5267 6.5026
# 4 -0.1719 10.5649 5.3046 45.6076 1.7984 -1.1284
# 5 0.6310 7.2475 -2.5267 1.7984 32.1186 0.7269
# 6 14.4183 11.4264 6.5026 -1.1284 0.7269 30.1612
#
#
#
# Elastic Compliance Matrix: (Units=1/GPa)
#
#
# Indices 1 2 3 4 5 6 
#
# 1 0.015477 -0.002159 -0.002649 0.000716 0.000070 -0.005984
# 2 -0.002159 0.015508 -0.001488 -0.003411 -0.003279 -0.004571
# 3 -0.002649 -0.001488 0.012363 -0.001183 0.001447 -0.000915
# 4 0.000716 -0.003411 -0.001183 0.022934 -0.000669 0.002079
# 5 0.000070 -0.003279 0.001447 -0.000669 0.032022 0.000100
# 6 -0.005984 -0.004571 -0.000915 0.002079 0.000100 0.038020
#
#
# Mechanical properties :
#
#
# Convention : Reuss Voigt Hill
#
# Bulk Modulus (GPa) = 32.51348 37.59993 35.05670
# Shear Modulus (GPa) = 31.41340 34.20821 32.81080
#
# Velocity S-wave (km/s) = 3.79537 3.96061 3.87887
# Velocity P-wave (km/s) = 5.84087 6.17713 6.01135
#
# Compressibility (1/GPa) = 0.03075648
#
# Stress axis : x y z
#
# Youngs Moduli (GPa) = 64.61338 64.48423 80.88438
#
# Poissons Ratio (x) = 0.13925 0.21423
# Poissons Ratio (y) = 0.13953 0.12033
# Poissons Ratio (z) = 0.17113 0.09593
#
# Static dielectric constant tensor:
#      x y z
#    x 3.815680 -0.155210 -0.151210 
#    y -0.155210 3.987840 0.014100 
#    z -0.151210 0.014100 4.252440 
# 
# 
# High freq. dielectric constant tensor:
#      x y z
#    x 1.850720 -0.000530 -0.005600 
#    y -0.000530 1.862170 -0.000920 
#    z -0.005600 -0.000920 1.874450 
# 
# From -- ./inp_files/273659.got.cif
#   From: 2010.06.25/outbox.cif.g09.slc.cpg/sg2_137_cif.got.tgz:273659.got - 2010.06.27 13:26:56.
