data_PCOD8026027
_publ_section_title
;
Structure prediction by ZEFSAII (Michael W. Deem and Ramdas Pophale) SiO2 
 PCOD8026027
Probable space group: P -1
;
_chemical_formula_sum "Si O2"
_cell_formula_units_Z 14
_cell_length_a 5.160843
_cell_length_b 8.658630
_cell_length_c 16.096765
_cell_angle_alpha 80.043173
_cell_angle_beta 84.413048
_cell_angle_gamma 122.422186
_cell_volume 582.192767
_symmetry_space_group_name_H-M "P -1"
_symmetry_group_IT_number 2
_symmetry_cell_setting 'triclinic'
loop_
_space_group_symop_operation_xyz
x,y,z
-x,-y,-z
loop_
_atom_site_type_symbol
_atom_site_label
_atom_site_fract_x
_atom_site_fract_y
_atom_site_fract_z
Si Si1 0.233268 0.552818 0.096680
Si Si2 0.679834 0.303195 0.433631
Si Si3 0.149967 0.960961 0.247147
Si Si4 0.851855 0.776738 0.655906
Si Si5 0.529894 0.319955 0.096150
Si Si6 0.765449 0.287227 0.617626
Si Si7 0.468796 0.376606 0.754871
O O1 0.289453 0.383871 0.105266
O O2 0.369832 0.662046 0.170014
O O3 0.865974 0.474248 0.113494
O O4 0.413548 0.698147 0.001471
O O5 0.326769 0.206865 0.418837
O O6 0.638235 0.218817 0.534935
O O7 0.868136 0.243554 0.376558
O O8 0.864808 0.533459 0.411401
O O9 0.997856 0.043962 0.303313
O O10 0.399915 0.118344 0.161095
O O11 0.308841 0.894373 0.311958
O O12 0.901605 0.782324 0.214768
O O13 0.573578 0.594913 0.735263
O O14 0.579930 0.363188 0.661209
#
# Coordination Sequence:
#
# PCOD8026027 Si02
#       7
#     2   2   2   2   2   2   2
#     4  10  23  47  72  98 138 183 218 273 347 407
#     4  10  24  47  65  94 136 192 218 287 335 403
#     4  12  26  41  70 109 132 178 234 287 327 418
#     4  11  25  43  70  92 140 181 231 274 349 386
#     4  10  24  44  73 102 134 178 228 273 335 417
#     4  10  25  41  69  96 140 173 241 272 343 396
#     4  11  25  43  69 103 138 181 221 290 339 409
#
# _framework density 24.047018999999999
#
# number of rings (size 3 to 8) (size 9 to 14) (size 15 to 20)
#    0.000    1.429    2.857    0.000   12.000    3.429 
#    0.000    0.714    0.000    0.000    0.000    0.000 
#    0.000    0.000    0.000    0.000    0.000    0.000 
#
# Total GULP energy -173597.218526 kJ/mol
# GULP energy per Si atom -12399.801323 kJ/mol
# Density = 2.399229 g / cm^3
# Si number density = 24.047019 Si / 1000 Ang^3
#
#
#
# Elastic Constant Matrix: (Units=GPa)
#
#
# Indices 1 2 3 4 5 6 
#
# 1 64.9891 2.8212 12.9040 -0.5835 16.4947 -2.4914
# 2 2.8212 56.8374 18.6339 -7.1444 13.8228 4.2558
# 3 12.9040 18.6339 135.0525 -18.5106 21.8145 12.7461
# 4 -0.5835 -7.1444 -18.5106 43.4694 1.0276 11.0695
# 5 16.4947 13.8228 21.8145 1.0276 34.1522 3.1070
# 6 -2.4914 4.2558 12.7461 11.0695 3.1070 25.3278
#
#
#
# Elastic Compliance Matrix: (Units=1/GPa)
#
#
# Indices 1 2 3 4 5 6 
#
# 1 0.017875 0.001231 -0.000827 -0.000538 -0.008886 0.003293
# 2 0.001231 0.020596 -0.000668 0.004297 -0.008281 -0.003866
# 3 -0.000827 -0.000668 0.009887 0.005974 -0.005196 -0.006918
# 4 -0.000538 0.004297 0.005974 0.030578 -0.004708 -0.016568
# 5 -0.008886 -0.008281 -0.005196 -0.004708 0.040363 0.000238
# 6 0.003293 -0.003866 -0.006918 -0.016568 0.000238 0.051149
#
#
# Mechanical properties :
#
#
# Convention : Reuss Voigt Hill
#
# Bulk Modulus (GPa) = 20.90775 36.17746 28.54261
# Shear Modulus (GPa) = 26.74977 35.42454 31.08716
#
# Velocity S-wave (km/s) = 3.33888 3.84231 3.59941
# Velocity P-wave (km/s) = 4.85567 5.89590 5.40089
#
# Compressibility (1/GPa) = 0.04782916
#
# Stress axis : x y z
#
# Youngs Moduli (GPa) = 55.94467 48.55421 101.14717
#
# Poissons Ratio (x) = -0.05976 0.08364
# Poissons Ratio (y) = -0.06886 0.06754
# Poissons Ratio (z) = 0.04626 0.03242
#
# Static dielectric constant tensor:
#      x y z
#    x 3.943630 0.057590 0.127800 
#    y 0.057590 4.369060 0.001090 
#    z 0.127800 0.001090 4.603250 
# 
# 
# High freq. dielectric constant tensor:
#      x y z
#    x 1.942280 0.002610 0.006760 
#    y 0.002610 1.939460 0.004400 
#    z 0.006760 0.004400 1.970730 
# 
# From -- ./inp_files/112357.got.cif
#   From: 2010.06.25/outbox.cif.g09.slc.cpg/sg2_57_cif.got.tgz:112357.got - 2010.06.27 13:26:56.
