data_PCOD8026386
_publ_section_title
;
Structure prediction by ZEFSAII (Michael W. Deem and Ramdas Pophale) SiO2 
 PCOD8026386
Probable space group: P -1
;
_chemical_formula_sum "Si O2"
_cell_formula_units_Z 14
_cell_length_a 9.483908
_cell_length_b 15.360680
_cell_length_c 9.218708
_cell_angle_alpha 79.918573
_cell_angle_beta 59.996789
_cell_angle_gamma 37.166253
_cell_volume 635.312463
_symmetry_space_group_name_H-M "P -1"
_symmetry_group_IT_number 2
_symmetry_cell_setting 'triclinic'
loop_
_space_group_symop_operation_xyz
x,y,z
-x,-y,-z
loop_
_atom_site_type_symbol
_atom_site_label
_atom_site_fract_x
_atom_site_fract_y
_atom_site_fract_z
Si Si1 0.671878 0.551331 0.372856
Si Si2 0.120062 0.731090 0.133109
Si Si3 0.721341 0.107682 0.515629
Si Si4 0.686937 0.793910 0.905883
Si Si5 0.128921 0.923455 0.109241
Si Si6 0.533899 0.500719 0.729138
Si Si7 0.455480 0.052824 0.773112
O O1 0.553377 0.704160 0.364034
O O2 0.592831 0.556498 0.575732
O O3 0.518151 0.560308 0.328485
O O4 0.023304 0.394460 0.218456
O O5 0.238897 0.773242 0.107377
O O6 0.194477 0.634143 0.259398
O O7 0.772575 0.886428 0.240714
O O8 0.256712 0.641490 0.934588
O O9 0.637688 0.043441 0.595776
O O10 0.000000 0.000000 0.500000
O O11 0.836636 0.074176 0.306526
O O12 0.671883 0.877607 0.767729
O O13 0.397911 0.864221 0.032645
O O14 0.712542 0.827376 0.039601
O O15 0.000000 0.000000 0.000000
#
# Coordination Sequence:
#
# PCOD8026386 Si02
#       7
#     2   2   2   2   2   2   2
#     4  11  25  44  73 106 142 185 239 297 352 423
#     4  11  23  45  69 105 143 187 234 294 353 426
#     4  12  27  45  73 107 143 184 243 291 350 428
#     4  11  25  45  75 105 145 188 237 292 358 426
#     4  12  25  45  72 105 146 187 231 294 358 419
#     4  10  24  41  71 103 144 184 235 293 360 411
#     4  11  25  45  74 104 144 187 243 285 356 427
#
# _framework density 22.036401000000001
#
# number of rings (size 3 to 8) (size 9 to 14) (size 15 to 20)
#    0.000    0.857    4.286    1.714    6.000    4.571 
#    0.000    2.143    0.000    0.000    0.000    0.000 
#    0.000    0.000    0.000    0.000    0.000    0.000 
#
# Total GULP energy -173598.773978 kJ/mol
# GULP energy per Si atom -12399.912427 kJ/mol
# Density = 2.198624 g / cm^3
# Si number density = 22.036401 Si / 1000 Ang^3
#
#
#
# Elastic Constant Matrix: (Units=GPa)
#
#
# Indices 1 2 3 4 5 6 
#
# 1 95.3691 39.6085 27.2034 -0.8866 -14.2767 1.5583
# 2 39.6085 127.0495 45.1967 14.6704 -11.1344 0.9334
# 3 27.2034 45.1967 104.1682 1.0113 -2.9564 -3.3949
# 4 -0.8866 14.6704 1.0113 24.2955 4.7619 -3.3149
# 5 -14.2767 -11.1344 -2.9564 4.7619 37.8265 -2.9666
# 6 1.5583 0.9334 -3.3949 -3.3149 -2.9666 37.7524
#
#
#
# Elastic Compliance Matrix: (Units=1/GPa)
#
#
# Indices 1 2 3 4 5 6 
#
# 1 0.012924 -0.003255 -0.001886 0.001798 0.003531 -0.000187
# 2 -0.003255 0.011411 -0.003983 -0.007501 0.002689 -0.000953
# 3 -0.001886 -0.003983 0.011810 0.002252 -0.001139 0.001347
# 4 0.001798 -0.007501 0.002252 0.047577 -0.007034 0.003939
# 5 0.003531 0.002689 -0.001139 -0.007034 0.029466 0.001383
# 6 -0.000187 -0.000953 0.001347 0.003939 0.001383 0.027095
#
#
# Mechanical properties :
#
#
# Convention : Reuss Voigt Hill
#
# Bulk Modulus (GPa) = 55.87454 61.17821 58.52638
# Shear Modulus (GPa) = 30.39567 34.28010 32.33788
#
# Velocity S-wave (km/s) = 3.71797 3.94840 3.83492
# Velocity P-wave (km/s) = 6.62131 6.97203 6.79893
#
# Compressibility (1/GPa) = 0.01789724
#
# Stress axis : x y z
#
# Youngs Moduli (GPa) = 77.37676 87.63199 84.67169
#
# Poissons Ratio (x) = 0.28523 0.15970
# Poissons Ratio (y) = 0.25185 0.33726
# Poissons Ratio (z) = 0.14594 0.34905
#
# Static dielectric constant tensor:
#      x y z
#    x 3.785680 -0.208180 0.102920 
#    y -0.208180 3.783060 -0.302380 
#    z 0.102920 -0.302380 3.905760 
# 
# 
# High freq. dielectric constant tensor:
#      x y z
#    x 1.865540 -0.006270 0.010060 
#    y -0.006270 1.873600 -0.009270 
#    z 0.010060 -0.009270 1.875040 
# 
# From -- ./inp_files/157670.got.cif
#   From: 2010.06.25/outbox.cif.g09.slc.cpg/sg2_79_cif.got.tgz:157670.got - 2010.06.27 13:26:56.
