data_PCOD8026378
_publ_section_title
;
Structure prediction by ZEFSAII (Michael W. Deem and Ramdas Pophale) SiO2 
 PCOD8026378
Probable space group: P -1
;
_chemical_formula_sum "Si O2"
_cell_formula_units_Z 16
_cell_length_a 8.897666
_cell_length_b 14.734153
_cell_length_c 8.996468
_cell_angle_alpha 140.283243
_cell_angle_beta 66.177515
_cell_angle_gamma 102.183606
_cell_volume 679.348945
_symmetry_space_group_name_H-M "P -1"
_symmetry_group_IT_number 2
_symmetry_cell_setting 'triclinic'
loop_
_space_group_symop_operation_xyz
x,y,z
-x,-y,-z
loop_
_atom_site_type_symbol
_atom_site_label
_atom_site_fract_x
_atom_site_fract_y
_atom_site_fract_z
Si Si1 0.197514 0.831050 0.599108
Si Si2 0.608359 0.614498 0.769733
Si Si3 0.606836 0.609687 0.450564
Si Si4 0.103487 0.536277 0.360030
Si Si5 0.057271 0.060868 0.403661
Si Si6 0.523480 0.833443 0.308085
Si Si7 0.358734 0.903300 0.914574
Si Si8 0.182212 0.319873 0.807964
O O1 0.097967 0.704238 0.534572
O O2 0.367466 0.773292 0.368090
O O3 0.252984 0.925734 0.831668
O O4 0.074486 0.938488 0.676986
O O5 0.706496 0.626601 0.588241
O O6 0.445823 0.545834 0.714176
O O7 0.706453 0.519031 0.739393
O O8 0.550178 0.773551 0.055294
O O9 0.444395 0.736190 0.674556
O O10 0.722737 0.600691 0.251102
O O11 0.000000 0.500000 0.500000
O O12 0.068753 0.441040 0.109175
O O13 0.072314 0.226556 0.639616
O O14 0.000000 0.000000 0.500000
O O15 0.228094 0.954543 0.161729
O O16 0.687193 0.789344 0.286254
O O17 0.500000 0.000000 0.500000
O O18 0.500000 0.000000 0.000000
#
# Coordination Sequence:
#
# PCOD8026378 Si02
#       8
#     2   2   2   2   2   2   2   2
#     4  12  26  47  73 105 148 193 238 304 375 425
#     4  10  24  41  70 103 139 178 242 299 355 431
#     4  11  22  43  72 101 135 181 245 302 355 416
#     4  11  26  47  70 102 145 194 241 296 370 441
#     4  12  29  46  68 110 151 191 241 305 369 439
#     4  11  23  43  72 103 137 187 243 296 363 437
#     4  12  25  47  76 103 142 194 252 295 363 443
#     4  11  24  47  70 100 143 187 249 298 355 443
#
# _framework density 23.551960000000001
#
# number of rings (size 3 to 8) (size 9 to 14) (size 15 to 20)
#    0.000    0.750    3.750    1.875    8.750    2.500 
#    4.500    0.000    0.000    0.000    0.000    0.000 
#    0.000    0.000    0.000    0.000    0.000    0.000 
#
# Total GULP energy -198326.870359 kJ/mol
# GULP energy per Si atom -12395.429397 kJ/mol
# Density = 2.349835 g / cm^3
# Si number density = 23.551960 Si / 1000 Ang^3
#
#
#
# Elastic Constant Matrix: (Units=GPa)
#
#
# Indices 1 2 3 4 5 6 
#
# 1 72.1855 24.5887 22.0040 -0.8284 19.0061 -3.3434
# 2 24.5887 128.4679 53.5492 -15.5046 9.0333 0.4463
# 3 22.0040 53.5492 133.2760 -22.3251 17.5621 4.9162
# 4 -0.8284 -15.5046 -22.3251 46.9474 1.0849 -1.1171
# 5 19.0061 9.0333 17.5621 1.0849 38.6730 -6.3134
# 6 -3.3434 0.4463 4.9162 -1.1171 -6.3134 35.1029
#
#
#
# Elastic Compliance Matrix: (Units=1/GPa)
#
#
# Indices 1 2 3 4 5 6 
#
# 1 0.016884 -0.002396 -0.001033 -0.000808 -0.007170 0.000468
# 2 -0.002396 0.009797 -0.003333 0.001605 0.000396 0.000236
# 3 -0.001033 -0.003333 0.010222 0.003781 -0.003797 -0.002050
# 4 -0.000808 0.001605 0.003781 0.023663 -0.002409 -0.000307
# 5 -0.007170 0.000396 -0.003797 -0.002409 0.031982 0.005519
# 6 0.000468 0.000236 -0.002050 -0.000307 0.005519 0.029799
#
#
# Mechanical properties :
#
#
# Convention : Reuss Voigt Hill
#
# Bulk Modulus (GPa) = 42.77097 59.35702 51.06400
# Shear Modulus (GPa) = 34.80347 39.73049 37.26698
#
# Velocity S-wave (km/s) = 3.84830 4.11168 3.98217
# Velocity P-wave (km/s) = 6.16000 6.91365 6.54767
#
# Compressibility (1/GPa) = 0.02338034
#
# Stress axis : x y z
#
# Youngs Moduli (GPa) = 59.22596 102.07330 97.82709
#
# Poissons Ratio (x) = 0.24459 0.10101
# Poissons Ratio (y) = 0.14192 0.32604
# Poissons Ratio (z) = 0.06115 0.34019
#
# Static dielectric constant tensor:
#      x y z
#    x 4.445620 -0.196010 0.230690 
#    y -0.196010 3.966540 -0.583480 
#    z 0.230690 -0.583480 4.446870 
# 
# 
# High freq. dielectric constant tensor:
#      x y z
#    x 1.930700 -0.009420 0.015960 
#    y -0.009420 1.937520 -0.013790 
#    z 0.015960 -0.013790 1.942310 
# 
# From -- ./inp_files/209187.got.cif
#   From: 2010.06.25/outbox.cif.g09.slc.cpg/sg2_105_cif.got.tgz:209187.got - 2010.06.27 13:26:56.
