data_PCOD8026103
_publ_section_title
;
Structure prediction by ZEFSAII (Michael W. Deem and Ramdas Pophale) SiO2 
 PCOD8026103
Probable space group: P -1
;
_chemical_formula_sum "Si O2"
_cell_formula_units_Z 16
_cell_length_a 8.947154
_cell_length_b 7.779866
_cell_length_c 15.566481
_cell_angle_alpha 98.272067
_cell_angle_beta 53.600183
_cell_angle_gamma 68.941911
_cell_volume 716.039907
_symmetry_space_group_name_H-M "P -1"
_symmetry_group_IT_number 2
_symmetry_cell_setting 'triclinic'
loop_
_space_group_symop_operation_xyz
x,y,z
-x,-y,-z
loop_
_atom_site_type_symbol
_atom_site_label
_atom_site_fract_x
_atom_site_fract_y
_atom_site_fract_z
Si Si1 0.123249 0.678559 0.856212
Si Si2 0.053287 0.350876 0.790722
Si Si3 0.330953 0.873115 0.690765
Si Si4 0.276988 0.005496 0.073284
Si Si5 0.319813 0.592249 0.969415
Si Si6 0.955369 0.126406 0.349598
Si Si7 0.802309 0.327483 0.723770
Si Si8 0.215433 0.497119 0.438513
O O1 0.243904 0.779991 0.781768
O O2 0.194367 0.635145 0.926038
O O3 0.176414 0.470988 0.771506
O O4 0.857279 0.848038 0.951997
O O5 0.984809 0.351794 0.714309
O O6 0.813629 0.471406 0.929296
O O7 0.221815 0.120067 0.758094
O O8 0.597750 0.731622 0.603495
O O9 0.260355 0.849980 0.618527
O O10 0.127432 0.111993 0.218178
O O11 0.500000 0.000000 0.000000
O O12 0.312212 0.785307 0.028461
O O13 0.580332 0.405947 0.861782
O O14 0.843950 0.327203 0.460415
O O15 0.084691 0.918391 0.349315
O O16 0.718396 0.455589 0.672737
O O17 0.000000 0.500000 0.500000
#
# Coordination Sequence:
#
# PCOD8026103 Si02
#       8
#     2   2   2   2   2   2   2   2
#     4  11  23  40  70 101 142 184 222 282 347 410
#     4  11  24  43  70 106 141 181 228 274 356 419
#     4  10  23  49  68  96 140 183 229 289 338 414
#     4  11  24  40  71 102 143 188 224 280 350 413
#     4  12  22  42  68 104 145 177 227 287 340 416
#     4  10  24  47  68  96 137 188 224 279 350 404
#     4  11  24  44  69  99 140 178 229 288 342 408
#     4  12  27  45  71  99 131 178 236 296 342 407
#
# _framework density 22.345124999999999
#
# number of rings (size 3 to 8) (size 9 to 14) (size 15 to 20)
#    0.000    1.000    5.000    2.625    7.000    1.000 
#    2.250    1.250    0.000    0.000    0.000    0.000 
#    0.000    0.000    0.000    0.000    0.000    0.000 
#
# Total GULP energy -198307.740589 kJ/mol
# GULP energy per Si atom -12394.233787 kJ/mol
# Density = 2.229427 g / cm^3
# Si number density = 22.345125 Si / 1000 Ang^3
#
#
#
# Elastic Constant Matrix: (Units=GPa)
#
#
# Indices 1 2 3 4 5 6 
#
# 1 83.5537 20.9838 24.2060 2.5045 -12.2564 -18.9423
# 2 20.9838 69.2277 14.4046 12.9608 -13.1383 -21.7921
# 3 24.2060 14.4046 75.8179 16.4817 -4.8626 -10.4575
# 4 2.5045 12.9608 16.4817 21.1300 -10.8141 -3.3299
# 5 -12.2564 -13.1383 -4.8626 -10.8141 34.6085 2.6088
# 6 -18.9423 -21.7921 -10.4575 -3.3299 2.6088 37.5803
#
#
#
# Elastic Compliance Matrix: (Units=1/GPa)
#
#
# Indices 1 2 3 4 5 6 
#
# 1 0.015930 -0.002283 -0.005123 0.007429 0.005960 0.005524
# 2 -0.002283 0.020533 0.000440 -0.009395 0.003373 0.009812
# 3 -0.005123 0.000440 0.018097 -0.015628 -0.004109 0.001609
# 4 0.007429 -0.009395 -0.015628 0.074630 0.020252 -0.000845
# 5 0.005960 0.003373 -0.004109 0.020252 0.037811 0.002986
# 6 0.005524 0.009812 0.001609 -0.000845 0.002986 0.035249
#
#
# Mechanical properties :
#
#
# Convention : Reuss Voigt Hill
#
# Bulk Modulus (GPa) = 24.61375 38.64311 31.62843
# Shear Modulus (GPa) = 21.76504 29.93076 25.84790
#
# Velocity S-wave (km/s) = 3.12435 3.66386 3.40480
# Velocity P-wave (km/s) = 4.90455 5.93547 5.44446
#
# Compressibility (1/GPa) = 0.04062770
#
# Stress axis : x y z
#
# Youngs Moduli (GPa) = 62.77518 48.70123 55.25712
#
# Poissons Ratio (x) = 0.11121 0.28307
# Poissons Ratio (y) = 0.14334 -0.02431
# Poissons Ratio (z) = 0.32158 -0.02142
#
# Static dielectric constant tensor:
#      x y z
#    x 4.217230 -0.260580 -0.110190 
#    y -0.260580 4.633290 0.091660 
#    z -0.110190 0.091660 3.972200 
# 
# 
# High freq. dielectric constant tensor:
#      x y z
#    x 1.889830 -0.014810 0.002190 
#    y -0.014810 1.892990 0.009650 
#    z 0.002190 0.009650 1.863330 
# 
# From -- ./inp_files/237097.got.cif
#   From: 2010.06.25/outbox.cif.g09.slc.cpg/sg2_119_cif.got.tgz:237097.got - 2010.06.27 13:26:56.
