data_PCOD8026062
_publ_section_title
;
Structure prediction by ZEFSAII (Michael W. Deem and Ramdas Pophale) SiO2 
 PCOD8026062
Probable space group: P -1
;
_chemical_formula_sum "Si O2"
_cell_formula_units_Z 14
_cell_length_a 19.945786
_cell_length_b 10.511049
_cell_length_c 4.857016
_cell_angle_alpha 90.845457
_cell_angle_beta 89.663262
_cell_angle_gamma 150.846337
_cell_volume 495.952818
_symmetry_space_group_name_H-M "P -1"
_symmetry_group_IT_number 2
_symmetry_cell_setting 'triclinic'
loop_
_space_group_symop_operation_xyz
x,y,z
-x,-y,-z
loop_
_atom_site_type_symbol
_atom_site_label
_atom_site_fract_x
_atom_site_fract_y
_atom_site_fract_z
Si Si1 0.717523 0.407816 0.904755
Si Si2 0.047778 0.373226 0.992249
Si Si3 0.173457 0.814480 0.809114
Si Si4 0.386577 0.111930 0.229870
Si Si5 0.214212 0.197970 0.119947
Si Si6 0.645349 0.690990 0.389305
Si Si7 0.559318 0.974320 0.277974
O O1 0.782454 0.652282 0.975907
O O2 0.593473 0.216112 0.676625
O O3 0.842016 0.520311 0.817739
O O4 0.658580 0.252139 0.185163
O O5 0.961938 0.322379 0.198501
O O6 0.126287 0.589209 0.762719
O O7 0.944454 0.104629 0.833097
O O8 0.240870 0.924702 0.119997
O O9 0.290049 0.054388 0.582041
O O10 0.479162 0.392636 0.332808
O O11 0.379693 0.987431 0.447944
O O12 0.459350 0.166201 0.962929
O O13 0.302369 0.326187 0.398566
O O14 0.279171 0.212195 0.895501
#
# Coordination Sequence:
#
# PCOD8026062 Si02
#       7
#     2   2   2   2   2   2   2
#     4  11  22  47  70 106 140 180 233 291 346 414
#     4  10  23  48  69 103 142 191 227 284 344 416
#     4  10  24  45  73 102 143 185 237 276 347 420
#     4  12  22  48  69 107 138 180 231 292 345 407
#     4  11  24  45  71 104 140 181 231 284 349 413
#     4  11  23  45  72 104 139 180 230 291 345 405
#     4  11  26  41  76 102 141 178 231 291 352 403
#
# _framework density 28.228494000000001
#
# number of rings (size 3 to 8) (size 9 to 14) (size 15 to 20)
#    0.000    1.143    4.286    0.857    0.000    6.286 
#    7.714    8.571    0.000    0.000    0.000    0.000 
#    0.000    0.000    0.000    0.000    0.000    0.000 
#
# Total GULP energy -173552.581517 kJ/mol
# GULP energy per Si atom -12396.612966 kJ/mol
# Density = 2.816424 g / cm^3
# Si number density = 28.228494 Si / 1000 Ang^3
#
#
#
# Elastic Constant Matrix: (Units=GPa)
#
#
# Indices 1 2 3 4 5 6 
#
# 1 148.2735 76.5011 30.9730 -2.4507 46.5316 12.8693
# 2 76.5011 215.1798 43.0262 -18.1495 19.1768 1.6583
# 3 30.9730 43.0262 121.1894 -0.5866 22.9047 19.2422
# 4 -2.4507 -18.1495 -0.5866 44.4160 4.0639 15.2368
# 5 46.5316 19.1768 22.9047 4.0639 32.0538 5.2768
# 6 12.8693 1.6583 19.2422 15.2368 5.2768 58.6813
#
#
#
# Elastic Compliance Matrix: (Units=1/GPa)
#
#
# Indices 1 2 3 4 5 6 
#
# 1 0.015013 -0.003648 0.001779 0.002100 -0.020744 -0.002453
# 2 -0.003648 0.006242 -0.001835 0.001922 0.002547 0.000497
# 3 0.001779 -0.001835 0.010646 0.001461 -0.008713 -0.003425
# 4 0.002100 0.001922 0.001461 0.026595 -0.007424 -0.007232
# 5 -0.020744 0.002547 -0.008713 -0.007424 0.066413 0.003290
# 6 -0.002453 0.000497 -0.003425 -0.007232 0.003290 0.020270
#
#
# Mechanical properties :
#
#
# Convention : Reuss Voigt Hill
#
# Bulk Modulus (GPa) = 40.82944 87.29370 64.06157
# Shear Modulus (GPa) = 31.10372 49.30637 40.20505
#
# Velocity S-wave (km/s) = 3.32302 4.18387 3.77805
# Velocity P-wave (km/s) = 5.40542 7.37094 6.46334
#
# Compressibility (1/GPa) = 0.02449213
#
# Stress axis : x y z
#
# Youngs Moduli (GPa) = 66.61064 160.19363 93.93132
#
# Poissons Ratio (x) = 0.58441 -0.16706
# Poissons Ratio (y) = 0.24301 0.17236
# Poissons Ratio (z) = -0.11847 0.29394
#
# Static dielectric constant tensor:
#      x y z
#    x 5.613980 -0.108240 0.010880 
#    y -0.108240 5.829600 -0.121740 
#    z 0.010880 -0.121740 4.907780 
# 
# 
# High freq. dielectric constant tensor:
#      x y z
#    x 2.169370 -0.006010 0.010540 
#    y -0.006010 2.169300 -0.011490 
#    z 0.010540 -0.011490 2.125910 
# 
# From -- ./inp_files/118128.got.cif
#   From: 2010.06.25/outbox.cif.g09.slc.cpg/sg2_60_cif.got.tgz:118128.got - 2010.06.27 13:26:56.
