data_PCOD8026026
_publ_section_title
;
Structure prediction by ZEFSAII (Michael W. Deem and Ramdas Pophale) SiO2 
 PCOD8026026
Probable space group: P -1
;
_chemical_formula_sum "Si O2"
_cell_formula_units_Z 12
_cell_length_a 4.949783
_cell_length_b 8.052958
_cell_length_c 15.654538
_cell_angle_alpha 112.875977
_cell_angle_beta 71.931002
_cell_angle_gamma 115.921781
_cell_volume 509.618841
_symmetry_space_group_name_H-M "P -1"
_symmetry_group_IT_number 2
_symmetry_cell_setting 'triclinic'
loop_
_space_group_symop_operation_xyz
x,y,z
-x,-y,-z
loop_
_atom_site_type_symbol
_atom_site_label
_atom_site_fract_x
_atom_site_fract_y
_atom_site_fract_z
Si Si1 0.076204 0.606018 0.270080
Si Si2 0.701680 0.314301 0.994997
Si Si3 0.460348 0.346075 0.206423
Si Si4 0.275586 0.943862 0.432991
Si Si5 0.428719 0.000809 0.245345
Si Si6 0.878244 0.894006 0.077935
O O1 0.218444 0.439872 0.219599
O O2 0.145925 0.713652 0.377037
O O3 0.717940 0.504633 0.268691
O O4 0.206144 0.772116 0.216680
O O5 0.592817 0.282562 0.096630
O O6 0.420601 0.298747 0.956036
O O7 0.000000 0.500000 0.000000
O O8 0.834985 0.148519 0.919621
O O9 0.306509 0.148969 0.236554
O O10 0.500000 0.000000 0.500000
O O11 0.450756 0.061656 0.355490
O O12 0.000000 0.000000 0.500000
O O13 0.764684 0.020860 0.180767
O O14 0.000000 0.000000 0.000000
#
# Coordination Sequence:
#
# PCOD8026026 Si02
#       6
#     2   2   2   2   2   2
#     4  10  25  42  70  98 140 165 235 281 343 400
#     4  12  25  40  67  94 147 179 240 272 336 405
#     4  12  23  44  66 106 133 186 224 280 335 414
#     4  10  23  47  72  97 133 177 224 289 353 409
#     4  10  26  43  75  93 147 178 231 280 352 393
#     4  12  24  43  62 102 136 184 227 280 328 411
#
# _framework density 23.547011999999999
#
# number of rings (size 3 to 8) (size 9 to 14) (size 15 to 20)
#    1.000    0.000    1.667    5.000    0.000    4.000 
#    0.000    5.000    0.000    0.000    0.000    0.000 
#    0.000    0.000    0.000    0.000    0.000    0.000 
#
# Total GULP energy -148671.303239 kJ/mol
# GULP energy per Si atom -12389.275270 kJ/mol
# Density = 2.349342 g / cm^3
# Si number density = 23.547012 Si / 1000 Ang^3
#
#
#
# Elastic Constant Matrix: (Units=GPa)
#
#
# Indices 1 2 3 4 5 6 
#
# 1 91.9705 8.3552 25.2818 14.2868 -4.1561 2.9400
# 2 8.3552 114.1626 27.4740 2.5817 1.1781 -16.1640
# 3 25.2818 27.4740 145.7933 -11.3206 -13.8994 0.7389
# 4 14.2868 2.5817 -11.3206 34.3622 1.5375 8.9673
# 5 -4.1561 1.1781 -13.8994 1.5375 42.7157 10.7615
# 6 2.9400 -16.1640 0.7389 8.9673 10.7615 38.9672
#
#
#
# Elastic Compliance Matrix: (Units=1/GPa)
#
#
# Indices 1 2 3 4 5 6 
#
# 1 0.012568 -0.000116 -0.002589 -0.006180 0.000523 0.000331
# 2 -0.000116 0.010226 -0.002385 -0.002864 -0.002380 0.005612
# 3 -0.002589 -0.002385 0.008430 0.004646 0.003116 -0.002883
# 4 -0.006180 -0.002864 0.004646 0.035839 0.002129 -0.009645
# 5 0.000523 -0.002380 0.003116 0.002129 0.026720 -0.008955
# 6 0.000331 0.005612 -0.002883 -0.009645 -0.008955 0.032713
#
#
# Mechanical properties :
#
#
# Convention : Reuss Voigt Hill
#
# Bulk Modulus (GPa) = 47.51775 52.68317 50.10046
# Shear Modulus (GPa) = 34.79715 42.59671 38.69693
#
# Velocity S-wave (km/s) = 3.84835 4.25786 4.05827
# Velocity P-wave (km/s) = 6.32220 6.82603 6.57894
#
# Compressibility (1/GPa) = 0.02104477
#
# Stress axis : x y z
#
# Youngs Moduli (GPa) = 79.56505 97.79293 118.62587
#
# Poissons Ratio (x) = 0.01130 0.30717
# Poissons Ratio (y) = 0.00919 0.28288
# Poissons Ratio (z) = 0.20602 0.23320
#
# Static dielectric constant tensor:
#      x y z
#    x 1.517590 0.290930 0.158750 
#    y 0.290930 4.303850 0.103300 
#    z 0.158750 0.103300 4.296990 
# 
# 
# High freq. dielectric constant tensor:
#      x y z
#    x 1.942360 0.003370 0.000600 
#    y 0.003370 1.927920 0.007520 
#    z 0.000600 0.007520 1.930010 
# 
# From -- ./inp_files/97904.got.cif
#   From: 2010.06.25/outbox.cif.g09.slc.cpg/sg2_49_cif.got.tgz:97904.got - 2010.06.27 13:26:56.
