data_PCOD8026616
_publ_section_title
;
Structure prediction by ZEFSAII (Michael W. Deem and Ramdas Pophale) SiO2 
 PCOD8026616
Probable space group: P -1
;
_chemical_formula_sum "Si O2"
_cell_formula_units_Z 12
_cell_length_a 13.541551
_cell_length_b 19.971203
_cell_length_c 5.093142
_cell_angle_alpha 96.478063
_cell_angle_beta 100.268466
_cell_angle_gamma 22.664058
_cell_volume 517.374285
_symmetry_space_group_name_H-M "P -1"
_symmetry_group_IT_number 2
_symmetry_cell_setting 'triclinic'
loop_
_space_group_symop_operation_xyz
x,y,z
-x,-y,-z
loop_
_atom_site_type_symbol
_atom_site_label
_atom_site_fract_x
_atom_site_fract_y
_atom_site_fract_z
Si Si1 0.181110 0.999297 0.027782
Si Si2 0.323482 0.119439 0.716246
Si Si3 0.076988 0.525773 0.447967
Si Si4 0.614928 0.627287 0.975966
Si Si5 0.355790 0.650850 0.860907
Si Si6 0.092329 0.127094 0.537785
O O1 0.242431 0.996327 0.781960
O O2 0.870287 0.176317 0.982923
O O3 0.353627 0.825246 0.047240
O O4 0.255846 0.005658 0.298786
O O5 0.095331 0.204497 0.633411
O O6 0.181818 0.279141 0.708196
O O7 0.500000 0.000000 0.500000
O O8 0.500000 0.000000 0.000000
O O9 0.281329 0.398416 0.245743
O O10 0.000000 0.500000 0.500000
O O11 0.181127 0.500893 0.742637
O O12 0.554876 0.586986 0.851651
O O13 0.500000 0.500000 0.000000
O O14 0.210111 0.710082 0.560362
#
# Coordination Sequence:
#
# PCOD8026616 Si02
#       6
#     2   2   2   2   2   2
#     4  10  24  42  72 101 144 183 232 277 366 413
#     4  12  27  47  77 101 143 188 245 294 360 421
#     4  12  30  48  72 106 143 189 248 296 357 420
#     4  12  26  47  74 102 149 188 235 293 363 427
#     4  10  25  43  73 106 147 181 237 294 357 426
#     4  10  24  42  71 104 140 178 240 284 357 414
#
# _framework density 23.194039
#
# number of rings (size 3 to 8) (size 9 to 14) (size 15 to 20)
#    1.000    0.000    0.000    5.000   11.667    1.333 
#    0.000    0.000    0.000    0.000    0.000    0.000 
#    0.000    0.000    0.000    0.000    0.000    0.000 
#
# Total GULP energy -148739.709169 kJ/mol
# GULP energy per Si atom -12394.975764 kJ/mol
# Density = 2.314125 g / cm^3
# Si number density = 23.194039 Si / 1000 Ang^3
#
#
#
# Elastic Constant Matrix: (Units=GPa)
#
#
# Indices 1 2 3 4 5 6 
#
# 1 148.2098 56.0809 68.1222 -17.2704 9.7595 17.6866
# 2 56.0809 120.6067 31.0285 -12.4682 -8.8969 10.2556
# 3 68.1222 31.0285 169.9944 -10.3489 -12.5782 -0.8484
# 4 -17.2704 -12.4682 -10.3489 30.2510 1.3740 -9.2200
# 5 9.7595 -8.8969 -12.5782 1.3740 42.0445 -2.6409
# 6 17.6866 10.2556 -0.8484 -9.2200 -2.6409 34.9065
#
#
#
# Elastic Compliance Matrix: (Units=1/GPa)
#
#
# Indices 1 2 3 4 5 6 
#
# 1 0.011204 -0.003932 -0.004024 0.002287 -0.004987 -0.004392
# 2 -0.003932 0.010575 -0.000017 0.001848 0.003060 -0.000395
# 3 -0.004024 -0.000017 0.007829 0.001064 0.003412 0.002773
# 4 0.002287 0.001848 0.001064 0.038053 -0.000541 0.008334
# 5 -0.004987 0.003060 0.003412 -0.000541 0.026854 0.003599
# 6 -0.004392 -0.000395 0.002773 0.008334 0.003599 0.033531
#
#
# Mechanical properties :
#
#
# Convention : Reuss Voigt Hill
#
# Bulk Modulus (GPa) = 73.20190 83.25266 78.22728
# Shear Modulus (GPa) = 33.65974 40.34569 37.00272
#
# Velocity S-wave (km/s) = 3.81363 4.17524 3.99852
# Velocity P-wave (km/s) = 7.14289 7.69515 7.42416
#
# Compressibility (1/GPa) = 0.01366085
#
# Stress axis : x y z
#
# Youngs Moduli (GPa) = 89.25749 94.56447 127.72715
#
# Poissons Ratio (x) = 0.37186 0.51392
# Poissons Ratio (y) = 0.35099 0.00222
# Poissons Ratio (z) = 0.35913 0.00165
#
# Static dielectric constant tensor:
#      x y z
#    x 4.463140 0.116020 0.190870 
#    y 0.116020 4.145200 0.015180 
#    z 0.190870 0.015180 4.304660 
# 
# 
# High freq. dielectric constant tensor:
#      x y z
#    x 1.915780 0.003670 -0.004710 
#    y 0.003670 1.914560 -0.005760 
#    z -0.004710 -0.005760 1.925930 
# 
# From -- ./inp_files/80737.got.cif
#   From: 2010.06.25/outbox.cif.g09.slc.cpg/sg2_41_cif.got.tgz:80737.got - 2010.06.27 13:26:56.
