data_PCOD8026994
_publ_section_title
;
Structure prediction by ZEFSAII (Michael W. Deem and Ramdas Pophale) SiO2 
 PCOD8026994
Probable space group: P -1
;
_chemical_formula_sum "Si O2"
_cell_formula_units_Z 14
_cell_length_a 9.705590
_cell_length_b 8.562862
_cell_length_c 8.392580
_cell_angle_alpha 116.523016
_cell_angle_beta 84.907621
_cell_angle_gamma 106.937828
_cell_volume 596.312119
_symmetry_space_group_name_H-M "P -1"
_symmetry_group_IT_number 2
_symmetry_cell_setting 'triclinic'
loop_
_space_group_symop_operation_xyz
x,y,z
-x,-y,-z
loop_
_atom_site_type_symbol
_atom_site_label
_atom_site_fract_x
_atom_site_fract_y
_atom_site_fract_z
Si Si1 0.094150 0.397470 0.846004
Si Si2 0.117821 0.070039 0.886381
Si Si3 0.392735 0.506683 0.718805
Si Si4 0.528667 0.205820 0.654843
Si Si5 0.759787 0.451007 0.545214
Si Si6 0.438660 0.145834 0.985265
Si Si7 0.009085 0.738009 0.552834
O O1 0.128102 0.269699 0.919699
O O2 0.249125 0.525198 0.831579
O O3 0.011314 0.298366 0.651236
O O4 0.000000 0.500000 0.000000
O O5 0.270225 0.059054 0.933506
O O6 0.071055 0.950749 0.676540
O O7 0.000000 0.000000 0.000000
O O8 0.409263 0.303539 0.650006
O O9 0.375087 0.552751 0.556693
O O10 0.532830 0.663767 0.834943
O O11 0.687126 0.341248 0.659224
O O12 0.527703 0.195266 0.837660
O O13 0.500000 0.000000 0.500000
O O14 0.860147 0.660951 0.637659
O O15 0.873010 0.349656 0.420130
O O16 0.500000 0.000000 0.000000
#
# Coordination Sequence:
#
# PCOD8026994 Si02
#       7
#     2   2   2   2   2   2   2
#     4  11  27  47  75 107 144 199 246 304 380 438
#     4  12  28  46  74 106 150 195 252 300 372 443
#     4  11  25  48  72 107 151 184 247 312 366 452
#     4  12  25  45  72 103 144 192 244 299 373 438
#     4  10  24  43  78 103 142 188 242 296 383 424
#     4  12  28  48  72 109 152 192 247 309 368 450
#     4  10  24  47  73 104 151 187 247 305 360 454
#
# _framework density 23.477640000000001
#
# number of rings (size 3 to 8) (size 9 to 14) (size 15 to 20)
#    0.000    0.857    1.429    3.857   12.000    0.000 
#    2.571    0.000    0.000    0.000    0.000    0.000 
#    0.000    0.000    0.000    0.000    0.000    0.000 
#
# Total GULP energy -173523.086288 kJ/mol
# GULP energy per Si atom -12394.506163 kJ/mol
# Density = 2.342420 g / cm^3
# Si number density = 23.477640 Si / 1000 Ang^3
#
#
#
# Elastic Constant Matrix: (Units=GPa)
#
#
# Indices 1 2 3 4 5 6 
#
# 1 145.1955 55.9087 49.6280 -3.4180 4.9354 6.6216
# 2 55.9087 133.3190 42.1896 -15.4566 3.7814 -7.5871
# 3 49.6280 42.1896 92.8011 5.5913 18.4802 -2.2257
# 4 -3.4180 -15.4566 5.5913 46.3165 0.0301 -0.1609
# 5 4.9354 3.7814 18.4802 0.0301 31.1644 -1.7161
# 6 6.6216 -7.5871 -2.2257 -0.1609 -1.7161 45.5751
#
#
#
# Elastic Compliance Matrix: (Units=1/GPa)
#
#
# Indices 1 2 3 4 5 6 
#
# 1 0.009399 -0.002775 -0.004055 0.000250 0.001144 -0.001982
# 2 -0.002775 0.010330 -0.003681 0.003693 0.001476 0.002012
# 3 -0.004055 -0.003681 0.016576 -0.003521 -0.008712 0.000445
# 4 0.000250 0.003693 -0.003521 0.023267 0.001608 0.000549
# 5 0.001144 0.001476 -0.008712 0.001608 0.036950 0.001051
# 6 -0.001982 0.002012 0.000445 0.000549 0.001051 0.022628
#
#
# Mechanical properties :
#
#
# Convention : Reuss Voigt Hill
#
# Bulk Modulus (GPa) = 65.42975 74.08535 69.75755
# Shear Modulus (GPa) = 34.41973 39.51715 36.96844
#
# Velocity S-wave (km/s) = 3.83308 4.10711 3.97246
# Velocity P-wave (km/s) = 6.89343 7.35631 7.12863
#
# Compressibility (1/GPa) = 0.01528357
#
# Stress axis : x y z
#
# Youngs Moduli (GPa) = 106.39279 96.80704 60.32989
#
# Poissons Ratio (x) = 0.26860 0.24466
# Poissons Ratio (y) = 0.29519 0.22205
# Poissons Ratio (z) = 0.43146 0.35630
#
# Static dielectric constant tensor:
#      x y z
#    x 5.763850 2.216730 -1.310990 
#    y 2.216730 7.844220 -1.993200 
#    z -1.310990 -1.993200 5.687160 
# 
# 
# High freq. dielectric constant tensor:
#      x y z
#    x 1.945040 0.002330 -0.001220 
#    y 0.002330 1.943780 -0.008300 
#    z -0.001220 -0.008300 1.918990 
# 
# From -- ./inp_files/160183.got.cif
#   From: 2010.06.25/outbox.cif.g09.slc.cpg/sg2_81_cif.got.tgz:160183.got - 2010.06.27 13:26:56.
