data_PCOD8026043
_publ_section_title
;
Structure prediction by ZEFSAII (Michael W. Deem and Ramdas Pophale) SiO2 
 PCOD8026043
Probable space group: P -1
;
_chemical_formula_sum "Si O2"
_cell_formula_units_Z 16
_cell_length_a 15.346064
_cell_length_b 13.576116
_cell_length_c 8.704334
_cell_angle_alpha 112.680603
_cell_angle_beta 102.982240
_cell_angle_gamma 136.707625
_cell_volume 690.460381
_symmetry_space_group_name_H-M "P -1"
_symmetry_group_IT_number 2
_symmetry_cell_setting 'triclinic'
loop_
_space_group_symop_operation_xyz
x,y,z
-x,-y,-z
loop_
_atom_site_type_symbol
_atom_site_label
_atom_site_fract_x
_atom_site_fract_y
_atom_site_fract_z
Si Si1 0.145509 0.370751 0.962212
Si Si2 0.624464 0.079498 0.230652
Si Si3 0.207257 0.252871 0.136351
Si Si4 0.281211 0.539231 0.785776
Si Si5 0.468826 0.873544 0.527041
Si Si6 0.074342 0.733654 0.722521
Si Si7 0.070403 0.670559 0.011017
Si Si8 0.551177 0.697786 0.774559
O O1 0.117914 0.226775 0.945141
O O2 0.360740 0.654657 0.279252
O O3 0.149737 0.359147 0.773883
O O4 0.958089 0.249507 0.860326
O O5 0.679592 0.231617 0.466977
O O6 0.842403 0.264577 0.365494
O O7 0.500000 0.000000 0.000000
O O8 0.460944 0.816887 0.079218
O O9 0.386755 0.510893 0.456230
O O10 0.322064 0.273594 0.123796
O O11 0.000000 0.000000 0.000000
O O12 0.405891 0.572452 0.786611
O O13 0.117557 0.409899 0.519336
O O14 0.500000 0.000000 0.500000
O O15 0.692092 0.080698 0.802454
O O16 0.971601 0.570530 0.738476
O O17 0.272670 0.022642 0.021608
O O18 0.000000 0.500000 0.000000
#
# Coordination Sequence:
#
# PCOD8026043 Si02
#       8
#     2   2   2   2   2   2   2   2
#     4  12  27  43  68 101 139 180 229 281 340 408
#     4  11  24  41  64  97 134 190 231 276 340 396
#     4  11  24  47  77 105 131 172 226 288 349 411
#     4  11  25  43  66 102 137 181 229 277 341 411
#     4  12  24  44  63  95 143 180 230 280 330 400
#     4  11  25  44  69  98 141 180 233 284 334 417
#     4  12  24  39  63  95 132 182 225 275 333 393
#     4  10  23  47  75 100 131 174 225 283 354 405
#
# _framework density 23.172944999999999
#
# number of rings (size 3 to 8) (size 9 to 14) (size 15 to 20)
#    0.000    0.750    3.750    3.000    5.250    3.000 
#    0.000    2.500    0.000    0.000    0.000    0.000 
#    0.000    0.000    0.000    0.000    0.000    0.000 
#
# Total GULP energy -198232.720932 kJ/mol
# GULP energy per Si atom -12389.545058 kJ/mol
# Density = 2.312020 g / cm^3
# Si number density = 23.172945 Si / 1000 Ang^3
#
#
#
# Elastic Constant Matrix: (Units=GPa)
#
#
# Indices 1 2 3 4 5 6 
#
# 1 186.6584 68.6497 35.7362 -13.1409 19.3864 19.2805
# 2 68.6497 158.7493 51.7175 -25.2025 5.8119 4.3711
# 3 35.7362 51.7175 79.6573 3.7193 12.8337 12.3032
# 4 -13.1409 -25.2025 3.7193 43.5128 9.0712 7.8760
# 5 19.3864 5.8119 12.8337 9.0712 30.5294 -5.1742
# 6 19.2805 4.3711 12.3032 7.8760 -5.1742 37.8900
#
#
#
# Elastic Compliance Matrix: (Units=1/GPa)
#
#
# Indices 1 2 3 4 5 6 
#
# 1 0.007647 -0.002350 -0.000302 0.003144 -0.006064 -0.005004
# 2 -0.002350 0.010055 -0.005981 0.005309 0.000678 0.000967
# 3 -0.000302 -0.005981 0.018621 -0.002767 -0.006612 -0.005530
# 4 0.003144 0.005309 -0.002767 0.031680 -0.012894 -0.009660
# 5 -0.006064 0.000678 -0.006612 -0.012894 0.045468 0.014044
# 6 -0.005004 0.000967 -0.005530 -0.009660 0.014044 0.034548
#
#
# Mechanical properties :
#
#
# Convention : Reuss Voigt Hill
#
# Bulk Modulus (GPa) = 52.46999 81.91911 67.19455
# Shear Modulus (GPa) = 29.13116 40.31720 34.72418
#
# Velocity S-wave (km/s) = 3.54943 4.17566 3.87522
# Velocity P-wave (km/s) = 6.28410 7.66004 7.00593
#
# Compressibility (1/GPa) = 0.01905851
#
# Stress axis : x y z
#
# Youngs Moduli (GPa) = 130.76195 99.45196 53.70274
#
# Poissons Ratio (x) = 0.23367 0.01623
# Poissons Ratio (y) = 0.30724 0.32118
# Poissons Ratio (z) = 0.03953 0.59479
#
# Static dielectric constant tensor:
#      x y z
#    x 4.681630 -0.067880 0.259020 
#    y -0.067880 4.310980 0.094080 
#    z 0.259020 0.094080 4.220690 
# 
# 
# High freq. dielectric constant tensor:
#      x y z
#    x 1.930290 0.016360 0.017230 
#    y 0.016360 1.921290 0.008020 
#    z 0.017230 0.008020 1.920260 
# 
# From -- ./inp_files/308133.got.cif
#   From: 2010.06.25/outbox.cif.g09.slc.cpg/sg2_155_cif.got.tgz:308133.got - 2010.06.27 13:26:56.
