data_PCOD8026937
_publ_section_title
;
Structure prediction by ZEFSAII (Michael W. Deem and Ramdas Pophale) SiO2 
 PCOD8026937
Probable space group: P -1
;
_chemical_formula_sum "Si O2"
_cell_formula_units_Z 10
_cell_length_a 9.543795
_cell_length_b 8.836804
_cell_length_c 9.565048
_cell_angle_alpha 45.737087
_cell_angle_beta 109.465837
_cell_angle_gamma 79.302387
_cell_volume 427.622697
_symmetry_space_group_name_H-M "P -1"
_symmetry_group_IT_number 2
_symmetry_cell_setting 'triclinic'
loop_
_space_group_symop_operation_xyz
x,y,z
-x,-y,-z
loop_
_atom_site_type_symbol
_atom_site_label
_atom_site_fract_x
_atom_site_fract_y
_atom_site_fract_z
Si Si1 0.212396 0.351228 0.119691
Si Si2 0.182161 0.455547 0.738747
Si Si3 0.059067 0.128676 0.828105
Si Si4 0.487939 0.744858 0.198125
Si Si5 0.514489 0.250363 0.488529
O O1 0.322122 0.388336 0.248676
O O2 0.313904 0.036549 0.333037
O O3 0.215792 0.488104 0.889915
O O4 0.000000 0.500000 0.000000
O O5 0.052130 0.359431 0.757907
O O6 0.385803 0.214014 0.887950
O O7 0.080314 0.734372 0.440049
O O8 0.268895 0.907760 0.981243
O O9 0.000000 0.000000 0.000000
O O10 0.581342 0.433716 0.396068
O O11 0.525583 0.784063 0.343703
#
# Coordination Sequence:
#
# PCOD8026937 Si02
#       5
#     2   2   2   2   2
#     4  11  26  44  66 103 150 184 227 287 353 420
#     4  11  26  42  72 107 135 190 236 280 356 412
#     4  11  24  42  71 106 142 175 234 292 343 407
#     4  11  23  44  75 103 135 180 243 291 335 417
#     4  10  24  43  72 100 141 188 227 286 362 397
#
# _framework density 23.385100000000001
#
# number of rings (size 3 to 8) (size 9 to 14) (size 15 to 20)
#    0.000    1.200    2.000    3.000    8.400    2.400 
#    0.000    3.000    0.000    0.000    0.000    0.000 
#    0.000    0.000    0.000    0.000    0.000    0.000 
#
# Total GULP energy -124003.191110 kJ/mol
# GULP energy per Si atom -12400.319111 kJ/mol
# Density = 2.333187 g / cm^3
# Si number density = 23.385100 Si / 1000 Ang^3
#
#
#
# Elastic Constant Matrix: (Units=GPa)
#
#
# Indices 1 2 3 4 5 6 
#
# 1 150.2124 37.2464 68.9238 7.1075 7.5168 -27.4596
# 2 37.2464 97.5309 37.5491 18.1596 9.3178 -10.4065
# 3 68.9238 37.5491 171.5064 21.0488 12.5464 -18.2649
# 4 7.1075 18.1596 21.0488 33.9426 5.5276 -6.7622
# 5 7.5168 9.3178 12.5464 5.5276 38.6412 -10.3334
# 6 -27.4596 -10.4065 -18.2649 -6.7622 -10.3334 38.8074
#
#
#
# Elastic Compliance Matrix: (Units=1/GPa)
#
#
# Indices 1 2 3 4 5 6 
#
# 1 0.009447 -0.002344 -0.003042 0.002066 0.000810 0.005200
# 2 -0.002344 0.012703 -0.001076 -0.005413 -0.001512 -0.000104
# 3 -0.003042 -0.001076 0.007824 -0.003388 -0.001109 0.000355
# 4 0.002066 -0.005413 -0.003388 0.035144 -0.001949 0.004021
# 5 0.000810 -0.001512 -0.001109 -0.001949 0.028574 0.006915
# 6 0.005200 -0.000104 0.000355 0.004021 0.006915 0.032129
#
#
# Mechanical properties :
#
#
# Convention : Reuss Voigt Hill
#
# Bulk Modulus (GPa) = 58.64888 78.52093 68.58491
# Shear Modulus (GPa) = 34.61953 40.64695 37.63324
#
# Velocity S-wave (km/s) = 3.85178 4.17364 4.01594
# Velocity P-wave (km/s) = 6.70192 7.54161 7.13413
#
# Compressibility (1/GPa) = 0.01705062
#
# Stress axis : x y z
#
# Youngs Moduli (GPa) = 105.85914 78.71847 127.81904
#
# Poissons Ratio (x) = 0.18449 0.38887
# Poissons Ratio (y) = 0.24809 0.13747
# Poissons Ratio (z) = 0.32206 0.08466
#
# Static dielectric constant tensor:
#      x y z
#    x 4.145920 0.050810 0.038450 
#    y 0.050810 4.242490 -0.058430 
#    z 0.038450 -0.058430 4.627920 
# 
# 
# High freq. dielectric constant tensor:
#      x y z
#    x 1.929110 -0.001180 0.004810 
#    y -0.001180 1.910750 -0.009410 
#    z 0.004810 -0.009410 1.947400 
# 
# From -- ./inp_files/144092.got.cif
#   From: 2010.06.25/outbox.cif.g09.slc.cpg/sg2_73_cif.got.tgz:144092.got - 2010.06.27 13:26:56.
