data_PCOD8026952
_publ_section_title
;
Structure prediction by ZEFSAII (Michael W. Deem and Ramdas Pophale) SiO2 
 PCOD8026952
Probable space group: P -1
;
_chemical_formula_sum "Si O2"
_cell_formula_units_Z 16
_cell_length_a 16.381916
_cell_length_b 15.251900
_cell_length_c 5.323077
_cell_angle_alpha 64.874025
_cell_angle_beta 122.443972
_cell_angle_gamma 144.456323
_cell_volume 652.290030
_symmetry_space_group_name_H-M "P -1"
_symmetry_group_IT_number 2
_symmetry_cell_setting 'triclinic'
loop_
_space_group_symop_operation_xyz
x,y,z
-x,-y,-z
loop_
_atom_site_type_symbol
_atom_site_label
_atom_site_fract_x
_atom_site_fract_y
_atom_site_fract_z
Si Si1 0.481277 0.048028 0.656244
Si Si2 0.694284 0.910010 0.582591
Si Si3 0.407698 0.636479 0.159143
Si Si4 0.780136 0.674032 0.578489
Si Si5 0.032081 0.216500 0.750123
Si Si6 0.429204 0.348278 0.963967
Si Si7 0.996055 0.406773 0.414148
Si Si8 0.770405 0.355256 0.893739
O O1 0.334326 0.004475 0.448139
O O2 0.618237 0.229046 0.640033
O O3 0.500000 0.000000 0.500000
O O4 0.500000 0.000000 0.000000
O O5 0.573869 0.808965 0.279100
O O6 0.665306 0.793086 0.841081
O O7 0.870615 0.042165 0.644929
O O8 0.349225 0.508749 0.409706
O O9 0.427273 0.601756 0.964321
O O10 0.274395 0.615035 0.967008
O O11 0.878242 0.731450 0.421323
O O12 0.692667 0.709811 0.375989
O O13 0.881577 0.759215 0.893930
O O14 0.008455 0.311280 0.671021
O O15 0.500000 0.500000 0.000000
O O16 0.111725 0.499715 0.262288
O O17 0.000000 0.500000 0.500000
O O18 0.830234 0.295674 0.152063
#
# Coordination Sequence:
#
# PCOD8026952 Si02
#       8
#     2   2   2   2   2   2   2   2
#     4  11  27  47  72 108 153 201 253 307 382 458
#     4  11  29  47  78 111 156 203 256 326 394 456
#     4  11  24  49  76 111 152 200 263 323 384 471
#     4  12  27  49  79 107 151 203 257 317 393 457
#     4  12  29  49  74 115 159 198 258 327 389 459
#     4  12  27  50  82 114 149 205 270 325 388 466
#     4  11  24  43  74 106 154 202 257 309 387 462
#     4  10  24  43  72 111 143 203 252 314 381 462
#
# _framework density 24.528967000000002
#
# number of rings (size 3 to 8) (size 9 to 14) (size 15 to 20)
#    0.000    0.750    2.500    2.625   12.250    2.000 
#    0.000    0.000    0.000    0.000    0.000    0.000 
#    0.000    0.000    0.000    0.000    0.000    0.000 
#
# Total GULP energy -198224.539867 kJ/mol
# GULP energy per Si atom -12389.033742 kJ/mol
# Density = 2.447314 g / cm^3
# Si number density = 24.528967 Si / 1000 Ang^3
#
#
#
# Elastic Constant Matrix: (Units=GPa)
#
#
# Indices 1 2 3 4 5 6 
#
# 1 126.0365 37.8796 7.9782 1.7549 -15.4424 13.6804
# 2 37.8796 108.4927 15.9072 1.8110 -4.4945 14.0156
# 3 7.9782 15.9072 79.8527 -6.7041 -0.1676 7.2137
# 4 1.7549 1.8110 -6.7041 33.3845 -5.6318 8.0640
# 5 -15.4424 -4.4945 -0.1676 -5.6318 44.8246 -1.2295
# 6 13.6804 14.0156 7.2137 8.0640 -1.2295 31.1902
#
#
#
# Elastic Compliance Matrix: (Units=1/GPa)
#
#
# Indices 1 2 3 4 5 6 
#
# 1 0.009459 -0.002801 -0.000037 0.000877 0.003006 -0.002990
# 2 -0.002801 0.010853 -0.001581 0.000042 0.000032 -0.003292
# 3 -0.000037 -0.001581 0.013446 0.003629 0.000244 -0.003312
# 4 0.000877 0.000042 0.003629 0.033723 0.004288 -0.009792
# 5 0.003006 0.000032 0.000244 0.004288 0.023845 -0.001558
# 6 -0.002990 -0.003292 -0.003312 -0.009792 -0.001558 0.038088
#
#
# Mechanical properties :
#
#
# Convention : Reuss Voigt Hill
#
# Bulk Modulus (GPa) = 40.12921 48.65687 44.39304
# Shear Modulus (GPa) = 34.11588 38.72098 36.41843
#
# Velocity S-wave (km/s) = 3.73344 3.97745 3.85738
# Velocity P-wave (km/s) = 5.91441 6.40102 6.16252
#
# Compressibility (1/GPa) = 0.02491950
#
# Stress axis : x y z
#
# Youngs Moduli (GPa) = 105.71970 92.14108 74.37095
#
# Poissons Ratio (x) = 0.25809 0.00276
# Poissons Ratio (y) = 0.29612 0.11759
# Poissons Ratio (z) = 0.00392 0.14569
#
# Static dielectric constant tensor:
#      x y z
#    x 4.887150 0.190430 0.609450 
#    y 0.190430 4.517890 0.216960 
#    z 0.609450 0.216960 4.785290 
# 
# 
# High freq. dielectric constant tensor:
#      x y z
#    x 1.993370 0.007310 0.019570 
#    y 0.007310 1.975170 0.001380 
#    z 0.019570 0.001380 1.974090 
# 
# From -- ./inp_files/97828.got.cif
#   From: 2010.06.25/outbox.cif.g09.slc.cpg/sg2_49_cif.got.tgz:97828.got - 2010.06.27 13:26:56.
