data_PCOD8026064
_publ_section_title
;
Structure prediction by ZEFSAII (Michael W. Deem and Ramdas Pophale) SiO2 
 PCOD8026064
Probable space group: P -1
;
_chemical_formula_sum "Si O2"
_cell_formula_units_Z 16
_cell_length_a 6.420005
_cell_length_b 5.538187
_cell_length_c 23.928187
_cell_angle_alpha 107.132319
_cell_angle_beta 125.892283
_cell_angle_gamma 75.367338
_cell_volume 655.125223
_symmetry_space_group_name_H-M "P -1"
_symmetry_group_IT_number 2
_symmetry_cell_setting 'triclinic'
loop_
_space_group_symop_operation_xyz
x,y,z
-x,-y,-z
loop_
_atom_site_type_symbol
_atom_site_label
_atom_site_fract_x
_atom_site_fract_y
_atom_site_fract_z
Si Si1 0.902146 0.919195 0.230128
Si Si2 0.520945 0.218899 0.647431
Si Si3 0.928412 0.951500 0.850687
Si Si4 0.356563 0.362033 0.515784
Si Si5 0.887643 0.139468 0.437382
Si Si6 0.575208 0.283163 0.043067
Si Si7 0.562405 0.398808 0.854292
Si Si8 0.531764 0.332588 0.254156
O O1 0.188859 0.835590 0.290122
O O2 0.720373 0.698488 0.196202
O O3 0.891022 0.962980 0.164836
O O4 0.795109 0.170512 0.264973
O O5 0.528571 0.199209 0.579108
O O6 0.404771 0.495106 0.671463
O O7 0.332626 0.023721 0.633181
O O8 0.690846 0.839162 0.774345
O O9 0.112157 0.751118 0.903118
O O10 0.800873 0.179702 0.886021
O O11 0.500000 0.500000 0.500000
O O12 0.227508 0.579233 0.549488
O O13 0.146866 0.183000 0.444370
O O14 0.000000 0.000000 0.500000
O O15 0.427462 0.382827 0.083003
O O16 0.500000 0.500000 0.000000
O O17 0.500000 0.000000 0.000000
O O18 0.600957 0.505247 0.806293
#
# Coordination Sequence:
#
# PCOD8026064 Si02
#       8
#     2   2   2   2   2   2   2   2
#     4  11  24  46  71 108 144 191 238 305 376 438
#     4  11  24  44  71 104 140 180 247 298 361 451
#     4  11  25  47  75  99 157 189 239 311 377 426
#     4  10  23  48  69  95 139 191 229 295 369 430
#     4   9  22  46  65  95 141 178 231 293 359 427
#     4  12  28  47  76 113 152 202 261 302 366 465
#     4  11  25  47  73 103 150 196 238 308 380 425
#     4  11  25  44  73 107 141 189 238 303 374 432
#
# _framework density 24.422809999999998
#
# number of rings (size 3 to 8) (size 9 to 14) (size 15 to 20)
#    0.000    1.250    2.500    1.500    5.250    3.000 
#   18.000    0.000    0.000    0.000    0.000    0.000 
#    0.000    0.000    0.000    0.000    0.000    0.000 
#
# Total GULP energy -198251.029991 kJ/mol
# GULP energy per Si atom -12390.689374 kJ/mol
# Density = 2.436722 g / cm^3
# Si number density = 24.422810 Si / 1000 Ang^3
#
#
#
# Elastic Constant Matrix: (Units=GPa)
#
#
# Indices 1 2 3 4 5 6 
#
# 1 121.6224 35.5544 45.8285 7.6686 1.8403 -2.0786
# 2 35.5544 99.8749 28.5337 13.2953 4.0563 -10.5196
# 3 45.8285 28.5337 93.6631 -2.0573 0.9210 -9.6703
# 4 7.6686 13.2953 -2.0573 47.3090 -0.1921 -2.1090
# 5 1.8403 4.0563 0.9210 -0.1921 26.9004 -4.9222
# 6 -2.0786 -10.5196 -9.6703 -2.1090 -4.9222 46.8648
#
#
#
# Elastic Compliance Matrix: (Units=1/GPa)
#
#
# Indices 1 2 3 4 5 6 
#
# 1 0.010760 -0.002423 -0.004668 -0.001318 -0.000428 -0.001134
# 2 -0.002423 0.012217 -0.002398 -0.003067 -0.001274 0.001868
# 3 -0.004668 -0.002398 0.013970 0.002143 0.000639 0.002301
# 4 -0.001318 -0.003067 0.002143 0.022344 0.000782 0.000783
# 5 -0.000428 -0.001274 0.000639 0.000782 0.038086 0.003862
# 6 -0.001134 0.001868 0.002301 0.000783 0.003862 0.022623
#
#
# Mechanical properties :
#
#
# Convention : Reuss Voigt Hill
#
# Bulk Modulus (GPa) = 55.65705 59.44375 57.55040
# Shear Modulus (GPa) = 34.49031 37.89777 36.19404
#
# Velocity S-wave (km/s) = 3.76202 3.94348 3.85382
# Velocity P-wave (km/s) = 6.45824 6.71766 6.58923
#
# Compressibility (1/GPa) = 0.01796718
#
# Stress axis : x y z
#
# Youngs Moduli (GPa) = 92.93795 81.85262 71.58379
#
# Poissons Ratio (x) = 0.19835 0.33418
# Poissons Ratio (y) = 0.22521 0.17167
# Poissons Ratio (z) = 0.43387 0.19629
#
# Static dielectric constant tensor:
#      x y z
#    x 4.615500 -0.236000 0.289030 
#    y -0.236000 4.935870 0.067250 
#    z 0.289030 0.067250 4.475900 
# 
# 
# High freq. dielectric constant tensor:
#      x y z
#    x 1.973560 -0.002670 0.009960 
#    y -0.002670 1.990380 -0.004550 
#    z 0.009960 -0.004550 1.959730 
# 
# From -- ./inp_files/603341.got.cif
#   From: 2010.06.25/outbox.cif.g09.slc.cpg/sg2_302_cif.got.tgz:603341.got - 2010.06.27 13:26:56.
