data_PCOD8026518
_publ_section_title
;
Structure prediction by ZEFSAII (Michael W. Deem and Ramdas Pophale) SiO2 
 PCOD8026518
Probable space group: P -1
;
_chemical_formula_sum "Si O2"
_cell_formula_units_Z 16
_cell_length_a 8.764007
_cell_length_b 5.426799
_cell_length_c 17.690315
_cell_angle_alpha 97.120330
_cell_angle_beta 123.762697
_cell_angle_gamma 93.542606
_cell_volume 685.303914
_symmetry_space_group_name_H-M "P -1"
_symmetry_group_IT_number 2
_symmetry_cell_setting 'triclinic'
loop_
_space_group_symop_operation_xyz
x,y,z
-x,-y,-z
loop_
_atom_site_type_symbol
_atom_site_label
_atom_site_fract_x
_atom_site_fract_y
_atom_site_fract_z
Si Si1 0.024788 0.866304 0.758267
Si Si2 0.710569 0.073305 0.033377
Si Si3 0.205695 0.126709 0.678568
Si Si4 0.567515 0.466430 0.760248
Si Si5 0.201105 0.447998 0.028671
Si Si6 0.115943 0.599301 0.401750
Si Si7 0.699216 0.120622 0.672275
Si Si8 0.345320 0.765544 0.604450
O O1 0.930996 0.643449 0.670827
O O2 0.850643 0.977427 0.749984
O O3 0.152620 0.064441 0.748053
O O4 0.156327 0.792991 0.858084
O O5 0.710023 0.297114 0.980944
O O6 0.793427 0.818374 0.023108
O O7 0.500000 0.000000 0.000000
O O8 0.423362 0.235535 0.744310
O O9 0.076106 0.320078 0.619094
O O10 0.183886 0.893472 0.605206
O O11 0.685638 0.595699 0.866578
O O12 0.701694 0.374607 0.730923
O O13 0.451417 0.657507 0.697245
O O14 0.000000 0.500000 0.000000
O O15 0.233679 0.819715 0.392483
O O16 0.243489 0.561388 0.508540
O O17 0.493517 0.962816 0.606603
#
# Coordination Sequence:
#
# PCOD8026518 Si02
#       8
#     2   2   2   2   2   2   2   2
#     4  11  25  43  71  97 140 180 238 294 357 431
#     4  12  29  49  79 111 151 197 254 313 383 447
#     4  10  24  42  67  97 142 180 233 288 359 420
#     4  11  25  43  71  97 140 180 238 294 357 431
#     4  12  29  49  79 111 151 197 254 313 383 447
#     4  11  24  42  68 101 140 185 234 288 357 430
#     4  10  24  42  67  97 142 180 233 288 359 420
#     4  11  24  42  68 101 140 185 234 288 357 430
#
# _framework density 23.347308000000002
#
# number of rings (size 3 to 8) (size 9 to 14) (size 15 to 20)
#    0.000    1.000    0.000    4.500   14.000    8.000 
#    0.000    0.000    0.000    0.000    0.000    0.000 
#    0.000    0.000    0.000    0.000    0.000    0.000 
#
# Total GULP energy -198350.374379 kJ/mol
# GULP energy per Si atom -12396.898399 kJ/mol
# Density = 2.329417 g / cm^3
# Si number density = 23.347308 Si / 1000 Ang^3
#
#
#
# Elastic Constant Matrix: (Units=GPa)
#
#
# Indices 1 2 3 4 5 6 
#
# 1 119.4483 16.2822 12.4745 -1.4176 7.0919 -16.1393
# 2 16.2822 86.2418 8.4240 -4.1369 -1.6079 -11.1546
# 3 12.4745 8.4240 118.0017 -4.9781 0.2525 12.8770
# 4 -1.4176 -4.1369 -4.9781 34.4725 -6.2069 -1.5351
# 5 7.0919 -1.6079 0.2525 -6.2069 20.6708 -3.2608
# 6 -16.1393 -11.1546 12.8770 -1.5351 -3.2608 22.7339
#
#
#
# Elastic Compliance Matrix: (Units=1/GPa)
#
#
# Indices 1 2 3 4 5 6 
#
# 1 0.009773 -0.000782 -0.001762 -0.000032 -0.002262 0.007226
# 2 -0.000782 0.013002 -0.001556 0.002188 0.003107 0.007299
# 3 -0.001762 -0.001556 0.009621 0.000686 -0.000612 -0.007506
# 4 -0.000032 0.002188 0.000686 0.031409 0.010275 0.004257
# 5 -0.002262 0.003107 -0.000612 0.010275 0.053858 0.008684
# 6 0.007226 0.007299 -0.007506 0.004257 0.008684 0.058483
#
#
# Mechanical properties :
#
#
# Convention : Reuss Voigt Hill
#
# Bulk Modulus (GPa) = 41.33199 44.22814 42.78006
# Shear Modulus (GPa) = 25.98596 34.67618 30.33107
#
# Velocity S-wave (km/s) = 3.33981 3.85805 3.60825
# Velocity P-wave (km/s) = 5.71087 6.23144 5.97682
#
# Compressibility (1/GPa) = 0.02419433
#
# Stress axis : x y z
#
# Youngs Moduli (GPa) = 102.32588 76.91142 103.93719
#
# Poissons Ratio (x) = 0.06015 0.18317
# Poissons Ratio (y) = 0.08002 0.16177
# Poissons Ratio (z) = 0.18033 0.11971
#
# Static dielectric constant tensor:
#      x y z
#    x 4.602030 0.068600 0.022660 
#    y 0.068600 4.207640 -0.026640 
#    z 0.022660 -0.026640 4.148650 
# 
# 
# High freq. dielectric constant tensor:
#      x y z
#    x 1.946190 0.002090 0.003850 
#    y 0.002090 1.921050 -0.000920 
#    z 0.003850 -0.000920 1.920050 
# 
# From -- ./inp_files/137835.got.cif
#   From: 2010.06.25/outbox.cif.g09.slc.cpg/sg2_69_cif.got.tgz:137835.got - 2010.06.27 13:26:56.
