data_PCOD8026178
_publ_section_title
;
Structure prediction by ZEFSAII (Michael W. Deem and Ramdas Pophale) SiO2 
 PCOD8026178
Probable space group: P -1
;
_chemical_formula_sum "Si O2"
_cell_formula_units_Z 16
_cell_length_a 14.222668
_cell_length_b 12.338876
_cell_length_c 12.337802
_cell_angle_alpha 112.705117
_cell_angle_beta 61.378391
_cell_angle_gamma 61.368068
_cell_volume 1003.339063
_symmetry_space_group_name_H-M "P -1"
_symmetry_group_IT_number 2
_symmetry_cell_setting 'triclinic'
loop_
_space_group_symop_operation_xyz
x,y,z
-x,-y,-z
loop_
_atom_site_type_symbol
_atom_site_label
_atom_site_fract_x
_atom_site_fract_y
_atom_site_fract_z
Si Si1 0.411417 0.865042 0.487917
Si Si2 0.058272 0.782025 0.322411
Si Si3 0.411480 0.487840 0.864995
Si Si4 0.198648 0.779042 0.439535
Si Si5 0.198952 0.439045 0.778689
Si Si6 0.199230 0.698026 0.844136
Si Si7 0.800651 0.155844 0.301844
Si Si8 0.057985 0.322573 0.782273
O O1 0.500053 0.723070 0.276891
O O2 0.578762 0.787206 0.422459
O O3 0.341214 0.823190 0.589037
O O4 0.246084 0.102922 0.646461
O O5 0.097237 0.766700 0.422865
O O6 0.000192 0.699294 0.300376
O O7 0.246637 0.645959 0.102775
O O8 0.889849 0.015274 0.464538
O O9 0.579051 0.422162 0.786628
O O10 0.340444 0.589838 0.824144
O O11 0.171844 0.785628 0.585186
O O12 0.172522 0.584311 0.784824
O O13 0.097360 0.422594 0.766560
O O14 0.110480 0.535090 0.984402
O O15 0.280062 0.693094 0.693162
O O16 0.999634 0.925762 0.074059
#
# Coordination Sequence:
#
# PCOD8026178 Si02
#       8
#     2   2   2   2   2   2   2   2
#     4  10  17  30  46  70  97 125 153 192 238 283
#     4  11  18  32  45  69 100 124 159 191 235 279
#     4  10  17  30  46  70  97 125 153 192 238 283
#     4  10  20  29  49  68  96 128 155 196 232 284
#     4  10  20  29  49  68  96 128 155 196 232 284
#     4  10  18  32  51  72  99 124 155 199 240 280
#     4  10  18  32  51  72  99 124 155 199 240 280
#     4  11  18  32  45  69 100 124 159 191 235 279
#
# _framework density 15.946752999999999
#
# number of rings (size 3 to 8) (size 9 to 14) (size 15 to 20)
#    0.000    1.750    7.500    0.750    0.000    4.500 
#    0.000    0.000    0.000    0.750    0.000    0.000 
#    0.000    5.000    0.000    0.000    0.000    0.000 
#
# Total GULP energy -198280.157782 kJ/mol
# GULP energy per Si atom -12392.509861 kJ/mol
# Density = 1.591046 g / cm^3
# Si number density = 15.946753 Si / 1000 Ang^3
#
#
#
# Elastic Constant Matrix: (Units=GPa)
#
#
# Indices 1 2 3 4 5 6 
#
# 1 105.8255 28.0342 32.2007 1.8988 6.5301 2.4110
# 2 28.0342 51.9971 33.2942 -2.4277 -1.9322 1.6381
# 3 32.2007 33.2942 65.7956 8.5496 -9.9185 -5.1639
# 4 1.8988 -2.4277 8.5496 10.3745 -4.5942 1.2864
# 5 6.5301 -1.9322 -9.9185 -4.5942 24.3729 2.4670
# 6 2.4110 1.6381 -5.1639 1.2864 2.4670 17.6701
#
#
#
# Elastic Compliance Matrix: (Units=1/GPa)
#
#
# Indices 1 2 3 4 5 6 
#
# 1 0.012372 -0.003630 -0.005073 -0.001215 -0.005699 -0.001950
# 2 -0.003630 0.036387 -0.020974 0.028706 0.001882 -0.011360
# 3 -0.005073 -0.020974 0.034426 -0.031268 0.006387 0.014082
# 4 -0.001215 0.028706 -0.031268 0.140474 0.018834 -0.024489
# 5 -0.005699 0.001882 0.006387 0.018834 0.049442 -0.005804
# 6 -0.001950 -0.011360 0.014082 -0.024489 -0.005804 0.064621
#
#
# Mechanical properties :
#
#
# Convention : Reuss Voigt Hill
#
# Bulk Modulus (GPa) = 41.96063 45.63071 43.79567
# Shear Modulus (GPa) = 12.34511 19.15610 15.75060
#
# Velocity S-wave (km/s) = 2.78537 3.46967 3.14618
# Velocity P-wave (km/s) = 6.05924 6.68790 6.38132
#
# Compressibility (1/GPa) = 0.02383186
#
# Stress axis : x y z
#
# Youngs Moduli (GPa) = 80.82502 27.48248 29.04810
#
# Poissons Ratio (x) = 0.09975 0.14735
# Poissons Ratio (y) = 0.29336 0.60926
# Poissons Ratio (z) = 0.41000 0.57643
#
# Static dielectric constant tensor:
#      x y z
#    x 3.121500 -0.019570 -0.058830 
#    y -0.019570 2.905220 0.177380 
#    z -0.058830 0.177380 3.362260 
# 
# 
# High freq. dielectric constant tensor:
#      x y z
#    x 1.608450 -0.005510 -0.016090 
#    y -0.005510 1.571300 0.022280 
#    z -0.016090 0.022280 1.628580 
# 
# From -- ./inp_files/430052.got.cif
#   From: 2010.06.25/outbox.cif.g09.slc.cpg/sg2_216_cif.got.tgz:430052.got - 2010.06.27 13:26:56.
