data_PCOD8026962
_publ_section_title
;
Structure prediction by ZEFSAII (Michael W. Deem and Ramdas Pophale) SiO2 
 PCOD8026962
Probable space group: P -1
;
_chemical_formula_sum "Si O2"
_cell_formula_units_Z 16
_cell_length_a 18.085478
_cell_length_b 12.812709
_cell_length_c 4.974503
_cell_angle_alpha 92.348179
_cell_angle_beta 75.732226
_cell_angle_gamma 42.051468
_cell_volume 702.317362
_symmetry_space_group_name_H-M "P -1"
_symmetry_group_IT_number 2
_symmetry_cell_setting 'triclinic'
loop_
_space_group_symop_operation_xyz
x,y,z
-x,-y,-z
loop_
_atom_site_type_symbol
_atom_site_label
_atom_site_fract_x
_atom_site_fract_y
_atom_site_fract_z
Si Si1 0.811415 0.761379 0.639476
Si Si2 0.452855 0.339822 0.895907
Si Si3 0.688216 0.209495 0.559407
Si Si4 0.194100 0.009808 0.078082
Si Si5 0.307522 0.553124 0.546864
Si Si6 0.448198 0.994667 0.294747
Si Si7 0.924680 0.328260 0.304712
Si Si8 0.067420 0.542201 0.185429
O O1 0.839194 0.647466 0.834986
O O2 0.928389 0.648984 0.328595
O O3 0.777702 0.903213 0.840175
O O4 0.698306 0.847185 0.566867
O O5 0.556336 0.317280 0.793078
O O6 0.346194 0.485611 0.806241
O O7 0.506162 0.171734 0.755589
O O8 0.396401 0.396867 0.249861
O O9 0.782905 0.092804 0.704993
O O10 0.686620 0.330742 0.492976
O O11 0.719425 0.105770 0.262461
O O12 0.057217 0.139881 0.111298
O O13 0.169673 0.663635 0.649919
O O14 0.500000 0.000000 0.500000
O O15 0.500000 0.000000 0.000000
O O16 0.917344 0.376616 0.619883
O O17 0.900814 0.452355 0.141476
#
# Coordination Sequence:
#
# PCOD8026962 Si02
#       8
#     2   2   2   2   2   2   2   2
#     4  10  24  46  71 102 139 182 228 273 340 411
#     4  12  26  48  69  98 140 186 229 277 338 408
#     4  12  25  46  74 100 131 182 237 286 336 405
#     4  11  24  43  72 103 136 175 226 286 345 406
#     4  12  27  46  71 100 138 182 231 289 337 398
#     4  12  29  43  70 106 139 181 221 279 342 403
#     4  11  25  43  68 105 139 177 222 284 349 400
#     4  10  24  43  73 100 137 183 224 274 334 422
#
# _framework density 22.781721999999998
#
# number of rings (size 3 to 8) (size 9 to 14) (size 15 to 20)
#    0.000    0.750    1.250    5.250    7.000    7.500 
#    0.000    0.000    0.000    0.000    0.000    0.000 
#    0.000    0.000    0.000    0.000    0.000    0.000 
#
# Total GULP energy -198531.216874 kJ/mol
# GULP energy per Si atom -12408.201055 kJ/mol
# Density = 2.272987 g / cm^3
# Si number density = 22.781722 Si / 1000 Ang^3
#
#
#
# Elastic Constant Matrix: (Units=GPa)
#
#
# Indices 1 2 3 4 5 6 
#
# 1 154.3242 49.4406 21.9966 2.2820 -15.1648 -24.3680
# 2 49.4406 102.2915 16.1615 -4.9956 -0.3912 -25.4538
# 3 21.9966 16.1615 80.9299 -6.4233 1.1760 -9.5398
# 4 2.2820 -4.9956 -6.4233 34.8873 1.6331 1.4542
# 5 -15.1648 -0.3912 1.1760 1.6331 23.4382 -2.4269
# 6 -24.3680 -25.4538 -9.5398 1.4542 -2.4269 24.3304
#
#
#
# Elastic Compliance Matrix: (Units=1/GPa)
#
#
# Indices 1 2 3 4 5 6 
#
# 1 0.009310 -0.002647 -0.001450 -0.001860 0.006884 0.006784
# 2 -0.002647 0.014163 -0.000584 0.001617 -0.000337 0.011807
# 3 -0.001450 -0.000584 0.013424 0.002431 -0.001490 0.002907
# 4 -0.001860 0.001617 0.002431 0.029685 -0.003506 -0.001341
# 5 0.006884 -0.000337 -0.001490 -0.003506 0.048573 0.011013
# 6 0.006784 0.011807 0.002907 -0.001341 0.011013 0.062566
#
#
# Mechanical properties :
#
#
# Convention : Reuss Voigt Hill
#
# Bulk Modulus (GPa) = 36.31582 56.97145 46.64363
# Shear Modulus (GPa) = 25.47625 33.19430 29.33528
#
# Velocity S-wave (km/s) = 3.34769 3.82128 3.59230
# Velocity P-wave (km/s) = 5.56040 6.67319 6.14205
#
# Compressibility (1/GPa) = 0.02753621
#
# Stress axis : x y z
#
# Youngs Moduli (GPa) = 107.41443 70.60514 74.49183
#
# Poissons Ratio (x) = 0.18689 0.10799
# Poissons Ratio (y) = 0.28432 0.04349
# Poissons Ratio (z) = 0.15572 0.04123
#
# Static dielectric constant tensor:
#      x y z
#    x 4.178840 -0.191540 -0.015330 
#    y -0.191540 4.402400 -0.111850 
#    z -0.015330 -0.111850 4.105020 
# 
# 
# High freq. dielectric constant tensor:
#      x y z
#    x 1.903470 -0.006270 0.003000 
#    y -0.006270 1.913030 -0.006880 
#    z 0.003000 -0.006880 1.903550 
# 
# From -- ./inp_files/95143.got.cif
#   From: 2010.06.25/outbox.cif.g09.slc.cpg/sg2_48_cif.got.tgz:95143.got - 2010.06.27 13:26:56.
