data_PCOD8026229
_publ_section_title
;
Structure prediction by ZEFSAII (Michael W. Deem and Ramdas Pophale) SiO2 
 PCOD8026229
Probable space group: P -1
;
_chemical_formula_sum "Si O2"
_cell_formula_units_Z 12
_cell_length_a 5.235938
_cell_length_b 7.186718
_cell_length_c 14.277716
_cell_angle_alpha 74.175541
_cell_angle_beta 103.440974
_cell_angle_gamma 98.451934
_cell_volume 500.729960
_symmetry_space_group_name_H-M "P -1"
_symmetry_group_IT_number 2
_symmetry_cell_setting 'triclinic'
loop_
_space_group_symop_operation_xyz
x,y,z
-x,-y,-z
loop_
_atom_site_type_symbol
_atom_site_label
_atom_site_fract_x
_atom_site_fract_y
_atom_site_fract_z
Si Si1 0.992243 0.286073 0.775782
Si Si2 0.618182 0.216627 0.500664
Si Si3 0.950224 0.114835 0.232699
Si Si4 0.337413 0.547329 0.889673
Si Si5 0.606495 0.586756 0.711522
Si Si6 0.211965 0.219338 0.620922
O O1 0.124156 0.364324 0.873720
O O2 0.718256 0.380404 0.723882
O O3 0.202220 0.349582 0.699110
O O4 0.929994 0.051524 0.799392
O O5 0.602408 0.361555 0.391910
O O6 0.445928 0.294210 0.561473
O O7 0.924646 0.225303 0.549324
O O8 0.500000 0.000000 0.500000
O O9 0.803565 0.255501 0.131749
O O10 0.159687 0.240538 0.296711
O O11 0.758846 0.002389 0.310247
O O12 0.519843 0.589174 0.810775
O O13 0.500000 0.500000 0.000000
#
# Coordination Sequence:
#
# PCOD8026229 Si02
#       6
#     2   2   2   2   2   2
#     4   9  24  43  64  99 139 171 229 284 343 413
#     4  12  22  38  70 103 141 188 229 269 346 412
#     4   9  22  44  64  96 137 173 224 282 344 408
#     4  11  25  45  69  95 130 178 234 293 353 402
#     4  11  24  40  69  94 136 180 231 283 333 420
#     4  10  24  40  67 103 142 185 221 277 346 410
#
# _framework density 23.965015999999999
#
# number of rings (size 3 to 8) (size 9 to 14) (size 15 to 20)
#    1.000    0.667    1.667    1.500    7.000    6.000 
#    0.000    1.667    0.000    0.000    0.000    0.000 
#    0.000    0.000    0.000    0.000    0.000    0.000 
#
# Total GULP energy -148701.960696 kJ/mol
# GULP energy per Si atom -12391.830058 kJ/mol
# Density = 2.391047 g / cm^3
# Si number density = 23.965016 Si / 1000 Ang^3
#
#
#
# Elastic Constant Matrix: (Units=GPa)
#
#
# Indices 1 2 3 4 5 6 
#
# 1 38.4489 27.5265 17.4286 -2.0333 15.8474 -13.1178
# 2 27.5265 143.9169 53.5596 -7.2149 22.0037 -28.8463
# 3 17.4286 53.5596 169.2614 3.2993 36.5592 -5.2881
# 4 -2.0333 -7.2149 3.2993 30.0617 -3.8598 3.8980
# 5 15.8474 22.0037 36.5592 -3.8598 41.0213 -6.6955
# 6 -13.1178 -28.8463 -5.2881 3.8980 -6.6955 34.8418
#
#
#
# Elastic Compliance Matrix: (Units=1/GPa)
#
#
# Indices 1 2 3 4 5 6 
#
# 1 0.035811 -0.003553 0.000019 -0.000913 -0.010627 0.008604
# 2 -0.003553 0.009980 -0.002500 0.001542 -0.000586 0.006261
# 3 0.000019 -0.002500 0.008048 -0.002058 -0.006330 -0.001828
# 4 -0.000913 0.001542 -0.002058 0.034658 0.004221 -0.002445
# 5 -0.010627 -0.000586 -0.006330 0.004221 0.034967 0.000801
# 6 0.008604 0.006261 -0.001828 -0.002445 0.000801 0.037274
#
#
# Mechanical properties :
#
#
# Convention : Reuss Voigt Hill
#
# Bulk Modulus (GPa) = 23.94059 60.96185 42.45122
# Shear Modulus (GPa) = 26.77674 38.05912 32.41793
#
# Velocity S-wave (km/s) = 3.34627 3.98944 3.68192
# Velocity P-wave (km/s) = 4.99415 6.83475 5.98562
#
# Compressibility (1/GPa) = 0.04177006
#
# Stress axis : x y z
#
# Youngs Moduli (GPa) = 27.92449 100.19869 124.26175
#
# Poissons Ratio (x) = 0.35599 -0.00233
# Poissons Ratio (y) = 0.09921 0.31068
# Poissons Ratio (z) = -0.00052 0.25052
#
# Static dielectric constant tensor:
#      x y z
#    x 4.353060 -0.039910 0.082910 
#    y -0.039910 4.657620 -0.059360 
#    z 0.082910 -0.059360 4.014080 
# 
# 
# High freq. dielectric constant tensor:
#      x y z
#    x 1.949330 0.001770 0.014950 
#    y 0.001770 1.976780 0.000960 
#    z 0.014950 0.000960 1.926670 
# 
# From -- ./inp_files/339165.got.cif
#   From: 2010.06.25/outbox.cif.g09.slc.cpg/sg2_170_cif.got.tgz:339165.got - 2010.06.27 13:26:56.
