data_PCOD8026765
_publ_section_title
;
Structure prediction by ZEFSAII (Michael W. Deem and Ramdas Pophale) SiO2 
 PCOD8026765
Probable space group: P -1
;
_chemical_formula_sum "Si O2"
_cell_formula_units_Z 16
_cell_length_a 15.470452
_cell_length_b 15.906231
_cell_length_c 9.515008
_cell_angle_alpha 140.285817
_cell_angle_beta 35.385080
_cell_angle_gamma 141.485915
_cell_volume 786.312133
_symmetry_space_group_name_H-M "P -1"
_symmetry_group_IT_number 2
_symmetry_cell_setting 'triclinic'
loop_
_space_group_symop_operation_xyz
x,y,z
-x,-y,-z
loop_
_atom_site_type_symbol
_atom_site_label
_atom_site_fract_x
_atom_site_fract_y
_atom_site_fract_z
Si Si1 0.962465 0.347824 0.000230
Si Si2 0.529656 0.386649 0.914060
Si Si3 0.212874 0.670462 0.055315
Si Si4 0.882224 0.860523 0.566443
Si Si5 0.806362 0.862775 0.987976
Si Si6 0.107717 0.834167 0.614285
Si Si7 0.141670 0.643973 0.557570
Si Si8 0.480972 0.355900 0.264037
O O1 0.804444 0.330340 0.092217
O O2 0.052059 0.263331 0.692311
O O3 0.905448 0.289184 0.156203
O O4 0.082769 0.515084 0.082217
O O5 0.703130 0.386889 0.647148
O O6 0.500000 0.500000 0.000000
O O7 0.386180 0.231165 0.872247
O O8 0.521638 0.412408 0.123347
O O9 0.167090 0.797251 0.339975
O O10 0.393616 0.700787 0.906360
O O11 0.878418 0.910749 0.796452
O O12 0.694431 0.780981 0.658028
O O13 0.000000 0.000000 0.500000
O O14 0.907979 0.775613 0.805713
O O15 0.825102 0.994930 0.233210
O O16 0.183287 0.767945 0.546869
O O17 0.000000 0.500000 0.500000
O O18 0.500000 0.500000 0.500000
#
# Coordination Sequence:
#
# PCOD8026765 Si02
#       8
#     2   2   2   2   2   2   2   2
#     4  11  23  38  66  93 130 164 217 265 328 381
#     4  11  25  41  63  97 131 167 219 268 325 382
#     4  11  22  41  65  95 124 173 212 272 321 385
#     4  11  23  44  65  96 133 173 213 264 334 387
#     4  10  24  43  67  92 129 178 212 269 325 391
#     4  11  21  43  65  89 129 169 219 257 326 385
#     4  12  23  39  63  96 127 165 216 266 315 381
#     4  11  23  43  67  96 130 168 218 271 322 383
#
# _framework density 20.348153
#
# number of rings (size 3 to 8) (size 9 to 14) (size 15 to 20)
#    0.000    1.000    5.000    1.500    1.750    0.500 
#    6.750    0.625    0.000    0.000    0.000    0.000 
#    0.000    0.000    0.000    0.000    0.000    0.000 
#
# Total GULP energy -198332.425960 kJ/mol
# GULP energy per Si atom -12395.776623 kJ/mol
# Density = 2.030184 g / cm^3
# Si number density = 20.348153 Si / 1000 Ang^3
#
#
#
# Elastic Constant Matrix: (Units=GPa)
#
#
# Indices 1 2 3 4 5 6 
#
# 1 131.5315 39.2180 39.5290 -7.2575 -15.5612 14.7037
# 2 39.2180 72.5789 40.8031 -3.4870 1.3499 10.7228
# 3 39.5290 40.8031 109.3588 11.8916 -4.3518 17.3861
# 4 -7.2575 -3.4870 11.8916 29.2187 -0.8389 -0.4871
# 5 -15.5612 1.3499 -4.3518 -0.8389 43.4647 -3.5232
# 6 14.7037 10.7228 17.3861 -0.4871 -3.5232 32.9775
#
#
#
# Elastic Compliance Matrix: (Units=1/GPa)
#
#
# Indices 1 2 3 4 5 6 
#
# 1 0.010195 -0.003991 -0.002109 0.002986 0.003481 -0.001720
# 2 -0.003991 0.019929 -0.006258 0.003828 -0.002733 -0.001637
# 3 -0.002109 -0.006258 0.013691 -0.006905 0.000327 -0.004310
# 4 0.002986 0.003828 -0.006905 0.038295 0.001140 0.001752
# 5 0.003481 -0.002733 0.000327 0.001140 0.024539 0.001802
# 6 -0.001720 -0.001637 -0.004310 0.001752 0.001802 0.034114
#
#
# Mechanical properties :
#
#
# Convention : Reuss Voigt Hill
#
# Bulk Modulus (GPa) = 52.35677 61.39661 56.87669
# Shear Modulus (GPa) = 29.09595 34.06013 31.57804
#
# Velocity S-wave (km/s) = 3.78551 4.09573 3.94367
# Velocity P-wave (km/s) = 6.70023 7.25295 6.98206
#
# Compressibility (1/GPa) = 0.01909973
#
# Stress axis : x y z
#
# Youngs Moduli (GPa) = 98.08478 50.17732 73.04307
#
# Poissons Ratio (x) = 0.20023 0.15404
# Poissons Ratio (y) = 0.39141 0.45712
# Poissons Ratio (z) = 0.20685 0.31402
#
# Static dielectric constant tensor:
#      x y z
#    x 4.068410 0.115530 -0.038050 
#    y 0.115530 3.475520 0.070940 
#    z -0.038050 0.070940 4.157640 
# 
# 
# High freq. dielectric constant tensor:
#      x y z
#    x 1.819270 0.010930 0.003310 
#    y 0.010930 1.768940 0.007490 
#    z 0.003310 0.007490 1.805250 
# 
# From -- ./inp_files/279383.got.cif
#   From: 2010.06.25/outbox.cif.g09.slc.cpg/sg2_140_cif.got.tgz:279383.got - 2010.06.27 13:26:56.
