data_PCOD8026366
_publ_section_title
;
Structure prediction by ZEFSAII (Michael W. Deem and Ramdas Pophale) SiO2 
 PCOD8026366
Probable space group: P -1
;
_chemical_formula_sum "Si O2"
_cell_formula_units_Z 16
_cell_length_a 17.895501
_cell_length_b 12.046843
_cell_length_c 22.046605
_cell_angle_alpha 150.155576
_cell_angle_beta 18.587934
_cell_angle_gamma 151.159603
_cell_volume 709.208020
_symmetry_space_group_name_H-M "P -1"
_symmetry_group_IT_number 2
_symmetry_cell_setting 'triclinic'
loop_
_space_group_symop_operation_xyz
x,y,z
-x,-y,-z
loop_
_atom_site_type_symbol
_atom_site_label
_atom_site_fract_x
_atom_site_fract_y
_atom_site_fract_z
Si Si1 0.242823 0.997440 0.593661
Si Si2 0.536949 0.247153 0.978809
Si Si3 0.955087 0.103374 0.758255
Si Si4 0.054763 0.483255 0.116447
Si Si5 0.598511 0.327553 0.766203
Si Si6 0.080052 0.743391 0.409593
Si Si7 0.760987 0.334313 0.385814
Si Si8 0.952730 0.957010 0.912718
O O1 0.470363 0.186705 0.544191
O O2 0.164010 0.125129 0.658263
O O3 0.319491 0.777682 0.407077
O O4 0.020030 0.894553 0.763898
O O5 0.423627 0.420302 0.112181
O O6 0.317463 0.016226 0.060134
O O7 0.684605 0.380812 0.987070
O O8 0.718134 0.165885 0.756594
O O9 0.985330 0.366034 0.838017
O O10 0.997097 0.957585 0.598714
O O11 0.825466 0.441034 0.319459
O O12 0.062427 0.238004 0.968501
O O13 0.808290 0.370841 0.676615
O O14 0.343791 0.139433 0.898090
O O15 0.832853 0.540377 0.478640
O O16 0.928165 0.166358 0.187011
#
# Coordination Sequence:
#
# PCOD8026366 Si02
#       8
#     2   2   2   2   2   2   2   2
#     4  11  26  41  66 103 129 176 215 267 331 392
#     4  11  23  41  70  96 132 170 220 270 327 388
#     4  11  27  45  64  98 136 176 221 259 324 393
#     4  11  24  45  68  95 135 178 216 271 316 395
#     4  11  22  42  69 101 132 165 218 277 333 375
#     4  10  24  41  69 100 130 173 212 277 327 387
#     4  11  23  43  69 100 130 170 219 271 336 378
#     4  12  23  43  71  96 134 166 222 275 329 379
#
# _framework density 22.560376000000002
#
# number of rings (size 3 to 8) (size 9 to 14) (size 15 to 20)
#    0.000    1.000    3.750    3.000    5.250    4.000 
#    2.250    0.000    0.000    0.000    0.000    0.000 
#    0.000    0.000    0.000    0.000    0.000    0.000 
#
# Total GULP energy -198511.466358 kJ/mol
# GULP energy per Si atom -12406.966647 kJ/mol
# Density = 2.250903 g / cm^3
# Si number density = 22.560376 Si / 1000 Ang^3
#
#
#
# Elastic Constant Matrix: (Units=GPa)
#
#
# Indices 1 2 3 4 5 6 
#
# 1 73.1026 31.2671 25.1166 -4.3807 16.3790 3.7098
# 2 31.2671 76.2481 14.8921 7.6799 8.2544 -10.8870
# 3 25.1166 14.8921 79.0892 -2.6497 26.7725 2.5700
# 4 -4.3807 7.6799 -2.6497 18.1566 -2.9882 -1.3582
# 5 16.3790 8.2544 26.7725 -2.9882 26.9228 2.3453
# 6 3.7098 -10.8870 2.5700 -1.3582 2.3453 37.3189
#
#
#
# Elastic Compliance Matrix: (Units=1/GPa)
#
#
# Indices 1 2 3 4 5 6 
#
# 1 0.019997 -0.008252 -0.002338 0.006675 -0.006256 -0.003598
# 2 -0.008252 0.018689 -0.000960 -0.009808 -0.001373 0.006068
# 3 -0.002338 -0.000960 0.019578 -0.000245 -0.017754 -0.000289
# 4 0.006675 -0.009808 -0.000245 0.061694 0.006181 -0.001651
# 5 -0.006256 -0.001373 -0.017754 0.006181 0.059893 -0.002095
# 6 -0.003598 0.006068 -0.000289 -0.001651 -0.002095 0.029015
#
#
# Mechanical properties :
#
#
# Convention : Reuss Voigt Hill
#
# Bulk Modulus (GPa) = 28.43807 41.22127 34.82967
# Shear Modulus (GPa) = 20.51799 26.95728 23.73763
#
# Velocity S-wave (km/s) = 3.01901 3.46048 3.24726
# Velocity P-wave (km/s) = 4.97848 5.85472 5.43429
#
# Compressibility (1/GPa) = 0.03516413
#
# Stress axis : x y z
#
# Youngs Moduli (GPa) = 50.00849 53.50629 51.07662
#
# Poissons Ratio (x) = 0.44154 0.11944
# Poissons Ratio (y) = 0.41268 0.04901
# Poissons Ratio (z) = 0.11694 0.05134
#
# Static dielectric constant tensor:
#      x y z
#    x 4.119470 0.080980 0.095940 
#    y 0.080980 3.919500 -0.105450 
#    z 0.095940 -0.105450 4.071490 
# 
# 
# High freq. dielectric constant tensor:
#      x y z
#    x 1.896550 0.007730 0.009560 
#    y 0.007730 1.884500 -0.010990 
#    z 0.009560 -0.010990 1.887960 
# 
# From -- ./inp_files/569162.got.cif
#   From: 2010.06.25/outbox.cif.g09.slc.cpg/sg2_285_cif.got.tgz:569162.got - 2010.06.27 13:26:56.
