data_PCOD8026327
_publ_section_title
;
Structure prediction by ZEFSAII (Michael W. Deem and Ramdas Pophale) SiO2 
 PCOD8026327
Probable space group: P -1
;
_chemical_formula_sum "Si O2"
_cell_formula_units_Z 16
_cell_length_a 18.462260
_cell_length_b 20.588312
_cell_length_c 6.684546
_cell_angle_alpha 57.714060
_cell_angle_beta 122.085873
_cell_angle_gamma 160.707253
_cell_volume 706.357676
_symmetry_space_group_name_H-M "P -1"
_symmetry_group_IT_number 2
_symmetry_cell_setting 'triclinic'
loop_
_space_group_symop_operation_xyz
x,y,z
-x,-y,-z
loop_
_atom_site_type_symbol
_atom_site_label
_atom_site_fract_x
_atom_site_fract_y
_atom_site_fract_z
Si Si1 0.641153 0.952046 0.454262
Si Si2 0.111105 0.371968 0.608421
Si Si3 0.662771 0.181794 0.577532
Si Si4 0.438250 0.695569 0.240201
Si Si5 0.341378 0.180202 0.016749
Si Si6 0.142815 0.228663 0.946288
Si Si7 0.535440 0.551414 0.242681
Si Si8 0.898004 0.519610 0.214205
O O1 0.473064 0.882308 0.355982
O O2 0.589390 0.884433 0.261979
O O3 0.596974 0.843587 0.721369
O O4 0.886124 0.188782 0.449114
O O5 0.324520 0.549966 0.484333
O O6 0.109594 0.290063 0.855195
O O7 0.127578 0.453311 0.661909
O O8 0.800070 0.353467 0.359277
O O9 0.840203 0.271278 0.795551
O O10 0.500000 0.000000 0.500000
O O11 0.613384 0.797865 0.187521
O O12 0.231008 0.551514 0.043060
O O13 0.484257 0.373715 0.958946
O O14 0.093291 0.005114 0.978444
O O15 0.229957 0.289862 0.745495
O O16 0.328795 0.342014 0.168491
O O17 0.500000 0.500000 0.500000
#
# Coordination Sequence:
#
# PCOD8026327 Si02
#       8
#     2   2   2   2   2   2   2   2
#     4  11  24  43  66  96 130 178 222 270 332 394
#     4  11  23  43  67  95 130 174 219 270 329 397
#     4  11  22  44  68  91 132 177 219 272 333 387
#     4  12  23  40  65  99 128 171 224 270 326 387
#     4  11  24  43  67  91 137 174 216 265 329 391
#     4  10  24  41  66  96 130 171 217 261 327 389
#     4  11  23  42  66 100 130 167 215 272 322 382
#     4  11  24  41  67  93 131 176 218 273 334 383
#
# _framework density 22.651413000000002
#
# number of rings (size 3 to 8) (size 9 to 14) (size 15 to 20)
#    0.000    1.000    3.750    2.625    0.000    8.000 
#    0.000    1.250    0.000    0.000    0.000    0.000 
#    0.000    0.000    0.000    0.000    0.000    0.000 
#
# Total GULP energy -198284.956212 kJ/mol
# GULP energy per Si atom -12392.809763 kJ/mol
# Density = 2.259986 g / cm^3
# Si number density = 22.651413 Si / 1000 Ang^3
#
#
#
# Elastic Constant Matrix: (Units=GPa)
#
#
# Indices 1 2 3 4 5 6 
#
# 1 103.6713 33.2056 24.6037 3.5640 -19.0501 7.6481
# 2 33.2056 127.6921 35.8502 17.8062 -22.6436 8.4832
# 3 24.6037 35.8502 72.7847 7.2602 -21.0878 1.4924
# 4 3.5640 17.8062 7.2602 35.2645 -2.4227 -6.9498
# 5 -19.0501 -22.6436 -21.0878 -2.4227 31.3560 -4.4466
# 6 7.6481 8.4832 1.4924 -6.9498 -4.4466 51.2352
#
#
#
# Elastic Compliance Matrix: (Units=1/GPa)
#
#
# Indices 1 2 3 4 5 6 
#
# 1 0.011483 -0.001654 -0.001768 0.000152 0.004466 -0.000981
# 2 -0.001654 0.010569 -0.002986 -0.004612 0.004023 -0.001692
# 3 -0.001768 -0.002986 0.018621 -0.001342 0.009308 0.000842
# 4 0.000152 -0.004612 -0.001342 0.031869 -0.000966 0.005019
# 5 0.004466 0.004023 0.009308 -0.000966 0.043990 0.002083
# 6 -0.000981 -0.001692 0.000842 0.005019 0.002083 0.020781
#
#
# Mechanical properties :
#
#
# Convention : Reuss Voigt Hill
#
# Bulk Modulus (GPa) = 35.89909 54.60745 45.25327
# Shear Modulus (GPa) = 31.36439 37.60372 34.48406
#
# Velocity S-wave (km/s) = 3.72513 4.07886 3.90600
# Velocity P-wave (km/s) = 5.86388 6.80756 6.35326
#
# Compressibility (1/GPa) = 0.02785586
#
# Stress axis : x y z
#
# Youngs Moduli (GPa) = 87.08597 94.61891 53.70205
#
# Poissons Ratio (x) = 0.15648 0.09496
# Poissons Ratio (y) = 0.14402 0.16038
# Poissons Ratio (z) = 0.15399 0.28257
#
# Static dielectric constant tensor:
#      x y z
#    x 4.351630 0.038350 -0.053030 
#    y 0.038350 4.468300 0.106870 
#    z -0.053030 0.106870 3.738340 
# 
# 
# High freq. dielectric constant tensor:
#      x y z
#    x 1.901920 0.002830 -0.005250 
#    y 0.002830 1.918270 0.009200 
#    z -0.005250 0.009200 1.863470 
# 
# From -- ./inp_files/107832.got.cif
#   From: 2010.06.25/outbox.cif.g09.slc.cpg/sg2_54_cif.got.tgz:107832.got - 2010.06.27 13:26:56.
