data_PCOD8026110
_publ_section_title
;
Structure prediction by ZEFSAII (Michael W. Deem and Ramdas Pophale) SiO2 
 PCOD8026110
Probable space group: P -1
;
_chemical_formula_sum "Si O2"
_cell_formula_units_Z 14
_cell_length_a 4.948657
_cell_length_b 12.131837
_cell_length_c 12.236696
_cell_angle_alpha 87.753665
_cell_angle_beta 51.063488
_cell_angle_gamma 82.096022
_cell_volume 564.946059
_symmetry_space_group_name_H-M "P -1"
_symmetry_group_IT_number 2
_symmetry_cell_setting 'triclinic'
loop_
_space_group_symop_operation_xyz
x,y,z
-x,-y,-z
loop_
_atom_site_type_symbol
_atom_site_label
_atom_site_fract_x
_atom_site_fract_y
_atom_site_fract_z
Si Si1 0.572891 0.124162 0.453354
Si Si2 0.115401 0.396367 0.055840
Si Si3 0.725696 0.655657 0.387501
Si Si4 0.706519 0.078362 0.010190
Si Si5 0.035703 0.579936 0.657936
Si Si6 0.695289 0.807786 0.698791
Si Si7 0.892709 0.296400 0.913422
O O1 0.255308 0.223714 0.565564
O O2 0.589245 0.136341 0.317947
O O3 0.930540 0.147905 0.418530
O O4 0.500000 0.000000 0.500000
O O5 0.915755 0.409626 0.222699
O O6 0.534097 0.378545 0.972413
O O7 0.000000 0.500000 0.000000
O O8 0.997223 0.296089 0.016435
O O9 0.357607 0.616349 0.507500
O O10 0.010794 0.547779 0.358098
O O11 0.791634 0.668260 0.240793
O O12 0.427667 0.154402 0.152414
O O13 0.867556 0.168330 0.891465
O O14 0.500000 0.000000 0.000000
O O15 0.000000 0.000000 0.000000
O O16 0.715199 0.672529 0.696301
#
# Coordination Sequence:
#
# PCOD8026110 Si02
#       7
#     2   2   2   2   2   2   2
#     4  11  26  48  72 103 144 189 243 301 366 437
#     4  12  25  46  74 107 150 194 241 299 376 445
#     4  10  25  45  74 110 144 195 243 305 362 436
#     4  12  27  46  74 105 144 192 253 310 367 438
#     4  10  23  49  73 108 153 192 246 298 372 446
#     4  11  25  46  74 102 141 194 240 299 371 430
#     4  12  27  47  72 110 145 194 251 305 374 440
#
# _framework density 24.781127000000001
#
# number of rings (size 3 to 8) (size 9 to 14) (size 15 to 20)
#    0.000    0.857    2.857    2.571    8.000    2.857 
#    0.000    0.000    0.000    0.000    0.000    0.000 
#    0.000    0.000    0.000    0.000    0.000    0.000 
#
# Total GULP energy -173438.091706 kJ/mol
# GULP energy per Si atom -12388.435122 kJ/mol
# Density = 2.472472 g / cm^3
# Si number density = 24.781127 Si / 1000 Ang^3
#
#
#
# Elastic Constant Matrix: (Units=GPa)
#
#
# Indices 1 2 3 4 5 6 
#
# 1 82.6749 10.3251 37.0806 -0.8130 9.7484 -6.3713
# 2 10.3251 209.5076 48.8022 5.8640 -3.0890 -7.5843
# 3 37.0806 48.8022 125.0019 -10.4367 -11.6806 -0.0149
# 4 -0.8130 5.8640 -10.4367 40.2629 -6.0244 6.5095
# 5 9.7484 -3.0890 -11.6806 -6.0244 24.2543 0.5038
# 6 -6.3713 -7.5843 -0.0149 6.5095 0.5038 37.5246
#
#
#
# Elastic Compliance Matrix: (Units=1/GPa)
#
#
# Indices 1 2 3 4 5 6 
#
# 1 0.016393 0.000777 -0.006458 -0.003639 -0.010581 0.003711
# 2 0.000777 0.005442 -0.002647 -0.001930 -0.001406 0.001584
# 3 -0.006458 -0.002647 0.012283 0.005300 0.009546 -0.002674
# 4 -0.003639 -0.001930 0.005300 0.029085 0.011122 -0.006201
# 5 -0.010581 -0.001406 0.009546 0.011122 0.052761 -0.004715
# 6 0.003711 0.001584 -0.002674 -0.006201 -0.004715 0.028737
#
#
# Mechanical properties :
#
#
# Convention : Reuss Voigt Hill
#
# Bulk Modulus (GPa) = 57.27147 67.73335 62.50241
# Shear Modulus (GPa) = 29.90785 41.80680 35.85733
#
# Velocity S-wave (km/s) = 3.47779 4.11182 3.80802
# Velocity P-wave (km/s) = 6.26800 7.06645 6.67916
#
# Compressibility (1/GPa) = 0.01746070
#
# Stress axis : x y z
#
# Youngs Moduli (GPa) = 61.00160 183.75156 81.41055
#
# Poissons Ratio (x) = -0.14271 0.52577
# Poissons Ratio (y) = -0.04738 0.21553
# Poissons Ratio (z) = 0.39396 0.48646
#
# Static dielectric constant tensor:
#      x y z
#    x 4.266670 0.086740 0.106940 
#    y 0.086740 5.198270 0.399040 
#    z 0.106940 0.399040 4.800890 
# 
# 
# High freq. dielectric constant tensor:
#      x y z
#    x 1.957000 -0.005580 -0.001060 
#    y -0.005580 2.015630 0.002060 
#    z -0.001060 0.002060 1.993460 
# 
# From -- ./inp_files/363032.got.cif
#   From: 2010.06.25/outbox.cif.g09.slc.cpg/sg2_182_cif.got.tgz:363032.got - 2010.06.27 13:26:56.
