data_PCOD8026227
_publ_section_title
;
Structure prediction by ZEFSAII (Michael W. Deem and Ramdas Pophale) SiO2 
 PCOD8026227
Probable space group: P -1
;
_chemical_formula_sum "Si O2"
_cell_formula_units_Z 14
_cell_length_a 18.570839
_cell_length_b 10.028219
_cell_length_c 9.000832
_cell_angle_alpha 30.683299
_cell_angle_beta 127.487399
_cell_angle_gamma 132.229666
_cell_volume 631.291533
_symmetry_space_group_name_H-M "P -1"
_symmetry_group_IT_number 2
_symmetry_cell_setting 'triclinic'
loop_
_space_group_symop_operation_xyz
x,y,z
-x,-y,-z
loop_
_atom_site_type_symbol
_atom_site_label
_atom_site_fract_x
_atom_site_fract_y
_atom_site_fract_z
Si Si1 0.722678 0.109054 0.096401
Si Si2 0.941876 0.421778 0.154637
Si Si3 0.676595 0.767474 0.090874
Si Si4 0.584529 0.178791 0.638503
Si Si5 0.635132 0.015289 0.385620
Si Si6 0.057110 0.063416 0.164935
Si Si7 0.263598 0.346938 0.016306
O O1 0.828292 0.322204 0.069581
O O2 0.661377 0.959453 0.305313
O O3 0.731332 0.876273 0.213084
O O4 0.659032 0.271195 0.783736
O O5 0.968107 0.197832 0.503013
O O6 0.974177 0.703385 0.020399
O O7 0.000000 0.500000 0.000000
O O8 0.592415 0.459081 0.294036
O O9 0.756487 0.739664 0.100650
O O10 0.620017 0.975222 0.771526
O O11 0.475687 0.007700 0.720689
O O12 0.648852 0.761316 0.735807
O O13 0.706392 0.321898 0.238045
O O14 0.171825 0.176898 0.164968
O O15 0.000000 0.000000 0.000000
#
# Coordination Sequence:
#
# PCOD8026227 Si02
#       7
#     2   2   2   2   2   2   2
#     4  10  25  44  67  99 139 173 230 273 344 397
#     4  12  27  48  77 106 135 180 229 294 345 416
#     4  10  25  40  65  95 142 175 233 268 342 386
#     4  10  24  40  67 100 133 188 223 284 320 404
#     4  12  24  42  71  93 143 176 240 265 343 391
#     4  12  27  49  73 104 140 179 232 282 359 415
#     4  12  25  44  67 100 135 187 215 291 330 410
#
# _framework density 22.176760000000002
#
# number of rings (size 3 to 8) (size 9 to 14) (size 15 to 20)
#    0.857    0.000    2.857    3.000    6.000    5.143 
#    0.000    0.000    0.000    0.000    0.000    0.000 
#    0.000    0.000    0.000    0.000    0.000    0.000 
#
# Total GULP energy -173517.995490 kJ/mol
# GULP energy per Si atom -12394.142535 kJ/mol
# Density = 2.212628 g / cm^3
# Si number density = 22.176760 Si / 1000 Ang^3
#
#
#
# Elastic Constant Matrix: (Units=GPa)
#
#
# Indices 1 2 3 4 5 6 
#
# 1 92.2454 37.9171 21.4885 -4.8323 -13.8851 -18.7388
# 2 37.9171 95.8720 47.9896 -9.2026 -0.7261 -25.1346
# 3 21.4885 47.9896 126.6555 -22.5320 -7.1083 -3.9530
# 4 -4.8323 -9.2026 -22.5320 31.0409 0.1759 8.7824
# 5 -13.8851 -0.7261 -7.1083 0.1759 28.9051 4.0693
# 6 -18.7388 -25.1346 -3.9530 8.7824 4.0693 48.7824
#
#
#
# Elastic Compliance Matrix: (Units=1/GPa)
#
#
# Indices 1 2 3 4 5 6 
#
# 1 0.014352 -0.004919 -0.000146 -0.000058 0.006391 0.002444
# 2 -0.004919 0.017022 -0.006008 -0.002075 -0.004405 0.007135
# 3 -0.000146 -0.006008 0.011623 0.007707 0.003134 -0.003859
# 4 -0.000058 -0.002075 0.007707 0.039371 0.002671 -0.007778
# 5 0.006391 -0.004405 0.003134 0.002671 0.038771 -0.003276
# 6 0.002444 0.007135 -0.003859 -0.007778 -0.003276 0.026475
#
#
# Mechanical properties :
#
#
# Convention : Reuss Voigt Hill
#
# Bulk Modulus (GPa) = 47.96450 58.84037 53.40243
# Shear Modulus (GPa) = 28.29447 35.57085 31.93266
#
# Velocity S-wave (km/s) = 3.57580 4.00930 3.79874
# Velocity P-wave (km/s) = 6.22283 6.92984 6.58583
#
# Compressibility (1/GPa) = 0.02084875
#
# Stress axis : x y z
#
# Youngs Moduli (GPa) = 69.67511 58.74822 86.03331
#
# Poissons Ratio (x) = 0.28901 0.01260
# Poissons Ratio (y) = 0.34277 0.51693
# Poissons Ratio (z) = 0.01020 0.35299
#
# Static dielectric constant tensor:
#      x y z
#    x 4.087750 -0.340880 -0.030390 
#    y -0.340880 4.049490 0.003250 
#    z -0.030390 0.003250 3.908820 
# 
# 
# High freq. dielectric constant tensor:
#      x y z
#    x 1.877770 -0.020230 -0.005350 
#    y -0.020230 1.872900 -0.004300 
#    z -0.005350 -0.004300 1.875180 
# 
# From -- ./inp_files/328307.got.cif
#   From: 2010.06.25/outbox.cif.g09.slc.cpg/sg2_165_cif.got.tgz:328307.got - 2010.06.27 13:26:56.
