data_PCOD8026940
_publ_section_title
;
Structure prediction by ZEFSAII (Michael W. Deem and Ramdas Pophale) SiO2 
 PCOD8026940
Probable space group: P -1
;
_chemical_formula_sum "Si O2"
_cell_formula_units_Z 12
_cell_length_a 12.085653
_cell_length_b 9.792124
_cell_length_c 14.752862
_cell_angle_alpha 66.205862
_cell_angle_beta 161.388246
_cell_angle_gamma 113.281930
_cell_volume 509.354803
_symmetry_space_group_name_H-M "P -1"
_symmetry_group_IT_number 2
_symmetry_cell_setting 'triclinic'
loop_
_space_group_symop_operation_xyz
x,y,z
-x,-y,-z
loop_
_atom_site_type_symbol
_atom_site_label
_atom_site_fract_x
_atom_site_fract_y
_atom_site_fract_z
Si Si1 0.148762 0.575340 0.185747
Si Si2 0.645248 0.839830 0.139516
Si Si3 0.836005 0.616372 0.118016
Si Si4 0.695093 0.078312 0.792477
Si Si5 0.025183 0.923765 0.239059
Si Si6 0.841034 0.342803 0.309383
O O1 0.500000 0.500000 0.500000
O O2 0.244517 0.747387 0.195972
O O3 0.877256 0.552374 0.065249
O O4 0.000000 0.500000 0.000000
O O5 0.932439 0.861166 0.281173
O O6 0.835502 0.759234 0.391192
O O7 0.335906 0.728457 0.897921
O O8 0.500000 0.000000 0.000000
O O9 0.973404 0.506798 0.333167
O O10 0.079023 0.770709 0.264840
O O11 0.430885 0.646048 0.820397
O O12 0.359269 0.034720 0.482505
O O13 0.000000 0.000000 0.000000
O O14 0.709151 0.011333 0.923969
#
# Coordination Sequence:
#
# PCOD8026940 Si02
#       6
#     2   2   2   2   2   2
#     4  12  29  45  68 106 145 183 230 299 357 409
#     4  11  24  42  66 103 142 176 230 285 360 418
#     4  10  24  46  72 103 142 181 244 289 355 424
#     4  12  25  45  72  99 134 186 242 277 346 420
#     4  11  24  42  73 100 133 185 234 287 333 425
#     4  10  24  43  72 102 132 189 231 293 346 420
#
# _framework density 23.559214000000001
#
# number of rings (size 3 to 8) (size 9 to 14) (size 15 to 20)
#    0.000    1.000    1.667    4.000    2.333   14.000 
#    0.000    0.000    0.000    0.000    0.000    0.000 
#    0.000    0.000    0.000    0.000    0.000    0.000 
#
# Total GULP energy -148708.359325 kJ/mol
# GULP energy per Si atom -12392.363277 kJ/mol
# Density = 2.350559 g / cm^3
# Si number density = 23.559214 Si / 1000 Ang^3
#
#
#
# Elastic Constant Matrix: (Units=GPa)
#
#
# Indices 1 2 3 4 5 6 
#
# 1 87.1480 57.4226 44.7090 7.0502 -21.2049 -5.8482
# 2 57.4226 194.7039 76.1487 -14.9663 -14.4555 -0.2793
# 3 44.7090 76.1487 146.7586 -15.0928 -35.4257 -5.5452
# 4 7.0502 -14.9663 -15.0928 49.9066 1.9778 -8.0781
# 5 -21.2049 -14.4555 -35.4257 1.9778 22.9367 -3.8148
# 6 -5.8482 -0.2793 -5.5452 -8.0781 -3.8148 38.5345
#
#
#
# Elastic Compliance Matrix: (Units=1/GPa)
#
#
# Indices 1 2 3 4 5 6 
#
# 1 0.018940 -0.004825 0.000273 -0.004087 0.015839 0.003590
# 2 -0.004825 0.007766 -0.003850 0.001850 -0.005909 -0.001427
# 3 0.000273 -0.003850 0.014053 0.003015 0.020044 0.004652
# 4 -0.004087 0.001850 0.003015 0.022807 0.000859 0.004693
# 5 0.015839 -0.005909 0.020044 0.000859 0.087747 0.014112
# 6 0.003590 -0.001427 0.004652 0.004693 0.014112 0.029536
#
#
# Mechanical properties :
#
#
# Convention : Reuss Voigt Hill
#
# Bulk Modulus (GPa) = 41.74769 87.24124 64.49446
# Shear Modulus (GPa) = 24.31450 38.96425 31.63937
#
# Velocity S-wave (km/s) = 3.21605 4.07121 3.66863
# Velocity P-wave (km/s) = 5.61689 7.69485 6.73647
#
# Compressibility (1/GPa) = 0.02395342
#
# Stress axis : x y z
#
# Youngs Moduli (GPa) = 52.79829 128.76329 71.16144
#
# Poissons Ratio (x) = 0.62135 -0.01940
# Poissons Ratio (y) = 0.25478 0.27396
# Poissons Ratio (z) = -0.01439 0.49571
#
# Static dielectric constant tensor:
#      x y z
#    x 4.441410 0.130700 -0.380840 
#    y 0.130700 4.496310 -0.141760 
#    z -0.380840 -0.141760 4.421970 
# 
# 
# High freq. dielectric constant tensor:
#      x y z
#    x 1.931790 0.008140 -0.019420 
#    y 0.008140 1.957020 -0.005540 
#    z -0.019420 -0.005540 1.921140 
# 
# From -- ./inp_files/447973.got.cif
#   From: 2010.06.25/outbox.cif.g09.slc.cpg/sg2_224_cif.got.tgz:447973.got - 2010.06.27 13:26:56.
