data_PCOD8026444
_publ_section_title
;
Structure prediction by ZEFSAII (Michael W. Deem and Ramdas Pophale) SiO2 
 PCOD8026444
Probable space group: P -1
;
_chemical_formula_sum "Si O2"
_cell_formula_units_Z 16
_cell_length_a 11.457229
_cell_length_b 9.583109
_cell_length_c 14.637902
_cell_angle_alpha 95.776161
_cell_angle_beta 29.248290
_cell_angle_gamma 82.888988
_cell_volume 703.371117
_symmetry_space_group_name_H-M "P -1"
_symmetry_group_IT_number 2
_symmetry_cell_setting 'triclinic'
loop_
_space_group_symop_operation_xyz
x,y,z
-x,-y,-z
loop_
_atom_site_type_symbol
_atom_site_label
_atom_site_fract_x
_atom_site_fract_y
_atom_site_fract_z
Si Si1 0.639990 0.486610 0.756425
Si Si2 0.451803 0.069798 0.386096
Si Si3 0.249362 0.212893 0.721569
Si Si4 0.042998 0.944182 0.363008
Si Si5 0.298378 0.743736 0.874584
Si Si6 0.066508 0.730375 0.609356
Si Si7 0.609669 0.659705 0.966027
Si Si8 0.404572 0.469127 0.658371
O O1 0.522851 0.641299 0.785896
O O2 0.895725 0.352525 0.522337
O O3 0.719440 0.527995 0.803195
O O4 0.424295 0.417950 0.921020
O O5 0.416559 0.162058 0.510895
O O6 0.635496 0.119744 0.199570
O O7 0.181351 0.108410 0.518700
O O8 0.600908 0.887573 0.298059
O O9 0.200515 0.390918 0.783713
O O10 0.988488 0.185697 0.877213
O O11 0.328929 0.801734 0.141015
O O12 0.000000 0.000000 0.500000
O O13 0.025585 0.086508 0.322419
O O14 0.262818 0.635723 0.813638
O O15 0.345662 0.649630 0.462967
O O16 0.839003 0.715743 0.825041
O O17 0.500000 0.500000 0.500000
#
# Coordination Sequence:
#
# PCOD8026444 Si02
#       8
#     2   2   2   2   2   2   2   2
#     4  10  24  42  65 101 131 171 228 287 332 402
#     4  11  25  45  68  94 139 175 222 286 329 401
#     4  11  23  46  67  99 134 175 228 271 341 402
#     4  12  25  46  66  98 139 180 227 281 336 401
#     4  11  24  41  72 100 129 177 222 272 343 404
#     4  11  24  45  67  97 136 180 225 278 346 403
#     4  11  24  43  69  95 132 181 228 276 340 403
#     4  11  23  44  68 101 137 171 217 285 338 395
#
# _framework density 22.747593999999999
#
# number of rings (size 3 to 8) (size 9 to 14) (size 15 to 20)
#    0.000    1.000    3.750    2.250    3.500    4.000 
#    4.500    0.000    0.000    0.000    0.000    0.000 
#    0.000    0.000    0.000    0.000    0.000    0.000 
#
# Total GULP energy -198397.896411 kJ/mol
# GULP energy per Si atom -12399.868526 kJ/mol
# Density = 2.269582 g / cm^3
# Si number density = 22.747594 Si / 1000 Ang^3
#
#
#
# Elastic Constant Matrix: (Units=GPa)
#
#
# Indices 1 2 3 4 5 6 
#
# 1 50.9934 15.5661 3.0322 -6.7371 0.1112 -0.6672
# 2 15.5661 109.3164 26.6728 -22.8428 5.5869 1.8791
# 3 3.0322 26.6728 83.0967 -23.5610 -8.1701 4.4346
# 4 -6.7371 -22.8428 -23.5610 48.7214 2.3503 -1.4221
# 5 0.1112 5.5869 -8.1701 2.3503 34.4771 -7.6224
# 6 -0.6672 1.8791 4.4346 -1.4221 -7.6224 27.8135
#
#
#
# Elastic Compliance Matrix: (Units=1/GPa)
#
#
# Indices 1 2 3 4 5 6 
#
# 1 0.020672 -0.002760 0.000682 0.001890 0.000598 0.000834
# 2 -0.002760 0.011119 -0.002664 0.003654 -0.002894 -0.000999
# 3 0.000682 -0.002664 0.014908 0.005865 0.003350 -0.000963
# 4 0.001890 0.003654 0.005865 0.025379 -0.000961 -0.000102
# 5 0.000598 -0.002894 0.003350 -0.000961 0.032199 0.008451
# 6 0.000834 -0.000999 -0.000963 -0.000102 0.008451 0.038506
#
#
# Mechanical properties :
#
#
# Convention : Reuss Voigt Hill
#
# Bulk Modulus (GPa) = 26.87086 37.10540 31.98813
# Shear Modulus (GPa) = 30.36346 35.41143 32.88744
#
# Velocity S-wave (km/s) = 3.65745 3.94980 3.80643
# Velocity P-wave (km/s) = 5.44740 6.09495 5.78025
#
# Compressibility (1/GPa) = 0.03721504
#
# Stress axis : x y z
#
# Youngs Moduli (GPa) = 48.37560 89.93389 67.07829
#
# Poissons Ratio (x) = 0.24821 -0.04572
# Poissons Ratio (y) = 0.13351 0.17867
# Poissons Ratio (z) = -0.03297 0.23955
#
# Static dielectric constant tensor:
#      x y z
#    x 3.670620 -0.008390 0.213230 
#    y -0.008390 4.285100 -0.059940 
#    z 0.213230 -0.059940 4.218250 
# 
# 
# High freq. dielectric constant tensor:
#      x y z
#    x 1.884340 -0.002770 0.006560 
#    y -0.002770 1.912530 -0.012100 
#    z 0.006560 -0.012100 1.897540 
# 
# From -- ./inp_files/84941.got.cif
#   From: 2010.06.25/outbox.cif.g09.slc.cpg/sg2_43_cif.got.tgz:84941.got - 2010.06.27 13:26:56.
