data_PCOD8026434
_publ_section_title
;
Structure prediction by ZEFSAII (Michael W. Deem and Ramdas Pophale) SiO2 
 PCOD8026434
Probable space group: P -1
;
_chemical_formula_sum "Si O2"
_cell_formula_units_Z 14
_cell_length_a 22.200469
_cell_length_b 21.543622
_cell_length_c 6.667030
_cell_angle_alpha 125.201169
_cell_angle_beta 133.988147
_cell_angle_gamma 18.800243
_cell_volume 692.766109
_symmetry_space_group_name_H-M "P -1"
_symmetry_group_IT_number 2
_symmetry_cell_setting 'triclinic'
loop_
_space_group_symop_operation_xyz
x,y,z
-x,-y,-z
loop_
_atom_site_type_symbol
_atom_site_label
_atom_site_fract_x
_atom_site_fract_y
_atom_site_fract_z
Si Si1 0.418467 0.336131 0.383765
Si Si2 0.868125 0.165612 0.155004
Si Si3 0.407559 0.918967 0.357535
Si Si4 0.852953 0.616044 0.679384
Si Si5 0.522466 0.580959 0.033573
Si Si6 0.978567 0.641664 0.732126
Si Si7 0.313636 0.858128 0.746227
O O1 0.507958 0.189581 0.444279
O O2 0.366634 0.450274 0.621548
O O3 0.608625 0.199573 0.410234
O O4 0.192545 0.503189 0.061071
O O5 0.705327 0.359858 0.014984
O O6 0.714708 0.247431 0.104893
O O7 0.049646 0.058288 0.508035
O O8 0.000000 0.000000 0.000000
O O9 0.594994 0.816794 0.510635
O O10 0.192729 0.149999 0.350348
O O11 0.337185 0.917055 0.026106
O O12 0.859602 0.688454 0.707296
O O13 0.951900 0.463007 0.497647
O O14 0.000000 0.500000 0.000000
O O15 0.467667 0.663639 0.845214
#
# Coordination Sequence:
#
# PCOD8026434 Si02
#       7
#     2   2   2   2   2   2   2
#     4  11  22  43  62  94 125 160 211 250 302 373
#     4  11  22  43  65  93 124 163 207 250 304 368
#     4  11  24  42  65  91 123 166 205 253 310 361
#     4  11  23  43  63  92 126 159 210 256 302 370
#     4  10  24  42  64  91 127 161 203 258 302 357
#     4  11  24  41  65  90 125 165 204 255 309 360
#     4  11  23  42  65  91 127 162 205 252 308 365
#
# _framework density 20.208841
#
# number of rings (size 3 to 8) (size 9 to 14) (size 15 to 20)
#    0.000    1.143    4.286    1.714    0.000    3.429 
#    2.571    0.000    0.000    0.000    0.000    0.000 
#    0.000    0.000    0.000    0.000    0.000    0.000 
#
# Total GULP energy -173683.988154 kJ/mol
# GULP energy per Si atom -12405.999154 kJ/mol
# Density = 2.016285 g / cm^3
# Si number density = 20.208841 Si / 1000 Ang^3
#
#
#
# Elastic Constant Matrix: (Units=GPa)
#
#
# Indices 1 2 3 4 5 6 
#
# 1 89.2633 37.4503 26.4110 -6.0376 5.9562 -7.8095
# 2 37.4503 115.2306 25.4104 -12.6195 2.6273 4.9930
# 3 26.4110 25.4104 101.5319 -22.1699 22.6356 -20.3206
# 4 -6.0376 -12.6195 -22.1699 19.1301 -3.9888 -2.7635
# 5 5.9562 2.6273 22.6356 -3.9888 30.3844 6.0038
# 6 -7.8095 4.9930 -20.3206 -2.7635 6.0038 18.4836
#
#
#
# Elastic Compliance Matrix: (Units=1/GPa)
#
#
# Indices 1 2 3 4 5 6 
#
# 1 0.014505 -0.005194 0.002605 0.004755 -0.006310 0.013156
# 2 -0.005194 0.012344 -0.008206 -0.003710 0.009149 -0.018077
# 3 0.002605 -0.008206 0.049511 0.054978 -0.045418 0.080721
# 4 0.004755 -0.003710 0.054978 0.119547 -0.044821 0.095885
# 5 -0.006310 0.009149 -0.045418 -0.044821 0.078556 -0.087287
# 6 0.013156 -0.018077 0.080721 0.095885 -0.087287 0.195975
#
#
# Mechanical properties :
#
#
# Convention : Reuss Voigt Hill
#
# Bulk Modulus (GPa) = 18.25810 53.84101 36.04956
# Shear Modulus (GPa) = 9.79844 28.04990 18.92417
#
# Velocity S-wave (km/s) = 2.20434 3.72963 3.06343
# Velocity P-wave (km/s) = 3.94121 6.72659 5.51272
#
# Compressibility (1/GPa) = 0.05477022
#
# Stress axis : x y z
#
# Youngs Moduli (GPa) = 68.94234 81.00916 20.19754
#
# Poissons Ratio (x) = 0.42076 -0.05261
# Poissons Ratio (y) = 0.35809 0.16574
# Poissons Ratio (z) = -0.17959 0.66476
#
# Static dielectric constant tensor:
#      x y z
#    x 3.907550 0.002680 0.204680 
#    y 0.002680 3.629830 -0.048830 
#    z 0.204680 -0.048830 3.810310 
# 
# 
# High freq. dielectric constant tensor:
#      x y z
#    x 1.802650 0.002390 0.010470 
#    y 0.002390 1.786040 -0.004440 
#    z 0.010470 -0.004440 1.805410 
# 
# From -- ./inp_files/6105.got.cif
#   From: 2010.06.25/outbox.cif.g09.slc.cpg/sg2_4_cif.got.tgz:6105.got - 2010.06.27 13:26:56.
