data_PCOD8026104
_publ_section_title
;
Structure prediction by ZEFSAII (Michael W. Deem and Ramdas Pophale) SiO2 
 PCOD8026104
Probable space group: P -1
;
_chemical_formula_sum "Si O2"
_cell_formula_units_Z 16
_cell_length_a 9.026614
_cell_length_b 15.399494
_cell_length_c 12.860467
_cell_angle_alpha 45.563480
_cell_angle_beta 72.826493
_cell_angle_gamma 109.232298
_cell_volume 754.136227
_symmetry_space_group_name_H-M "P -1"
_symmetry_group_IT_number 2
_symmetry_cell_setting 'triclinic'
loop_
_space_group_symop_operation_xyz
x,y,z
-x,-y,-z
loop_
_atom_site_type_symbol
_atom_site_label
_atom_site_fract_x
_atom_site_fract_y
_atom_site_fract_z
Si Si1 0.574191 0.183722 0.716319
Si Si2 0.168293 0.212586 0.248582
Si Si3 0.270096 0.394886 0.446953
Si Si4 0.859115 0.274356 0.768623
Si Si5 0.261218 0.482618 0.144838
Si Si6 0.833790 0.923279 0.195266
Si Si7 0.841142 0.706157 0.048379
Si Si8 0.033063 0.484650 0.771503
O O1 0.748729 0.303392 0.683306
O O2 0.752999 0.281591 0.495484
O O3 0.434142 0.221911 0.683253
O O4 0.371233 0.955066 0.964073
O O5 0.110500 0.294691 0.262348
O O6 0.451916 0.343422 0.094352
O O7 0.109848 0.208340 0.145972
O O8 0.000000 0.000000 0.500000
O O9 0.216476 0.423456 0.324307
O O10 0.568727 0.580186 0.254194
O O11 0.103475 0.355175 0.604980
O O12 0.181331 0.199844 0.620237
O O13 0.918329 0.379561 0.772516
O O14 0.165068 0.562137 0.078324
O O15 0.941578 0.108132 0.077563
O O16 0.000000 0.000000 0.000000
O O17 0.866692 0.575268 0.142913
#
# Coordination Sequence:
#
# PCOD8026104 Si02
#       8
#     2   2   2   2   2   2   2   2
#     4  11  23  38  58  88 136 174 208 252 294 366
#     4  10  23  49  69  90 118 156 211 267 318 379
#     4  11  22  40  62  91 127 171 212 253 302 365
#     4  11  24  39  59  93 135 176 213 246 299 368
#     4  10  24  42  68  94 117 160 211 260 317 377
#     4  12  23  38  58  93 131 171 213 249 300 367
#     4  11  25  40  66  92 126 167 206 260 319 365
#     4  12  23  41  62  97 131 163 207 256 315 370
#
# _framework density 21.216325999999999
#
# number of rings (size 3 to 8) (size 9 to 14) (size 15 to 20)
#    0.000    1.000    5.000    1.125    1.750    3.500 
#    0.000    0.625    0.000    0.000    0.000    0.000 
#    0.000    0.000    0.000    0.000    0.000    0.000 
#
# Total GULP energy -198269.767943 kJ/mol
# GULP energy per Si atom -12391.860496 kJ/mol
# Density = 2.116804 g / cm^3
# Si number density = 21.216326 Si / 1000 Ang^3
#
#
#
# Elastic Constant Matrix: (Units=GPa)
#
#
# Indices 1 2 3 4 5 6 
#
# 1 135.4711 46.9594 42.7694 -2.8467 -11.6564 -8.9741
# 2 46.9594 91.7955 30.9736 4.6116 -9.6154 -13.5212
# 3 42.7694 30.9736 99.3250 1.2069 8.7199 -5.8382
# 4 -2.8467 4.6116 1.2069 14.9624 -3.7847 -3.5564
# 5 -11.6564 -9.6154 8.7199 -3.7847 30.4569 1.3096
# 6 -8.9741 -13.5212 -5.8382 -3.5564 1.3096 34.2401
#
#
#
# Elastic Compliance Matrix: (Units=1/GPa)
#
#
# Indices 1 2 3 4 5 6 
#
# 1 0.010374 -0.003693 -0.003705 0.004754 0.004415 0.000954
# 2 -0.003693 0.014958 -0.003123 -0.003206 0.003636 0.003934
# 3 -0.003705 -0.003123 0.013241 -0.002443 -0.006501 0.000048
# 4 0.004754 -0.003206 -0.002443 0.073139 0.010305 0.006766
# 5 0.004415 0.003636 -0.006501 0.010305 0.038766 0.001072
# 6 0.000954 0.003934 0.000048 0.006766 0.001072 0.031679
#
#
# Mechanical properties :
#
#
# Convention : Reuss Voigt Hill
#
# Bulk Modulus (GPa) = 57.04279 63.11069 60.07674
# Shear Modulus (GPa) = 23.91841 29.65780 26.78811
#
# Velocity S-wave (km/s) = 3.36126 3.74287 3.55719
# Velocity P-wave (km/s) = 6.48141 6.96345 6.72675
#
# Compressibility (1/GPa) = 0.01753070
#
# Stress axis : x y z
#
# Youngs Moduli (GPa) = 96.39082 66.85257 75.52578
#
# Poissons Ratio (x) = 0.24688 0.27982
# Poissons Ratio (y) = 0.35596 0.23590
# Poissons Ratio (z) = 0.35712 0.20881
#
# Static dielectric constant tensor:
#      x y z
#    x 4.084770 0.073190 0.006070 
#    y 0.073190 4.032340 -0.370810 
#    z 0.006070 -0.370810 4.306750 
# 
# 
# High freq. dielectric constant tensor:
#      x y z
#    x 1.846470 0.002800 0.002880 
#    y 0.002800 1.808240 -0.008580 
#    z 0.002880 -0.008580 1.846920 
# 
# From -- ./inp_files/398583.got.cif
#   From: 2010.06.25/outbox.cif.g09.slc.cpg/sg2_200_cif.got.tgz:398583.got - 2010.06.27 13:26:56.
