data_PCOD8026359
_publ_section_title
;
Structure prediction by ZEFSAII (Michael W. Deem and Ramdas Pophale) SiO2 
 PCOD8026359
Probable space group: P -1
;
_chemical_formula_sum "Si O2"
_cell_formula_units_Z 16
_cell_length_a 9.463621
_cell_length_b 14.126620
_cell_length_c 24.036289
_cell_angle_alpha 161.131248
_cell_angle_beta 46.337577
_cell_angle_gamma 132.726759
_cell_volume 747.415683
_symmetry_space_group_name_H-M "P -1"
_symmetry_group_IT_number 2
_symmetry_cell_setting 'triclinic'
loop_
_space_group_symop_operation_xyz
x,y,z
-x,-y,-z
loop_
_atom_site_type_symbol
_atom_site_label
_atom_site_fract_x
_atom_site_fract_y
_atom_site_fract_z
Si Si1 0.032748 0.266646 0.595713
Si Si2 0.492604 0.700378 0.368677
Si Si3 0.430924 0.139878 0.437593
Si Si4 0.053813 0.597960 0.422947
Si Si5 0.676555 0.465316 0.089387
Si Si6 0.307279 0.469795 0.116193
Si Si7 0.803885 0.060477 0.228315
Si Si8 0.010682 0.060056 0.778604
O O1 0.268841 0.339473 0.567636
O O2 0.960643 0.193162 0.511258
O O3 0.908115 0.530019 0.796177
O O4 0.000000 0.000000 0.500000
O O5 0.564619 0.772902 0.450903
O O6 0.276000 0.527850 0.331879
O O7 0.634881 0.498384 0.184919
O O8 0.500000 0.000000 0.500000
O O9 0.634914 0.217661 0.393536
O O10 0.368288 0.791403 0.252763
O O11 0.913745 0.291747 0.283672
O O12 0.981306 0.751715 0.583360
O O13 0.471238 0.387232 0.069445
O O14 0.786494 0.767778 0.203452
O O15 0.817077 0.212743 0.902473
O O16 0.290053 0.231017 0.939311
O O17 0.965537 0.979542 0.184048
#
# Coordination Sequence:
#
# PCOD8026359 Si02
#       8
#     2   2   2   2   2   2   2   2
#     4  10  24  41  68  97 123 167 224 274 318 384
#     4  12  19  42  70  93 124 169 223 270 321 378
#     4  11  23  40  67  97 126 176 220 272 316 387
#     4  12  24  45  67  92 135 176 215 268 332 390
#     4  11  23  40  71  98 125 167 225 278 318 375
#     4  11  22  43  64  95 132 171 220 271 321 381
#     4  12  26  42  63  95 141 176 207 269 335 393
#     4  11  25  41  68 101 130 167 218 274 326 387
#
# _framework density 21.407097
#
# number of rings (size 3 to 8) (size 9 to 14) (size 15 to 20)
#    0.000    0.750    6.250    1.500    3.500    3.000 
#    0.000    0.625    0.000    0.000    0.000    0.000 
#    0.000    0.000    0.000    0.000    0.000    0.000 
#
# Total GULP energy -198369.887750 kJ/mol
# GULP energy per Si atom -12398.117984 kJ/mol
# Density = 2.135837 g / cm^3
# Si number density = 21.407097 Si / 1000 Ang^3
#
#
#
# Elastic Constant Matrix: (Units=GPa)
#
#
# Indices 1 2 3 4 5 6 
#
# 1 117.1346 21.0248 51.0445 -5.8307 1.6067 2.7321
# 2 21.0248 80.7138 42.8182 -4.2380 1.8350 6.3095
# 3 51.0445 42.8182 83.5667 -21.5779 11.7613 2.3392
# 4 -5.8307 -4.2380 -21.5779 29.4060 2.7384 0.4614
# 5 1.6067 1.8350 11.7613 2.7384 36.3320 -14.4585
# 6 2.7321 6.3095 2.3392 0.4614 -14.4585 30.0984
#
#
#
# Elastic Compliance Matrix: (Units=1/GPa)
#
#
# Indices 1 2 3 4 5 6 
#
# 1 0.012410 0.001854 -0.010422 -0.005268 0.003561 0.001086
# 2 0.001854 0.018264 -0.012523 -0.006439 0.002931 -0.001517
# 3 -0.010422 -0.012523 0.032189 0.021059 -0.013126 -0.005559
# 4 -0.005268 -0.006439 0.021059 0.048760 -0.012556 -0.006588
# 5 0.003561 0.002931 -0.013126 -0.012556 0.040210 0.019591
# 6 0.001086 -0.001517 -0.005559 -0.006588 0.019591 0.043388
#
#
# Mechanical properties :
#
#
# Convention : Reuss Voigt Hill
#
# Bulk Modulus (GPa) = 48.35363 56.79890 52.57627
# Shear Modulus (GPa) = 20.46696 30.26913 25.36804
#
# Velocity S-wave (km/s) = 3.09541 3.76437 3.44616
# Velocity P-wave (km/s) = 5.95081 6.74420 6.35989
#
# Compressibility (1/GPa) = 0.02068097
#
# Stress axis : x y z
#
# Youngs Moduli (GPa) = 80.58293 54.75312 31.06607
#
# Poissons Ratio (x) = -0.10149 0.32376
# Poissons Ratio (y) = -0.14937 0.38904
# Poissons Ratio (z) = 0.83981 0.68567
#
# Static dielectric constant tensor:
#      x y z
#    x 4.449750 -0.029490 0.024200 
#    y -0.029490 4.141490 -0.506720 
#    z 0.024200 -0.506720 3.842650 
# 
# 
# High freq. dielectric constant tensor:
#      x y z
#    x 1.850500 0.011830 0.002020 
#    y 0.011830 1.832310 -0.031650 
#    z 0.002020 -0.031650 1.823340 
# 
# From -- ./inp_files/495922.got.cif
#   From: 2010.06.25/outbox.cif.g09.slc.cpg/sg2_248_cif.got.tgz:495922.got - 2010.06.27 13:26:56.
