data_PCOD8026041
_publ_section_title
;
Structure prediction by ZEFSAII (Michael W. Deem and Ramdas Pophale) SiO2 
 PCOD8026041
Probable space group: P -1
;
_chemical_formula_sum "Si O2"
_cell_formula_units_Z 16
_cell_length_a 11.057648
_cell_length_b 5.980258
_cell_length_c 11.585683
_cell_angle_alpha 122.084748
_cell_angle_beta 82.118785
_cell_angle_gamma 98.595750
_cell_volume 640.299697
_symmetry_space_group_name_H-M "P -1"
_symmetry_group_IT_number 2
_symmetry_cell_setting 'triclinic'
loop_
_space_group_symop_operation_xyz
x,y,z
-x,-y,-z
loop_
_atom_site_type_symbol
_atom_site_label
_atom_site_fract_x
_atom_site_fract_y
_atom_site_fract_z
Si Si1 0.973062 0.712227 0.377060
Si Si2 0.010763 0.213879 0.864374
Si Si3 0.730798 0.991076 0.259192
Si Si4 0.626813 0.442188 0.826456
Si Si5 0.735142 0.554487 0.478498
Si Si6 0.847289 0.690294 0.733882
Si Si7 0.530775 0.895531 0.092181
Si Si8 0.446513 0.269643 0.617213
O O1 0.015342 0.720902 0.244191
O O2 0.828652 0.644933 0.388871
O O3 0.044707 0.487093 0.368465
O O4 0.000000 0.000000 0.500000
O O5 0.143704 0.104445 0.834914
O O6 0.905790 0.978713 0.852466
O O7 0.000000 0.500000 0.000000
O O8 0.640520 0.076707 0.191208
O O9 0.660424 0.760664 0.281155
O O10 0.749568 0.243419 0.411756
O O11 0.768467 0.526068 0.799161
O O12 0.587284 0.157212 0.818118
O O13 0.553968 0.461112 0.718390
O O14 0.592714 0.629266 0.985053
O O15 0.766087 0.719475 0.637139
O O16 0.601286 0.604757 0.460270
O O17 0.500000 0.000000 0.000000
O O18 0.500000 0.000000 0.500000
#
# Coordination Sequence:
#
# PCOD8026041 Si02
#       8
#     2   2   2   2   2   2   2   2
#     4  12  25  46  75 108 150 204 256 314 389 456
#     4  12  28  48  75 113 152 207 261 323 393 460
#     4  11  24  46  74 107 148 195 255 317 379 461
#     4  10  25  45  67 106 146 189 246 306 374 452
#     4  12  24  44  77 107 152 199 251 315 387 450
#     4  12  27  46  76 112 151 194 262 319 383 468
#     4  10  23  47  74  97 145 198 245 298 382 450
#     4  11  25  44  72 109 149 193 253 317 377 456
#
# _framework density 24.988298
#
# number of rings (size 3 to 8) (size 9 to 14) (size 15 to 20)
#    0.000    0.750    3.750    2.625    3.500    6.500 
#    4.500    0.000    0.000    0.000    0.000    0.000 
#    0.000    0.000    0.000    0.000    0.000    0.000 
#
# Total GULP energy -198211.777366 kJ/mol
# GULP energy per Si atom -12388.236085 kJ/mol
# Density = 2.493142 g / cm^3
# Si number density = 24.988298 Si / 1000 Ang^3
#
#
#
# Elastic Constant Matrix: (Units=GPa)
#
#
# Indices 1 2 3 4 5 6 
#
# 1 126.0337 62.6647 40.0469 -4.5251 3.2377 20.8156
# 2 62.6647 99.5495 33.9327 4.5520 4.7702 16.1757
# 3 40.0469 33.9327 123.4108 16.2749 7.6759 5.5586
# 4 -4.5251 4.5520 16.2749 52.2166 -1.9874 2.0845
# 5 3.2377 4.7702 7.6759 -1.9874 37.8055 -2.7137
# 6 20.8156 16.1757 5.5586 2.0845 -2.7137 49.8432
#
#
#
# Elastic Compliance Matrix: (Units=1/GPa)
#
#
# Indices 1 2 3 4 5 6 
#
# 1 0.012657 -0.006783 -0.002464 0.002580 0.000199 -0.002907
# 2 -0.006783 0.015324 -0.001667 -0.001373 -0.001227 -0.001964
# 3 -0.002464 -0.001667 0.009871 -0.003230 -0.001716 0.000511
# 4 0.002580 -0.001373 -0.003230 0.020604 0.001616 -0.001045
# 5 0.000199 -0.001227 -0.001716 0.001616 0.027160 0.001918
# 6 -0.002907 -0.001964 0.000511 -0.001045 0.001918 0.022005
#
#
# Mechanical properties :
#
#
# Convention : Reuss Voigt Hill
#
# Bulk Modulus (GPa) = 62.40297 69.14250 65.77273
# Shear Modulus (GPa) = 37.09475 42.12970 39.61223
#
# Velocity S-wave (km/s) = 3.85708 4.11052 3.98582
# Velocity P-wave (km/s) = 6.69800 7.08932 6.89644
#
# Compressibility (1/GPa) = 0.01602488
#
# Stress axis : x y z
#
# Youngs Moduli (GPa) = 79.00484 65.25831 101.31154
#
# Poissons Ratio (x) = 0.44264 0.24963
# Poissons Ratio (y) = 0.53588 0.16884
# Poissons Ratio (z) = 0.19467 0.10875
#
# Static dielectric constant tensor:
#      x y z
#    x 4.521520 0.191450 0.047420 
#    y 0.191450 4.459880 0.121370 
#    z 0.047420 0.121370 4.443200 
# 
# 
# High freq. dielectric constant tensor:
#      x y z
#    x 1.999980 0.014270 0.007750 
#    y 0.014270 1.990760 -0.000430 
#    z 0.007750 -0.000430 1.999690 
# 
# From -- ./inp_files/411281.got.cif
#   From: 2010.06.25/outbox.cif.g09.slc.cpg/sg2_206_cif.got.tgz:411281.got - 2010.06.27 13:26:56.
