data_PCOD8026631
_publ_section_title
;
Structure prediction by ZEFSAII (Michael W. Deem and Ramdas Pophale) SiO2 
 PCOD8026631
Probable space group: P -1
;
_chemical_formula_sum "Si O2"
_cell_formula_units_Z 16
_cell_length_a 14.974759
_cell_length_b 9.268480
_cell_length_c 27.270443
_cell_angle_alpha 131.389389
_cell_angle_beta 19.602984
_cell_angle_gamma 141.173015
_cell_volume 747.075948
_symmetry_space_group_name_H-M "P -1"
_symmetry_group_IT_number 2
_symmetry_cell_setting 'triclinic'
loop_
_space_group_symop_operation_xyz
x,y,z
-x,-y,-z
loop_
_atom_site_type_symbol
_atom_site_label
_atom_site_fract_x
_atom_site_fract_y
_atom_site_fract_z
Si Si1 0.173462 0.475456 0.150230
Si Si2 0.896895 0.369990 0.162114
Si Si3 0.841722 0.082281 0.738594
Si Si4 0.129154 0.980036 0.478486
Si Si5 0.285822 0.988470 0.652460
Si Si6 0.704629 0.447733 0.608491
Si Si7 0.098809 0.872707 0.175701
Si Si8 0.246238 0.522967 0.917597
O O1 0.228338 0.723622 0.191453
O O2 0.106922 0.421551 0.114423
O O3 0.500000 0.500000 0.000000
O O4 0.866387 0.254174 0.291729
O O5 0.526952 0.110348 0.300674
O O6 0.878557 0.590058 0.209546
O O7 0.074909 0.364615 0.020357
O O8 0.036705 0.138737 0.702020
O O9 0.067757 0.096569 0.581681
O O10 0.494057 0.811349 0.864965
O O11 0.000000 0.000000 0.500000
O O12 0.892937 0.690405 0.534429
O O13 0.543997 0.217103 0.604873
O O14 0.983283 0.990495 0.788482
O O15 0.500000 0.000000 0.500000
O O16 0.417074 0.409010 0.782723
O O17 0.000000 0.500000 0.500000
O O18 0.500000 0.000000 0.000000
O O19 0.000000 0.500000 0.000000
#
# Coordination Sequence:
#
# PCOD8026631 Si02
#       8
#     2   2   2   2   2   2   2   2
#     4  11  27  43  66 103 146 174 228 290 347 409
#     4  11  23  42  73 102 132 180 231 286 340 414
#     4  10  24  42  71  98 137 183 229 289 343 411
#     4  11  24  45  68 100 136 173 237 287 344 408
#     4  12  28  45  72 102 141 188 229 282 356 414
#     4  11  27  47  70 101 143 180 230 287 348 416
#     4  11  22  41  73  97 137 179 237 276 340 420
#     4  11  23  44  76  99 133 187 243 279 346 417
#
# _framework density 21.416830999999998
#
# number of rings (size 3 to 8) (size 9 to 14) (size 15 to 20)
#    0.000    1.000    1.250    5.250   10.500    1.000 
#    0.000    1.250    0.000    0.000    0.000    0.000 
#    0.000    0.000    0.000    0.000    0.000    0.000 
#
# Total GULP energy -198353.114759 kJ/mol
# GULP energy per Si atom -12397.069672 kJ/mol
# Density = 2.136809 g / cm^3
# Si number density = 21.416831 Si / 1000 Ang^3
#
#
#
# Elastic Constant Matrix: (Units=GPa)
#
#
# Indices 1 2 3 4 5 6 
#
# 1 136.1824 25.8957 60.1990 11.1058 12.1308 0.1104
# 2 25.8957 86.6519 38.0608 8.7918 19.0578 16.7891
# 3 60.1990 38.0608 139.2177 -3.0551 16.6407 10.5911
# 4 11.1058 8.7918 -3.0551 21.7604 -9.0984 -3.8545
# 5 12.1308 19.0578 16.6407 -9.0984 45.9236 -2.3824
# 6 0.1104 16.7891 10.5911 -3.8545 -2.3824 39.0775
#
#
#
# Elastic Compliance Matrix: (Units=1/GPa)
#
#
# Indices 1 2 3 4 5 6 
#
# 1 0.009945 0.000009 -0.004183 -0.006621 -0.002411 0.000302
# 2 0.000009 0.018171 -0.003478 -0.013303 -0.009372 -0.008748
# 3 -0.004183 -0.003478 0.010133 0.004728 -0.000228 -0.000788
# 4 -0.006621 -0.013303 0.004728 0.065527 0.019165 0.012085
# 5 -0.002411 -0.009372 -0.000228 0.019165 0.030589 0.007851
# 6 0.000302 -0.008748 -0.000788 0.012085 0.007851 0.031232
#
#
# Mechanical properties :
#
#
# Convention : Reuss Voigt Hill
#
# Bulk Modulus (GPa) = 43.58017 67.81808 55.69913
# Shear Modulus (GPa) = 26.51831 37.21208 31.86520
#
# Velocity S-wave (km/s) = 3.52262 4.17287 3.86146
# Velocity P-wave (km/s) = 6.07766 7.41294 6.77826
#
# Compressibility (1/GPa) = 0.02294622
#
# Stress axis : x y z
#
# Youngs Moduli (GPa) = 100.55464 55.03152 98.68380
#
# Poissons Ratio (x) = -0.00049 0.41276
# Poissons Ratio (y) = -0.00089 0.34320
# Poissons Ratio (z) = 0.42059 0.19139
#
# Static dielectric constant tensor:
#      x y z
#    x 4.191610 -0.045280 0.159600 
#    y -0.045280 3.885830 -0.122650 
#    z 0.159600 -0.122650 3.918380 
# 
# 
# High freq. dielectric constant tensor:
#      x y z
#    x 1.861860 0.002170 0.009580 
#    y 0.002170 1.844610 -0.009850 
#    z 0.009580 -0.009850 1.842850 
# 
# From -- ./inp_files/209566.got.cif
#   From: 2010.06.25/outbox.cif.g09.slc.cpg/sg2_105_cif.got.tgz:209566.got - 2010.06.27 13:26:56.
