data_PCOD8026409
_publ_section_title
;
Structure prediction by ZEFSAII (Michael W. Deem and Ramdas Pophale) SiO2 
 PCOD8026409
Probable space group: P -1
;
_chemical_formula_sum "Si O2"
_cell_formula_units_Z 14
_cell_length_a 14.340375
_cell_length_b 13.517479
_cell_length_c 13.536284
_cell_angle_alpha 144.474050
_cell_angle_beta 31.937715
_cell_angle_gamma 147.734802
_cell_volume 696.617036
_symmetry_space_group_name_H-M "P -1"
_symmetry_group_IT_number 2
_symmetry_cell_setting 'triclinic'
loop_
_space_group_symop_operation_xyz
x,y,z
-x,-y,-z
loop_
_atom_site_type_symbol
_atom_site_label
_atom_site_fract_x
_atom_site_fract_y
_atom_site_fract_z
Si Si1 0.158011 0.720073 0.559053
Si Si2 0.292636 0.919163 0.793310
Si Si3 0.560899 0.714154 0.156042
Si Si4 0.776228 0.715476 0.336881
Si Si5 0.494325 0.270633 0.237143
Si Si6 0.767675 0.115136 0.956052
Si Si7 0.296761 0.085797 0.615413
O O1 0.132307 0.765850 0.732999
O O2 0.379616 0.753408 0.373404
O O3 0.000000 0.500000 0.500000
O O4 0.134760 0.866553 0.623112
O O5 0.497872 0.907739 0.598707
O O6 0.318361 0.131406 0.914442
O O7 0.194636 0.862296 0.942585
O O8 0.677272 0.763454 0.196555
O O9 0.500000 0.500000 0.000000
O O10 0.632312 0.489725 0.245931
O O11 0.677799 0.745156 0.547342
O O12 0.796059 0.865247 0.355272
O O13 0.007332 0.774208 0.205407
O O14 0.372047 0.115601 0.134068
O O15 0.650755 0.225992 0.117338
#
# Coordination Sequence:
#
# PCOD8026409 Si02
#       7
#     2   2   2   2   2   2   2
#     4   9  19  37  56  84 120 158 195 235 300 357
#     4   9  19  38  56  81 122 158 190 246 297 353
#     4   9  19  33  58  80 118 155 186 240 297 348
#     4  11  22  41  64  90 118 161 205 245 311 360
#     4  10  24  42  62  86 128 154 200 266 298 354
#     4  11  22  41  64  90 118 161 205 245 311 360
#     4   9  19  38  56  81 122 158 190 246 297 353
#
# _framework density 20.097125999999999
#
# number of rings (size 3 to 8) (size 9 to 14) (size 15 to 20)
#    0.000    2.286    1.429    2.571    2.000    2.286 
#    5.143    4.286    0.000    0.000    0.000    0.000 
#    0.000    0.000    0.000    0.000    0.000    0.000 
#
# Total GULP energy -173528.483168 kJ/mol
# GULP energy per Si atom -12394.891655 kJ/mol
# Density = 2.005138 g / cm^3
# Si number density = 20.097126 Si / 1000 Ang^3
#
#
#
# Elastic Constant Matrix: (Units=GPa)
#
#
# Indices 1 2 3 4 5 6 
#
# 1 61.4063 51.4545 21.7388 -2.3036 19.2567 -11.9945
# 2 51.4545 123.5696 46.0563 18.2535 10.2549 4.3178
# 3 21.7388 46.0563 87.3082 5.1969 5.4923 -0.8233
# 4 -2.3036 18.2535 5.1969 41.3207 9.3248 -0.7157
# 5 19.2567 10.2549 5.4923 9.3248 24.3035 -1.4317
# 6 -11.9945 4.3178 -0.8233 -0.7157 -1.4317 26.1111
#
#
#
# Elastic Compliance Matrix: (Units=1/GPa)
#
#
# Indices 1 2 3 4 5 6 
#
# 1 0.056401 -0.024713 0.000470 0.023945 -0.041883 0.028370
# 2 -0.024713 0.021740 -0.005631 -0.014197 0.016267 -0.014622
# 3 0.000470 -0.005631 0.014355 0.001089 -0.001568 0.001544
# 4 0.023945 -0.014197 0.001089 0.037998 -0.027045 0.012940
# 5 -0.041883 0.016267 -0.001568 -0.027045 0.077110 -0.018492
# 6 0.028370 -0.014622 0.001544 0.012940 -0.018492 0.053137
#
#
# Mechanical properties :
#
#
# Convention : Reuss Voigt Hill
#
# Bulk Modulus (GPa) = 30.53569 56.75368 43.64468
# Shear Modulus (GPa) = 15.08722 28.54936 21.81829
#
# Velocity S-wave (km/s) = 2.74289 3.77313 3.29848
# Velocity P-wave (km/s) = 5.02576 6.87627 6.02251
#
# Compressibility (1/GPa) = 0.03274857
#
# Stress axis : x y z
#
# Youngs Moduli (GPa) = 17.73025 45.99765 69.66037
#
# Poissons Ratio (x) = 1.13675 -0.03277
# Poissons Ratio (y) = 0.43817 0.39226
# Poissons Ratio (z) = -0.00834 0.25901
#
# Static dielectric constant tensor:
#      x y z
#    x 3.489780 -0.080380 -0.022330 
#    y -0.080380 3.506390 0.048810 
#    z -0.022330 0.048810 3.711830 
# 
# 
# High freq. dielectric constant tensor:
#      x y z
#    x 1.777030 -0.002650 -0.000880 
#    y -0.002650 1.781960 0.004340 
#    z -0.000880 0.004340 1.791850 
# 
# From -- ./inp_files/171711.got.cif
#   From: 2010.06.25/outbox.cif.g09.slc.cpg/sg2_86_cif.got.tgz:171711.got - 2010.06.27 13:26:56.
