data_PCOD8026844
_publ_section_title
;
Structure prediction by ZEFSAII (Michael W. Deem and Ramdas Pophale) SiO2 
 PCOD8026844
Probable space group: P -1
;
_chemical_formula_sum "Si O2"
_cell_formula_units_Z 16
_cell_length_a 10.047540
_cell_length_b 19.174509
_cell_length_c 13.356191
_cell_angle_alpha 35.331959
_cell_angle_beta 147.826383
_cell_angle_gamma 145.757221
_cell_volume 710.768745
_symmetry_space_group_name_H-M "P -1"
_symmetry_group_IT_number 2
_symmetry_cell_setting 'triclinic'
loop_
_space_group_symop_operation_xyz
x,y,z
-x,-y,-z
loop_
_atom_site_type_symbol
_atom_site_label
_atom_site_fract_x
_atom_site_fract_y
_atom_site_fract_z
Si Si1 0.679193 0.062201 0.442941
Si Si2 0.767880 0.697044 0.309669
Si Si3 0.683179 0.195409 0.581360
Si Si4 0.369595 0.356838 0.138401
Si Si5 0.696024 0.887015 0.179693
Si Si6 0.035511 0.645251 0.729409
Si Si7 0.759673 0.179691 0.870370
Si Si8 0.301227 0.462802 0.170279
O O1 0.692244 0.209668 0.263387
O O2 0.997759 0.087324 0.621765
O O3 0.500000 0.000000 0.500000
O O4 0.538842 0.961897 0.378850
O O5 0.617402 0.786105 0.152111
O O6 0.577020 0.584889 0.243167
O O7 0.039944 0.794065 0.307894
O O8 0.845185 0.625596 0.534267
O O9 0.568972 0.283262 0.339338
O O10 0.738130 0.243065 0.675862
O O11 0.364958 0.374471 0.233765
O O12 0.500000 0.500000 0.000000
O O13 0.065718 0.263154 0.012168
O O14 0.470070 0.814422 0.207969
O O15 0.697714 0.026710 0.987712
O O16 0.858604 0.636901 0.725562
O O17 0.117633 0.523295 0.924739
#
# Coordination Sequence:
#
# PCOD8026844 Si02
#       8
#     2   2   2   2   2   2   2   2
#     4  11  22  45  74 102 142 179 237 293 354 409
#     4  11  24  45  72 104 140 180 240 295 345 416
#     4  12  26  44  75 105 135 196 232 289 359 425
#     4  12  28  48  69  99 154 187 233 291 352 430
#     4  10  24  46  70 103 146 178 226 311 343 409
#     4  10  24  43  69 104 137 181 232 297 343 418
#     4  11  27  45  70 107 143 182 238 287 358 421
#     4  11  26  43  70 104 138 193 234 281 359 419
#
# _framework density 22.510839000000001
#
# number of rings (size 3 to 8) (size 9 to 14) (size 15 to 20)
#    0.000    1.000    3.750    1.875    8.750    6.000 
#    0.000    0.000    0.000    0.000    0.000    0.000 
#    0.000    0.000    0.000    0.000    0.000    0.000 
#
# Total GULP energy -198420.065022 kJ/mol
# GULP energy per Si atom -12401.254064 kJ/mol
# Density = 2.245960 g / cm^3
# Si number density = 22.510839 Si / 1000 Ang^3
#
#
#
# Elastic Constant Matrix: (Units=GPa)
#
#
# Indices 1 2 3 4 5 6 
#
# 1 123.1532 26.3418 31.7010 10.9016 3.9613 7.9803
# 2 26.3418 95.6314 19.0068 15.0724 -2.6089 -5.5066
# 3 31.7010 19.0068 63.3613 12.3838 -3.3839 2.5960
# 4 10.9016 15.0724 12.3838 29.2683 -2.8753 -8.9028
# 5 3.9613 -2.6089 -3.3839 -2.8753 31.3216 0.3077
# 6 7.9803 -5.5066 2.5960 -8.9028 0.3077 40.9689
#
#
#
# Elastic Compliance Matrix: (Units=1/GPa)
#
#
# Indices 1 2 3 4 5 6 
#
# 1 0.009941 -0.001812 -0.004059 -0.001959 -0.002004 -0.002334
# 2 -0.001812 0.012099 -0.001887 -0.004347 0.000623 0.001150
# 3 -0.004059 -0.001887 0.019811 -0.006351 0.001934 -0.002113
# 4 -0.001959 -0.004347 -0.006351 0.043019 0.003055 0.009525
# 5 -0.002004 0.000623 0.001934 0.003055 0.032714 0.000770
# 6 -0.002334 0.001150 -0.002113 0.009525 0.000770 0.027216
#
#
# Mechanical properties :
#
#
# Convention : Reuss Voigt Hill
#
# Bulk Modulus (GPa) = 37.97211 48.47165 43.22188
# Shear Modulus (GPa) = 29.56921 33.98486 31.77703
#
# Velocity S-wave (km/s) = 3.62823 3.88972 3.76125
# Velocity P-wave (km/s) = 5.87001 6.46162 6.17291
#
# Compressibility (1/GPa) = 0.02633512
#
# Stress axis : x y z
#
# Youngs Moduli (GPa) = 100.58941 82.64985 50.47819
#
# Poissons Ratio (x) = 0.14976 0.20488
# Poissons Ratio (y) = 0.18226 0.09526
# Poissons Ratio (z) = 0.40828 0.15598
#
# Static dielectric constant tensor:
#      x y z
#    x 4.226350 -0.045900 0.027720 
#    y -0.045900 4.330520 -0.106430 
#    z 0.027720 -0.106430 4.013420 
# 
# 
# High freq. dielectric constant tensor:
#      x y z
#    x 1.898300 -0.000640 -0.000480 
#    y -0.000640 1.897030 -0.001090 
#    z -0.000480 -0.001090 1.882710 
# 
# From -- ./inp_files/402913.got.cif
#   From: 2010.06.25/outbox.cif.g09.slc.cpg/sg2_202_cif.got.tgz:402913.got - 2010.06.27 13:26:56.
