data_PCOD8026715
_publ_section_title
;
Structure prediction by ZEFSAII (Michael W. Deem and Ramdas Pophale) SiO2 
 PCOD8026715
Probable space group: P -1
;
_chemical_formula_sum "Si O2"
_cell_formula_units_Z 16
_cell_length_a 8.910350
_cell_length_b 11.846208
_cell_length_c 12.285080
_cell_angle_alpha 133.905255
_cell_angle_beta 59.462082
_cell_angle_gamma 89.265285
_cell_volume 650.604640
_symmetry_space_group_name_H-M "P -1"
_symmetry_group_IT_number 2
_symmetry_cell_setting 'triclinic'
loop_
_space_group_symop_operation_xyz
x,y,z
-x,-y,-z
loop_
_atom_site_type_symbol
_atom_site_label
_atom_site_fract_x
_atom_site_fract_y
_atom_site_fract_z
Si Si1 0.840009 0.485584 0.258819
Si Si2 0.801489 0.278388 0.947356
Si Si3 0.504892 0.910048 0.151968
Si Si4 0.376338 0.823377 0.697710
Si Si5 0.665753 0.495547 0.776143
Si Si6 0.318859 0.958691 0.039635
Si Si7 0.104924 0.686600 0.643823
Si Si8 0.966111 0.769087 0.382969
O O1 0.907173 0.324228 0.035634
O O2 0.582454 0.630069 0.443064
O O3 0.907151 0.403918 0.301317
O O4 0.946904 0.592796 0.260962
O O5 0.567330 0.467507 0.117718
O O6 0.770227 0.116685 0.887626
O O7 0.969888 0.188878 0.726718
O O8 0.495232 0.954078 0.052268
O O9 0.637389 0.985630 0.206789
O O10 0.633136 0.681951 0.972421
O O11 0.260773 0.033829 0.369286
O O12 0.172365 0.832370 0.738766
O O13 0.400578 0.807051 0.808917
O O14 0.744850 0.478162 0.610598
O O15 0.842022 0.300268 0.646152
O O16 0.135526 0.179130 0.222674
#
# Coordination Sequence:
#
# PCOD8026715 Si02
#       8
#     2   2   2   2   2   2   2   2
#     4  11  23  41  67  96 132 173 215 275 328 385
#     4  11  23  44  67  93 133 178 219 265 323 388
#     4  10  24  43  65  98 133 173 214 273 326 384
#     4  11  22  41  64  96 134 168 215 268 336 386
#     4  11  24  44  70  98 130 174 216 275 326 384
#     4  11  23  39  67  97 131 172 214 275 327 387
#     4  12  23  41  68 101 132 166 220 271 333 392
#     4  11  25  45  66  96 132 177 224 263 320 390
#
# _framework density 24.592509
#
# number of rings (size 3 to 8) (size 9 to 14) (size 15 to 20)
#    0.000    1.000    3.750    3.375    1.750    3.500 
#    2.250    0.000    0.000    3.750    0.000    0.000 
#    0.000    0.000    0.000    0.000    0.000    0.000 
#
# Total GULP energy -198401.225877 kJ/mol
# GULP energy per Si atom -12400.076617 kJ/mol
# Density = 2.453654 g / cm^3
# Si number density = 24.592509 Si / 1000 Ang^3
#
#
#
# Elastic Constant Matrix: (Units=GPa)
#
#
# Indices 1 2 3 4 5 6 
#
# 1 86.2857 25.9493 23.8283 5.0163 0.7783 12.2023
# 2 25.9493 74.6618 39.2040 -14.3167 2.7342 4.3584
# 3 23.8283 39.2040 111.2599 -15.7567 7.7182 2.1761
# 4 5.0163 -14.3167 -15.7567 40.3026 2.4148 3.0268
# 5 0.7783 2.7342 7.7182 2.4148 37.0813 -1.1956
# 6 12.2023 4.3584 2.1761 3.0268 -1.1956 26.3720
#
#
#
# Elastic Compliance Matrix: (Units=1/GPa)
#
#
# Indices 1 2 3 4 5 6 
#
# 1 0.014434 -0.004393 -0.002009 -0.003773 0.000513 -0.005330
# 2 -0.004393 0.018558 -0.004759 0.005417 -0.000680 -0.001294
# 3 -0.002009 -0.004759 0.011706 0.003250 -0.002246 0.000275
# 4 -0.003773 0.005417 0.003250 0.028870 -0.002969 -0.002866
# 5 0.000513 -0.000680 -0.002246 -0.002969 0.027721 0.001658
# 6 -0.005330 -0.001294 0.000275 -0.002866 0.001658 0.040981
#
#
# Mechanical properties :
#
#
# Convention : Reuss Voigt Hill
#
# Bulk Modulus (GPa) = 44.68946 50.01896 47.35421
# Shear Modulus (GPa) = 29.06128 32.96625 31.01377
#
# Velocity S-wave (km/s) = 3.44133 3.66526 3.55506
# Velocity P-wave (km/s) = 5.83111 6.18833 6.01237
#
# Compressibility (1/GPa) = 0.02237664
#
# Stress axis : x y z
#
# Youngs Moduli (GPa) = 69.28191 53.88384 85.42765
#
# Poissons Ratio (x) = 0.23670 0.17163
# Poissons Ratio (y) = 0.30434 0.40655
# Poissons Ratio (z) = 0.13919 0.25643
#
# Static dielectric constant tensor:
#      x y z
#    x 4.632910 0.168090 -0.015750 
#    y 0.168090 4.120950 -0.164850 
#    z -0.015750 -0.164850 4.435860 
# 
# 
# High freq. dielectric constant tensor:
#      x y z
#    x 1.990650 0.015400 -0.001280 
#    y 0.015400 1.959060 -0.005350 
#    z -0.001280 -0.005350 1.988990 
# 
# From -- ./inp_files/392995.got.cif
#   From: 2010.06.25/outbox.cif.g09.slc.cpg/sg2_197_cif.got.tgz:392995.got - 2010.06.27 13:26:56.
