data_PCOD8026979
_publ_section_title
;
Structure prediction by ZEFSAII (Michael W. Deem and Ramdas Pophale) SiO2 
 PCOD8026979
Probable space group: P -1
;
_chemical_formula_sum "Si O2"
_cell_formula_units_Z 16
_cell_length_a 17.125359
_cell_length_b 8.859274
_cell_length_c 5.495088
_cell_angle_alpha 124.347874
_cell_angle_beta 80.242383
_cell_angle_gamma 113.083141
_cell_volume 631.749419
_symmetry_space_group_name_H-M "P -1"
_symmetry_group_IT_number 2
_symmetry_cell_setting 'triclinic'
loop_
_space_group_symop_operation_xyz
x,y,z
-x,-y,-z
loop_
_atom_site_type_symbol
_atom_site_label
_atom_site_fract_x
_atom_site_fract_y
_atom_site_fract_z
Si Si1 0.884246 0.576589 0.495509
Si Si2 0.036198 0.241434 0.897723
Si Si3 0.476157 0.230345 0.504895
Si Si4 0.375821 0.808717 0.292750
Si Si5 0.602912 0.482928 0.299864
Si Si6 0.244098 0.220519 0.278195
Si Si7 0.875743 0.035609 0.532583
Si Si8 0.218383 0.829190 0.662664
O O1 0.929156 0.644753 0.273620
O O2 0.818774 0.679876 0.703467
O O3 0.832749 0.343489 0.281936
O O4 0.947332 0.626577 0.745603
O O5 0.933911 0.145993 0.832721
O O6 0.071295 0.064094 0.751657
O O7 0.542051 0.220287 0.662298
O O8 0.522255 0.306519 0.292995
O O9 0.429674 0.382170 0.739513
O O10 0.404132 0.013158 0.314527
O O11 0.303386 0.794059 0.509335
O O12 0.339767 0.621245 0.961981
O O13 0.660856 0.620223 0.605410
O O14 0.210019 0.134062 0.483144
O O15 0.247419 0.046710 0.949382
O O16 0.846761 0.189754 0.541566
#
# Coordination Sequence:
#
# PCOD8026979 Si02
#       8
#     2   2   2   2   2   2   2   2
#     4  11  26  45  75 102 149 189 252 296 374 420
#     4  10  24  47  74 105 139 199 242 313 354 437
#     4  10  24  44  69 104 136 178 233 292 350 428
#     4  11  25  43  71 102 140 178 234 290 355 426
#     4  11  24  44  74  98 138 185 233 283 359 427
#     4  11  26  45  66 103 145 188 235 298 363 433
#     4  10  24  43  73  97 145 185 248 293 366 422
#     4  12  27  43  68 105 144 186 238 298 363 432
#
# _framework density 25.326497
#
# number of rings (size 3 to 8) (size 9 to 14) (size 15 to 20)
#    0.000    1.250    1.250    2.250    7.000   12.500 
#    0.000    0.000    0.000    0.000    0.000    0.000 
#    0.000    0.000    0.000    0.000    0.000    0.000 
#
# Total GULP energy -198369.414014 kJ/mol
# GULP energy per Si atom -12398.088376 kJ/mol
# Density = 2.526885 g / cm^3
# Si number density = 25.326497 Si / 1000 Ang^3
#
#
#
# Elastic Constant Matrix: (Units=GPa)
#
#
# Indices 1 2 3 4 5 6 
#
# 1 55.8804 25.9285 23.1936 5.4298 2.9887 5.0289
# 2 25.9285 121.1339 25.7006 15.8481 2.9655 -14.1710
# 3 23.1936 25.7006 98.5445 11.8236 -3.5618 -6.0688
# 4 5.4298 15.8481 11.8236 31.8410 -4.6167 2.6243
# 5 2.9887 2.9655 -3.5618 -4.6167 35.3894 2.2029
# 6 5.0289 -14.1710 -6.0688 2.6243 2.2029 29.8989
#
#
#
# Elastic Compliance Matrix: (Units=1/GPa)
#
#
# Indices 1 2 3 4 5 6 
#
# 1 0.022661 -0.004712 -0.004653 0.000565 -0.001482 -0.006929
# 2 -0.004712 0.010880 -0.000787 -0.005083 -0.001652 0.006357
# 3 -0.004653 -0.000787 0.012084 -0.003406 0.001039 0.003085
# 4 0.000565 -0.005083 -0.003406 0.036418 0.005208 -0.006776
# 5 -0.001482 -0.001652 0.001039 0.005208 0.029488 -0.002953
# 6 -0.006929 0.006357 0.003085 -0.006776 -0.002953 0.039063
#
#
# Mechanical properties :
#
#
# Convention : Reuss Voigt Hill
#
# Bulk Modulus (GPa) = 39.49072 47.24490 43.36781
# Shear Modulus (GPa) = 27.88041 32.80828 30.34434
#
# Velocity S-wave (km/s) = 3.32149 3.60309 3.46515
# Velocity P-wave (km/s) = 5.50783 6.00038 5.75937
#
# Compressibility (1/GPa) = 0.02532241
#
# Stress axis : x y z
#
# Youngs Moduli (GPa) = 44.12940 91.91201 82.75302
#
# Poissons Ratio (x) = 0.43305 0.38503
# Poissons Ratio (y) = 0.20792 0.06512
# Poissons Ratio (z) = 0.20532 0.07233
#
# Static dielectric constant tensor:
#      x y z
#    x 4.614170 -0.160670 -0.074170 
#    y -0.160670 4.741270 0.285050 
#    z -0.074170 0.285050 4.181200 
# 
# 
# High freq. dielectric constant tensor:
#      x y z
#    x 2.018750 -0.007020 -0.005370 
#    y -0.007020 2.019860 0.016190 
#    z -0.005370 0.016190 1.991840 
# 
# From -- ./inp_files/107581.got.cif
#   From: 2010.06.25/outbox.cif.g09.slc.cpg/sg2_54_cif.got.tgz:107581.got - 2010.06.27 13:26:56.
