data_PCOD8026976
_publ_section_title
;
Structure prediction by ZEFSAII (Michael W. Deem and Ramdas Pophale) SiO2 
 PCOD8026976
Probable space group: P -1
;
_chemical_formula_sum "Si O2"
_cell_formula_units_Z 16
_cell_length_a 10.907468
_cell_length_b 13.412181
_cell_length_c 12.344033
_cell_angle_alpha 95.804203
_cell_angle_beta 84.143609
_cell_angle_gamma 158.531321
_cell_volume 657.381714
_symmetry_space_group_name_H-M "P -1"
_symmetry_group_IT_number 2
_symmetry_cell_setting 'triclinic'
loop_
_space_group_symop_operation_xyz
x,y,z
-x,-y,-z
loop_
_atom_site_type_symbol
_atom_site_label
_atom_site_fract_x
_atom_site_fract_y
_atom_site_fract_z
Si Si1 0.213720 0.331438 0.359982
Si Si2 0.312407 0.270944 0.932161
Si Si3 0.788036 0.156994 0.740002
Si Si4 0.183984 0.109444 0.234080
Si Si5 0.173593 0.807125 0.751701
Si Si6 0.060397 0.186765 0.591747
Si Si7 0.356540 0.684942 0.114931
Si Si8 0.342294 0.677444 0.869717
O O1 0.160202 0.211352 0.255316
O O2 0.986053 0.134098 0.464793
O O3 0.596723 0.615045 0.395177
O O4 0.091492 0.346903 0.327293
O O5 0.563989 0.372299 0.897244
O O6 0.500000 0.500000 0.000000
O O7 0.162922 0.193832 0.821116
O O8 0.000000 0.000000 0.000000
O O9 0.036878 0.283095 0.652075
O O10 0.983295 0.395381 0.810665
O O11 0.482578 0.981703 0.684307
O O12 0.622174 0.959660 0.822459
O O13 0.498142 0.314671 0.153097
O O14 0.222623 0.092056 0.350474
O O15 0.994291 0.584146 0.815853
O O16 0.339700 0.021410 0.831025
O O17 0.287312 0.669281 0.997240
#
# Coordination Sequence:
#
# PCOD8026976 Si02
#       8
#     2   2   2   2   2   2   2   2
#     4  11  23  45  69 103 127 179 221 298 337 406
#     4  12  25  37  65 104 142 176 219 273 340 398
#     4  11  25  46  66 101 132 184 221 281 332 408
#     4  11  22  41  68 100 137 176 221 284 335 409
#     4  12  27  44  68  97 143 175 228 276 340 393
#     4  10  24  43  73  96 134 170 237 278 350 396
#     4  12  25  42  65 102 135 185 225 274 326 408
#     4  11  24  41  70  95 137 177 232 268 331 399
#
# _framework density 24.338978000000001
#
# number of rings (size 3 to 8) (size 9 to 14) (size 15 to 20)
#    0.000    0.750    3.750    3.375    5.250    3.500 
#    0.000    0.000    0.000    3.750    0.000    0.000 
#    0.000    0.000    0.000    0.000    0.000    0.000 
#
# Total GULP energy -198315.732265 kJ/mol
# GULP energy per Si atom -12394.733267 kJ/mol
# Density = 2.428358 g / cm^3
# Si number density = 24.338978 Si / 1000 Ang^3
#
#
#
# Elastic Constant Matrix: (Units=GPa)
#
#
# Indices 1 2 3 4 5 6 
#
# 1 90.5913 23.0331 14.8232 4.0362 3.2780 14.7149
# 2 23.0331 106.9696 19.7085 3.5664 1.9286 -5.1189
# 3 14.8232 19.7085 83.7574 -2.6839 7.2981 6.1738
# 4 4.0362 3.5664 -2.6839 30.5987 -3.0264 -1.8836
# 5 3.2780 1.9286 7.2981 -3.0264 14.0721 2.0028
# 6 14.7149 -5.1189 6.1738 -1.8836 2.0028 48.9202
#
#
#
# Elastic Compliance Matrix: (Units=1/GPa)
#
#
# Indices 1 2 3 4 5 6 
#
# 1 0.012691 -0.002595 -0.001250 -0.001901 -0.001802 -0.003931
# 2 -0.002595 0.010443 -0.002167 -0.000955 -0.000210 0.002118
# 3 -0.001250 -0.002167 0.013309 0.000920 -0.005938 -0.001252
# 4 -0.001901 -0.000955 0.000920 0.033920 0.007197 0.001367
# 5 -0.001802 -0.000210 -0.005938 0.007197 0.076364 -0.001580
# 6 -0.003931 0.002118 -0.001252 0.001367 -0.001580 0.022121
#
#
# Mechanical properties :
#
#
# Convention : Reuss Voigt Hill
#
# Bulk Modulus (GPa) = 40.94671 44.04975 42.49823
# Shear Modulus (GPa) = 26.45348 33.63508 30.04428
#
# Velocity S-wave (km/s) = 3.30036 3.72148 3.51723
# Velocity P-wave (km/s) = 5.60207 6.05009 5.83039
#
# Compressibility (1/GPa) = 0.02442199
#
# Stress axis : x y z
#
# Youngs Moduli (GPa) = 78.79500 95.75472 75.13461
#
# Poissons Ratio (x) = 0.24845 0.09389
# Poissons Ratio (y) = 0.20445 0.16279
# Poissons Ratio (z) = 0.09847 0.20746
#
# Static dielectric constant tensor:
#      x y z
#    x 4.740450 0.343790 -0.129380 
#    y 0.343790 4.268810 -0.115740 
#    z -0.129380 -0.115740 4.550250 
# 
# 
# High freq. dielectric constant tensor:
#      x y z
#    x 1.988340 0.011890 -0.004880 
#    y 0.011890 1.966260 -0.010280 
#    z -0.004880 -0.010280 1.947790 
# 
# From -- ./inp_files/434050.got.cif
#   From: 2010.06.25/outbox.cif.g09.slc.cpg/sg2_218_cif.got.tgz:434050.got - 2010.06.27 13:26:56.
