data_PCOD8026145
_publ_section_title
;
Structure prediction by ZEFSAII (Michael W. Deem and Ramdas Pophale) SiO2 
 PCOD8026145
Probable space group: P -1
;
_chemical_formula_sum "Si O2"
_cell_formula_units_Z 14
_cell_length_a 27.920298
_cell_length_b 5.259766
_cell_length_c 5.109816
_cell_angle_alpha 121.107371
_cell_angle_beta 100.141719
_cell_angle_gamma 95.836754
_cell_volume 615.705909
_symmetry_space_group_name_H-M "P -1"
_symmetry_group_IT_number 2
_symmetry_cell_setting 'triclinic'
loop_
_space_group_symop_operation_xyz
x,y,z
-x,-y,-z
loop_
_atom_site_type_symbol
_atom_site_label
_atom_site_fract_x
_atom_site_fract_y
_atom_site_fract_z
Si Si1 0.557661 0.631278 0.679097
Si Si2 0.094259 0.243350 0.405555
Si Si3 0.750844 0.196383 0.651219
Si Si4 0.594690 0.347273 0.071090
Si Si5 0.295051 0.425850 0.851408
Si Si6 0.942470 0.471955 0.985832
Si Si7 0.203873 0.606162 0.695776
O O1 0.500000 0.500000 0.500000
O O2 0.590853 0.517077 0.430590
O O3 0.570566 0.515206 0.911815
O O4 0.566986 0.995539 0.880402
O O5 0.061098 0.354953 0.654023
O O6 0.152193 0.378275 0.596864
O O7 0.081143 0.360591 0.174508
O O8 0.085460 0.880129 0.203247
O O9 0.705248 0.931013 0.354796
O O10 0.796504 0.246650 0.512604
O O11 0.721794 0.468165 0.824571
O O12 0.779661 0.145280 0.922353
O O13 0.652530 0.365470 0.075382
O O14 0.249728 0.437492 0.613199
O O15 0.000000 0.500000 0.000000
#
# Coordination Sequence:
#
# PCOD8026145 Si02
#       7
#     2   2   2   2   2   2   2
#     4  12  26  47  70 101 134 175 227 285 334 396
#     4  12  26  43  74 100 135 179 222 274 341 396
#     4  10  24  39  64  88 138 168 220 261 326 376
#     4  12  26  43  74  98 137 177 226 270 345 396
#     4  10  26  40  66  95 135 172 218 267 325 396
#     4  12  26  48  70 101 134 175 227 282 334 396
#     4  10  26  40  66  95 137 168 222 263 329 392
#
# _framework density 22.738129000000001
#
# number of rings (size 3 to 8) (size 9 to 14) (size 15 to 20)
#    0.857    0.000    0.000    6.000   10.000    0.000 
#    0.000    0.000    0.000    0.000    0.000    0.000 
#    0.000    0.000    0.000    0.000    0.000    0.000 
#
# Total GULP energy -173481.655960 kJ/mol
# GULP energy per Si atom -12391.546854 kJ/mol
# Density = 2.268638 g / cm^3
# Si number density = 22.738129 Si / 1000 Ang^3
#
#
#
# Elastic Constant Matrix: (Units=GPa)
#
#
# Indices 1 2 3 4 5 6 
#
# 1 91.6946 12.5223 -8.0630 -5.3767 17.5313 6.3618
# 2 12.5223 113.0715 47.5714 5.6548 -0.9844 16.0317
# 3 -8.0630 47.5714 111.5844 10.4363 -19.1843 8.2087
# 4 -5.3767 5.6548 10.4363 35.5979 10.7594 1.1302
# 5 17.5313 -0.9844 -19.1843 10.7594 41.4095 -1.9219
# 6 6.3618 16.0317 8.2087 1.1302 -1.9219 28.9859
#
#
#
# Elastic Compliance Matrix: (Units=1/GPa)
#
#
# Indices 1 2 3 4 5 6 
#
# 1 0.012799 -0.001382 0.000193 0.004168 -0.006570 -0.002698
# 2 -0.001382 0.011811 -0.005081 0.000086 -0.001738 -0.004909
# 3 0.000193 -0.005081 0.012842 -0.005053 0.007050 -0.000204
# 4 0.004168 0.000086 -0.005053 0.034193 -0.013068 -0.001731
# 5 -0.006570 -0.001738 0.007050 -0.013068 0.033697 0.003151
# 6 -0.002698 -0.004909 -0.000204 -0.001731 0.003151 0.038141
#
#
# Mechanical properties :
#
#
# Convention : Reuss Voigt Hill
#
# Bulk Modulus (GPa) = 40.14055 46.71243 43.42649
# Shear Modulus (GPa) = 30.42696 38.81998 34.62347
#
# Velocity S-wave (km/s) = 3.66204 4.13639 3.90642
# Velocity P-wave (km/s) = 5.96426 6.58796 6.28385
#
# Compressibility (1/GPa) = 0.02491246
#
# Stress axis : x y z
#
# Youngs Moduli (GPa) = 78.13015 84.66466 77.87102
#
# Poissons Ratio (x) = 0.11699 -0.01503
# Poissons Ratio (y) = 0.10796 0.39567
# Poissons Ratio (z) = -0.01508 0.43019
#
# Static dielectric constant tensor:
#      x y z
#    x 4.137390 0.042940 -0.030850 
#    y 0.042940 4.239480 -0.037230 
#    z -0.030850 -0.037230 4.297000 
# 
# 
# High freq. dielectric constant tensor:
#      x y z
#    x 1.903780 0.012240 -0.004020 
#    y 0.012240 1.889580 -0.000850 
#    z -0.004020 -0.000850 1.918300 
# 
# From -- ./inp_files/125389.got.cif
#   From: 2010.06.25/outbox.cif.g09.slc.cpg/sg2_63_cif.got.tgz:125389.got - 2010.06.27 13:26:56.
