data_PCOD8026935
_publ_section_title
;
Structure prediction by ZEFSAII (Michael W. Deem and Ramdas Pophale) SiO2 
 PCOD8026935
Probable space group: P -1
;
_chemical_formula_sum "Si O2"
_cell_formula_units_Z 14
_cell_length_a 15.152772
_cell_length_b 4.921209
_cell_length_c 7.190649
_cell_angle_alpha 96.298329
_cell_angle_beta 94.925595
_cell_angle_gamma 112.866559
_cell_volume 486.227928
_symmetry_space_group_name_H-M "P -1"
_symmetry_group_IT_number 2
_symmetry_cell_setting 'triclinic'
loop_
_space_group_symop_operation_xyz
x,y,z
-x,-y,-z
loop_
_atom_site_type_symbol
_atom_site_label
_atom_site_fract_x
_atom_site_fract_y
_atom_site_fract_z
Si Si1 0.236624 0.602229 0.878657
Si Si2 0.367820 0.938600 0.303549
Si Si3 0.026516 0.249251 0.871402
Si Si4 0.144548 0.645937 0.298423
Si Si5 0.475888 0.298220 0.661865
Si Si6 0.358465 0.276989 0.983619
Si Si7 0.124096 0.167103 0.535075
O O1 0.133363 0.501592 0.958807
O O2 0.280811 0.954272 0.877669
O O3 0.219688 0.416360 0.668694
O O4 0.307877 0.509276 0.013094
O O5 0.389867 0.004937 0.532883
O O6 0.251548 0.771371 0.232166
O O7 0.432941 0.758878 0.244727
O O8 0.400880 0.231751 0.191515
O O9 0.032107 0.111529 0.654442
O O10 0.945466 0.386853 0.858094
O O11 0.000000 0.000000 0.000000
O O12 0.117276 0.314799 0.347471
O O13 0.143544 0.870680 0.481122
O O14 0.500000 0.500000 0.500000
O O15 0.438508 0.406535 0.846361
#
# Coordination Sequence:
#
# PCOD8026935 Si02
#       7
#     2   2   2   2   2   2   2
#     4  10  25  42  75 105 147 194 233 295 362 417
#     4  11  28  46  76 108 142 193 244 300 373 433
#     4  10  24  44  69 109 151 191 240 292 355 430
#     4  12  24  46  72 107 140 193 246 292 356 437
#     4  11  28  49  77 108 144 188 244 312 370 433
#     4  12  26  50  75 109 149 191 244 299 365 439
#     4  10  24  43  71  99 148 190 239 297 350 414
#
# _framework density 28.793085000000001
#
# number of rings (size 3 to 8) (size 9 to 14) (size 15 to 20)
#    0.857    0.286    0.000    4.714   10.000    2.857 
#    0.000    4.286    0.000    0.000    0.000    0.000 
#    0.000    0.000    0.000    0.000    0.000    0.000 
#
# Total GULP energy -173626.209526 kJ/mol
# GULP energy per Si atom -12401.872109 kJ/mol
# Density = 2.872755 g / cm^3
# Si number density = 28.793085 Si / 1000 Ang^3
#
#
#
# Elastic Constant Matrix: (Units=GPa)
#
#
# Indices 1 2 3 4 5 6 
#
# 1 222.1577 40.3849 89.1670 3.7587 -3.8081 -0.4491
# 2 40.3849 70.2075 22.4963 -14.4194 -6.0865 16.4702
# 3 89.1670 22.4963 169.5341 -2.5795 7.8304 25.9840
# 4 3.7587 -14.4194 -2.5795 65.7619 11.6592 7.3735
# 5 -3.8081 -6.0865 7.8304 11.6592 62.8979 12.1171
# 6 -0.4491 16.4702 25.9840 7.3735 12.1171 54.9108
#
#
#
# Elastic Compliance Matrix: (Units=1/GPa)
#
#
# Indices 1 2 3 4 5 6 
#
# 1 0.006614 -0.003725 -0.003480 -0.001705 0.000211 0.003000
# 2 -0.003725 0.019059 0.000495 0.004846 0.002022 -0.007079
# 3 -0.003480 0.000495 0.008347 0.001211 -0.000627 -0.004151
# 4 -0.001705 0.004846 0.001211 0.017244 -0.002237 -0.003863
# 5 0.000211 0.002022 -0.000627 -0.002237 0.017339 -0.003834
# 6 0.003000 -0.007079 -0.004151 -0.003863 -0.003834 0.023688
#
#
# Mechanical properties :
#
#
# Convention : Reuss Voigt Hill
#
# Bulk Modulus (GPa) = 48.54312 85.11064 66.82688
# Shear Modulus (GPa) = 44.41484 57.37087 50.89286
#
# Velocity S-wave (km/s) = 3.93179 4.46861 4.20877
# Velocity P-wave (km/s) = 6.12437 7.49988 6.84676
#
# Compressibility (1/GPa) = 0.02060024
#
# Stress axis : x y z
#
# Youngs Moduli (GPa) = 151.20210 52.46928 119.80988
#
# Poissons Ratio (x) = 0.19545 0.41691
# Poissons Ratio (y) = 0.56324 -0.05936
# Poissons Ratio (z) = 0.52614 -0.02600
#
# Static dielectric constant tensor:
#      x y z
#    x 5.612460 0.217350 0.257730 
#    y 0.217350 5.697540 0.883690 
#    z 0.257730 0.883690 5.686310 
# 
# 
# High freq. dielectric constant tensor:
#      x y z
#    x 2.184620 0.014250 0.007490 
#    y 0.014250 2.200760 0.050120 
#    z 0.007490 0.050120 2.212210 
# 
# From -- ./inp_files/287752.got.cif
#   From: 2010.06.25/outbox.cif.g09.slc.cpg/sg2_144_cif.got.tgz:287752.got - 2010.06.27 13:26:56.
