data_PCOD8026525
_publ_section_title
;
Structure prediction by ZEFSAII (Michael W. Deem and Ramdas Pophale) SiO2 
 PCOD8026525
Probable space group: P -1
;
_chemical_formula_sum "Si O2"
_cell_formula_units_Z 16
_cell_length_a 9.114418
_cell_length_b 18.073616
_cell_length_c 6.706020
_cell_angle_alpha 112.645382
_cell_angle_beta 58.577239
_cell_angle_gamma 121.799031
_cell_volume 791.861858
_symmetry_space_group_name_H-M "P -1"
_symmetry_group_IT_number 2
_symmetry_cell_setting 'triclinic'
loop_
_space_group_symop_operation_xyz
x,y,z
-x,-y,-z
loop_
_atom_site_type_symbol
_atom_site_label
_atom_site_fract_x
_atom_site_fract_y
_atom_site_fract_z
Si Si1 0.832267 0.715075 0.847880
Si Si2 0.733205 0.981647 0.993876
Si Si3 0.704159 0.112934 0.823585
Si Si4 0.532997 0.585696 0.191538
Si Si5 0.212270 0.393890 0.615663
Si Si6 0.016642 0.898859 0.719066
Si Si7 0.839154 0.454200 0.407188
Si Si8 0.097957 0.702293 0.959550
O O1 0.753108 0.652553 0.650690
O O2 0.887279 0.815888 0.859720
O O3 0.014970 0.708475 0.807848
O O4 0.666396 0.678031 0.091027
O O5 0.860988 0.931060 0.771953
O O6 0.736797 0.049039 0.891856
O O7 0.511790 0.921552 0.137536
O O8 0.827464 0.027294 0.180273
O O9 0.861737 0.126976 0.556454
O O10 0.735842 0.204401 0.004601
O O11 0.602582 0.569466 0.341437
O O12 0.338406 0.592205 0.371841
O O13 0.500000 0.500000 0.000000
O O14 0.163391 0.474145 0.672183
O O15 0.048827 0.319818 0.779905
O O16 0.842487 0.377878 0.184043
O O17 0.000000 0.500000 0.500000
#
# Coordination Sequence:
#
# PCOD8026525 Si02
#       8
#     2   2   2   2   2   2   2   2
#     4  11  22  42  65  92 129 170 214 264 323 385
#     4  10  24  42  68 100 125 168 218 265 330 408
#     4  11  22  43  67  96 135 166 212 275 331 384
#     4  11  24  42  63  92 127 171 221 266 315 385
#     4  11  22  43  66  86 129 175 210 262 322 379
#     4  11  22  44  68  95 131 171 215 264 335 392
#     4  12  23  42  64  94 129 172 219 265 321 383
#     4  11  23  40  63  96 129 168 214 270 321 384
#
# _framework density 20.205545000000001
#
# number of rings (size 3 to 8) (size 9 to 14) (size 15 to 20)
#    0.000    1.000    5.000    2.250    0.000    1.000 
#    4.500    1.250    0.000    0.000    0.000    0.000 
#    0.000    0.000    0.000    0.000    0.000    0.000 
#
# Total GULP energy -198329.517221 kJ/mol
# GULP energy per Si atom -12395.594826 kJ/mol
# Density = 2.015956 g / cm^3
# Si number density = 20.205545 Si / 1000 Ang^3
#
#
#
# Elastic Constant Matrix: (Units=GPa)
#
#
# Indices 1 2 3 4 5 6 
#
# 1 135.2849 56.3353 49.5011 2.2192 -2.8576 12.2843
# 2 56.3353 120.7546 31.4089 3.2525 -0.1463 6.5671
# 3 49.5011 31.4089 85.5903 3.0998 4.3862 9.1421
# 4 2.2192 3.2525 3.0998 34.5302 2.1117 2.5038
# 5 -2.8576 -0.1463 4.3862 2.1117 31.5663 -0.8979
# 6 12.2843 6.5671 9.1421 2.5038 -0.8979 29.1654
#
#
#
# Elastic Compliance Matrix: (Units=1/GPa)
#
#
# Indices 1 2 3 4 5 6 
#
# 1 0.010937 -0.003734 -0.004803 0.000145 0.001567 -0.002224
# 2 -0.003734 0.010477 -0.001639 -0.000582 -0.000029 -0.000224
# 3 -0.004803 -0.001639 0.015485 -0.000586 -0.002626 -0.002492
# 4 0.000145 -0.000582 -0.000586 0.029345 -0.001937 -0.002326
# 5 0.001567 -0.000029 -0.002626 -0.001937 0.032353 0.001332
# 6 -0.002224 -0.000224 -0.002492 -0.002326 0.001332 0.036296
#
#
# Mechanical properties :
#
#
# Convention : Reuss Voigt Hill
#
# Bulk Modulus (GPa) = 60.43324 68.45784 64.44554
# Shear Modulus (GPa) = 31.10193 32.67803 31.88998
#
# Velocity S-wave (km/s) = 3.92762 4.02590 3.97707
# Velocity P-wave (km/s) = 7.10932 7.45418 7.28379
#
# Compressibility (1/GPa) = 0.01654718
#
# Stress axis : x y z
#
# Youngs Moduli (GPa) = 91.43348 95.44365 64.57964
#
# Poissons Ratio (x) = 0.35640 0.31018
# Poissons Ratio (y) = 0.34142 0.10583
# Poissons Ratio (z) = 0.43916 0.15641
#
# Static dielectric constant tensor:
#      x y z
#    x 3.871820 0.166700 -0.020990 
#    y 0.166700 3.891420 -0.082630 
#    z -0.020990 -0.082630 3.614690 
# 
# 
# High freq. dielectric constant tensor:
#      x y z
#    x 1.793330 0.007060 0.008160 
#    y 0.007060 1.800460 -0.005570 
#    z 0.008160 -0.005570 1.789760 
# 
# From -- ./inp_files/47028.got.cif
#   From: 2010.06.25/outbox.cif.g09.slc.cpg/sg2_24_cif.got.tgz:47028.got - 2010.06.27 13:26:56.
