data_PCOD8026685
_publ_section_title
;
Structure prediction by ZEFSAII (Michael W. Deem and Ramdas Pophale) SiO2 
 PCOD8026685
Probable space group: P -1
;
_chemical_formula_sum "Si O2"
_cell_formula_units_Z 16
_cell_length_a 26.019678
_cell_length_b 9.873192
_cell_length_c 9.886804
_cell_angle_alpha 138.998548
_cell_angle_beta 153.571144
_cell_angle_gamma 41.619308
_cell_volume 718.936454
_symmetry_space_group_name_H-M "P -1"
_symmetry_group_IT_number 2
_symmetry_cell_setting 'triclinic'
loop_
_space_group_symop_operation_xyz
x,y,z
-x,-y,-z
loop_
_atom_site_type_symbol
_atom_site_label
_atom_site_fract_x
_atom_site_fract_y
_atom_site_fract_z
Si Si1 0.407973 0.789225 0.184909
Si Si2 0.668115 0.594378 0.610870
Si Si3 0.734125 0.177441 0.592156
Si Si4 0.103537 0.797762 0.623709
Si Si5 0.772194 0.922949 0.231356
Si Si6 0.264613 0.471802 0.580844
Si Si7 0.968419 0.293244 0.334496
Si Si8 0.688679 0.014354 0.639958
O O1 0.538415 0.753655 0.397443
O O2 0.417134 0.907712 0.440103
O O3 0.376972 0.560785 0.961198
O O4 0.304620 0.916511 0.937867
O O5 0.649047 0.384295 0.479272
O O6 0.741755 0.539146 0.604678
O O7 0.746209 0.693669 0.973415
O O8 0.665267 0.128062 0.525397
O O9 0.740609 0.986057 0.358841
O O10 0.866026 0.213149 0.953047
O O11 0.141571 0.628665 0.463241
O O12 0.074040 0.659663 0.575432
O O13 0.207198 0.910654 0.984823
O O14 0.000000 0.000000 0.500000
O O15 0.913114 0.901637 0.528473
O O16 0.280616 0.237390 0.503219
O O17 0.000000 0.500000 0.500000
#
# Coordination Sequence:
#
# PCOD8026685 Si02
#       8
#     2   2   2   2   2   2   2   2
#     4  11  24  44  73 100 134 175 236 286 325 400
#     4  12  25  43  73 101 132 179 234 280 333 401
#     4  11  26  43  67 102 141 175 224 278 344 404
#     4  10  24  43  64  98 136 172 228 283 331 400
#     4  12  24  43  70  98 136 175 228 278 333 405
#     4  11  23  42  69  96 134 177 225 277 338 401
#     4  11  23  44  68  97 134 178 221 274 342 401
#     4  10  24  43  64 100 136 177 220 279 343 399
#
# _framework density 22.255095000000001
#
# number of rings (size 3 to 8) (size 9 to 14) (size 15 to 20)
#    0.000    1.000    3.750    2.625    1.750    2.000 
#    0.000    1.250    0.000    0.000    0.000    0.000 
#    0.000    0.000    0.000    0.000    0.000    0.000 
#
# Total GULP energy -198350.695989 kJ/mol
# GULP energy per Si atom -12396.918499 kJ/mol
# Density = 2.220444 g / cm^3
# Si number density = 22.255095 Si / 1000 Ang^3
#
#
#
# Elastic Constant Matrix: (Units=GPa)
#
#
# Indices 1 2 3 4 5 6 
#
# 1 168.6112 57.6184 39.6889 2.8176 -24.9935 -9.9170
# 2 57.6184 102.0282 20.0230 7.5314 -7.1465 -2.3980
# 3 39.6889 20.0230 52.5508 2.9152 -12.5055 -11.7253
# 4 2.8176 7.5314 2.9152 42.2833 -7.1747 0.0325
# 5 -24.9935 -7.1465 -12.5055 -7.1747 32.4364 3.8282
# 6 -9.9170 -2.3980 -11.7253 0.0325 3.8282 43.9288
#
#
#
# Elastic Compliance Matrix: (Units=1/GPa)
#
#
# Indices 1 2 3 4 5 6 
#
# 1 0.008959 -0.004003 -0.004134 0.001191 0.004657 0.000294
# 2 -0.004003 0.012512 -0.002141 -0.002074 -0.001535 -0.000657
# 3 -0.004134 -0.002141 0.025460 -0.000169 0.005500 0.005267
# 4 0.001191 -0.002074 -0.000169 0.024965 0.005968 -0.000428
# 5 0.004657 -0.001535 0.005500 0.005968 0.037620 -0.000847
# 6 0.000294 -0.000657 0.005267 -0.000428 -0.000847 0.024275
#
#
# Mechanical properties :
#
#
# Convention : Reuss Voigt Hill
#
# Bulk Modulus (GPa) = 37.91213 61.98343 49.94778
# Shear Modulus (GPa) = 30.64879 37.45369 34.05124
#
# Velocity S-wave (km/s) = 3.71503 4.10680 3.91582
# Velocity P-wave (km/s) = 5.95602 7.09926 6.55262
#
# Compressibility (1/GPa) = 0.02637678
#
# Stress axis : x y z
#
# Youngs Moduli (GPa) = 111.61361 79.92145 39.27717
#
# Poissons Ratio (x) = 0.31995 0.16236
# Poissons Ratio (y) = 0.44682 0.08408
# Poissons Ratio (z) = 0.46137 0.17108
#
# Static dielectric constant tensor:
#      x y z
#    x 4.127600 -0.140800 -0.085150 
#    y -0.140800 4.097090 0.199170 
#    z -0.085150 0.199170 3.976090 
# 
# 
# High freq. dielectric constant tensor:
#      x y z
#    x 1.887290 -0.003330 -0.001360 
#    y -0.003330 1.879820 0.011280 
#    z -0.001360 0.011280 1.866330 
# 
# From -- ./inp_files/352466.got.cif
#   From: 2010.06.25/outbox.cif.g09.slc.cpg/sg2_177_cif.got.tgz:352466.got - 2010.06.27 13:26:56.
