data_PCOD8026718
_publ_section_title
;
Structure prediction by ZEFSAII (Michael W. Deem and Ramdas Pophale) SiO2 
 PCOD8026718
Probable space group: P -1
;
_chemical_formula_sum "Si O2"
_cell_formula_units_Z 16
_cell_length_a 5.107318
_cell_length_b 14.411481
_cell_length_c 12.481746
_cell_angle_alpha 76.751089
_cell_angle_beta 102.050836
_cell_angle_gamma 124.667264
_cell_volume 731.959397
_symmetry_space_group_name_H-M "P -1"
_symmetry_group_IT_number 2
_symmetry_cell_setting 'triclinic'
loop_
_space_group_symop_operation_xyz
x,y,z
-x,-y,-z
loop_
_atom_site_type_symbol
_atom_site_label
_atom_site_fract_x
_atom_site_fract_y
_atom_site_fract_z
Si Si1 0.146158 0.425104 0.032077
Si Si2 0.687673 0.249992 0.595600
Si Si3 0.204365 0.406289 0.282223
Si Si4 0.253838 0.821497 0.981432
Si Si5 0.656137 0.871459 0.202558
Si Si6 0.521332 0.273102 0.352565
Si Si7 0.780944 0.883736 0.836881
Si Si8 0.390843 0.339611 0.681061
O O1 0.138681 0.375873 0.160295
O O2 0.500000 0.500000 0.000000
O O3 0.000000 0.500000 0.000000
O O4 0.929601 0.313140 0.971131
O O5 0.517373 0.143824 0.693002
O O6 0.537078 0.207872 0.475508
O O7 0.626060 0.346536 0.606128
O O8 0.064019 0.307192 0.605587
O O9 0.345809 0.335585 0.357577
O O10 0.453989 0.541347 0.277077
O O11 0.878737 0.370707 0.322523
O O12 0.462130 0.886234 0.087157
O O13 0.476338 0.856273 0.886801
O O14 0.991243 0.851649 0.932796
O O15 0.677018 0.760625 0.213917
O O16 0.011492 0.982902 0.208403
O O17 0.333195 0.183498 0.266390
#
# Coordination Sequence:
#
# PCOD8026718 Si02
#       8
#     2   2   2   2   2   2   2   2
#     4  12  24  39  66  98 133 175 207 264 331 392
#     4  10  25  43  66 101 128 178 225 269 335 380
#     4  12  24  43  67  97 139 170 221 272 331 397
#     4  12  25  44  68 102 131 174 222 267 338 393
#     4  10  27  44  70  96 136 170 231 270 331 386
#     4  12  24  45  67  98 136 175 222 272 329 398
#     4  12  25  45  69  99 133 177 219 275 329 395
#     4  10  24  43  65  99 127 176 219 273 331 381
#
# _framework density 21.859138000000002
#
# number of rings (size 3 to 8) (size 9 to 14) (size 15 to 20)
#    0.750    0.000    2.500    4.500    5.250    3.500 
#    0.000    0.625    0.000    0.000    0.000    0.000 
#    0.000    0.000    0.000    0.000    0.000    0.000 
#
# Total GULP energy -198412.578526 kJ/mol
# GULP energy per Si atom -12400.786158 kJ/mol
# Density = 2.180939 g / cm^3
# Si number density = 21.859138 Si / 1000 Ang^3
#
#
#
# Elastic Constant Matrix: (Units=GPa)
#
#
# Indices 1 2 3 4 5 6 
#
# 1 95.9305 6.1775 15.9471 2.0238 10.6800 13.0968
# 2 6.1775 115.0238 24.5620 -3.9901 3.0702 19.1193
# 3 15.9471 24.5620 115.9948 7.1441 6.9127 6.2155
# 4 2.0238 -3.9901 7.1441 16.2399 5.9410 -0.0645
# 5 10.6800 3.0702 6.9127 5.9410 32.4758 -0.8830
# 6 13.0968 19.1193 6.2155 -0.0645 -0.8830 29.0928
#
#
#
# Elastic Compliance Matrix: (Units=1/GPa)
#
#
# Indices 1 2 3 4 5 6 
#
# 1 0.011782 0.000701 -0.001275 0.000687 -0.003948 -0.005611
# 2 0.000701 0.010406 -0.002083 0.003974 -0.001682 -0.006752
# 3 -0.001275 -0.002083 0.009548 -0.004324 -0.000629 -0.000126
# 4 0.000687 0.003974 -0.004324 0.068876 -0.012341 -0.002219
# 5 -0.003948 -0.001682 -0.000629 -0.012341 0.034751 0.004044
# 6 -0.005611 -0.006752 -0.000126 -0.002219 0.004044 0.041480
#
#
# Mechanical properties :
#
#
# Convention : Reuss Voigt Hill
#
# Bulk Modulus (GPa) = 37.84496 46.70247 42.27371
# Shear Modulus (GPa) = 26.18312 34.24585 30.21449
#
# Velocity S-wave (km/s) = 3.46470 3.96240 3.72188
# Velocity P-wave (km/s) = 5.77548 6.50736 6.15231
#
# Compressibility (1/GPa) = 0.02642360
#
# Stress axis : x y z
#
# Youngs Moduli (GPa) = 84.87546 96.09935 104.73593
#
# Poissons Ratio (x) = -0.06739 0.13350
# Poissons Ratio (y) = -0.05952 0.21813
# Poissons Ratio (z) = 0.10819 0.20014
#
# Static dielectric constant tensor:
#      x y z
#    x 3.873730 0.060530 0.058520 
#    y 0.060530 3.824770 0.020310 
#    z 0.058520 0.020310 3.918600 
# 
# 
# High freq. dielectric constant tensor:
#      x y z
#    x 1.870730 0.008660 0.006790 
#    y 0.008660 1.852760 0.001750 
#    z 0.006790 0.001750 1.859540 
# 
# From -- ./inp_files/483898.got.cif
#   From: 2010.06.25/outbox.cif.g09.slc.cpg/sg2_242_cif.got.tgz:483898.got - 2010.06.27 13:26:56.
