data_PCOD8026514
_publ_section_title
;
Structure prediction by ZEFSAII (Michael W. Deem and Ramdas Pophale) SiO2 
 PCOD8026514
Probable space group: P -1
;
_chemical_formula_sum "Si O2"
_cell_formula_units_Z 14
_cell_length_a 12.009799
_cell_length_b 9.008806
_cell_length_c 18.607416
_cell_angle_alpha 68.330111
_cell_angle_beta 27.282943
_cell_angle_gamma 86.145543
_cell_volume 677.851527
_symmetry_space_group_name_H-M "P -1"
_symmetry_group_IT_number 2
_symmetry_cell_setting 'triclinic'
loop_
_space_group_symop_operation_xyz
x,y,z
-x,-y,-z
loop_
_atom_site_type_symbol
_atom_site_label
_atom_site_fract_x
_atom_site_fract_y
_atom_site_fract_z
Si Si1 0.349222 0.144873 0.251922
Si Si2 0.388830 0.426071 0.996106
Si Si3 0.805996 0.728137 0.361363
Si Si4 0.273555 0.974717 0.573871
Si Si5 0.396791 0.803838 0.054301
Si Si6 0.724697 0.722550 0.245410
Si Si7 0.623378 0.027779 0.225705
O O1 0.502639 0.376036 0.147372
O O2 0.519591 0.064811 0.204452
O O3 0.370838 0.132272 0.156388
O O4 0.000000 0.000000 0.500000
O O5 0.567374 0.334271 0.887749
O O6 0.500000 0.500000 0.000000
O O7 0.021160 0.258924 0.226825
O O8 0.845431 0.797951 0.243961
O O9 0.474113 0.517329 0.602893
O O10 0.050799 0.688197 0.245931
O O11 0.844661 0.896566 0.360606
O O12 0.500000 0.000000 0.500000
O O13 0.468253 0.062188 0.373403
O O14 0.500000 0.000000 0.000000
O O15 0.530397 0.802784 0.321351
O O16 0.005641 0.813415 0.012385
#
# Coordination Sequence:
#
# PCOD8026514 Si02
#       7
#     2   2   2   2   2   2   2
#     4  11  25  42  66  95 129 174 222 270 333 394
#     4  10  24  43  69  93 128 183 219 260 333 406
#     4  11  23  42  68  96 127 174 218 265 335 394
#     4  12  25  42  69  99 135 170 224 277 329 393
#     4  11  22  43  67  92 128 168 221 269 314 396
#     4  10  24  42  67  95 129 176 213 266 338 400
#     4  11  23  42  64  96 135 170 216 276 326 392
#
# _framework density 20.653490999999999
#
# number of rings (size 3 to 8) (size 9 to 14) (size 15 to 20)
#    0.000    1.143    4.286    1.714    8.000    0.571 
#    0.000    0.714    0.000    0.000    0.000    0.000 
#    0.000    0.000    0.000    0.000    0.000    0.000 
#
# Total GULP energy -173582.750739 kJ/mol
# GULP energy per Si atom -12398.767910 kJ/mol
# Density = 2.060648 g / cm^3
# Si number density = 20.653491 Si / 1000 Ang^3
#
#
#
# Elastic Constant Matrix: (Units=GPa)
#
#
# Indices 1 2 3 4 5 6 
#
# 1 83.1077 37.3217 29.4152 -10.7566 -10.1963 -20.2581
# 2 37.3217 127.1841 58.6792 -5.3029 1.0824 -8.9312
# 3 29.4152 58.6792 131.9275 -1.6180 -2.6058 4.2031
# 4 -10.7566 -5.3029 -1.6180 34.0647 -0.7554 -3.4324
# 5 -10.1963 1.0824 -2.6058 -0.7554 32.5233 1.4399
# 6 -20.2581 -8.9312 4.2031 -3.4324 1.4399 41.5164
#
#
#
# Elastic Compliance Matrix: (Units=1/GPa)
#
#
# Indices 1 2 3 4 5 6 
#
# 1 0.017965 -0.003226 -0.002668 0.006033 0.005283 0.008658
# 2 -0.003226 0.010869 -0.004184 0.000566 -0.001753 0.001295
# 3 -0.002668 -0.004184 0.010131 -0.001345 0.000231 -0.003347
# 4 0.006033 0.000566 -0.001345 0.031916 0.002251 0.005763
# 5 0.005283 -0.001753 0.000231 0.002251 0.032478 0.001237
# 6 0.008658 0.001295 -0.003347 0.005763 0.001237 0.029362
#
#
# Mechanical properties :
#
#
# Convention : Reuss Voigt Hill
#
# Bulk Modulus (GPa) = 53.16853 65.89463 59.53158
# Shear Modulus (GPa) = 31.41742 36.07442 33.74592
#
# Velocity S-wave (km/s) = 3.90445 4.18383 4.04655
# Velocity P-wave (km/s) = 6.79156 7.43729 7.12175
#
# Compressibility (1/GPa) = 0.01880812
#
# Stress axis : x y z
#
# Youngs Moduli (GPa) = 55.66303 92.00288 98.71151
#
# Poissons Ratio (x) = 0.29682 0.26338
# Poissons Ratio (y) = 0.17958 0.41301
# Poissons Ratio (z) = 0.14852 0.38494
#
# Static dielectric constant tensor:
#      x y z
#    x 4.336460 -0.864190 -0.183090 
#    y -0.864190 4.615380 0.114690 
#    z -0.183090 0.114690 3.843090 
# 
# 
# High freq. dielectric constant tensor:
#      x y z
#    x 1.803670 -0.022420 -0.010200 
#    y -0.022420 1.816470 0.000930 
#    z -0.010200 0.000930 1.807370 
# 
# From -- ./inp_files/181036.got.cif
#   From: 2010.06.25/outbox.cif.g09.slc.cpg/sg2_91_cif.got.tgz:181036.got - 2010.06.27 13:26:56.
