data_PCOD8026479
_publ_section_title
;
Structure prediction by ZEFSAII (Michael W. Deem and Ramdas Pophale) SiO2 
 PCOD8026479
Probable space group: P -1
;
_chemical_formula_sum "Si O2"
_cell_formula_units_Z 16
_cell_length_a 11.562947
_cell_length_b 8.745391
_cell_length_c 9.028791
_cell_angle_alpha 83.516339
_cell_angle_beta 126.771387
_cell_angle_gamma 101.751010
_cell_volume 715.977007
_symmetry_space_group_name_H-M "P -1"
_symmetry_group_IT_number 2
_symmetry_cell_setting 'triclinic'
loop_
_space_group_symop_operation_xyz
x,y,z
-x,-y,-z
loop_
_atom_site_type_symbol
_atom_site_label
_atom_site_fract_x
_atom_site_fract_y
_atom_site_fract_z
Si Si1 0.519280 0.669723 0.421390
Si Si2 0.878195 0.491267 0.527712
Si Si3 0.278633 0.867556 0.191781
Si Si4 0.239384 0.819324 0.627862
Si Si5 0.601730 0.617568 0.171396
Si Si6 0.553758 0.891115 0.933413
Si Si7 0.056761 0.754178 0.797318
Si Si8 0.796247 0.922501 0.632862
O O1 0.500000 0.500000 0.500000
O O2 0.392713 0.766889 0.362082
O O3 0.506169 0.650333 0.236602
O O4 0.675357 0.767642 0.581947
O O5 0.828638 0.306058 0.537745
O O6 0.746874 0.563808 0.347641
O O7 0.000000 0.500000 0.500000
O O8 0.947290 0.586990 0.714174
O O9 0.356802 0.009745 0.136162
O O10 0.199510 0.950799 0.248498
O O11 0.161616 0.748871 0.019065
O O12 0.404982 0.786259 0.770275
O O13 0.153627 0.796585 0.720188
O O14 0.241215 0.995683 0.557136
O O15 0.500000 0.500000 0.000000
O O16 0.651590 0.776731 0.098207
O O17 0.500000 0.000000 0.000000
O O18 0.957918 0.884327 0.741707
#
# Coordination Sequence:
#
# PCOD8026479 Si02
#       8
#     2   2   2   2   2   2   2   2
#     4  12  28  47  70 103 143 186 233 291 356 415
#     4  10  24  42  66 103 141 179 224 287 352 405
#     4  12  27  45  72 104 145 183 237 286 355 414
#     4  11  22  43  74 101 142 183 235 291 348 412
#     4  12  24  42  74 102 133 175 239 288 340 408
#     4  12  22  42  73 107 132 179 238 299 337 404
#     4  11  24  47  70 103 143 186 235 285 349 426
#     4  12  26  45  71 104 143 189 233 286 355 417
#
# _framework density 22.347086000000001
#
# number of rings (size 3 to 8) (size 9 to 14) (size 15 to 20)
#    0.000    0.500    6.250    1.125    5.250    2.000 
#    0.000    3.750    0.000    0.000    0.000    0.000 
#    0.000    0.000    0.000    0.000    0.000    0.000 
#
# Total GULP energy -198347.060999 kJ/mol
# GULP energy per Si atom -12396.691312 kJ/mol
# Density = 2.229622 g / cm^3
# Si number density = 22.347086 Si / 1000 Ang^3
#
#
#
# Elastic Constant Matrix: (Units=GPa)
#
#
# Indices 1 2 3 4 5 6 
#
# 1 59.7754 23.4602 25.2398 7.7096 12.7485 -13.8466
# 2 23.4602 123.1699 41.3810 1.2858 1.0386 8.6135
# 3 25.2398 41.3810 89.1441 19.2117 8.1842 7.7377
# 4 7.7096 1.2858 19.2117 55.6154 -3.1751 -2.2877
# 5 12.7485 1.0386 8.1842 -3.1751 37.3022 3.8909
# 6 -13.8466 8.6135 7.7377 -2.2877 3.8909 35.2872
#
#
#
# Elastic Compliance Matrix: (Units=1/GPa)
#
#
# Indices 1 2 3 4 5 6 
#
# 1 0.025719 -0.003893 -0.005452 -0.001565 -0.008988 0.013127
# 2 -0.003893 0.010408 -0.004025 0.001690 0.002416 -0.003342
# 3 -0.005452 -0.004025 0.016285 -0.005065 -0.001519 -0.004889
# 4 -0.001565 0.001690 -0.005065 0.020134 0.003205 0.001036
# 5 -0.008988 0.002416 -0.001519 0.003205 0.031150 -0.007010
# 6 0.013127 -0.003342 -0.004889 0.001036 -0.007010 0.036218
#
#
# Mechanical properties :
#
#
# Convention : Reuss Voigt Hill
#
# Bulk Modulus (GPa) = 38.95250 50.25015 44.60133
# Shear Modulus (GPa) = 28.53701 37.77484 33.15593
#
# Velocity S-wave (km/s) = 3.57738 4.11587 3.85604
# Velocity P-wave (km/s) = 5.87640 6.71731 6.31087
#
# Compressibility (1/GPa) = 0.02567229
#
# Stress axis : x y z
#
# Youngs Moduli (GPa) = 38.88228 96.07563 61.40547
#
# Poissons Ratio (x) = 0.37402 0.33477
# Poissons Ratio (y) = 0.15137 0.24718
# Poissons Ratio (z) = 0.21198 0.38674
#
# Static dielectric constant tensor:
#      x y z
#    x 4.286640 0.235900 -0.427540 
#    y 0.235900 4.930830 -0.330170 
#    z -0.427540 -0.330170 4.250540 
# 
# 
# High freq. dielectric constant tensor:
#      x y z
#    x 1.881860 -0.009020 0.006500 
#    y -0.009020 1.896160 0.013330 
#    z 0.006500 0.013330 1.875690 
# 
# From -- ./inp_files/186820.got.cif
#   From: 2010.06.25/outbox.cif.g09.slc.cpg/sg2_94_cif.got.tgz:186820.got - 2010.06.27 13:26:56.
