data_PCOD8026535
_publ_section_title
;
Structure prediction by ZEFSAII (Michael W. Deem and Ramdas Pophale) SiO2 
 PCOD8026535
Probable space group: P -1
;
_chemical_formula_sum "Si O2"
_cell_formula_units_Z 14
_cell_length_a 10.418688
_cell_length_b 16.512916
_cell_length_c 8.025494
_cell_angle_alpha 113.412711
_cell_angle_beta 85.214431
_cell_angle_gamma 148.993438
_cell_volume 547.686854
_symmetry_space_group_name_H-M "P -1"
_symmetry_group_IT_number 2
_symmetry_cell_setting 'triclinic'
loop_
_space_group_symop_operation_xyz
x,y,z
-x,-y,-z
loop_
_atom_site_type_symbol
_atom_site_label
_atom_site_fract_x
_atom_site_fract_y
_atom_site_fract_z
Si Si1 0.935443 0.342107 0.529879
Si Si2 0.570329 0.583525 0.816000
Si Si3 0.508365 0.368307 0.455057
Si Si4 0.972048 0.754074 0.167199
Si Si5 0.710535 0.358955 0.993164
Si Si6 0.544481 0.815591 0.462231
Si Si7 0.553015 0.075564 0.875808
O O1 0.747927 0.317347 0.531775
O O2 0.144640 0.450358 0.436083
O O3 0.706004 0.118345 0.381572
O O4 0.181408 0.495367 0.778179
O O5 0.462683 0.429342 0.610089
O O6 0.623521 0.695521 0.768419
O O7 0.311760 0.450695 0.864056
O O8 0.875759 0.753100 0.017047
O O9 0.337150 0.185552 0.423557
O O10 0.129698 0.761140 0.095927
O O11 0.202852 0.956106 0.409864
O O12 0.510546 0.264222 0.778215
O O13 0.548562 0.179323 0.967802
O O14 0.000000 0.500000 0.000000
O O15 0.500000 0.000000 0.000000
#
# Coordination Sequence:
#
# PCOD8026535 Si02
#       7
#     2   2   2   2   2   2   2
#     4  10  24  42  72 103 140 176 217 289 357 395
#     4  10  25  44  70  94 131 196 226 273 337 399
#     4  11  24  44  67  97 138 178 231 279 331 419
#     4  10  24  45  68  98 133 182 234 276 340 409
#     4  10  25  40  65 110 137 178 218 274 370 402
#     4  10  24  42  68 101 136 172 223 292 347 400
#     4  11  25  42  73 109 142 175 225 290 346 419
#
# _framework density 25.562052000000001
#
# number of rings (size 3 to 8) (size 9 to 14) (size 15 to 20)
#    0.000    1.714    0.000    1.286   18.000    5.143 
#    0.000    0.000    0.000    0.000    0.000    0.000 
#    0.000    0.000    0.000    0.000    0.000    0.000 
#
# Total GULP energy -173445.009205 kJ/mol
# GULP energy per Si atom -12388.929229 kJ/mol
# Density = 2.550387 g / cm^3
# Si number density = 25.562052 Si / 1000 Ang^3
#
#
#
# Elastic Constant Matrix: (Units=GPa)
#
#
# Indices 1 2 3 4 5 6 
#
# 1 71.1334 11.6203 21.7135 -10.3723 19.0219 -18.5499
# 2 11.6203 56.0539 14.8352 -18.3283 16.7472 -17.5759
# 3 21.7135 14.8352 125.1051 -5.3262 9.3781 -12.8884
# 4 -10.3723 -18.3283 -5.3262 31.4725 -2.1038 9.1463
# 5 19.0219 16.7472 9.3781 -2.1038 21.0146 -15.7626
# 6 -18.5499 -17.5759 -12.8884 9.1463 -15.7626 49.5441
#
#
#
# Elastic Compliance Matrix: (Units=1/GPa)
#
#
# Indices 1 2 3 4 5 6 
#
# 1 0.020775 0.005310 -0.002255 0.007864 -0.020390 0.001136
# 2 0.005310 0.031109 -0.001793 0.017529 -0.026336 0.000943
# 3 -0.002255 -0.001793 0.008651 -0.000586 0.000275 0.000966
# 4 0.007864 0.017529 -0.000586 0.044790 -0.020734 -0.005855
# 5 -0.020390 -0.026336 0.000275 -0.020734 0.098537 0.018272
# 6 0.001136 0.000943 0.000966 -0.005855 0.018272 0.028089
#
#
# Mechanical properties :
#
#
# Convention : Reuss Voigt Hill
#
# Bulk Modulus (GPa) = 15.85827 38.73668 27.29747
# Shear Modulus (GPa) = 19.96424 34.01447 26.98936
#
# Velocity S-wave (km/s) = 2.79769 3.65178 3.25289
# Velocity P-wave (km/s) = 4.08086 5.74174 4.98101
#
# Compressibility (1/GPa) = 0.06305859
#
# Stress axis : x y z
#
# Youngs Moduli (GPa) = 48.13572 32.14474 115.59068
#
# Poissons Ratio (x) = -0.17068 0.26065
# Poissons Ratio (y) = -0.25558 0.20725
# Poissons Ratio (z) = 0.10854 0.05763
#
# Static dielectric constant tensor:
#      x y z
#    x 3.912610 -0.491000 1.990090 
#    y -0.491000 4.360730 0.490950 
#    z 1.990090 0.490950 1.382010 
# 
# 
# High freq. dielectric constant tensor:
#      x y z
#    x 2.022900 -0.006050 -0.001620 
#    y -0.006050 2.009590 -0.012980 
#    z -0.001620 -0.012980 2.016340 
# 
# From -- ./inp_files/278134.got.cif
#   From: 2010.06.25/outbox.cif.g09.slc.cpg/sg2_140_cif.got.tgz:278134.got - 2010.06.27 13:26:56.
