data_PCOD8026380
_publ_section_title
;
Structure prediction by ZEFSAII (Michael W. Deem and Ramdas Pophale) SiO2 
 PCOD8026380
Probable space group: P -1
;
_chemical_formula_sum "Si O2"
_cell_formula_units_Z 16
_cell_length_a 9.187409
_cell_length_b 13.257493
_cell_length_c 8.883394
_cell_angle_alpha 83.052020
_cell_angle_beta 56.643183
_cell_angle_gamma 120.327869
_cell_volume 650.007109
_symmetry_space_group_name_H-M "P -1"
_symmetry_group_IT_number 2
_symmetry_cell_setting 'triclinic'
loop_
_space_group_symop_operation_xyz
x,y,z
-x,-y,-z
loop_
_atom_site_type_symbol
_atom_site_label
_atom_site_fract_x
_atom_site_fract_y
_atom_site_fract_z
Si Si1 0.900245 0.387048 0.885766
Si Si2 0.197358 0.242391 0.021230
Si Si3 0.222597 0.857135 0.189989
Si Si4 0.797022 0.793041 0.296423
Si Si5 0.451611 0.817124 0.624062
Si Si6 0.546667 0.402969 0.035697
Si Si7 0.248410 0.883125 0.507506
Si Si8 0.390844 0.519958 0.699614
O O1 0.824626 0.270663 0.832128
O O2 0.815671 0.462562 0.850321
O O3 0.185415 0.501973 0.732988
O O4 0.768665 0.318819 0.133228
O O5 0.179926 0.162068 0.899662
O O6 0.373116 0.268934 0.046315
O O7 0.288042 0.383829 0.872424
O O8 0.940472 0.153860 0.255974
O O9 0.135150 0.817536 0.420329
O O10 0.061955 0.877421 0.193063
O O11 0.500000 0.000000 0.000000
O O12 0.664509 0.824746 0.461828
O O13 0.629397 0.617946 0.433937
O O14 0.359133 0.822867 0.516150
O O15 0.550887 0.948348 0.648404
O O16 0.500000 0.500000 0.000000
O O17 0.488707 0.364564 0.252230
#
# Coordination Sequence:
#
# PCOD8026380 Si02
#       8
#     2   2   2   2   2   2   2   2
#     4  12  23  47  73 105 146 196 232 296 369 423
#     4  11  24  45  69 102 150 185 235 299 357 414
#     4  12  27  47  74 104 146 188 245 296 360 430
#     4  12  26  44  72 110 138 192 242 295 355 433
#     4  11  25  44  74 103 141 191 240 291 363 419
#     4  10  24  41  70 105 140 186 235 294 351 427
#     4  11  25  47  68 103 144 188 240 299 350 428
#     4  11  22  46  73 101 146 186 238 287 361 429
#
# _framework density 24.615113999999998
#
# number of rings (size 3 to 8) (size 9 to 14) (size 15 to 20)
#    0.000    0.750    5.000    1.500    3.500    2.000 
#    0.000    0.625    0.000    0.000    0.000    0.000 
#    0.000    0.000    0.000    0.000    0.000    0.000 
#
# Total GULP energy -198248.390249 kJ/mol
# GULP energy per Si atom -12390.524391 kJ/mol
# Density = 2.455909 g / cm^3
# Si number density = 24.615114 Si / 1000 Ang^3
#
#
#
# Elastic Constant Matrix: (Units=GPa)
#
#
# Indices 1 2 3 4 5 6 
#
# 1 166.0078 44.1820 40.7548 3.7757 -21.4634 23.8548
# 2 44.1820 59.0467 24.8508 12.3947 7.4418 22.6565
# 3 40.7548 24.8508 113.2797 11.6805 -8.3678 17.5629
# 4 3.7757 12.3947 11.6805 33.2823 8.1291 0.7235
# 5 -21.4634 7.4418 -8.3678 8.1291 38.4583 4.2383
# 6 23.8548 22.6565 17.5629 0.7235 4.2383 47.4144
#
#
#
# Elastic Compliance Matrix: (Units=1/GPa)
#
#
# Indices 1 2 3 4 5 6 
#
# 1 0.009066 -0.006546 -0.001163 0.000344 0.006172 -0.001559
# 2 -0.006546 0.028585 -0.002362 -0.007118 -0.007231 -0.008736
# 3 -0.001163 -0.002362 0.010742 -0.003475 0.003154 -0.002494
# 4 0.000344 -0.007118 -0.003475 0.035537 -0.007207 0.004617
# 5 0.006172 -0.007231 0.003154 -0.007207 0.033464 -0.003700
# 6 -0.001559 -0.008736 -0.002494 0.004617 -0.003700 0.027234
#
#
# Mechanical properties :
#
#
# Convention : Reuss Voigt Hill
#
# Bulk Modulus (GPa) = 35.39597 61.98994 48.69295
# Shear Modulus (GPa) = 28.70485 39.06744 33.88614
#
# Velocity S-wave (km/s) = 3.41859 3.98820 3.71433
# Velocity P-wave (km/s) = 5.47662 6.81513 6.18221
#
# Compressibility (1/GPa) = 0.02825180
#
# Stress axis : x y z
#
# Youngs Moduli (GPa) = 110.30494 34.98332 93.08927
#
# Poissons Ratio (x) = 0.22899 0.10830
# Poissons Ratio (y) = 0.72201 0.21985
# Poissons Ratio (z) = 0.12833 0.08262
#
# Static dielectric constant tensor:
#      x y z
#    x 4.866220 0.513170 0.239560 
#    y 0.513170 5.275610 0.497730 
#    z 0.239560 0.497730 4.626920 
# 
# 
# High freq. dielectric constant tensor:
#      x y z
#    x 1.986270 0.014010 -0.000060 
#    y 0.014010 1.988980 0.021070 
#    z -0.000060 0.021070 1.979740 
# 
# From -- ./inp_files/206781.got.cif
#   From: 2010.06.25/outbox.cif.g09.slc.cpg/sg2_104_cif.got.tgz:206781.got - 2010.06.27 13:26:56.
