data_PCOD8026087
_publ_section_title
;
Structure prediction by ZEFSAII (Michael W. Deem and Ramdas Pophale) SiO2 
 PCOD8026087
Probable space group: P -1
;
_chemical_formula_sum "Si O2"
_cell_formula_units_Z 16
_cell_length_a 8.978900
_cell_length_b 4.907444
_cell_length_c 20.222870
_cell_angle_alpha 124.452560
_cell_angle_beta 121.481043
_cell_angle_gamma 58.887925
_cell_volume 594.804211
_symmetry_space_group_name_H-M "P -1"
_symmetry_group_IT_number 2
_symmetry_cell_setting 'triclinic'
loop_
_space_group_symop_operation_xyz
x,y,z
-x,-y,-z
loop_
_atom_site_type_symbol
_atom_site_label
_atom_site_fract_x
_atom_site_fract_y
_atom_site_fract_z
Si Si1 0.301754 0.227414 0.129406
Si Si2 0.804545 0.403445 0.469934
Si Si3 0.164087 0.620935 0.027089
Si Si4 0.624433 0.946778 0.086107
Si Si5 0.147050 0.655121 0.743504
Si Si6 0.621649 0.834214 0.373659
Si Si7 0.915832 0.213468 0.610291
Si Si8 0.241948 0.786544 0.297358
O O1 0.299213 0.495469 0.105071
O O2 0.284721 0.411522 0.220993
O O3 0.143812 0.029836 0.065324
O O4 0.503575 0.939207 0.123519
O O5 0.693442 0.759624 0.456123
O O6 0.848986 0.467303 0.565589
O O7 0.676295 0.156153 0.403140
O O8 0.999186 0.191853 0.449369
O O9 0.228327 0.431959 0.945544
O O10 0.000000 0.500000 0.000000
O O11 0.733810 0.230344 0.157226
O O12 0.500000 0.000000 0.000000
O O13 0.278907 0.525338 0.692243
O O14 0.073167 0.333899 0.702234
O O15 0.964043 0.978451 0.733732
O O16 0.400790 0.944472 0.333143
O O17 0.745970 0.263775 0.627300
#
# Coordination Sequence:
#
# PCOD8026087 Si02
#       8
#     2   2   2   2   2   2   2   2
#     4  11  25  44  66 101 138 180 234 286 351 429
#     4  10  24  48  72 107 147 195 240 302 360 431
#     4  11  24  44  69 100 134 182 229 294 353 418
#     4  10  23  48  73 101 142 193 239 300 363 431
#     4  11  24  48  69 108 143 194 238 307 363 432
#     4  11  25  46  74 104 149 190 242 298 367 426
#     4  10  25  43  76 103 149 191 246 297 366 430
#     4  12  26  43  72 109 141 196 240 301 360 436
#
# _framework density 26.899609000000002
#
# number of rings (size 3 to 8) (size 9 to 14) (size 15 to 20)
#    0.000    1.250    2.500    1.500    7.000    2.500 
#    9.000    0.000    0.000    0.000    0.000    0.000 
#    0.000    0.000    0.000    0.000    0.000    0.000 
#
# Total GULP energy -198270.782296 kJ/mol
# GULP energy per Si atom -12391.923894 kJ/mol
# Density = 2.683838 g / cm^3
# Si number density = 26.899609 Si / 1000 Ang^3
#
#
#
# Elastic Constant Matrix: (Units=GPa)
#
#
# Indices 1 2 3 4 5 6 
#
# 1 164.5267 12.9049 46.8932 13.4773 -15.3373 -28.4492
# 2 12.9049 38.5192 -0.0647 5.1088 -14.3391 2.6735
# 3 46.8932 -0.0647 132.4652 16.2910 -1.2560 -16.2206
# 4 13.4773 5.1088 16.2910 33.0484 -4.1469 1.3370
# 5 -15.3373 -14.3391 -1.2560 -4.1469 57.4287 2.9518
# 6 -28.4492 2.6735 -16.2206 1.3370 2.9518 36.2368
#
#
#
# Elastic Compliance Matrix: (Units=1/GPa)
#
#
# Indices 1 2 3 4 5 6 
#
# 1 0.008053 -0.002422 -0.001897 -0.002069 0.001065 0.005642
# 2 -0.002422 0.030021 0.000792 -0.003012 0.006865 -0.004210
# 3 -0.001897 0.000792 0.009034 -0.003978 -0.000537 0.002687
# 4 -0.002069 -0.003012 -0.003978 0.033874 0.001288 -0.004538
# 5 0.001065 0.006865 -0.000537 0.001288 0.019573 -0.001552
# 6 0.005642 -0.004210 0.002687 -0.004538 -0.001552 0.033833
#
#
# Mechanical properties :
#
#
# Convention : Reuss Voigt Hill
#
# Bulk Modulus (GPa) = 24.96531 50.55309 37.75920
# Shear Modulus (GPa) = 32.30140 43.72795 38.01468
#
# Velocity S-wave (km/s) = 3.46903 4.03624 3.76334
# Velocity P-wave (km/s) = 5.03455 6.36834 5.74031
#
# Compressibility (1/GPa) = 0.04005558
#
# Stress axis : x y z
#
# Youngs Moduli (GPa) = 124.17974 33.30993 110.69125
#
# Poissons Ratio (x) = 0.08067 0.20993
# Poissons Ratio (y) = 0.30073 -0.08766
# Poissons Ratio (z) = 0.23551 -0.02638
#
# Static dielectric constant tensor:
#      x y z
#    x 5.368470 -0.244110 -0.171660 
#    y -0.244110 5.880160 -0.244540 
#    z -0.171660 -0.244540 5.221540 
# 
# 
# High freq. dielectric constant tensor:
#      x y z
#    x 2.100620 -0.008000 0.008520 
#    y -0.008000 2.051720 0.018520 
#    z 0.008520 0.018520 2.088970 
# 
# From -- ./inp_files/585948.got.cif
#   From: 2010.06.25/outbox.cif.g09.slc.cpg/sg2_293_cif.got.tgz:585948.got - 2010.06.27 13:26:56.
