data_PCOD8026390
_publ_section_title
;
Structure prediction by ZEFSAII (Michael W. Deem and Ramdas Pophale) SiO2 
 PCOD8026390
Probable space group: P -1
;
_chemical_formula_sum "Si O2"
_cell_formula_units_Z 16
_cell_length_a 5.108869
_cell_length_b 26.329611
_cell_length_c 12.629188
_cell_angle_alpha 149.471297
_cell_angle_beta 118.679037
_cell_angle_gamma 53.341807
_cell_volume 689.796557
_symmetry_space_group_name_H-M "P -1"
_symmetry_group_IT_number 2
_symmetry_cell_setting 'triclinic'
loop_
_space_group_symop_operation_xyz
x,y,z
-x,-y,-z
loop_
_atom_site_type_symbol
_atom_site_label
_atom_site_fract_x
_atom_site_fract_y
_atom_site_fract_z
Si Si1 0.256284 0.389324 0.900030
Si Si2 0.658655 0.192038 0.076862
Si Si3 0.794136 0.124794 0.209673
Si Si4 0.970161 0.972157 0.287138
Si Si5 0.411633 0.170208 0.430924
Si Si6 0.300740 0.429676 0.360147
Si Si7 0.959451 0.345681 0.972587
Si Si8 0.228778 0.113175 0.703817
O O1 0.392171 0.291042 0.664835
O O2 0.569527 0.413914 0.038020
O O3 0.078803 0.349540 0.884318
O O4 0.000000 0.500000 0.000000
O O5 0.583906 0.179494 0.161794
O O6 0.556948 0.319868 0.269041
O O7 0.507389 0.138355 0.862455
O O8 0.021053 0.106097 0.954627
O O9 0.547906 0.138667 0.282275
O O10 0.044067 0.179097 0.383025
O O11 0.000000 0.000000 0.000000
O O12 0.981632 0.903862 0.272019
O O13 0.638700 0.081886 0.402782
O O14 0.266919 0.015259 0.447617
O O15 0.500000 0.500000 0.500000
O O16 0.000000 0.500000 0.500000
O O17 0.158290 0.399272 0.174002
O O18 0.021865 0.222882 0.795762
#
# Coordination Sequence:
#
# PCOD8026390 Si02
#       8
#     2   2   2   2   2   2   2   2
#     4  12  27  49  75 107 141 191 249 302 363 429
#     4  11  26  41  74  99 144 183 244 282 365 423
#     4  12  26  46  70 103 147 193 237 290 357 435
#     4  11  23  42  72 107 142 180 239 293 366 427
#     4  12  27  46  73 104 145 189 240 299 357 424
#     4  11  27  47  72 104 143 188 240 296 358 427
#     4  11  25  47  79 103 147 184 243 307 366 426
#     4  10  24  41  72 108 142 180 230 298 365 421
#
# _framework density 23.195246999999998
#
# number of rings (size 3 to 8) (size 9 to 14) (size 15 to 20)
#    0.000    0.750    2.500    3.375    8.750    3.000 
#    0.000    0.000    0.000    0.000    0.000    0.000 
#    0.000    0.000    0.000    0.000    0.000    0.000 
#
# Total GULP energy -198266.542415 kJ/mol
# GULP energy per Si atom -12391.658901 kJ/mol
# Density = 2.314245 g / cm^3
# Si number density = 23.195247 Si / 1000 Ang^3
#
#
#
# Elastic Constant Matrix: (Units=GPa)
#
#
# Indices 1 2 3 4 5 6 
#
# 1 110.1127 42.3881 32.7788 10.4344 7.9616 18.4303
# 2 42.3881 151.8038 55.6364 19.1484 -1.0936 22.4985
# 3 32.7788 55.6364 121.4040 31.0098 2.8425 19.4053
# 4 10.4344 19.1484 31.0098 32.7641 4.2632 -3.9931
# 5 7.9616 -1.0936 2.8425 4.2632 34.5709 -5.5330
# 6 18.4303 22.4985 19.4053 -3.9931 -5.5330 32.6504
#
#
#
# Elastic Compliance Matrix: (Units=1/GPa)
#
#
# Indices 1 2 3 4 5 6 
#
# 1 0.011366 -0.001848 -0.000728 -0.002102 -0.003240 -0.005516
# 2 -0.001848 0.008897 -0.002122 -0.003183 0.000616 -0.004111
# 3 -0.000728 -0.002122 0.013935 -0.012599 -0.000785 -0.008083
# 4 -0.002102 -0.003183 -0.012599 0.047199 -0.001786 0.016338
# 5 -0.003240 0.000616 -0.000785 -0.001786 0.031084 0.006920
# 6 -0.005516 -0.004111 -0.008083 0.016338 0.006920 0.044549
#
#
# Mechanical properties :
#
#
# Convention : Reuss Voigt Hill
#
# Bulk Modulus (GPa) = 40.31943 71.65855 55.98899
# Shear Modulus (GPa) = 28.62180 36.83156 32.72668
#
# Velocity S-wave (km/s) = 3.51657 3.98916 3.76030
# Velocity P-wave (km/s) = 5.82312 7.22347 6.56077
#
# Compressibility (1/GPa) = 0.02480194
#
# Stress axis : x y z
#
# Youngs Moduli (GPa) = 87.97967 112.40372 71.76428
#
# Poissons Ratio (x) = 0.20769 0.05221
# Poissons Ratio (y) = 0.16256 0.15231
# Poissons Ratio (z) = 0.06401 0.23856
#
# Static dielectric constant tensor:
#      x y z
#    x 4.210090 -0.028450 0.182260 
#    y -0.028450 4.189840 -0.227180 
#    z 0.182260 -0.227180 4.924930 
# 
# 
# High freq. dielectric constant tensor:
#      x y z
#    x 1.924170 -0.004020 0.004330 
#    y -0.004020 1.922900 -0.003900 
#    z 0.004330 -0.003900 1.936600 
# 
# From -- ./inp_files/371490.got.cif
#   From: 2010.06.25/outbox.cif.g09.slc.cpg/sg2_186_cif.got.tgz:371490.got - 2010.06.27 13:26:56.
