data_PCOD8026770
_publ_section_title
;
Structure prediction by ZEFSAII (Michael W. Deem and Ramdas Pophale) SiO2 
 PCOD8026770
Probable space group: P -1
;
_chemical_formula_sum "Si O2"
_cell_formula_units_Z 16
_cell_length_a 9.591741
_cell_length_b 8.790294
_cell_length_c 14.693388
_cell_angle_alpha 79.173047
_cell_angle_beta 47.591728
_cell_angle_gamma 105.880309
_cell_volume 749.164480
_symmetry_space_group_name_H-M "P -1"
_symmetry_group_IT_number 2
_symmetry_cell_setting 'triclinic'
loop_
_space_group_symop_operation_xyz
x,y,z
-x,-y,-z
loop_
_atom_site_type_symbol
_atom_site_label
_atom_site_fract_x
_atom_site_fract_y
_atom_site_fract_z
Si Si1 0.277666 0.029558 0.621381
Si Si2 0.252029 0.634247 0.406182
Si Si3 0.433117 0.012141 0.372348
Si Si4 0.193167 0.032325 0.151993
Si Si5 0.479878 0.252134 0.165087
Si Si6 0.663646 0.432871 0.428839
Si Si7 0.157088 0.675255 0.138563
Si Si8 0.553852 0.395277 0.853198
O O1 0.247250 0.940367 0.544536
O O2 0.519157 0.224362 0.479832
O O3 0.324736 0.933944 0.696296
O O4 0.072187 0.049763 0.731987
O O5 0.252474 0.542359 0.508877
O O6 0.422981 0.632859 0.259910
O O7 0.000000 0.500000 0.500000
O O8 0.332352 0.846669 0.361946
O O9 0.463260 0.186339 0.284146
O O10 0.276494 0.087832 0.212844
O O11 0.237918 0.877933 0.117907
O O12 0.324964 0.213165 0.010422
O O13 0.461974 0.428511 0.147074
O O14 0.720576 0.303295 0.013434
O O15 0.500000 0.500000 0.500000
O O16 0.886877 0.551895 0.254417
O O17 0.232184 0.576031 0.188146
#
# Coordination Sequence:
#
# PCOD8026770 Si02
#       8
#     2   2   2   2   2   2   2   2
#     4  10  24  43  67  94 134 177 212 270 326 395
#     4  11  23  41  69  93 130 170 215 273 321 382
#     4  10  24  45  64  96 134 172 221 264 329 387
#     4  11  22  41  69  94 133 173 220 266 332 386
#     4  11  25  40  68  97 130 174 224 271 320 385
#     4  11  23  41  66  97 130 169 216 263 329 385
#     4  11  21  42  69  95 135 170 218 274 327 384
#     4  11  24  41  65 100 132 169 221 275 325 380
#
# _framework density 21.357126000000001
#
# number of rings (size 3 to 8) (size 9 to 14) (size 15 to 20)
#    0.000    1.250    2.500    4.500    3.500    4.500 
#    2.250    3.125    0.000    0.000    0.000    0.000 
#    0.000    0.000    0.000    0.000    0.000    0.000 
#
# Total GULP energy -198343.004744 kJ/mol
# GULP energy per Si atom -12396.437796 kJ/mol
# Density = 2.130852 g / cm^3
# Si number density = 21.357126 Si / 1000 Ang^3
#
#
#
# Elastic Constant Matrix: (Units=GPa)
#
#
# Indices 1 2 3 4 5 6 
#
# 1 102.7005 44.4108 56.2011 -5.3300 -4.5656 -20.3478
# 2 44.4108 128.4084 41.7602 7.2275 0.1500 -16.7032
# 3 56.2011 41.7602 104.0741 2.5676 -15.3628 -0.8680
# 4 -5.3300 7.2275 2.5676 34.1270 -0.9503 0.1144
# 5 -4.5656 0.1500 -15.3628 -0.9503 41.1834 -0.4885
# 6 -20.3478 -16.7032 -0.8680 0.1144 -0.4885 40.3151
#
#
#
# Elastic Compliance Matrix: (Units=1/GPa)
#
#
# Indices 1 2 3 4 5 6 
#
# 1 0.016970 -0.002390 -0.008393 0.003734 -0.001067 0.007371
# 2 -0.002390 0.010056 -0.002868 -0.002335 -0.001391 0.002888
# 3 -0.008393 -0.002868 0.016025 -0.001754 0.004958 -0.005015
# 4 0.003734 -0.002335 -0.001754 0.030523 0.000482 0.000798
# 5 -0.001067 -0.001391 0.004958 0.000482 0.026021 -0.000694
# 6 0.007371 0.002888 -0.005015 0.000798 -0.000694 0.029603
#
#
# Mechanical properties :
#
#
# Convention : Reuss Voigt Hill
#
# Bulk Modulus (GPa) = 63.49713 68.88081 66.18897
# Shear Modulus (GPa) = 30.91200 35.97915 33.44557
#
# Velocity S-wave (km/s) = 3.80858 4.10889 3.96158
# Velocity P-wave (km/s) = 7.00971 7.40490 7.21002
#
# Compressibility (1/GPa) = 0.01574874
#
# Stress axis : x y z
#
# Youngs Moduli (GPa) = 58.92639 99.44668 62.40153
#
# Poissons Ratio (x) = 0.23765 0.52377
# Poissons Ratio (y) = 0.14082 0.17897
# Poissons Ratio (z) = 0.49460 0.28522
#
# Static dielectric constant tensor:
#      x y z
#    x 3.454590 0.421250 -0.311250 
#    y 0.421250 3.275770 0.556660 
#    z -0.311250 0.556660 3.556570 
# 
# 
# High freq. dielectric constant tensor:
#      x y z
#    x 1.835020 -0.009170 -0.001450 
#    y -0.009170 1.849610 0.007350 
#    z -0.001450 0.007350 1.835400 
# 
# From -- ./inp_files/494819.got.cif
#   From: 2010.06.25/outbox.cif.g09.slc.cpg/sg2_248_cif.got.tgz:494819.got - 2010.06.27 13:26:56.
