data_PCOD8026313
_publ_section_title
;
Structure prediction by ZEFSAII (Michael W. Deem and Ramdas Pophale) SiO2 
 PCOD8026313
Probable space group: P -1
;
_chemical_formula_sum "Si O2"
_cell_formula_units_Z 16
_cell_length_a 8.502858
_cell_length_b 14.262597
_cell_length_c 6.767117
_cell_angle_alpha 80.766314
_cell_angle_beta 103.497538
_cell_angle_gamma 83.699176
_cell_volume 778.341316
_symmetry_space_group_name_H-M "P -1"
_symmetry_group_IT_number 2
_symmetry_cell_setting 'triclinic'
loop_
_space_group_symop_operation_xyz
x,y,z
-x,-y,-z
loop_
_atom_site_type_symbol
_atom_site_label
_atom_site_fract_x
_atom_site_fract_y
_atom_site_fract_z
Si Si1 0.698210 0.562764 0.887460
Si Si2 0.518663 0.963064 0.300168
Si Si3 0.914641 0.213197 0.242652
Si Si4 0.330877 0.604000 0.779651
Si Si5 0.148116 0.530881 0.409706
Si Si6 0.843702 0.857692 0.320249
Si Si7 0.928570 0.692705 0.091441
Si Si8 0.266175 0.946260 0.933773
O O1 0.516638 0.622292 0.801963
O O2 0.783288 0.551243 0.700760
O O3 0.692454 0.457042 0.010261
O O4 0.799660 0.620804 0.041848
O O5 0.662117 0.870324 0.360943
O O6 0.500000 0.000000 0.500000
O O7 0.575059 0.051101 0.161550
O O8 0.343160 0.938599 0.180375
O O9 0.784282 0.294392 0.276971
O O10 0.821266 0.144229 0.106724
O O11 0.017811 0.155558 0.466752
O O12 0.037197 0.257755 0.120457
O O13 0.292284 0.544933 0.595753
O O14 0.000000 0.500000 0.500000
O O15 0.092685 0.630905 0.245730
O O16 0.855234 0.769048 0.206613
O O17 0.862532 0.954977 0.169173
#
# Coordination Sequence:
#
# PCOD8026313 Si02
#       8
#     2   2   2   2   2   2   2   2
#     4  11  25  43  67  93 133 175 210 277 333 386
#     4   9  21  44  67  92 129 174 212 266 333 385
#     4  12  24  42  66  98 132 172 218 278 320 391
#     4  11  24  43  66  95 132 166 224 269 329 391
#     4  12  22  44  67  95 131 173 219 272 330 392
#     4  10  24  41  65  96 129 171 219 263 325 390
#     4  12  25  40  66  97 129 170 223 265 331 393
#     4   9  23  42  66  94 132 168 217 264 326 388
#
# _framework density 20.556533000000002
#
# number of rings (size 3 to 8) (size 9 to 14) (size 15 to 20)
#    0.750    0.500    3.750    1.875    3.500    1.500 
#    0.000    0.000    0.000    0.000    0.000    0.000 
#    0.000    0.000    0.000    0.000    0.000    0.000 
#
# Total GULP energy -198400.008496 kJ/mol
# GULP energy per Si atom -12400.000531 kJ/mol
# Density = 2.050975 g / cm^3
# Si number density = 20.556533 Si / 1000 Ang^3
#
#
#
# Elastic Constant Matrix: (Units=GPa)
#
#
# Indices 1 2 3 4 5 6 
#
# 1 91.6378 38.5815 44.8353 3.7559 7.2421 -12.4350
# 2 38.5815 95.6088 38.4949 15.7196 4.8639 -9.9156
# 3 44.8353 38.4949 118.2332 17.1292 16.8608 -14.4740
# 4 3.7559 15.7196 17.1292 35.0057 -8.0913 -2.7636
# 5 7.2421 4.8639 16.8608 -8.0913 35.4524 0.1576
# 6 -12.4350 -9.9156 -14.4740 -2.7636 0.1576 31.3989
#
#
#
# Elastic Compliance Matrix: (Units=1/GPa)
#
#
# Indices 1 2 3 4 5 6 
#
# 1 0.015229 -0.004565 -0.004390 0.002842 0.000239 0.002815
# 2 -0.004565 0.014065 -0.001733 -0.005183 -0.001362 0.001385
# 3 -0.004390 -0.001733 0.012907 -0.006311 -0.006458 0.003141
# 4 0.002842 -0.005183 -0.006311 0.036294 0.011417 -0.000284
# 5 0.000239 -0.001362 -0.006458 0.011417 0.034033 -0.002478
# 6 0.002815 0.001385 0.003141 -0.000284 -0.002478 0.034836
#
#
# Mechanical properties :
#
#
# Convention : Reuss Voigt Hill
#
# Bulk Modulus (GPa) = 48.02331 61.03367 54.52849
# Shear Modulus (GPa) = 28.46069 32.60928 30.53498
#
# Velocity S-wave (km/s) = 3.72493 3.98719 3.85829
# Velocity P-wave (km/s) = 6.47398 7.13807 6.81412
#
# Compressibility (1/GPa) = 0.02082322
#
# Stress axis : x y z
#
# Youngs Moduli (GPa) = 65.66399 71.10044 77.47974
#
# Poissons Ratio (x) = 0.32461 0.34012
# Poissons Ratio (y) = 0.29979 0.13429
# Poissons Ratio (z) = 0.28825 0.12323
#
# Static dielectric constant tensor:
#      x y z
#    x 3.640000 -0.128880 0.144150 
#    y -0.128880 3.597470 -0.033560 
#    z 0.144150 -0.033560 3.888500 
# 
# 
# High freq. dielectric constant tensor:
#      x y z
#    x 1.796340 -0.008160 0.010730 
#    y -0.008160 1.796510 0.008800 
#    z 0.010730 0.008800 1.816700 
# 
# From -- ./inp_files/38180.got.cif
#   From: 2010.06.25/outbox.cif.g09.slc.cpg/sg2_20_cif.got.tgz:38180.got - 2010.06.27 13:26:56.
