data_PCOD8026150
_publ_section_title
;
Structure prediction by ZEFSAII (Michael W. Deem and Ramdas Pophale) SiO2 
 PCOD8026150
Probable space group: P -1
;
_chemical_formula_sum "Si O2"
_cell_formula_units_Z 12
_cell_length_a 5.112196
_cell_length_b 5.106807
_cell_length_c 22.991075
_cell_angle_alpha 75.425206
_cell_angle_beta 88.522113
_cell_angle_gamma 60.857955
_cell_volume 504.043326
_symmetry_space_group_name_H-M "P -1"
_symmetry_group_IT_number 2
_symmetry_cell_setting 'triclinic'
loop_
_space_group_symop_operation_xyz
x,y,z
-x,-y,-z
loop_
_atom_site_type_symbol
_atom_site_label
_atom_site_fract_x
_atom_site_fract_y
_atom_site_fract_z
Si Si1 0.320836 0.910624 0.210538
Si Si2 0.188456 0.145240 0.594606
Si Si3 0.394860 0.336190 0.462030
Si Si4 0.037238 0.358403 0.834436
Si Si5 0.845920 0.797942 0.024336
Si Si6 0.358141 0.764979 0.348260
O O1 0.148198 0.816770 0.169756
O O2 0.312202 0.759020 0.280310
O O3 0.662184 0.785447 0.197027
O O4 0.163301 0.279272 0.198520
O O5 0.423328 0.096255 0.646623
O O6 0.965829 0.506446 0.555580
O O7 0.965966 0.025051 0.627716
O O8 0.369199 0.040893 0.534834
O O9 0.500000 0.500000 0.500000
O O10 0.507119 0.415856 0.393771
O O11 0.120035 0.311282 0.903819
O O12 0.000000 0.500000 0.000000
O O13 0.500000 0.000000 0.000000
O O14 0.000000 0.000000 0.000000
#
# Coordination Sequence:
#
# PCOD8026150 Si02
#       6
#     2   2   2   2   2   2
#     4  12  27  44  72  98 147 179 238 283 340 413
#     4  10  24  39  65  90 127 160 224 259 352 388
#     4  10  24  42  65  94 127 166 220 274 336 402
#     4  12  26  46  70 108 137 186 230 283 340 404
#     4  12  25  45  74 103 144 182 229 283 341 404
#     4  10  26  41  67  92 129 176 217 277 340 393
#
# _framework density 23.807478
#
# number of rings (size 3 to 8) (size 9 to 14) (size 15 to 20)
#    1.000    0.000    0.000    6.000    7.000    1.333 
#    0.000    0.000    0.000    0.000    0.000    0.000 
#    0.000    0.000    0.000    0.000    0.000    0.000 
#
# Total GULP energy -148722.382761 kJ/mol
# GULP energy per Si atom -12393.531897 kJ/mol
# Density = 2.375329 g / cm^3
# Si number density = 23.807478 Si / 1000 Ang^3
#
#
#
# Elastic Constant Matrix: (Units=GPa)
#
#
# Indices 1 2 3 4 5 6 
#
# 1 153.7642 59.8250 25.3817 5.7899 13.0324 -13.5508
# 2 59.8250 147.6325 39.6815 20.7405 -3.3832 -17.6585
# 3 25.3817 39.6815 152.0967 -3.4154 -6.7524 -11.6608
# 4 5.7899 20.7405 -3.4154 38.2640 1.9413 -1.2496
# 5 13.0324 -3.3832 -6.7524 1.9413 49.7638 1.0759
# 6 -13.5508 -17.6585 -11.6608 -1.2496 1.0759 41.2417
#
#
#
# Elastic Compliance Matrix: (Units=1/GPa)
#
#
# Indices 1 2 3 4 5 6 
#
# 1 0.008106 -0.003130 -0.000536 0.000588 -0.002458 0.001254
# 2 -0.003130 0.009527 -0.001832 -0.004846 0.001357 0.002351
# 3 -0.000536 -0.001832 0.007308 0.001717 0.000916 0.001134
# 4 0.000588 -0.004846 0.001717 0.028879 -0.001366 -0.000486
# 5 -0.002458 0.001357 0.000916 -0.001366 0.021021 -0.000558
# 6 0.001254 0.002351 0.001134 -0.000486 -0.000558 0.025986
#
#
# Mechanical properties :
#
#
# Convention : Reuss Voigt Hill
#
# Bulk Modulus (GPa) = 71.70064 78.14109 74.92087
# Shear Modulus (GPa) = 42.92884 47.76091 45.34487
#
# Velocity S-wave (km/s) = 4.25098 4.48384 4.36896
# Velocity P-wave (km/s) = 7.36727 7.72657 7.54905
#
# Compressibility (1/GPa) = 0.01394688
#
# Stress axis : x y z
#
# Youngs Moduli (GPa) = 123.35935 104.96151 136.83130
#
# Poissons Ratio (x) = 0.32851 0.07335
# Poissons Ratio (y) = 0.38609 0.25063
# Poissons Ratio (z) = 0.06613 0.19226
#
# Static dielectric constant tensor:
#      x y z
#    x 4.397740 -0.198130 -0.242210 
#    y -0.198130 4.597960 -0.133670 
#    z -0.242210 -0.133670 4.558890 
# 
# 
# High freq. dielectric constant tensor:
#      x y z
#    x 1.966110 -0.016360 -0.015520 
#    y -0.016360 1.958450 -0.004510 
#    z -0.015520 -0.004510 1.965500 
# 
# From -- ./inp_files/12069.got.cif
#   From: 2010.06.25/outbox.cif.g09.slc.cpg/sg2_7_cif.got.tgz:12069.got - 2010.06.27 13:26:56.
