data_PCOD8026286
_publ_section_title
;
Structure prediction by ZEFSAII (Michael W. Deem and Ramdas Pophale) SiO2 
 PCOD8026286
Probable space group: P -1
;
_chemical_formula_sum "Si O2"
_cell_formula_units_Z 16
_cell_length_a 9.382640
_cell_length_b 8.595822
_cell_length_c 20.087695
_cell_angle_alpha 57.738458
_cell_angle_beta 122.270142
_cell_angle_gamma 74.926277
_cell_volume 749.720410
_symmetry_space_group_name_H-M "P -1"
_symmetry_group_IT_number 2
_symmetry_cell_setting 'triclinic'
loop_
_space_group_symop_operation_xyz
x,y,z
-x,-y,-z
loop_
_atom_site_type_symbol
_atom_site_label
_atom_site_fract_x
_atom_site_fract_y
_atom_site_fract_z
Si Si1 0.407994 0.634828 0.019971
Si Si2 0.043716 0.726556 0.525305
Si Si3 0.987677 0.327209 0.076189
Si Si4 0.060839 0.687026 0.241814
Si Si5 0.705779 0.704167 0.492374
Si Si6 0.085928 0.793822 0.673004
Si Si7 0.448895 0.687146 0.327097
Si Si8 0.165219 0.261557 0.279038
O O1 0.639474 0.494475 0.160132
O O2 0.500000 0.500000 0.000000
O O3 0.272238 0.566776 0.031514
O O4 0.202317 0.975356 0.891769
O O5 0.029136 0.782025 0.586719
O O6 0.349089 0.454469 0.649937
O O7 0.863869 0.694674 0.479387
O O8 0.937773 0.965051 0.390897
O O9 0.997785 0.348976 0.152759
O O10 0.229031 0.014350 0.180233
O O11 0.000000 0.500000 0.000000
O O12 0.087076 0.536768 0.347087
O O13 0.321986 0.591315 0.321481
O O14 0.053041 0.552311 0.208600
O O15 0.587071 0.622988 0.445873
O O16 0.473169 0.018376 0.395404
O O17 0.866490 0.877845 0.643844
#
# Coordination Sequence:
#
# PCOD8026286 Si02
#       8
#     2   2   2   2   2   2   2   2
#     4  11  25  44  67  96 132 179 217 269 330 393
#     4  11  25  41  68  99 133 175 219 280 323 384
#     4  10  24  44  67  96 130 177 214 274 333 390
#     4  11  24  41  68  98 130 177 218 267 335 394
#     4  11  23  41  69  99 130 172 222 274 329 383
#     4  11  25  43  65  98 137 171 222 270 335 380
#     4  10  24  41  63  98 132 169 224 269 331 388
#     4  11  23  44  67  97 134 172 220 273 327 397
#
# _framework density 21.341289
#
# number of rings (size 3 to 8) (size 9 to 14) (size 15 to 20)
#    0.000    1.250    2.500    1.875    8.750    2.500 
#    0.000    2.500    0.000    0.000    0.000    0.000 
#    0.000    0.000    0.000    0.000    0.000    0.000 
#
# Total GULP energy -198340.350425 kJ/mol
# GULP energy per Si atom -12396.271902 kJ/mol
# Density = 2.129271 g / cm^3
# Si number density = 21.341289 Si / 1000 Ang^3
#
#
#
# Elastic Constant Matrix: (Units=GPa)
#
#
# Indices 1 2 3 4 5 6 
#
# 1 137.1501 41.2367 34.3950 -18.8009 -1.0752 2.0169
# 2 41.2367 59.9277 25.0279 -16.2059 -5.0814 1.1583
# 3 34.3950 25.0279 77.5537 -6.3833 5.2031 1.1316
# 4 -18.8009 -16.2059 -6.3833 28.8890 0.2896 0.3349
# 5 -1.0752 -5.0814 5.2031 0.2896 36.0578 -1.1218
# 6 2.0169 1.1583 1.1316 0.3349 -1.1218 37.3262
#
#
#
# Elastic Compliance Matrix: (Units=1/GPa)
#
#
# Indices 1 2 3 4 5 6 
#
# 1 0.009815 -0.004860 -0.002520 0.003109 -0.000064 -0.000333
# 2 -0.004860 0.025326 -0.005484 0.009795 0.004127 -0.000321
# 3 -0.002520 -0.005484 0.015900 -0.001168 -0.003141 -0.000260
# 4 0.003109 0.009795 -0.001168 0.041871 0.001281 -0.000774
# 5 -0.000064 0.004127 -0.003141 0.001281 0.028782 0.000824
# 6 -0.000333 -0.000321 -0.000260 -0.000774 0.000824 0.026858
#
#
# Mechanical properties :
#
#
# Convention : Reuss Voigt Hill
#
# Bulk Modulus (GPa) = 39.50297 52.88341 46.19319
# Shear Modulus (GPa) = 27.36486 32.05272 29.70879
#
# Velocity S-wave (km/s) = 3.58474 3.87965 3.73511
# Velocity P-wave (km/s) = 5.97361 6.70094 6.34770
#
# Compressibility (1/GPa) = 0.02531455
#
# Stress axis : x y z
#
# Youngs Moduli (GPa) = 101.88601 39.48527 62.89392
#
# Poissons Ratio (x) = 0.19188 0.15846
# Poissons Ratio (y) = 0.49513 0.34490
# Poissons Ratio (z) = 0.25671 0.21653
#
# Static dielectric constant tensor:
#      x y z
#    x 4.045740 -0.165250 0.037830 
#    y -0.165250 3.910720 0.107160 
#    z 0.037830 0.107160 3.873480 
# 
# 
# High freq. dielectric constant tensor:
#      x y z
#    x 1.853920 0.005160 0.007500 
#    y 0.005160 1.841350 -0.002350 
#    z 0.007500 -0.002350 1.828790 
# 
# From -- ./inp_files/256265.got.cif
#   From: 2010.06.25/outbox.cif.g09.slc.cpg/sg2_129_cif.got.tgz:256265.got - 2010.06.27 13:26:56.
