data_PCOD8026849
_publ_section_title
;
Structure prediction by ZEFSAII (Michael W. Deem and Ramdas Pophale) SiO2 
 PCOD8026849
Probable space group: P -1
;
_chemical_formula_sum "Si O2"
_cell_formula_units_Z 12
_cell_length_a 5.441945
_cell_length_b 10.787628
_cell_length_c 9.292003
_cell_angle_alpha 72.243978
_cell_angle_beta 105.256350
_cell_angle_gamma 108.943475
_cell_volume 483.145000
_symmetry_space_group_name_H-M "P -1"
_symmetry_group_IT_number 2
_symmetry_cell_setting 'triclinic'
loop_
_space_group_symop_operation_xyz
x,y,z
-x,-y,-z
loop_
_atom_site_type_symbol
_atom_site_label
_atom_site_fract_x
_atom_site_fract_y
_atom_site_fract_z
Si Si1 0.432198 0.244408 0.735175
Si Si2 0.271184 0.108070 0.031444
Si Si3 0.462324 0.878705 0.647247
Si Si4 0.873541 0.468592 0.646029
Si Si5 0.157519 0.249446 0.417953
Si Si6 0.295777 0.400122 0.903043
O O1 0.437510 0.129913 0.896849
O O2 0.698303 0.311559 0.663386
O O3 0.202680 0.185524 0.603371
O O4 0.401943 0.378451 0.767460
O O5 0.208255 0.250527 0.015020
O O6 0.440256 0.062727 0.199736
O O7 0.000000 0.000000 0.000000
O O8 0.658522 0.790317 0.660452
O O9 0.155996 0.797142 0.645054
O O10 0.500000 0.000000 0.500000
O O11 0.735857 0.588120 0.616090
O O12 0.000000 0.500000 0.500000
O O13 0.061080 0.469383 0.812990
O O14 0.500000 0.500000 0.000000
#
# Coordination Sequence:
#
# PCOD8026849 Si02
#       6
#     2   2   2   2   2   2
#     4  10  25  42  71 108 150 194 246 305 383 445
#     4  10  24  49  74 106 151 201 250 310 382 453
#     4  12  28  49  76 108 146 202 261 319 372 455
#     4  12  23  42  73 110 148 197 245 310 381 455
#     4  12  26  46  76 108 152 195 256 316 382 445
#     4  10  24  43  69 109 152 188 253 305 379 444
#
# _framework density 24.837266
#
# number of rings (size 3 to 8) (size 9 to 14) (size 15 to 20)
#    1.000    0.000    1.667    4.000    4.667    2.000 
#    0.000    2.500    0.000    0.000    0.000    0.000 
#    0.000    0.000    0.000    0.000    0.000    0.000 
#
# Total GULP energy -148663.347040 kJ/mol
# GULP energy per Si atom -12388.612253 kJ/mol
# Density = 2.478073 g / cm^3
# Si number density = 24.837266 Si / 1000 Ang^3
#
#
#
# Elastic Constant Matrix: (Units=GPa)
#
#
# Indices 1 2 3 4 5 6 
#
# 1 118.0055 31.9819 48.1867 8.6265 -3.7828 28.0084
# 2 31.9819 103.5355 37.3969 2.9026 -3.8717 36.8613
# 3 48.1867 37.3969 189.8155 0.0252 20.4493 36.4214
# 4 8.6265 2.9026 0.0252 53.7005 8.2297 -1.2801
# 5 -3.7828 -3.8717 20.4493 8.2297 41.0225 1.9695
# 6 28.0084 36.8613 36.4214 -1.2801 1.9695 49.6803
#
#
#
# Elastic Compliance Matrix: (Units=1/GPa)
#
#
# Indices 1 2 3 4 5 6 
#
# 1 0.010767 -0.001018 -0.002044 -0.002157 0.002539 -0.003973
# 2 -0.001018 0.013627 -0.000959 -0.001143 0.002329 -0.008956
# 3 -0.002044 -0.000959 0.006974 0.000884 -0.003785 -0.003076
# 4 -0.002157 -0.001143 0.000884 0.019820 -0.004825 0.002119
# 5 0.002539 0.002329 -0.003785 -0.004825 0.027763 -0.001610
# 6 -0.003973 -0.008956 -0.003076 0.002119 -0.001610 0.031387
#
#
# Mechanical properties :
#
#
# Convention : Reuss Voigt Hill
#
# Bulk Modulus (GPa) = 42.86880 71.83196 57.35038
# Shear Modulus (GPa) = 39.63443 48.46675 44.05059
#
# Velocity S-wave (km/s) = 3.99904 4.42223 4.21594
# Velocity P-wave (km/s) = 6.21453 7.42015 6.84394
#
# Compressibility (1/GPa) = 0.02332699
#
# Stress axis : x y z
#
# Youngs Moduli (GPa) = 92.88030 73.38439 143.39209
#
# Poissons Ratio (x) = 0.07469 0.29304
# Poissons Ratio (y) = 0.09453 0.13747
# Poissons Ratio (z) = 0.18982 0.07036
#
# Static dielectric constant tensor:
#      x y z
#    x 4.629220 -0.140690 0.573920 
#    y -0.140690 5.105840 -0.199510 
#    z 0.573920 -0.199510 5.395050 
# 
# 
# High freq. dielectric constant tensor:
#      x y z
#    x 1.968280 0.005580 0.007580 
#    y 0.005580 1.989330 -0.001150 
#    z 0.007580 -0.001150 2.011360 
# 
# From -- ./inp_files/130669.got.cif
#   From: 2010.06.25/outbox.cif.g09.slc.cpg/sg2_66_cif.got.tgz:130669.got - 2010.06.27 13:26:56.
