data_PCOD8026521
_publ_section_title
;
Structure prediction by ZEFSAII (Michael W. Deem and Ramdas Pophale) SiO2 
 PCOD8026521
Probable space group: P -1
;
_chemical_formula_sum "Si O2"
_cell_formula_units_Z 12
_cell_length_a 11.009653
_cell_length_b 12.398667
_cell_length_c 16.237209
_cell_angle_alpha 25.304724
_cell_angle_beta 33.270417
_cell_angle_gamma 48.791200
_cell_volume 473.113209
_symmetry_space_group_name_H-M "P -1"
_symmetry_group_IT_number 2
_symmetry_cell_setting 'triclinic'
loop_
_space_group_symop_operation_xyz
x,y,z
-x,-y,-z
loop_
_atom_site_type_symbol
_atom_site_label
_atom_site_fract_x
_atom_site_fract_y
_atom_site_fract_z
Si Si1 0.779536 0.398532 0.880075
Si Si2 0.571781 0.630091 0.130599
Si Si3 0.425731 0.829959 0.438595
Si Si4 0.779152 0.140660 0.900911
Si Si5 0.032079 0.024589 0.689853
Si Si6 0.111018 0.531559 0.046608
O O1 0.919129 0.323242 0.776448
O O2 0.908950 0.418478 0.880160
O O3 0.776326 0.694862 0.655102
O O4 0.511970 0.141279 0.213452
O O5 0.492411 0.368026 0.416675
O O6 0.337243 0.685364 0.205811
O O7 0.781061 0.899923 0.867208
O O8 0.672827 0.558236 0.037039
O O9 0.137912 0.714282 0.672100
O O10 0.558566 0.859124 0.253861
O O11 0.969892 0.078562 0.781321
O O12 0.154075 0.806558 0.778644
#
# Coordination Sequence:
#
# PCOD8026521 Si02
#       6
#     2   2   2   2   2   2
#     4  10  25  42  68 100 130 173 215 273 323 387
#     4  11  24  44  67  97 134 172 217 270 325 385
#     4   9  23  43  65 100 128 171 217 269 321 385
#     4  10  24  42  67  99 131 168 222 266 326 387
#     4  11  23  44  70  94 132 175 215 271 326 383
#     4  11  25  45  66  97 134 172 218 267 325 389
#
# _framework density 25.363910000000001
#
# number of rings (size 3 to 8) (size 9 to 14) (size 15 to 20)
#    1.000    0.667    0.000    4.000    2.333   10.000 
#    3.000    0.000    0.000    0.000    0.000    0.000 
#    0.000    0.000    0.000    0.000    0.000    0.000 
#
# Total GULP energy -148716.276583 kJ/mol
# GULP energy per Si atom -12393.023049 kJ/mol
# Density = 2.530618 g / cm^3
# Si number density = 25.363910 Si / 1000 Ang^3
#
#
#
# Elastic Constant Matrix: (Units=GPa)
#
#
# Indices 1 2 3 4 5 6 
#
# 1 128.1786 23.4191 -17.9947 -51.7918 1.8350 23.8447
# 2 23.4191 75.0110 21.4657 -5.9028 -1.1757 13.0614
# 3 -17.9947 21.4657 233.4158 12.8986 33.0984 7.3127
# 4 -51.7918 -5.9028 12.8986 82.0750 23.9876 -3.0711
# 5 1.8350 -1.1757 33.0984 23.9876 28.2242 0.3335
# 6 23.8447 13.0614 7.3127 -3.0711 0.3335 38.9096
#
#
#
# Elastic Compliance Matrix: (Units=1/GPa)
#
#
# Indices 1 2 3 4 5 6 
#
# 1 0.016736 -0.003949 0.003635 0.014606 -0.017830 -0.008308
# 2 -0.003949 0.015571 -0.002370 -0.002906 0.006186 -0.002644
# 3 0.003635 -0.002370 0.006212 0.004372 -0.011310 -0.002157
# 4 0.014606 -0.002906 0.004372 0.029353 -0.031071 -0.006214
# 5 -0.017830 0.006186 -0.011310 -0.031071 0.076425 0.007868
# 6 -0.008308 -0.002644 -0.002157 -0.006214 0.007868 0.031527
#
#
# Mechanical properties :
#
#
# Convention : Reuss Voigt Hill
#
# Bulk Modulus (GPa) = 30.16491 54.48731 42.32611
# Shear Modulus (GPa) = 26.00884 57.15613 41.58248
#
# Velocity S-wave (km/s) = 3.20570 4.75219 4.05339
# Velocity P-wave (km/s) = 5.06169 7.18610 6.21533
#
# Compressibility (1/GPa) = 0.03315110
#
# Stress axis : x y z
#
# Youngs Moduli (GPa) = 59.75221 64.22151 160.97466
#
# Poissons Ratio (x) = 0.25359 -0.58512
# Poissons Ratio (y) = 0.23594 0.38153
# Poissons Ratio (z) = -0.21719 0.15221
#
# Static dielectric constant tensor:
#      x y z
#    x 4.257160 0.414140 0.245100 
#    y 0.414140 4.288510 -0.197170 
#    z 0.245100 -0.197170 4.751910 
# 
# 
# High freq. dielectric constant tensor:
#      x y z
#    x 1.996790 0.023260 0.016500 
#    y 0.023260 2.003210 -0.006200 
#    z 0.016500 -0.006200 2.028750 
# 
# From -- ./inp_files/518521.got.cif
#   From: 2010.06.25/outbox.cif.g09.slc.cpg/sg2_260_cif.got.tgz:518521.got - 2010.06.27 13:26:56.
