data_PCOD8026365
_publ_section_title
;
Structure prediction by ZEFSAII (Michael W. Deem and Ramdas Pophale) SiO2 
 PCOD8026365
Probable space group: P -1
;
_chemical_formula_sum "Si O2"
_cell_formula_units_Z 16
_cell_length_a 5.499199
_cell_length_b 20.163548
_cell_length_c 9.084201
_cell_angle_alpha 128.239207
_cell_angle_beta 60.056557
_cell_angle_gamma 119.003125
_cell_volume 662.256273
_symmetry_space_group_name_H-M "P -1"
_symmetry_group_IT_number 2
_symmetry_cell_setting 'triclinic'
loop_
_space_group_symop_operation_xyz
x,y,z
-x,-y,-z
loop_
_atom_site_type_symbol
_atom_site_label
_atom_site_fract_x
_atom_site_fract_y
_atom_site_fract_z
Si Si1 0.224248 0.421162 0.947409
Si Si2 0.336540 0.233039 0.661144
Si Si3 0.063682 0.922217 0.610446
Si Si4 0.653299 0.900242 0.295789
Si Si5 0.748062 0.499760 0.248419
Si Si6 0.856364 0.576318 0.617713
Si Si7 0.202403 0.759639 0.704572
Si Si8 0.279542 0.145370 0.108477
O O1 0.259715 0.324891 0.829528
O O2 0.122008 0.431830 0.825947
O O3 0.500000 0.500000 0.000000
O O4 0.957649 0.437470 0.147171
O O5 0.305309 0.190134 0.774407
O O6 0.650810 0.248652 0.510031
O O7 0.110370 0.164989 0.536248
O O8 0.399769 0.920304 0.501345
O O9 0.941431 0.925154 0.817621
O O10 0.063215 0.015310 0.660361
O O11 0.594766 0.891959 0.125521
O O12 0.725763 0.565414 0.476790
O O13 0.431435 0.436055 0.209745
O O14 0.000000 0.500000 0.500000
O O15 0.092556 0.666877 0.690239
O O16 0.436891 0.813836 0.822760
O O17 0.915676 0.792558 0.807103
#
# Coordination Sequence:
#
# PCOD8026365 Si02
#       8
#     2   2   2   2   2   2   2   2
#     4  11  24  44  67 103 143 187 239 303 368 439
#     4  11  24  44  73 101 146 195 245 305 371 444
#     4  10  24  47  71 107 148 190 243 306 379 442
#     4  11  24  46  75 106 143 193 245 308 371 449
#     4  10  24  41  68  99 135 188 242 300 366 440
#     4  11  24  43  67  96 138 193 240 305 366 436
#     4  11  26  46  71 104 151 190 252 303 374 443
#     4  11  26  47  73 112 144 196 240 311 369 453
#
# _framework density 24.159828999999998
#
# number of rings (size 3 to 8) (size 9 to 14) (size 15 to 20)
#    0.000    1.250    1.250    3.000    8.750    5.000 
#    0.000    1.875    0.000    0.000    0.000    0.000 
#    0.000    0.000    0.000    0.000    0.000    0.000 
#
# Total GULP energy -198228.692320 kJ/mol
# GULP energy per Si atom -12389.293270 kJ/mol
# Density = 2.410484 g / cm^3
# Si number density = 24.159829 Si / 1000 Ang^3
#
#
#
# Elastic Constant Matrix: (Units=GPa)
#
#
# Indices 1 2 3 4 5 6 
#
# 1 83.6163 33.4915 15.1826 3.6749 -14.3951 3.1693
# 2 33.4915 172.4811 51.3928 -2.4068 -5.7931 4.6403
# 3 15.1826 51.3928 101.6441 -11.0888 -1.8229 -2.3848
# 4 3.6749 -2.4068 -11.0888 9.7526 -4.4432 26.1882
# 5 -14.3951 -5.7931 -1.8229 -4.4432 36.5560 -3.0493
# 6 3.1693 4.6403 -2.3848 26.1882 -3.0493 12.5527
#
#
#
# Elastic Compliance Matrix: (Units=1/GPa)
#
#
# Indices 1 2 3 4 5 6 
#
# 1 0.013930 -0.002222 -0.000906 0.000022 0.004948 -0.001711
# 2 -0.002222 0.007245 -0.003478 -0.001335 -0.000063 -0.000009
# 3 -0.000906 -0.003478 0.011784 -0.000608 0.000025 0.005028
# 4 0.000022 -0.001335 -0.000608 -0.021798 0.000961 0.046083
# 5 0.004948 -0.000063 0.000025 0.000961 0.029745 0.003999
# 6 -0.001711 -0.000009 0.005028 0.046083 0.003999 -0.014115
#
#
# Mechanical properties :
#
#
# Convention : Reuss Voigt Hill
#
# Bulk Modulus (GPa) = 50.64342 61.98613 56.31477
# Shear Modulus (GPa) = 107.32631 28.95057 68.13844
#
# Velocity S-wave (km/s) = 6.67232 3.46539 5.31643
# Velocity P-wave (km/s) = 8.96477 6.45944 7.81318
#
# Compressibility (1/GPa) = 0.01974590
#
# Stress axis : x y z
#
# Youngs Moduli (GPa) = 71.78892 138.02403 84.85842
#
# Poissons Ratio (x) = 0.30673 0.07689
# Poissons Ratio (y) = 0.15954 0.29516
# Poissons Ratio (z) = 0.06505 0.48008
#
# Static dielectric constant tensor:
#      x y z
#    x 4.418140 -0.030990 0.373560 
#    y -0.030990 4.844250 -0.475090 
#    z 0.373560 -0.475090 5.196880 
# 
# 
# High freq. dielectric constant tensor:
#      x y z
#    x 1.950850 0.001420 0.002420 
#    y 0.001420 1.974710 -0.020250 
#    z 0.002420 -0.020250 1.964190 
# 
# From -- ./inp_files/138805.got.cif
#   From: 2010.06.25/outbox.cif.g09.slc.cpg/sg2_70_cif.got.tgz:138805.got - 2010.06.27 13:26:56.
