data_PCOD8026539
_publ_section_title
;
Structure prediction by ZEFSAII (Michael W. Deem and Ramdas Pophale) SiO2 
 PCOD8026539
Probable space group: P -1
;
_chemical_formula_sum "Si O2"
_cell_formula_units_Z 16
_cell_length_a 19.013710
_cell_length_b 8.827107
_cell_length_c 18.953928
_cell_angle_alpha 152.893319
_cell_angle_beta 150.169296
_cell_angle_gamma 40.169052
_cell_volume 720.574795
_symmetry_space_group_name_H-M "P -1"
_symmetry_group_IT_number 2
_symmetry_cell_setting 'triclinic'
loop_
_space_group_symop_operation_xyz
x,y,z
-x,-y,-z
loop_
_atom_site_type_symbol
_atom_site_label
_atom_site_fract_x
_atom_site_fract_y
_atom_site_fract_z
Si Si1 0.980394 0.741056 0.148096
Si Si2 0.306942 0.904291 0.972634
Si Si3 0.329509 0.830079 0.225126
Si Si4 0.507725 0.221501 0.167405
Si Si5 0.219104 0.419828 0.459567
Si Si6 0.523897 0.882737 0.660753
Si Si7 0.764726 0.745280 0.435838
Si Si8 0.034303 0.620108 0.868025
O O1 0.005324 0.553993 0.165076
O O2 0.820689 0.855778 0.052903
O O3 0.091852 0.047487 0.368775
O O4 0.000000 0.500000 0.000000
O O5 0.255783 0.527981 0.756447
O O6 0.438934 0.013505 0.084245
O O7 0.365237 0.928750 0.112695
O O8 0.442181 0.583237 0.251479
O O9 0.262114 0.049250 0.319459
O O10 0.404996 0.077176 0.337290
O O11 0.200431 0.597990 0.983890
O O12 0.671559 0.300922 0.360558
O O13 0.500000 0.000000 0.000000
O O14 0.219154 0.439191 0.552024
O O15 0.065951 0.528291 0.342958
O O16 0.500000 0.500000 0.500000
O O17 0.370340 0.030632 0.588803
O O18 0.000000 0.000000 0.000000
#
# Coordination Sequence:
#
# PCOD8026539 Si02
#       8
#     2   2   2   2   2   2   2   2
#     4  12  26  46  73 103 140 184 234 287 343 416
#     4  12  27  47  69 101 145 185 228 284 354 419
#     4  11  23  45  68 101 134 174 237 288 334 407
#     4  12  23  45  70  97 138 182 228 282 344 409
#     4  11  24  42  72  98 138 177 232 288 340 406
#     4  12  27  43  73 105 137 183 237 286 346 409
#     4  12  27  47  65 104 143 186 223 287 358 408
#     4  10  24  42  68 103 132 172 230 287 338 397
#
# _framework density 22.204495999999999
#
# number of rings (size 3 to 8) (size 9 to 14) (size 15 to 20)
#    0.000    0.500    3.750    4.125   12.250    0.000 
#    0.000    1.250    0.000    0.000    0.000    0.000 
#    0.000    0.000    0.000    0.000    0.000    0.000 
#
# Total GULP energy -198447.538183 kJ/mol
# GULP energy per Si atom -12402.971136 kJ/mol
# Density = 2.215396 g / cm^3
# Si number density = 22.204496 Si / 1000 Ang^3
#
#
#
# Elastic Constant Matrix: (Units=GPa)
#
#
# Indices 1 2 3 4 5 6 
#
# 1 53.9405 12.2674 14.0373 5.1197 8.9821 5.5171
# 2 12.2674 45.8786 13.3282 -14.2646 2.0442 10.2699
# 3 14.0373 13.3282 134.9885 -12.9002 14.8949 1.3829
# 4 5.1197 -14.2646 -12.9002 43.8551 0.5441 1.8206
# 5 8.9821 2.0442 14.8949 0.5441 45.1865 0.5337
# 6 5.5171 10.2699 1.3829 1.8206 0.5337 30.0877
#
#
#
# Elastic Compliance Matrix: (Units=1/GPa)
#
#
# Indices 1 2 3 4 5 6 
#
# 1 0.021610 -0.006388 -0.001710 -0.005006 -0.003367 -0.001341
# 2 -0.006388 0.029108 -0.001170 0.010253 0.000325 -0.009337
# 3 -0.001710 -0.001170 0.008170 0.002241 -0.002330 0.000243
# 4 -0.005006 0.010253 0.002241 0.027567 -0.000488 -0.004344
# 5 -0.003367 0.000325 -0.002330 -0.000488 0.023556 0.000225
# 6 -0.001341 -0.009337 0.000243 -0.004344 0.000225 0.036917
#
#
# Mechanical properties :
#
#
# Convention : Reuss Voigt Hill
#
# Bulk Modulus (GPa) = 24.78157 34.89707 29.83932
# Shear Modulus (GPa) = 27.94640 36.83751 32.39195
#
# Velocity S-wave (km/s) = 3.55151 4.07751 3.82357
# Velocity P-wave (km/s) = 5.29174 6.15780 5.74112
#
# Compressibility (1/GPa) = 0.04035257
#
# Stress axis : x y z
#
# Youngs Moduli (GPa) = 46.27589 34.35487 122.39668
#
# Poissons Ratio (x) = 0.21945 0.20925
# Poissons Ratio (y) = 0.29560 0.14323
# Poissons Ratio (z) = 0.07911 0.04020
#
# Static dielectric constant tensor:
#      x y z
#    x 8.426020 3.807150 -3.569040 
#    y 3.807150 7.509410 -3.792660 
#    z -3.569040 -3.792660 8.240830 
# 
# 
# High freq. dielectric constant tensor:
#      x y z
#    x 1.874300 0.001970 0.012670 
#    y 0.001970 1.869570 -0.011940 
#    z 0.012670 -0.011940 1.899760 
# 
# From -- ./inp_files/566621.got.cif
#   From: 2010.06.25/outbox.cif.g09.slc.cpg/sg2_284_cif.got.tgz:566621.got - 2010.06.27 13:26:56.
