data_PCOD8026116
_publ_section_title
;
Structure prediction by ZEFSAII (Michael W. Deem and Ramdas Pophale) SiO2 
 PCOD8026116
Probable space group: P -1
;
_chemical_formula_sum "Si O2"
_cell_formula_units_Z 14
_cell_length_a 18.319297
_cell_length_b 7.615847
_cell_length_c 4.819685
_cell_angle_alpha 89.417866
_cell_angle_beta 87.009891
_cell_angle_gamma 59.055287
_cell_volume 575.822877
_symmetry_space_group_name_H-M "P -1"
_symmetry_group_IT_number 2
_symmetry_cell_setting 'triclinic'
loop_
_space_group_symop_operation_xyz
x,y,z
-x,-y,-z
loop_
_atom_site_type_symbol
_atom_site_label
_atom_site_fract_x
_atom_site_fract_y
_atom_site_fract_z
Si Si1 0.106055 0.706168 0.892112
Si Si2 0.953097 0.880311 0.338849
Si Si3 0.692097 0.111163 0.517192
Si Si4 0.599269 0.348219 0.010284
Si Si5 0.801854 0.651025 0.504883
Si Si6 0.079628 0.301166 0.112096
Si Si7 0.256017 0.625378 0.230124
O O1 0.130863 0.488054 0.746191
O O2 0.068546 0.883748 0.654218
O O3 0.187922 0.703842 0.996471
O O4 0.042578 0.745685 0.157402
O O5 0.957088 0.789209 0.644156
O O6 0.884523 0.859482 0.153859
O O7 0.622220 0.265785 0.315283
O O8 0.762521 0.178098 0.574940
O O9 0.738242 0.879188 0.405621
O O10 0.634928 0.149210 0.804350
O O11 0.500000 0.500000 0.000000
O O12 0.649290 0.467354 0.917003
O O13 0.848928 0.660702 0.773670
O O14 0.746360 0.548305 0.586997
O O15 0.000000 0.500000 0.000000
#
# Coordination Sequence:
#
# PCOD8026116 Si02
#       7
#     2   2   2   2   2   2   2
#     4  11  27  47  74 105 147 193 260 312 370 435
#     4  11  29  48  71 101 144 204 253 314 379 425
#     4  10  25  47  78 110 145 194 237 295 374 433
#     4  10  23  49  80 111 149 190 235 296 368 451
#     4  12  28  46  77 109 147 194 255 306 365 443
#     4  12  29  49  69 101 148 198 254 315 376 429
#     4  10  25  44  76 108 151 188 244 299 368 441
#
# _framework density 24.313030000000001
#
# number of rings (size 3 to 8) (size 9 to 14) (size 15 to 20)
#    0.857    0.286    0.000    3.429   16.000    1.143 
#    2.571    1.429    0.000    0.000    0.000    0.000 
#    0.000    0.000    0.000    0.000    0.000    0.000 
#
# Total GULP energy -173524.242386 kJ/mol
# GULP energy per Si atom -12394.588742 kJ/mol
# Density = 2.425769 g / cm^3
# Si number density = 24.313030 Si / 1000 Ang^3
#
#
#
# Elastic Constant Matrix: (Units=GPa)
#
#
# Indices 1 2 3 4 5 6 
#
# 1 91.7551 58.4882 2.2546 -3.6062 0.6235 6.6036
# 2 58.4882 150.0280 31.6445 5.1976 10.2572 19.8209
# 3 2.2546 31.6445 106.3919 -6.7678 5.1209 10.2196
# 4 -3.6062 5.1976 -6.7678 43.8584 3.9621 6.6060
# 5 0.6235 10.2572 5.1209 3.9621 30.4373 -0.3497
# 6 6.6036 19.8209 10.2196 6.6060 -0.3497 38.0267
#
#
#
# Elastic Compliance Matrix: (Units=1/GPa)
#
#
# Indices 1 2 3 4 5 6 
#
# 1 0.014979 -0.006335 0.001652 0.002138 0.001271 -0.000103
# 2 -0.006335 0.010366 -0.002577 -0.001384 -0.002789 -0.003396
# 3 0.001652 -0.002577 0.010568 0.002526 -0.001298 -0.002235
# 4 0.002138 -0.001384 0.002526 0.024519 -0.003247 -0.004618
# 5 0.001271 -0.002789 -0.001298 -0.003247 0.034438 0.002463
# 6 -0.000103 -0.003396 -0.002235 -0.004618 0.002463 0.029511
#
#
# Mechanical properties :
#
#
# Convention : Reuss Voigt Hill
#
# Bulk Modulus (GPa) = 46.74434 59.21660 52.98047
# Shear Modulus (GPa) = 34.23897 39.51699 36.87798
#
# Velocity S-wave (km/s) = 3.75675 4.03593 3.89884
# Velocity P-wave (km/s) = 6.17133 6.79169 6.48893
#
# Compressibility (1/GPa) = 0.02139296
#
# Stress axis : x y z
#
# Youngs Moduli (GPa) = 66.75933 96.46973 94.62195
#
# Poissons Ratio (x) = 0.61117 -0.15628
# Poissons Ratio (y) = 0.42295 0.24379
# Poissons Ratio (z) = -0.11026 0.24856
#
# Static dielectric constant tensor:
#      x y z
#    x 4.790590 0.687280 0.331170 
#    y 0.687280 4.434620 0.268420 
#    z 0.331170 0.268420 4.830130 
# 
# 
# High freq. dielectric constant tensor:
#      x y z
#    x 1.958050 0.028450 0.003960 
#    y 0.028450 1.948640 -0.004450 
#    z 0.003960 -0.004450 1.995710 
# 
# From -- ./inp_files/122558.got.cif
#   From: 2010.06.25/outbox.cif.g09.slc.cpg/sg2_62_cif.got.tgz:122558.got - 2010.06.27 13:26:56.
