data_PCOD8026599
_publ_section_title
;
Structure prediction by ZEFSAII (Michael W. Deem and Ramdas Pophale) SiO2 
 PCOD8026599
Probable space group: P -1
;
_chemical_formula_sum "Si O2"
_cell_formula_units_Z 16
_cell_length_a 28.922354
_cell_length_b 12.103756
_cell_length_c 17.945560
_cell_angle_alpha 160.452676
_cell_angle_beta 160.095300
_cell_angle_gamma 29.605554
_cell_volume 707.955852
_symmetry_space_group_name_H-M "P -1"
_symmetry_group_IT_number 2
_symmetry_cell_setting 'triclinic'
loop_
_space_group_symop_operation_xyz
x,y,z
-x,-y,-z
loop_
_atom_site_type_symbol
_atom_site_label
_atom_site_fract_x
_atom_site_fract_y
_atom_site_fract_z
Si Si1 0.766637 0.140728 0.846931
Si Si2 0.951629 0.817792 0.166126
Si Si3 0.244926 0.757454 0.942625
Si Si4 0.512324 0.162051 0.262830
Si Si5 0.397914 0.375589 0.830731
Si Si6 0.947195 0.928241 0.792050
Si Si7 0.227299 0.151050 0.756956
Si Si8 0.792974 0.318167 0.707928
O O1 0.728767 0.825058 0.534683
O O2 0.692685 0.131654 0.810449
O O3 0.737644 0.457134 0.956205
O O4 0.926034 0.150470 0.116129
O O5 0.852809 0.984810 0.067963
O O6 0.856842 0.690991 0.013612
O O7 0.093603 0.071484 0.559389
O O8 0.000000 0.500000 0.000000
O O9 0.365012 0.712002 0.036442
O O10 0.170203 0.380469 0.591617
O O11 0.500000 0.500000 0.500000
O O12 0.630976 0.268454 0.448997
O O13 0.543513 0.868864 0.177725
O O14 0.364226 0.024251 0.915017
O O15 0.500000 0.500000 0.000000
O O16 0.882798 0.252118 0.873954
O O17 0.000000 0.000000 0.000000
O O18 0.182327 0.959445 0.491242
#
# Coordination Sequence:
#
# PCOD8026599 Si02
#       8
#     2   2   2   2   2   2   2   2
#     4  12  22  43  76 101 138 185 234 290 355 421
#     4  10  24  42  70 109 141 170 237 300 350 415
#     4  12  24  45  74 103 138 187 235 290 357 418
#     4  12  25  44  67  93 141 187 231 280 350 423
#     4  12  29  48  68 107 142 182 244 296 347 422
#     4  12  22  41  73 104 136 176 236 289 347 422
#     4  11  22  42  72 100 135 186 231 290 350 418
#     4  11  24  44  67 103 136 182 236 283 352 425
#
# _framework density 22.600279
#
# number of rings (size 3 to 8) (size 9 to 14) (size 15 to 20)
#    0.000    0.500    6.250    2.250    1.750    3.500 
#    0.000    1.250    0.000    0.000    0.000    0.000 
#    0.000    0.000    0.000    0.000    0.000    0.000 
#
# Total GULP energy -198308.430703 kJ/mol
# GULP energy per Si atom -12394.276919 kJ/mol
# Density = 2.254884 g / cm^3
# Si number density = 22.600279 Si / 1000 Ang^3
#
#
#
# Elastic Constant Matrix: (Units=GPa)
#
#
# Indices 1 2 3 4 5 6 
#
# 1 102.5014 46.4661 37.8648 2.2623 16.7744 8.9392
# 2 46.4661 136.7044 32.1509 -9.6441 8.8194 8.1017
# 3 37.8648 32.1509 55.8059 -15.7765 11.1963 11.3313
# 4 2.2623 -9.6441 -15.7765 34.6350 -3.2298 -3.7406
# 5 16.7744 8.8194 11.1963 -3.2298 51.4907 2.3502
# 6 8.9392 8.1017 11.3313 -3.7406 2.3502 38.0950
#
#
#
# Elastic Compliance Matrix: (Units=1/GPa)
#
#
# Indices 1 2 3 4 5 6 
#
# 1 0.015524 -0.003208 -0.009939 -0.006745 -0.002747 -0.000497
# 2 -0.003208 0.009138 -0.002630 0.001542 0.000161 -0.000267
# 3 -0.009939 -0.002630 0.031425 0.013498 -0.002070 -0.005003
# 4 -0.006745 0.001542 0.013498 0.036082 0.001229 0.000707
# 5 -0.002747 0.000161 -0.002070 0.001229 0.020813 0.000063
# 6 -0.000497 -0.000267 -0.005003 0.000707 0.000063 0.027977
#
#
# Mechanical properties :
#
#
# Convention : Reuss Voigt Hill
#
# Bulk Modulus (GPa) = 40.76278 58.66393 49.71336
# Shear Modulus (GPa) = 27.67147 36.74616 32.20881
#
# Velocity S-wave (km/s) = 3.50292 4.03664 3.77921
# Velocity P-wave (km/s) = 5.86823 6.90938 6.40998
#
# Compressibility (1/GPa) = 0.02453218
#
# Stress axis : x y z
#
# Youngs Moduli (GPa) = 64.41780 109.42964 31.82132
#
# Poissons Ratio (x) = 0.35106 0.31629
# Poissons Ratio (y) = 0.20666 0.08369
# Poissons Ratio (z) = 0.64028 0.28781
#
# Static dielectric constant tensor:
#      x y z
#    x 4.927470 -0.201000 0.555390 
#    y -0.201000 4.190380 -0.246620 
#    z 0.555390 -0.246620 4.915840 
# 
# 
# High freq. dielectric constant tensor:
#      x y z
#    x 1.901390 -0.004460 0.008670 
#    y -0.004460 1.896470 -0.004060 
#    z 0.008670 -0.004060 1.882560 
# 
# From -- ./inp_files/285872.got.cif
#   From: 2010.06.25/outbox.cif.g09.slc.cpg/sg2_143_cif.got.tgz:285872.got - 2010.06.27 13:26:56.
