data_PCOD8026704
_publ_section_title
;
Structure prediction by ZEFSAII (Michael W. Deem and Ramdas Pophale) SiO2 
 PCOD8026704
Probable space group: P -1
;
_chemical_formula_sum "Si O2"
_cell_formula_units_Z 14
_cell_length_a 8.853034
_cell_length_b 8.778881
_cell_length_c 20.061598
_cell_angle_alpha 40.836717
_cell_angle_beta 139.278022
_cell_angle_gamma 128.394502
_cell_volume 660.981722
_symmetry_space_group_name_H-M "P -1"
_symmetry_group_IT_number 2
_symmetry_cell_setting 'triclinic'
loop_
_space_group_symop_operation_xyz
x,y,z
-x,-y,-z
loop_
_atom_site_type_symbol
_atom_site_label
_atom_site_fract_x
_atom_site_fract_y
_atom_site_fract_z
Si Si1 0.739781 0.392868 0.612171
Si Si2 0.045775 0.267417 0.005898
Si Si3 0.702859 0.140302 0.816291
Si Si4 0.780317 0.796783 0.310977
Si Si5 0.135975 0.668052 0.574638
Si Si6 0.961432 0.214766 0.145810
Si Si7 0.582436 0.954834 0.616492
O O1 0.500000 0.500000 0.500000
O O2 0.808863 0.299201 0.737872
O O3 0.951646 0.585016 0.598058
O O4 0.710233 0.190011 0.614022
O O5 0.828789 0.225986 0.897581
O O6 0.138761 0.542094 0.949943
O O7 0.954281 0.171861 0.078577
O O8 0.257674 0.128814 0.097362
O O9 0.431585 0.168145 0.722372
O O10 0.742794 0.547249 0.344428
O O11 0.013086 0.806545 0.430000
O O12 0.798036 0.003474 0.194527
O O13 0.351270 0.846783 0.616027
O O14 0.226562 0.229108 0.257281
O O15 0.500000 0.000000 0.500000
#
# Coordination Sequence:
#
# PCOD8026704 Si02
#       7
#     2   2   2   2   2   2   2
#     4  12  25  43  66 101 140 165 214 278 329 396
#     4  10  24  43  65  88 132 184 221 272 323 373
#     4  11  23  44  64  94 135 176 216 277 331 377
#     4  11  21  39  68  97 132 168 221 270 326 402
#     4  11  22  40  66 103 133 174 208 261 346 401
#     4  11  22  43  67  97 129 174 231 268 312 403
#     4  12  23  41  71  99 133 174 215 270 331 395
#
# _framework density 21.180617000000002
#
# number of rings (size 3 to 8) (size 9 to 14) (size 15 to 20)
#    0.000    0.857    5.714    1.714    2.000    1.714 
#    2.571    5.714    0.000    0.000    0.000    0.000 
#    0.000    0.000    0.000    0.000    0.000    0.000 
#
# Total GULP energy -173634.158310 kJ/mol
# GULP energy per Si atom -12402.439879 kJ/mol
# Density = 2.113241 g / cm^3
# Si number density = 21.180617 Si / 1000 Ang^3
#
#
#
# Elastic Constant Matrix: (Units=GPa)
#
#
# Indices 1 2 3 4 5 6 
#
# 1 105.6087 31.4626 41.4013 -5.3317 -8.3412 2.3983
# 2 31.4626 57.2201 19.8817 -2.5149 -11.3189 4.9385
# 3 41.4013 19.8817 102.8075 -7.3106 -19.3287 -9.6073
# 4 -5.3317 -2.5149 -7.3106 32.2542 -5.3140 -0.4078
# 5 -8.3412 -11.3189 -19.3287 -5.3140 50.1982 -2.3061
# 6 2.3983 4.9385 -9.6073 -0.4078 -2.3061 38.3164
#
#
#
# Elastic Compliance Matrix: (Units=1/GPa)
#
#
# Indices 1 2 3 4 5 6 
#
# 1 0.012809 -0.005575 -0.004299 0.000565 -0.000779 -0.001202
# 2 -0.005575 0.022031 -0.001551 0.000975 0.003425 -0.002663
# 3 -0.004299 -0.001551 0.013199 0.002956 0.004519 0.004082
# 4 0.000565 0.000975 0.002956 0.032677 0.004968 0.001227
# 5 -0.000779 0.003425 0.004519 0.004968 0.022929 0.002173
# 6 -0.001202 -0.002663 0.004082 0.001227 0.002173 0.027684
#
#
# Mechanical properties :
#
#
# Convention : Reuss Voigt Hill
#
# Bulk Modulus (GPa) = 39.69899 50.12527 44.91213
# Shear Modulus (GPa) = 30.75464 35.67982 33.21723
#
# Velocity S-wave (km/s) = 3.81467 4.10878 3.96445
# Velocity P-wave (km/s) = 6.17949 6.79900 6.49663
#
# Compressibility (1/GPa) = 0.02518956
#
# Stress axis : x y z
#
# Youngs Moduli (GPa) = 78.06766 45.39067 75.76152
#
# Poissons Ratio (x) = 0.25306 0.32570
# Poissons Ratio (y) = 0.43524 0.11750
# Poissons Ratio (z) = 0.33561 0.07040
#
# Static dielectric constant tensor:
#      x y z
#    x 3.931320 -0.055680 0.086070 
#    y -0.055680 3.686020 -0.197300 
#    z 0.086070 -0.197300 4.156870 
# 
# 
# High freq. dielectric constant tensor:
#      x y z
#    x 1.833190 -0.002290 -0.000820 
#    y -0.002290 1.810800 -0.012190 
#    z -0.000820 -0.012190 1.848950 
# 
# From -- ./inp_files/199222.got.cif
#   From: 2010.06.25/outbox.cif.g09.slc.cpg/sg2_100_cif.got.tgz:199222.got - 2010.06.27 13:26:56.
