data_PCOD8026462
_publ_section_title
;
Structure prediction by ZEFSAII (Michael W. Deem and Ramdas Pophale) SiO2 
 PCOD8026462
Probable space group: P -1
;
_chemical_formula_sum "Si O2"
_cell_formula_units_Z 16
_cell_length_a 14.483702
_cell_length_b 12.549094
_cell_length_c 12.463617
_cell_angle_alpha 55.106887
_cell_angle_beta 104.088267
_cell_angle_gamma 149.826207
_cell_volume 740.666631
_symmetry_space_group_name_H-M "P -1"
_symmetry_group_IT_number 2
_symmetry_cell_setting 'triclinic'
loop_
_space_group_symop_operation_xyz
x,y,z
-x,-y,-z
loop_
_atom_site_type_symbol
_atom_site_label
_atom_site_fract_x
_atom_site_fract_y
_atom_site_fract_z
Si Si1 0.573039 0.387407 0.330940
Si Si2 0.723694 0.176780 0.319970
Si Si3 0.476041 0.846580 0.229736
Si Si4 0.137077 0.299290 0.152312
Si Si5 0.323369 0.395460 0.528985
Si Si6 0.048952 0.268348 0.904100
Si Si7 0.836908 0.414055 0.868482
Si Si8 0.471115 0.420511 0.916494
O O1 0.658986 0.524063 0.394683
O O2 0.794667 0.632086 0.180036
O O3 0.448492 0.358919 0.262324
O O4 0.394484 0.043567 0.485069
O O5 0.851390 0.462539 0.233933
O O6 0.899223 0.295607 0.243305
O O7 0.534276 0.973380 0.292085
O O8 0.381323 0.581593 0.354324
O O9 0.278672 0.696347 0.214749
O O10 0.699731 0.125405 0.053496
O O11 0.189314 0.499850 0.107062
O O12 0.368737 0.503362 0.105090
O O13 0.050148 0.217443 0.054411
O O14 0.937064 0.977644 0.347791
O O15 0.500000 0.500000 0.500000
O O16 0.790951 0.947613 0.970163
O O17 0.500000 0.500000 0.000000
#
# Coordination Sequence:
#
# PCOD8026462 Si02
#       8
#     2   2   2   2   2   2   2   2
#     4  11  24  47  67 100 139 171 228 279 336 397
#     4  11  25  44  72  96 136 179 222 278 339 396
#     4  10  24  42  65  97 141 168 223 274 334 392
#     4  12  25  42  71 102 136 178 228 273 335 404
#     4  11  25  43  71 101 138 180 218 277 345 396
#     4  12  25  46  72  98 131 185 224 275 337 402
#     4  11  25  42  68 100 137 177 223 278 331 399
#     4  12  26  44  71  99 134 180 226 275 336 401
#
# _framework density 21.602162
#
# number of rings (size 3 to 8) (size 9 to 14) (size 15 to 20)
#    0.000    0.750    3.750    3.375    8.750    0.500 
#    0.000    0.625    0.000    0.000    0.000    0.000 
#    0.000    0.000    0.000    0.000    0.000    0.000 
#
# Total GULP energy -198484.108628 kJ/mol
# GULP energy per Si atom -12405.256789 kJ/mol
# Density = 2.155299 g / cm^3
# Si number density = 21.602162 Si / 1000 Ang^3
#
#
#
# Elastic Constant Matrix: (Units=GPa)
#
#
# Indices 1 2 3 4 5 6 
#
# 1 110.0481 34.8314 34.8383 -7.1897 -7.3166 2.4250
# 2 34.8314 110.7981 41.0494 -5.6259 1.6585 6.3504
# 3 34.8383 41.0494 139.0469 -15.0339 19.9460 4.5476
# 4 -7.1897 -5.6259 -15.0339 33.1695 -0.0031 1.0580
# 5 -7.3166 1.6585 19.9460 -0.0031 43.0579 -2.3291
# 6 2.4250 6.3504 4.5476 1.0580 -2.3291 27.7653
#
#
#
# Elastic Compliance Matrix: (Units=1/GPa)
#
#
# Indices 1 2 3 4 5 6 
#
# 1 0.010890 -0.002581 -0.002317 0.000865 0.003036 0.000240
# 2 -0.002581 0.010881 -0.002513 0.000206 0.000207 -0.001842
# 3 -0.002317 -0.002513 0.009626 0.003477 -0.004828 -0.001337
# 4 0.000865 0.000206 0.003477 0.032012 -0.001580 -0.002045
# 5 0.003036 0.000207 -0.004828 -0.001580 0.026117 0.002729
# 6 0.000240 -0.001842 -0.001337 -0.002045 0.002729 0.036942
#
#
# Mechanical properties :
#
#
# Convention : Reuss Voigt Hill
#
# Bulk Modulus (GPa) = 60.32297 64.59237 62.45767
# Shear Modulus (GPa) = 34.05689 37.41012 35.73351
#
# Velocity S-wave (km/s) = 3.97489 4.16598 4.07155
# Velocity P-wave (km/s) = 7.00367 7.28741 7.14695
#
# Compressibility (1/GPa) = 0.01657743
#
# Stress axis : x y z
#
# Youngs Moduli (GPa) = 91.82604 91.90703 103.88213
#
# Poissons Ratio (x) = 0.23717 0.24064
# Poissons Ratio (y) = 0.23696 0.26103
# Poissons Ratio (z) = 0.21272 0.23094
#
# Static dielectric constant tensor:
#      x y z
#    x 3.881560 0.062770 0.248540 
#    y 0.062770 3.877520 -0.067590 
#    z 0.248540 -0.067590 4.398050 
# 
# 
# High freq. dielectric constant tensor:
#      x y z
#    x 1.846500 -0.000520 0.011910 
#    y -0.000520 1.851150 -0.004880 
#    z 0.011910 -0.004880 1.866500 
# 
# From -- ./inp_files/452218.got.cif
#   From: 2010.06.25/outbox.cif.g09.slc.cpg/sg2_227_cif.got.tgz:452218.got - 2010.06.27 13:26:56.
