data_PCOD8026558
_publ_section_title
;
Structure prediction by ZEFSAII (Michael W. Deem and Ramdas Pophale) SiO2 
 PCOD8026558
Probable space group: P -1
;
_chemical_formula_sum "Si O2"
_cell_formula_units_Z 16
_cell_length_a 9.234183
_cell_length_b 11.963895
_cell_length_c 8.678624
_cell_angle_alpha 104.322273
_cell_angle_beta 112.914641
_cell_angle_gamma 55.042674
_cell_volume 723.415934
_symmetry_space_group_name_H-M "P -1"
_symmetry_group_IT_number 2
_symmetry_cell_setting 'triclinic'
loop_
_space_group_symop_operation_xyz
x,y,z
-x,-y,-z
loop_
_atom_site_type_symbol
_atom_site_label
_atom_site_fract_x
_atom_site_fract_y
_atom_site_fract_z
Si Si1 0.490906 0.688049 0.606209
Si Si2 0.983152 0.780475 0.809418
Si Si3 0.249012 0.869067 0.844998
Si Si4 0.373158 0.160158 0.484697
Si Si5 0.405860 0.230263 0.861480
Si Si6 0.238603 0.613702 0.301526
Si Si7 0.304377 0.522862 0.962226
Si Si8 0.140075 0.160810 0.868492
O O1 0.383353 0.744985 0.742642
O O2 0.546487 0.790039 0.598784
O O3 0.353811 0.677355 0.429960
O O4 0.680604 0.538095 0.650104
O O5 0.068585 0.869640 0.825065
O O6 0.148814 0.621720 0.808101
O O7 0.831479 0.802343 0.629853
O O8 0.896553 0.818719 0.957152
O O9 0.173113 0.015114 0.784038
O O10 0.373284 0.850066 0.040884
O O11 0.369530 0.231073 0.666261
O O12 0.500000 0.000000 0.500000
O O13 0.303724 0.386165 0.927687
O O14 0.326461 0.158066 0.907455
O O15 0.018461 0.723407 0.272302
O O16 0.248098 0.608880 0.122123
O O17 0.500000 0.500000 0.000000
#
# Coordination Sequence:
#
# PCOD8026558 Si02
#       8
#     2   2   2   2   2   2   2   2
#     4  11  24  45  72  95 142 179 228 275 349 402
#     4  11  26  43  72 101 139 180 230 281 343 407
#     4  12  24  46  74 100 135 184 231 276 340 419
#     4  12  28  45  67 103 144 176 225 287 347 399
#     4  12  25  44  72 100 139 180 227 280 346 401
#     4  10  24  42  69 100 132 181 226 282 338 399
#     4  11  21  44  70 101 135 180 232 281 337 408
#     4  11  26  43  72 100 139 176 235 277 342 401
#
# _framework density 22.117291999999999
#
# number of rings (size 3 to 8) (size 9 to 14) (size 15 to 20)
#    0.000    0.750    2.500    3.750    7.000    3.000 
#    0.000    0.000    0.000    0.000    0.000    0.000 
#    0.000    0.000    0.000    0.000    0.000    0.000 
#
# Total GULP energy -198421.236150 kJ/mol
# GULP energy per Si atom -12401.327259 kJ/mol
# Density = 2.206695 g / cm^3
# Si number density = 22.117292 Si / 1000 Ang^3
#
#
#
# Elastic Constant Matrix: (Units=GPa)
#
#
# Indices 1 2 3 4 5 6 
#
# 1 106.8178 5.4521 40.3900 -7.5591 7.3349 18.2464
# 2 5.4521 92.3609 27.7309 -14.3560 6.4393 2.3942
# 3 40.3900 27.7309 125.8621 -12.2205 22.3075 -9.6967
# 4 -7.5591 -14.3560 -12.2205 32.5430 -6.7007 4.9847
# 5 7.3349 6.4393 22.3075 -6.7007 30.1480 -3.6995
# 6 18.2464 2.3942 -9.6967 4.9847 -3.6995 40.1290
#
#
#
# Elastic Compliance Matrix: (Units=1/GPa)
#
#
# Indices 1 2 3 4 5 6 
#
# 1 0.012447 0.001259 -0.004515 0.002809 -0.000215 -0.007195
# 2 0.001259 0.012477 -0.002851 0.005121 -0.000048 -0.002646
# 3 -0.004515 -0.002851 0.011471 0.000042 -0.006229 0.004415
# 4 0.002809 0.005121 0.000042 0.035617 0.005433 -0.005496
# 5 -0.000215 -0.000048 -0.006229 0.005433 0.039237 0.001538
# 6 -0.007195 -0.002646 0.004415 -0.005496 0.001538 0.030240
#
#
# Mechanical properties :
#
#
# Convention : Reuss Voigt Hill
#
# Bulk Modulus (GPa) = 41.35680 52.46519 46.91100
# Shear Modulus (GPa) = 30.90928 37.32852 34.11890
#
# Velocity S-wave (km/s) = 3.74239 4.11268 3.93190
# Velocity P-wave (km/s) = 6.11665 6.80625 6.47065
#
# Compressibility (1/GPa) = 0.02417982
#
# Stress axis : x y z
#
# Youngs Moduli (GPa) = 80.33874 80.14888 87.17935
#
# Poissons Ratio (x) = -0.10091 0.39364
# Poissons Ratio (y) = -0.10115 0.24856
# Poissons Ratio (z) = 0.36275 0.22851
#
# Static dielectric constant tensor:
#      x y z
#    x 3.826000 0.013060 0.124020 
#    y 0.013060 3.824360 0.067870 
#    z 0.124020 0.067870 4.158700 
# 
# 
# High freq. dielectric constant tensor:
#      x y z
#    x 1.868890 -0.000770 0.010180 
#    y -0.000770 1.887960 -0.004880 
#    z 0.010180 -0.004880 1.873860 
# 
# From -- ./inp_files/185396.got.cif
#   From: 2010.06.25/outbox.cif.g09.slc.cpg/sg2_93_cif.got.tgz:185396.got - 2010.06.27 13:26:56.
