data_PCOD8026852
_publ_section_title
;
Structure prediction by ZEFSAII (Michael W. Deem and Ramdas Pophale) SiO2 
 PCOD8026852
Probable space group: P -1
;
_chemical_formula_sum "Si O2"
_cell_formula_units_Z 16
_cell_length_a 9.764909
_cell_length_b 9.223975
_cell_length_c 15.783862
_cell_angle_alpha 68.162391
_cell_angle_beta 146.985353
_cell_angle_gamma 116.511535
_cell_volume 693.141516
_symmetry_space_group_name_H-M "P -1"
_symmetry_group_IT_number 2
_symmetry_cell_setting 'triclinic'
loop_
_space_group_symop_operation_xyz
x,y,z
-x,-y,-z
loop_
_atom_site_type_symbol
_atom_site_label
_atom_site_fract_x
_atom_site_fract_y
_atom_site_fract_z
Si Si1 0.630757 0.682320 0.431910
Si Si2 0.320612 0.953217 0.614590
Si Si3 0.080702 0.493152 0.249332
Si Si4 0.881420 0.180306 0.122873
Si Si5 0.196635 0.295007 0.843301
Si Si6 0.541923 0.071772 0.121705
Si Si7 0.880004 0.650885 0.397022
Si Si8 0.278736 0.009244 0.319242
O O1 0.323063 0.627347 0.305995
O O2 0.806155 0.599936 0.598881
O O3 0.664060 0.638779 0.360583
O O4 0.739734 0.873536 0.462878
O O5 0.321543 0.902824 0.723088
O O6 0.099799 0.819972 0.481065
O O7 0.602747 0.959473 0.720164
O O8 0.931834 0.370907 0.125058
O O9 0.849660 0.560768 0.153649
O O10 0.763556 0.071207 0.167499
O O11 0.164216 0.158107 0.252546
O O12 0.677647 0.102977 0.958223
O O13 0.253887 0.352510 0.763469
O O14 0.432140 0.227616 0.013612
O O15 0.932121 0.158415 0.746909
O O16 0.000000 0.500000 0.500000
O O17 0.500000 0.000000 0.500000
#
# Coordination Sequence:
#
# PCOD8026852 Si02
#       8
#     2   2   2   2   2   2   2   2
#     4  11  25  40  69 101 144 172 231 286 354 401
#     4  12  25  44  72 102 140 180 234 284 345 416
#     4  11  23  44  68 103 136 182 227 291 346 402
#     4  10  24  43  69  93 139 186 230 275 342 409
#     4  11  24  45  69  98 142 180 228 281 350 411
#     4  10  26  47  69  99 137 194 230 275 343 427
#     4  12  26  43  68 108 136 176 233 294 340 404
#     4  11  22  41  72 102 130 182 228 287 346 401
#
# _framework density 23.083310999999998
#
# number of rings (size 3 to 8) (size 9 to 14) (size 15 to 20)
#    0.000    1.000    3.750    1.875   10.500    2.500 
#    0.000    0.625    0.000    0.000    0.000    0.000 
#    0.000    0.000    0.000    0.000    0.000    0.000 
#
# Total GULP energy -198426.305083 kJ/mol
# GULP energy per Si atom -12401.644068 kJ/mol
# Density = 2.303077 g / cm^3
# Si number density = 23.083311 Si / 1000 Ang^3
#
#
#
# Elastic Constant Matrix: (Units=GPa)
#
#
# Indices 1 2 3 4 5 6 
#
# 1 133.4216 18.9157 8.7815 -17.7200 3.6347 -17.3218
# 2 18.9157 128.7024 15.7311 -8.9443 -5.2853 -22.1435
# 3 8.7815 15.7311 32.5990 -7.8644 -1.6807 -5.2055
# 4 -17.7200 -8.9443 -7.8644 26.1283 -2.7103 -0.2453
# 5 3.6347 -5.2853 -1.6807 -2.7103 24.3471 -5.3673
# 6 -17.3218 -22.1435 -5.2055 -0.2453 -5.3673 43.6248
#
#
#
# Elastic Compliance Matrix: (Units=1/GPa)
#
#
# Indices 1 2 3 4 5 6 
#
# 1 0.008755 -0.000275 -0.000299 0.005784 -0.000009 0.003332
# 2 -0.000275 0.009266 -0.002892 0.002486 0.003155 0.004651
# 3 -0.000299 -0.002892 0.035202 0.009808 0.003625 0.003115
# 4 0.005784 0.002486 0.009808 0.046763 0.006845 0.005834
# 5 -0.000009 0.003155 0.003625 0.006845 0.044432 0.007536
# 6 0.003332 0.004651 0.003115 0.005834 0.007536 0.027938
#
#
# Mechanical properties :
#
#
# Convention : Reuss Voigt Hill
#
# Bulk Modulus (GPa) = 21.60247 42.39774 32.00010
# Shear Modulus (GPa) = 25.67787 35.57304 30.62545
#
# Velocity S-wave (km/s) = 3.33888 3.92991 3.64639
# Velocity P-wave (km/s) = 4.92372 6.24495 5.62327
#
# Compressibility (1/GPa) = 0.04629101
#
# Stress axis : x y z
#
# Youngs Moduli (GPa) = 114.22422 107.91643 28.40708
#
# Poissons Ratio (x) = 0.02971 0.00848
# Poissons Ratio (y) = 0.03145 0.08216
# Poissons Ratio (z) = 0.03411 0.31214
#
# Static dielectric constant tensor:
#      x y z
#    x 4.809770 -0.128390 0.220230 
#    y -0.128390 4.355710 0.075210 
#    z 0.220230 0.075210 3.949720 
# 
# 
# High freq. dielectric constant tensor:
#      x y z
#    x 1.930700 -0.011400 0.011350 
#    y -0.011400 1.919040 0.005040 
#    z 0.011350 0.005040 1.892530 
# 
# From -- ./inp_files/494776.got.cif
#   From: 2010.06.25/outbox.cif.g09.slc.cpg/sg2_248_cif.got.tgz:494776.got - 2010.06.27 13:26:56.
