data_PCOD8026978
_publ_section_title
;
Structure prediction by ZEFSAII (Michael W. Deem and Ramdas Pophale) SiO2 
 PCOD8026978
Probable space group: P -1
;
_chemical_formula_sum "Si O2"
_cell_formula_units_Z 10
_cell_length_a 14.668249
_cell_length_b 8.950432
_cell_length_c 11.425969
_cell_angle_alpha 40.748910
_cell_angle_beta 29.166213
_cell_angle_gamma 30.767090
_cell_volume 373.813151
_symmetry_space_group_name_H-M "P -1"
_symmetry_group_IT_number 2
_symmetry_cell_setting 'triclinic'
loop_
_space_group_symop_operation_xyz
x,y,z
-x,-y,-z
loop_
_atom_site_type_symbol
_atom_site_label
_atom_site_fract_x
_atom_site_fract_y
_atom_site_fract_z
Si Si1 0.058831 0.163639 0.057719
Si Si2 0.812754 0.695734 0.749584
Si Si3 0.705588 0.567072 0.403558
Si Si4 0.681865 0.137998 0.822881
Si Si5 0.822972 0.934959 0.360746
O O1 0.808571 0.425456 0.243779
O O2 0.250896 0.926196 0.077963
O O3 0.171675 0.286330 0.784655
O O4 0.002399 0.016552 0.109821
O O5 0.774626 0.916487 0.562402
O O6 0.061440 0.373450 0.647500
O O7 0.812837 0.825809 0.796636
O O8 0.600711 0.670930 0.993059
O O9 0.772372 0.314258 0.569284
O O10 0.422924 0.814300 0.573799
#
# Coordination Sequence:
#
# PCOD8026978 Si02
#       5
#     2   2   2   2   2
#     4  11  24  43  73 102 133 182 229 280 336 409
#     4  10  24  43  73  97 142 180 221 280 354 392
#     4  11  24  43  71 102 137 178 230 278 341 405
#     4  11  23  46  72 101 134 182 229 281 334 411
#     4  11  23  47  69  99 141 182 218 287 343 400
#
# _framework density 26.751334
#
# number of rings (size 3 to 8) (size 9 to 14) (size 15 to 20)
#    0.000    1.200    4.000    1.200    0.000    3.200 
#    0.000    2.000    0.000    0.000    0.000    0.000 
#    0.000    0.000    0.000    0.000    0.000    0.000 
#
# Total GULP energy -124075.784020 kJ/mol
# GULP energy per Si atom -12407.578402 kJ/mol
# Density = 2.669045 g / cm^3
# Si number density = 26.751334 Si / 1000 Ang^3
#
#
#
# Elastic Constant Matrix: (Units=GPa)
#
#
# Indices 1 2 3 4 5 6 
#
# 1 57.9787 33.9530 41.8518 -10.3608 3.5962 -9.1599
# 2 33.9530 127.1945 54.4215 -9.3951 -7.2322 -16.1462
# 3 41.8518 54.4215 141.1996 -32.7787 -38.3836 -5.7758
# 4 -10.3608 -9.3951 -32.7787 47.5480 4.6610 -3.7649
# 5 3.5962 -7.2322 -38.3836 4.6610 28.6236 -2.0577
# 6 -9.1599 -16.1462 -5.7758 -3.7649 -2.0577 28.3833
#
#
#
# Elastic Compliance Matrix: (Units=1/GPa)
#
#
# Indices 1 2 3 4 5 6 
#
# 1 0.031738 -0.003086 -0.015055 -0.001399 -0.024479 0.003463
# 2 -0.003086 0.010576 -0.003415 -0.000495 -0.001139 0.004177
# 3 -0.015055 -0.003415 0.023590 0.009363 0.031246 0.001506
# 4 -0.001399 -0.000495 0.009363 0.026658 0.008650 0.005336
# 5 -0.024479 -0.001139 0.031246 0.008650 0.078550 0.004652
# 6 0.003463 0.004177 0.001506 0.005336 0.004652 0.040077
#
#
# Mechanical properties :
#
#
# Convention : Reuss Voigt Hill
#
# Bulk Modulus (GPa) = 43.87669 65.20282 54.53975
# Shear Modulus (GPa) = 19.09129 33.98741 26.53935
#
# Velocity S-wave (km/s) = 2.67433 3.56827 3.15314
# Velocity P-wave (km/s) = 5.09641 6.43454 5.80416
#
# Compressibility (1/GPa) = 0.02279114
#
# Stress axis : x y z
#
# Youngs Moduli (GPa) = 31.50776 94.55492 42.39101
#
# Poissons Ratio (x) = 0.29181 0.63821
# Poissons Ratio (y) = 0.09724 0.14476
# Poissons Ratio (z) = 0.47436 0.32290
#
# Static dielectric constant tensor:
#      x y z
#    x 4.416680 -0.031930 -0.120590 
#    y -0.031930 4.669830 -0.151460 
#    z -0.120590 -0.151460 5.101160 
# 
# 
# High freq. dielectric constant tensor:
#      x y z
#    x 2.068000 -0.010330 -0.009630 
#    y -0.010330 2.077550 -0.009440 
#    z -0.009630 -0.009440 2.089050 
# 
# From -- ./inp_files/144199.got.cif
#   From: 2010.06.25/outbox.cif.g09.slc.cpg/sg2_73_cif.got.tgz:144199.got - 2010.06.27 13:26:56.
