data_PCOD8026710
_publ_section_title
;
Structure prediction by ZEFSAII (Michael W. Deem and Ramdas Pophale) SiO2 
 PCOD8026710
Probable space group: P -1
;
_chemical_formula_sum "Si O2"
_cell_formula_units_Z 16
_cell_length_a 16.815923
_cell_length_b 9.001661
_cell_length_c 11.561910
_cell_angle_alpha 54.044851
_cell_angle_beta 112.815237
_cell_angle_gamma 68.065047
_cell_volume 773.345878
_symmetry_space_group_name_H-M "P -1"
_symmetry_group_IT_number 2
_symmetry_cell_setting 'triclinic'
loop_
_space_group_symop_operation_xyz
x,y,z
-x,-y,-z
loop_
_atom_site_type_symbol
_atom_site_label
_atom_site_fract_x
_atom_site_fract_y
_atom_site_fract_z
Si Si1 0.995834 0.259782 0.483080
Si Si2 0.294937 0.697651 0.311438
Si Si3 0.518431 0.422384 0.372125
Si Si4 0.978905 0.718277 0.246672
Si Si5 0.494329 0.876515 0.658906
Si Si6 0.244307 0.613171 0.794570
Si Si7 0.284766 0.309583 0.528854
Si Si8 0.508306 0.781777 0.059199
O O1 0.023379 0.190892 0.667489
O O2 0.855811 0.384229 0.305569
O O3 0.958268 0.535689 0.314204
O O4 0.140691 0.948476 0.637299
O O5 0.412923 0.500988 0.365345
O O6 0.327693 0.807563 0.369759
O O7 0.303805 0.493975 0.484887
O O8 0.141327 0.978573 0.036639
O O9 0.527287 0.293911 0.318232
O O10 0.465287 0.714948 0.167273
O O11 0.120937 0.530178 0.344342
O O12 0.500000 0.000000 0.500000
O O13 0.341718 0.191797 0.485441
O O14 0.637509 0.656524 0.920523
O O15 0.336394 0.529422 0.773979
O O16 0.376870 0.003117 0.793093
O O17 0.500000 0.000000 0.000000
#
# Coordination Sequence:
#
# PCOD8026710 Si02
#       8
#     2   2   2   2   2   2   2   2
#     4  10  24  43  65  95 127 176 215 270 317 388
#     4  11  24  43  65  96 133 167 217 266 321 396
#     4  11  25  41  69  98 128 172 217 261 332 382
#     4  11  25  41  69  91 131 170 225 262 324 376
#     4  11  24  42  67  96 134 168 209 272 331 386
#     4  10  24  43  65  94 133 167 218 263 328 379
#     4  11  24  42  64  98 130 169 218 265 326 383
#     4  11  23  40  71  98 131 165 220 274 318 386
#
# _framework density 20.689319999999999
#
# number of rings (size 3 to 8) (size 9 to 14) (size 15 to 20)
#    0.000    1.250    2.500    1.875   10.500    1.000 
#    0.000    0.625    0.000    0.000    0.000    0.000 
#    0.000    0.000    0.000    0.000    0.000    0.000 
#
# Total GULP energy -198298.925065 kJ/mol
# GULP energy per Si atom -12393.682817 kJ/mol
# Density = 2.064223 g / cm^3
# Si number density = 20.689320 Si / 1000 Ang^3
#
#
#
# Elastic Constant Matrix: (Units=GPa)
#
#
# Indices 1 2 3 4 5 6 
#
# 1 74.8860 13.0224 31.5575 13.2001 6.5165 9.8401
# 2 13.0224 99.1807 33.0398 9.2928 18.3165 15.1942
# 3 31.5575 33.0398 89.0464 9.0946 19.1328 0.6394
# 4 13.2001 9.2928 9.0946 26.5077 -0.7263 -1.9237
# 5 6.5165 18.3165 19.1328 -0.7263 40.0376 1.1332
# 6 9.8401 15.1942 0.6394 -1.9237 1.1332 30.5778
#
#
#
# Elastic Compliance Matrix: (Units=1/GPa)
#
#
# Indices 1 2 3 4 5 6 
#
# 1 0.017954 0.001558 -0.005913 -0.007980 -0.000758 -0.006902
# 2 0.001558 0.013637 -0.004124 -0.004794 -0.004401 -0.007330
# 3 -0.005913 -0.004124 0.015982 -0.000956 -0.004911 0.003740
# 4 -0.007980 -0.004794 -0.000956 0.044383 0.004539 0.007594
# 5 -0.000758 -0.004401 -0.004911 0.004539 0.029494 0.001726
# 6 -0.006902 -0.007330 0.003740 0.007594 0.001726 0.038902
#
#
# Mechanical properties :
#
#
# Convention : Reuss Voigt Hill
#
# Bulk Modulus (GPa) = 32.66530 46.48364 39.57447
# Shear Modulus (GPa) = 26.66452 31.79085 29.22768
#
# Velocity S-wave (km/s) = 3.59389 3.92418 3.76266
# Velocity P-wave (km/s) = 5.74840 6.56113 6.16817
#
# Compressibility (1/GPa) = 0.03061353
#
# Stress axis : x y z
#
# Youngs Moduli (GPa) = 55.69746 73.33171 62.57059
#
# Poissons Ratio (x) = -0.11422 0.37000
# Poissons Ratio (y) = -0.08675 0.25804
# Poissons Ratio (z) = 0.32935 0.30241
#
# Static dielectric constant tensor:
#      x y z
#    x 4.240510 -0.360290 -0.533680 
#    y -0.360290 5.168740 0.774010 
#    z -0.533680 0.774010 4.597260 
# 
# 
# High freq. dielectric constant tensor:
#      x y z
#    x 1.817930 0.001640 0.000930 
#    y 0.001640 1.817770 0.010360 
#    z 0.000930 0.010360 1.808230 
# 
# From -- ./inp_files/205154.got.cif
#   From: 2010.06.25/outbox.cif.g09.slc.cpg/sg2_103_cif.got.tgz:205154.got - 2010.06.27 13:26:56.
