data_PCOD8026639
_publ_section_title
;
Structure prediction by ZEFSAII (Michael W. Deem and Ramdas Pophale) SiO2 
 PCOD8026639
Probable space group: P -1
;
_chemical_formula_sum "Si O2"
_cell_formula_units_Z 16
_cell_length_a 9.064022
_cell_length_b 9.487755
_cell_length_c 11.311714
_cell_angle_alpha 61.123684
_cell_angle_beta 120.734587
_cell_angle_gamma 97.891912
_cell_volume 724.391727
_symmetry_space_group_name_H-M "P -1"
_symmetry_group_IT_number 2
_symmetry_cell_setting 'triclinic'
loop_
_space_group_symop_operation_xyz
x,y,z
-x,-y,-z
loop_
_atom_site_type_symbol
_atom_site_label
_atom_site_fract_x
_atom_site_fract_y
_atom_site_fract_z
Si Si1 0.974310 0.116513 0.054580
Si Si2 0.017920 0.546760 0.196426
Si Si3 0.444488 0.825913 0.572645
Si Si4 0.810989 0.764266 0.720237
Si Si5 0.204763 0.995701 0.580238
Si Si6 0.169633 0.411170 0.673271
Si Si7 0.301822 0.032769 0.866412
Si Si8 0.660361 0.431382 0.514577
O O1 0.116275 0.094306 0.228644
O O2 0.790101 0.093331 0.042810
O O3 0.998168 0.298191 0.956260
O O4 0.000000 0.000000 0.000000
O O5 0.047912 0.393778 0.182282
O O6 0.171647 0.561944 0.343103
O O7 0.849503 0.538874 0.215227
O O8 0.631992 0.715085 0.722671
O O9 0.356227 0.753954 0.451929
O O10 0.500000 0.000000 0.500000
O O11 0.304533 0.837069 0.616875
O O12 0.762072 0.840900 0.539693
O O13 0.294964 0.986739 0.746444
O O14 0.000000 0.000000 0.500000
O O15 0.198426 0.214691 0.764908
O O16 0.332488 0.470219 0.647494
O O17 0.000000 0.500000 0.500000
O O18 0.500000 0.000000 0.000000
O O19 0.500000 0.500000 0.500000
#
# Coordination Sequence:
#
# PCOD8026639 Si02
#       8
#     2   2   2   2   2   2   2   2
#     4  12  27  45  71  99 148 195 241 300 381 442
#     4  11  24  43  71  97 143 188 243 299 365 445
#     4  10  25  38  66 104 138 176 235 304 357 423
#     4  11  24  46  69 103 140 192 250 304 363 442
#     4  11  24  43  71 100 144 189 248 303 366 433
#     4  10  24  42  72 104 142 189 250 298 362 442
#     4  12  28  46  71 112 149 192 243 314 374 442
#     4  11  23  42  69 104 140 185 241 301 365 430
#
# _framework density 22.087496999999999
#
# number of rings (size 3 to 8) (size 9 to 14) (size 15 to 20)
#    0.000    1.000    3.750    1.875   14.000    0.000 
#    0.000    0.000    0.000    3.000    0.000    0.000 
#    0.000    0.000    0.000    0.000    0.000    0.000 
#
# Total GULP energy -198224.065414 kJ/mol
# GULP energy per Si atom -12389.004088 kJ/mol
# Density = 2.203722 g / cm^3
# Si number density = 22.087497 Si / 1000 Ang^3
#
#
#
# Elastic Constant Matrix: (Units=GPa)
#
#
# Indices 1 2 3 4 5 6 
#
# 1 181.4731 44.6903 44.9329 9.4324 -7.9227 -18.3791
# 2 44.6903 125.8495 25.7764 18.0554 -4.0716 -25.4649
# 3 44.9329 25.7764 83.4484 8.9935 -9.6884 -5.4376
# 4 9.4324 18.0554 8.9935 44.2305 4.9802 0.8516
# 5 -7.9227 -4.0716 -9.6884 4.9802 33.4033 -0.0631
# 6 -18.3791 -25.4649 -5.4376 0.8516 -0.0631 46.8207
#
#
#
# Elastic Compliance Matrix: (Units=1/GPa)
#
#
# Indices 1 2 3 4 5 6 
#
# 1 0.006810 -0.001412 -0.003017 -0.000363 0.000625 0.001562
# 2 -0.001412 0.010358 -0.001583 -0.003819 0.001048 0.004967
# 3 -0.003017 -0.001583 0.014733 -0.002115 0.003680 -0.000291
# 4 -0.000363 -0.003819 -0.002115 0.025288 -0.004941 -0.002932
# 5 0.000625 0.001048 0.003680 -0.004941 0.032020 0.001375
# 6 0.001562 0.004967 -0.000291 -0.002932 0.001375 0.024694
#
#
# Mechanical properties :
#
#
# Convention : Reuss Voigt Hill
#
# Bulk Modulus (GPa) = 50.30683 69.06336 59.68509
# Shear Modulus (GPa) = 37.72130 43.24898 40.48514
#
# Velocity S-wave (km/s) = 4.13705 4.42982 4.28593
# Velocity P-wave (km/s) = 6.75617 7.58290 7.18144
#
# Compressibility (1/GPa) = 0.01987802
#
# Stress axis : x y z
#
# Youngs Moduli (GPa) = 146.85329 96.54155 67.87474
#
# Poissons Ratio (x) = 0.13630 0.20478
# Poissons Ratio (y) = 0.20733 0.10742
# Poissons Ratio (z) = 0.44306 0.15278
#
# Static dielectric constant tensor:
#      x y z
#    x 4.721580 -0.254690 -0.312750 
#    y -0.254690 3.948390 -0.082350 
#    z -0.312750 -0.082350 4.003530 
# 
# 
# High freq. dielectric constant tensor:
#      x y z
#    x 1.893020 -0.013910 -0.010750 
#    y -0.013910 1.871380 0.004320 
#    z -0.010750 0.004320 1.848360 
# 
# From -- ./inp_files/279488.got.cif
#   From: 2010.06.25/outbox.cif.g09.slc.cpg/sg2_140_cif.got.tgz:279488.got - 2010.06.27 13:26:56.
