data_PCOD8026285
_publ_section_title
;
Structure prediction by ZEFSAII (Michael W. Deem and Ramdas Pophale) SiO2 
 PCOD8026285
Probable space group: P -1
;
_chemical_formula_sum "Si O2"
_cell_formula_units_Z 16
_cell_length_a 24.340509
_cell_length_b 11.528685
_cell_length_c 6.835111
_cell_angle_alpha 71.913450
_cell_angle_beta 59.249862
_cell_angle_gamma 28.831694
_cell_volume 749.905464
_symmetry_space_group_name_H-M "P -1"
_symmetry_group_IT_number 2
_symmetry_cell_setting 'triclinic'
loop_
_space_group_symop_operation_xyz
x,y,z
-x,-y,-z
loop_
_atom_site_type_symbol
_atom_site_label
_atom_site_fract_x
_atom_site_fract_y
_atom_site_fract_z
Si Si1 0.412356 0.898528 0.030551
Si Si2 0.185659 0.698282 0.935355
Si Si3 0.002093 0.606308 0.588039
Si Si4 0.650388 0.788109 0.303185
Si Si5 0.302104 0.626380 0.118483
Si Si6 0.064050 0.028254 0.638268
Si Si7 0.278427 0.142222 0.547968
Si Si8 0.280241 0.939931 0.970474
O O1 0.385570 0.955456 0.278712
O O2 0.572511 0.633829 0.848703
O O3 0.349138 0.880012 0.070512
O O4 0.342960 0.127962 0.930330
O O5 0.253159 0.484778 0.784261
O O6 0.138827 0.889007 0.783338
O O7 0.292220 0.569431 0.963486
O O8 0.058370 0.861317 0.201909
O O9 0.996274 0.736043 0.395788
O O10 0.000000 0.500000 0.500000
O O11 0.130444 0.388119 0.604782
O O12 0.878459 0.802239 0.855590
O O13 0.705293 0.758931 0.415374
O O14 0.500000 0.000000 0.500000
O O15 0.167376 0.830615 0.378427
O O16 0.334493 0.712585 0.962785
O O17 0.312811 0.968091 0.709934
#
# Coordination Sequence:
#
# PCOD8026285 Si02
#       8
#     2   2   2   2   2   2   2   2
#     4  11  23  42  64  93 130 168 213 269 316 378
#     4  11  24  42  66  93 132 169 211 266 318 382
#     4  11  22  41  69  92 128 167 211 271 318 375
#     4  11  25  43  65  97 130 169 218 262 317 385
#     4  11  24  41  66  92 128 173 212 260 322 382
#     4  10  25  42  62  95 130 164 215 265 321 379
#     4  11  24  41  67  95 128 169 215 266 323 375
#     4  10  24  41  63  97 129 166 215 262 323 383
#
# _framework density 21.336022
#
# number of rings (size 3 to 8) (size 9 to 14) (size 15 to 20)
#    0.000    1.250    1.250    3.375    3.500   10.500 
#    0.000    0.000    0.000    0.000    0.000    0.000 
#    0.000    0.000    0.000    0.000    0.000    0.000 
#
# Total GULP energy -198473.672264 kJ/mol
# GULP energy per Si atom -12404.604517 kJ/mol
# Density = 2.128746 g / cm^3
# Si number density = 21.336022 Si / 1000 Ang^3
#
#
#
# Elastic Constant Matrix: (Units=GPa)
#
#
# Indices 1 2 3 4 5 6 
#
# 1 136.5928 41.7431 42.0388 -8.3627 19.3043 -7.4131
# 2 41.7431 91.0928 19.5736 -1.9028 14.2205 -9.3810
# 3 42.0388 19.5736 98.0932 -5.0979 9.0696 5.0538
# 4 -8.3627 -1.9028 -5.0979 34.6392 -2.4833 -5.9483
# 5 19.3043 14.2205 9.0696 -2.4833 25.6510 1.5384
# 6 -7.4131 -9.3810 5.0538 -5.9483 1.5384 38.4658
#
#
#
# Elastic Compliance Matrix: (Units=1/GPa)
#
#
# Indices 1 2 3 4 5 6 
#
# 1 0.010148 -0.002925 -0.003339 0.001825 -0.004787 0.002155
# 2 -0.002925 0.013699 -0.001162 0.000045 -0.005166 0.003143
# 3 -0.003339 -0.001162 0.012090 0.000428 -0.000932 -0.002412
# 4 0.001825 0.000045 0.000428 0.030303 0.001087 0.004949
# 5 -0.004787 -0.005166 -0.000932 0.001087 0.046111 -0.003736
# 6 0.002155 0.003143 -0.002412 0.004949 -0.003736 0.028410
#
#
# Mechanical properties :
#
#
# Convention : Reuss Voigt Hill
#
# Bulk Modulus (GPa) = 47.42752 59.16553 53.29653
# Shear Modulus (GPa) = 30.74257 34.57942 32.66099
#
# Velocity S-wave (km/s) = 3.80001 4.03017 3.91678
# Velocity P-wave (km/s) = 6.44442 7.03185 6.74453
#
# Compressibility (1/GPa) = 0.02108480
#
# Stress axis : x y z
#
# Youngs Moduli (GPa) = 98.54310 72.99683 82.71485
#
# Poissons Ratio (x) = 0.21355 0.27617
# Poissons Ratio (y) = 0.28829 0.09609
# Poissons Ratio (z) = 0.32901 0.08480
#
# Static dielectric constant tensor:
#      x y z
#    x 3.895790 0.033720 -0.145530 
#    y 0.033720 3.944750 0.040690 
#    z -0.145530 0.040690 3.904300 
# 
# 
# High freq. dielectric constant tensor:
#      x y z
#    x 1.842660 -0.004730 -0.005770 
#    y -0.004730 1.847470 -0.001290 
#    z -0.005770 -0.001290 1.842020 
# 
# From -- ./inp_files/69397.got.cif
#   From: 2010.06.25/outbox.cif.g09.slc.cpg/sg2_35_cif.got.tgz:69397.got - 2010.06.27 13:26:56.
