data_PCOD8026864
_publ_section_title
;
Structure prediction by ZEFSAII (Michael W. Deem and Ramdas Pophale) SiO2 
 PCOD8026864
Probable space group: P -1
;
_chemical_formula_sum "Si O2"
_cell_formula_units_Z 14
_cell_length_a 11.994685
_cell_length_b 14.177054
_cell_length_c 11.656261
_cell_angle_alpha 109.356631
_cell_angle_beta 102.100208
_cell_angle_gamma 21.032652
_cell_volume 641.398707
_symmetry_space_group_name_H-M "P -1"
_symmetry_group_IT_number 2
_symmetry_cell_setting 'triclinic'
loop_
_space_group_symop_operation_xyz
x,y,z
-x,-y,-z
loop_
_atom_site_type_symbol
_atom_site_label
_atom_site_fract_x
_atom_site_fract_y
_atom_site_fract_z
Si Si1 0.649531 0.673020 0.855877
Si Si2 0.307768 0.988287 0.132909
Si Si3 0.650485 0.303948 0.594146
Si Si4 0.410042 0.030875 0.793627
Si Si5 0.284395 0.533330 0.394491
Si Si6 0.589147 0.648452 0.268447
Si Si7 0.451354 0.932129 0.519543
O O1 0.534904 0.701128 0.733394
O O2 0.019382 0.342282 0.834114
O O3 0.579865 0.843871 0.867570
O O4 0.426977 0.832726 0.982186
O O5 0.533447 0.898137 0.165579
O O6 0.359568 0.874310 0.207119
O O7 0.937975 0.325091 0.170569
O O8 0.405593 0.448361 0.514882
O O9 0.618999 0.448810 0.652839
O O10 0.601604 0.291634 0.700805
O O11 0.000000 0.000000 0.500000
O O12 0.573991 0.843743 0.641469
O O13 0.912078 0.811142 0.446564
O O14 0.650341 0.686011 0.391204
O O15 0.500000 0.000000 0.500000
#
# Coordination Sequence:
#
# PCOD8026864 Si02
#       7
#     2   2   2   2   2   2   2
#     4  11  24  44  65  96 132 178 230 260 325 401
#     4  12  25  42  64  95 140 178 217 272 324 404
#     4  11  23  44  71  93 130 173 229 278 332 392
#     4  11  23  40  67  95 134 183 217 266 328 404
#     4  10  24  43  69  99 128 177 224 278 327 398
#     4  12  25  42  64 100 132 176 219 272 343 381
#     4  11  22  41  66 104 140 164 212 282 344 395
#
# _framework density 21.827297000000002
#
# number of rings (size 3 to 8) (size 9 to 14) (size 15 to 20)
#    0.000    0.857    2.857    4.286    6.000    1.714 
#    0.000    1.429    0.000    0.000    0.000    0.000 
#    0.000    0.000    0.000    0.000    0.000    0.000 
#
# Total GULP energy -173557.306956 kJ/mol
# GULP energy per Si atom -12396.950497 kJ/mol
# Density = 2.177762 g / cm^3
# Si number density = 21.827297 Si / 1000 Ang^3
#
#
#
# Elastic Constant Matrix: (Units=GPa)
#
#
# Indices 1 2 3 4 5 6 
#
# 1 94.3640 19.1466 30.3343 -20.5333 -16.7073 0.0517
# 2 19.1466 65.7755 18.0961 3.6760 -1.0445 13.3045
# 3 30.3343 18.0961 110.8922 6.7284 -10.7106 5.0483
# 4 -20.5333 3.6760 6.7284 23.4517 5.2734 -6.5992
# 5 -16.7073 -1.0445 -10.7106 5.2734 26.4795 -6.0744
# 6 0.0517 13.3045 5.0483 -6.5992 -6.0744 38.0800
#
#
#
# Elastic Compliance Matrix: (Units=1/GPa)
#
#
# Indices 1 2 3 4 5 6 
#
# 1 0.019203 -0.006750 -0.004954 0.019715 0.007670 0.007629
# 2 -0.006750 0.019753 -0.000680 -0.010562 -0.003770 -0.009234
# 3 -0.004954 -0.000680 0.011379 -0.008756 0.002653 -0.002358
# 4 0.019715 -0.010562 -0.008756 0.069061 -0.001474 0.016557
# 5 0.007670 -0.003770 0.002653 -0.001474 0.045653 0.007982
# 6 0.007629 -0.009234 -0.002358 0.016557 0.007982 0.033932
#
#
# Mechanical properties :
#
#
# Convention : Reuss Voigt Hill
#
# Bulk Modulus (GPa) = 39.11291 45.13175 42.12233
# Shear Modulus (GPa) = 21.52653 31.16589 26.34621
#
# Velocity S-wave (km/s) = 3.14382 3.78278 3.47800
# Velocity P-wave (km/s) = 5.57999 6.30879 5.95555
#
# Compressibility (1/GPa) = 0.02556701
#
# Stress axis : x y z
#
# Youngs Moduli (GPa) = 52.07473 50.62440 87.88312
#
# Poissons Ratio (x) = 0.34172 0.43539
# Poissons Ratio (y) = 0.35151 0.05975
# Poissons Ratio (z) = 0.25799 0.03442
#
# Static dielectric constant tensor:
#      x y z
#    x 3.898970 0.086180 0.053360 
#    y 0.086180 3.747340 -0.067470 
#    z 0.053360 -0.067470 4.195890 
# 
# 
# High freq. dielectric constant tensor:
#      x y z
#    x 1.862840 0.011890 -0.007110 
#    y 0.011890 1.851830 0.002460 
#    z -0.007110 0.002460 1.860480 
# 
# From -- ./inp_files/65411.got.cif
#   From: 2010.06.25/outbox.cif.g09.slc.cpg/sg2_33_cif.got.tgz:65411.got - 2010.06.27 13:26:56.
