data_PCOD8026429
_publ_section_title
;
Structure prediction by ZEFSAII (Michael W. Deem and Ramdas Pophale) SiO2 
 PCOD8026429
Probable space group: P -1
;
_chemical_formula_sum "Si O2"
_cell_formula_units_Z 16
_cell_length_a 8.416687
_cell_length_b 13.209624
_cell_length_c 11.716851
_cell_angle_alpha 79.885389
_cell_angle_beta 129.331470
_cell_angle_gamma 134.877385
_cell_volume 620.203015
_symmetry_space_group_name_H-M "P -1"
_symmetry_group_IT_number 2
_symmetry_cell_setting 'triclinic'
loop_
_space_group_symop_operation_xyz
x,y,z
-x,-y,-z
loop_
_atom_site_type_symbol
_atom_site_label
_atom_site_fract_x
_atom_site_fract_y
_atom_site_fract_z
Si Si1 0.320496 0.931498 0.150598
Si Si2 0.777425 0.365660 0.217648
Si Si3 0.115900 0.366906 0.810319
Si Si4 0.437137 0.573501 0.158249
Si Si5 0.406463 0.867626 0.559262
Si Si6 0.248727 0.188737 0.199413
Si Si7 0.618654 0.502830 0.435444
Si Si8 0.703465 0.258681 0.970055
O O1 0.079332 0.781071 0.161541
O O2 0.611986 0.102351 0.320866
O O3 0.474783 0.909238 0.135982
O O4 0.125559 0.943155 0.987910
O O5 0.460350 0.267124 0.165470
O O6 0.728375 0.259040 0.118948
O O7 0.874182 0.509695 0.166103
O O8 0.052875 0.435801 0.417735
O O9 0.928860 0.305783 0.613640
O O10 0.466640 0.449512 0.912903
O O11 0.672610 0.622612 0.355167
O O12 0.060781 0.402581 0.047386
O O13 0.510734 0.723422 0.157074
O O14 0.693689 0.892012 0.683350
O O15 0.500000 0.000000 0.500000
O O16 0.334609 0.321946 0.286557
O O17 0.500000 0.500000 0.500000
#
# Coordination Sequence:
#
# PCOD8026429 Si02
#       8
#     2   2   2   2   2   2   2   2
#     4  11  23  41  62  89 125 167 212 246 297 366
#     4  12  22  37  64  94 129 154 201 256 316 366
#     4  11  21  39  64  93 122 161 206 255 304 367
#     4  11  21  37  58  93 130 154 201 248 318 366
#     4  10  24  42  64  87 119 165 216 253 296 360
#     4  12  22  40  64  95 120 160 209 256 304 364
#     4  12  22  35  56  94 127 158 189 246 317 367
#     4  11  23  37  58  93 131 165 191 251 315 368
#
# _framework density 25.798006000000001
#
# number of rings (size 3 to 8) (size 9 to 14) (size 15 to 20)
#    0.000    0.750    5.000    3.750    0.000    1.500 
#    0.000    1.250    0.000    6.000    0.000    0.000 
#    0.000    0.000    0.000    0.000    0.000    0.000 
#
# Total GULP energy -198375.475148 kJ/mol
# GULP energy per Si atom -12398.467197 kJ/mol
# Density = 2.573929 g / cm^3
# Si number density = 25.798006 Si / 1000 Ang^3
#
#
#
# Elastic Constant Matrix: (Units=GPa)
#
#
# Indices 1 2 3 4 5 6 
#
# 1 155.4087 16.3404 50.6682 2.0071 -25.6298 -27.9181
# 2 16.3404 35.0774 15.0415 -11.6724 8.1736 -20.5383
# 3 50.6682 15.0415 147.9057 -20.1146 -3.6878 -27.7155
# 4 2.0071 -11.6724 -20.1146 47.6427 -17.6271 1.5934
# 5 -25.6298 8.1736 -3.6878 -17.6271 51.7512 -5.3273
# 6 -27.9181 -20.5383 -27.7155 1.5934 -5.3273 42.3286
#
#
#
# Elastic Compliance Matrix: (Units=1/GPa)
#
#
# Indices 1 2 3 4 5 6 
#
# 1 0.008855 -0.001956 -0.001900 0.000060 0.005020 0.004277
# 2 -0.001956 0.044848 0.001276 0.010022 -0.002424 0.020624
# 3 -0.001900 0.001276 0.008925 0.004574 0.001591 0.005238
# 4 0.000060 0.010022 0.004574 0.028555 0.009322 0.007996
# 5 0.005020 -0.002424 0.001591 0.009322 0.026110 0.006111
# 6 0.004277 0.020624 0.005238 0.007996 0.006111 0.040351
#
#
# Mechanical properties :
#
#
# Convention : Reuss Voigt Hill
#
# Bulk Modulus (GPa) = 17.40057 55.83244 36.61651
# Shear Modulus (GPa) = 27.47865 45.43394 36.45630
#
# Velocity S-wave (km/s) = 3.26720 4.20115 3.76326
# Velocity P-wave (km/s) = 4.58174 6.72473 5.75388
#
# Compressibility (1/GPa) = 0.05746938
#
# Stress axis : x y z
#
# Youngs Moduli (GPa) = 112.92913 22.29773 112.03877
#
# Poissons Ratio (x) = 0.04361 0.21286
# Poissons Ratio (y) = 0.22088 -0.14300
# Poissons Ratio (z) = 0.21455 -0.02846
#
# Static dielectric constant tensor:
#      x y z
#    x 4.852990 -0.506590 -0.174020 
#    y -0.506590 4.529600 -0.127930 
#    z -0.174020 -0.127930 5.798560 
# 
# 
# High freq. dielectric constant tensor:
#      x y z
#    x 2.038130 -0.025980 -0.014380 
#    y -0.025980 2.009450 -0.024940 
#    z -0.014380 -0.024940 2.064380 
# 
# From -- ./inp_files/399072.got.cif
#   From: 2010.06.25/outbox.cif.g09.slc.cpg/sg2_200_cif.got.tgz:399072.got - 2010.06.27 13:26:56.
