data_PCOD8026035
_publ_section_title
;
Structure prediction by ZEFSAII (Michael W. Deem and Ramdas Pophale) SiO2 
 PCOD8026035
Probable space group: P -1
;
_chemical_formula_sum "Si O2"
_cell_formula_units_Z 16
_cell_length_a 5.271067
_cell_length_b 22.040740
_cell_length_c 9.497954
_cell_angle_alpha 43.832574
_cell_angle_beta 117.535457
_cell_angle_gamma 102.372240
_cell_volume 664.743559
_symmetry_space_group_name_H-M "P -1"
_symmetry_group_IT_number 2
_symmetry_cell_setting 'triclinic'
loop_
_space_group_symop_operation_xyz
x,y,z
-x,-y,-z
loop_
_atom_site_type_symbol
_atom_site_label
_atom_site_fract_x
_atom_site_fract_y
_atom_site_fract_z
Si Si1 0.476355 0.868846 0.120577
Si Si2 0.770299 0.675601 0.569859
Si Si3 0.479500 0.602383 0.367930
Si Si4 0.067643 0.896195 0.737773
Si Si5 0.135652 0.404030 0.758197
Si Si6 0.442722 0.665662 0.793226
Si Si7 0.457615 0.841513 0.674061
Si Si8 0.687932 0.032639 0.810438
O O1 0.701136 0.774940 0.319014
O O2 0.482461 0.895542 0.241455
O O3 0.159837 0.869640 0.968700
O O4 0.553521 0.944790 0.909650
O O5 0.642519 0.608057 0.548057
O O6 0.586753 0.678025 0.660878
O O7 0.119773 0.642077 0.733489
O O8 0.500000 0.500000 0.500000
O O9 0.644197 0.650191 0.210922
O O10 0.134244 0.647834 0.203531
O O11 0.328767 0.844730 0.791786
O O12 0.789802 0.850944 0.725962
O O13 0.000000 0.000000 0.500000
O O14 0.000000 0.500000 0.500000
O O15 0.326034 0.411205 0.936355
O O16 0.410498 0.752920 0.733261
O O17 0.277775 0.925919 0.401867
O O18 0.000000 0.000000 0.000000
#
# Coordination Sequence:
#
# PCOD8026035 Si02
#       8
#     2   2   2   2   2   2   2   2
#     4  11  26  40  66  98 137 184 240 286 350 406
#     4  12  26  45  70 109 140 184 239 289 344 429
#     4  10  23  47  74 106 142 179 224 283 354 422
#     4  12  26  44  64  99 133 186 243 294 340 412
#     4  10  23  47  74 104 140 180 226 275 358 425
#     4  12  26  46  71 106 143 182 234 291 353 409
#     4  12  26  43  66  96 141 180 239 289 350 401
#     4  11  23  43  66  90 140 187 229 295 345 406
#
# _framework density 24.069430000000001
#
# number of rings (size 3 to 8) (size 9 to 14) (size 15 to 20)
#    0.000    0.750    2.500    4.125    7.000    0.000 
#    0.000   15.000    0.000    0.000    0.000    0.000 
#    0.000    0.000    0.000    0.000    0.000    0.000 
#
# Total GULP energy -198277.386878 kJ/mol
# GULP energy per Si atom -12392.336680 kJ/mol
# Density = 2.401465 g / cm^3
# Si number density = 24.069430 Si / 1000 Ang^3
#
#
#
# Elastic Constant Matrix: (Units=GPa)
#
#
# Indices 1 2 3 4 5 6 
#
# 1 176.0784 43.9063 27.4361 17.9925 13.3504 3.1516
# 2 43.9063 125.1480 31.9607 15.1184 5.0545 6.4333
# 3 27.4361 31.9607 118.6716 19.1568 25.7655 4.1886
# 4 17.9925 15.1184 19.1568 36.1385 2.5591 5.4848
# 5 13.3504 5.0545 25.7655 2.5591 37.4789 19.0273
# 6 3.1516 6.4333 4.1886 5.4848 19.0273 32.6191
#
#
#
# Elastic Compliance Matrix: (Units=1/GPa)
#
#
# Indices 1 2 3 4 5 6 
#
# 1 0.006620 -0.001987 -0.000042 -0.002520 -0.002815 0.001823
# 2 -0.001987 0.009490 -0.002269 -0.001565 0.002367 -0.002506
# 3 -0.000042 -0.002269 0.012048 -0.005582 -0.010657 0.006060
# 4 -0.002520 -0.001565 -0.005582 0.033320 0.006920 -0.008371
# 5 -0.002815 0.002367 -0.010657 0.006920 0.048609 -0.028345
# 6 0.001823 -0.002506 0.006060 -0.008371 -0.028345 0.048138
#
#
# Mechanical properties :
#
#
# Convention : Reuss Voigt Hill
#
# Bulk Modulus (GPa) = 51.12138 69.61157 60.36648
# Shear Modulus (GPa) = 28.84476 42.35362 35.59919
#
# Velocity S-wave (km/s) = 3.46554 4.19936 3.84998
# Velocity P-wave (km/s) = 6.10726 7.24547 6.70057
#
# Compressibility (1/GPa) = 0.01956129
#
# Stress axis : x y z
#
# Youngs Moduli (GPa) = 151.06599 105.37908 82.99877
#
# Poissons Ratio (x) = 0.20943 0.00345
# Poissons Ratio (y) = 0.30023 0.18833
# Poissons Ratio (z) = 0.00628 0.23912
#
# Static dielectric constant tensor:
#      x y z
#    x 3.546100 0.215090 0.860900 
#    y 0.215090 3.943160 0.025480 
#    z 0.860900 0.025480 4.304100 
# 
# 
# High freq. dielectric constant tensor:
#      x y z
#    x 1.970150 0.002640 0.005890 
#    y 0.002640 1.950490 0.015280 
#    z 0.005890 0.015280 1.961040 
# 
# From -- ./inp_files/141169.got.cif
#   From: 2010.06.25/outbox.cif.g09.slc.cpg/sg2_71_cif.got.tgz:141169.got - 2010.06.27 13:26:56.
