data_PCOD8026604
_publ_section_title
;
Structure prediction by ZEFSAII (Michael W. Deem and Ramdas Pophale) SiO2 
 PCOD8026604
Probable space group: P -1
;
_chemical_formula_sum "Si O2"
_cell_formula_units_Z 16
_cell_length_a 16.020042
_cell_length_b 12.006621
_cell_length_c 5.194196
_cell_angle_alpha 68.898899
_cell_angle_beta 82.456904
_cell_angle_gamma 120.550063
_cell_volume 738.752057
_symmetry_space_group_name_H-M "P -1"
_symmetry_group_IT_number 2
_symmetry_cell_setting 'triclinic'
loop_
_space_group_symop_operation_xyz
x,y,z
-x,-y,-z
loop_
_atom_site_type_symbol
_atom_site_label
_atom_site_fract_x
_atom_site_fract_y
_atom_site_fract_z
Si Si1 0.333997 0.698362 0.798088
Si Si2 0.166495 0.141240 0.918942
Si Si3 0.150019 0.375359 0.002951
Si Si4 0.532001 0.164414 0.864317
Si Si5 0.306400 0.050717 0.049751
Si Si6 0.033244 0.126020 0.582806
Si Si7 0.229238 0.858893 0.743975
Si Si8 0.004213 0.584915 0.177184
O O1 0.254059 0.520069 0.961373
O O2 0.421618 0.756920 0.494458
O O3 0.270405 0.765232 0.716445
O O4 0.383852 0.739723 0.026029
O O5 0.173073 0.258241 0.013420
O O6 0.145210 0.181352 0.617377
O O7 0.272732 0.155838 0.893582
O O8 0.069321 0.961157 0.120985
O O9 0.097954 0.414111 0.771239
O O10 0.056759 0.278763 0.335250
O O11 0.500000 0.000000 0.000000
O O12 0.430062 0.157352 0.977656
O O13 0.241285 0.954666 0.409960
O O14 0.295133 0.956522 0.883854
O O15 0.000000 0.000000 0.500000
O O16 0.109540 0.753130 0.978032
O O17 0.000000 0.500000 0.500000
O O18 0.000000 0.500000 0.000000
#
# Coordination Sequence:
#
# PCOD8026604 Si02
#       8
#     2   2   2   2   2   2   2   2
#     4  12  25  44  71 101 134 182 223 283 358 405
#     4  10  24  42  70  98 134 186 228 274 337 402
#     4  11  26  43  67  97 147 179 220 279 338 417
#     4  12  24  46  69 101 132 176 234 291 347 398
#     4  12  26  43  72  98 134 173 238 292 331 402
#     4   9  21  43  65  96 130 184 229 264 325 407
#     4  12  24  42  68 103 136 175 226 281 344 406
#     4  12  27  41  63 102 142 177 215 263 341 417
#
# _framework density 21.658145000000001
#
# number of rings (size 3 to 8) (size 9 to 14) (size 15 to 20)
#    0.000    0.750    3.750    2.625   14.000    0.000 
#    0.000    1.250    0.000    0.000    0.000    0.000 
#    0.000    0.000    0.000    0.000    0.000    0.000 
#
# Total GULP energy -198317.794170 kJ/mol
# GULP energy per Si atom -12394.862136 kJ/mol
# Density = 2.160885 g / cm^3
# Si number density = 21.658145 Si / 1000 Ang^3
#
#
#
# Elastic Constant Matrix: (Units=GPa)
#
#
# Indices 1 2 3 4 5 6 
#
# 1 131.2599 39.1740 15.1629 -11.2111 9.5244 1.6198
# 2 39.1740 114.2629 46.4139 -9.0771 5.2238 12.5896
# 3 15.1629 46.4139 105.2589 5.0092 3.5971 0.8081
# 4 -11.2111 -9.0771 5.0092 36.3475 4.7586 3.5651
# 5 9.5244 5.2238 3.5971 4.7586 31.8226 1.4367
# 6 1.6198 12.5896 0.8081 3.5651 1.4367 30.8627
#
#
#
# Elastic Compliance Matrix: (Units=1/GPa)
#
#
# Indices 1 2 3 4 5 6 
#
# 1 0.008826 -0.002743 -0.000089 0.002334 -0.002553 0.000507
# 2 -0.002743 0.012794 -0.005349 0.003738 -0.000993 -0.005320
# 3 -0.000089 -0.005349 0.012011 -0.003230 -0.000071 0.002249
# 4 0.002334 0.003738 -0.003230 0.030786 -0.005331 -0.004871
# 5 -0.002553 -0.000993 -0.000071 -0.005331 0.033174 -0.000388
# 6 0.000507 -0.005320 0.002249 -0.004871 -0.000388 0.035067
#
#
# Mechanical properties :
#
#
# Convention : Reuss Voigt Hill
#
# Bulk Modulus (GPa) = 57.91601 61.36481 59.64041
# Shear Modulus (GPa) = 32.30439 36.47527 34.38983
#
# Velocity S-wave (km/s) = 3.86626 4.10827 3.98910
# Velocity P-wave (km/s) = 6.83591 7.13434 6.98672
#
# Compressibility (1/GPa) = 0.01726638
#
# Stress axis : x y z
#
# Youngs Moduli (GPa) = 113.30317 78.16335 83.25743
#
# Poissons Ratio (x) = 0.21443 0.00745
# Poissons Ratio (y) = 0.31083 0.44537
# Poissons Ratio (z) = 0.01013 0.41812
#
# Static dielectric constant tensor:
#      x y z
#    x 4.190140 0.106520 -0.081940 
#    y 0.106520 4.007190 -0.148840 
#    z -0.081940 -0.148840 4.600820 
# 
# 
# High freq. dielectric constant tensor:
#      x y z
#    x 1.843550 0.007380 0.010560 
#    y 0.007380 1.851310 0.011660 
#    z 0.010560 0.011660 1.856430 
# 
# From -- ./inp_files/94451.got.cif
#   From: 2010.06.25/outbox.cif.g09.slc.cpg/sg2_48_cif.got.tgz:94451.got - 2010.06.27 13:26:56.
