data_PCOD8026985
_publ_section_title
;
Structure prediction by ZEFSAII (Michael W. Deem and Ramdas Pophale) SiO2 
 PCOD8026985
Probable space group: P -1
;
_chemical_formula_sum "Si O2"
_cell_formula_units_Z 14
_cell_length_a 5.034925
_cell_length_b 22.832696
_cell_length_c 9.102272
_cell_angle_alpha 39.505902
_cell_angle_beta 56.890477
_cell_angle_gamma 58.562207
_cell_volume 547.661502
_symmetry_space_group_name_H-M "P -1"
_symmetry_group_IT_number 2
_symmetry_cell_setting 'triclinic'
loop_
_space_group_symop_operation_xyz
x,y,z
-x,-y,-z
loop_
_atom_site_type_symbol
_atom_site_label
_atom_site_fract_x
_atom_site_fract_y
_atom_site_fract_z
Si Si1 0.778569 0.524914 0.774286
Si Si2 0.601816 0.277976 0.499577
Si Si3 0.942228 0.939262 0.894995
Si Si4 0.509969 0.880623 0.372701
Si Si5 0.528895 0.553171 0.238397
Si Si6 0.741252 0.742576 0.810302
Si Si7 0.407515 0.167800 0.019982
O O1 0.697927 0.636059 0.559760
O O2 0.758359 0.467940 0.738169
O O3 0.107777 0.494915 0.823938
O O4 0.500000 0.500000 0.000000
O O5 0.504762 0.209459 0.542783
O O6 0.630748 0.230222 0.744060
O O7 0.933965 0.304508 0.285819
O O8 0.828802 0.045568 0.665165
O O9 0.784046 0.931561 0.119766
O O10 0.841916 0.866668 0.948108
O O11 0.329905 0.919770 0.828316
O O12 0.589876 0.841225 0.587891
O O13 0.500000 0.500000 0.500000
O O14 0.506806 0.665715 0.034108
O O15 0.796265 0.772049 0.905026
#
# Coordination Sequence:
#
# PCOD8026985 Si02
#       7
#     2   2   2   2   2   2   2
#     4  12  25  46  73 100 139 186 231 288 356 417
#     4  11  25  45  70 101 141 182 235 286 347 413
#     4  10  24  46  69 102 140 182 227 282 351 408
#     4  10  24  43  74  98 140 182 230 285 344 412
#     4  12  28  47  71 105 142 183 234 293 350 417
#     4  12  26  44  72 103 137 184 236 285 347 416
#     4  11  26  44  69 101 141 182 227 287 344 410
#
# _framework density 25.563234999999999
#
# number of rings (size 3 to 8) (size 9 to 14) (size 15 to 20)
#    0.000    0.857    2.857    2.571    6.000    5.143 
#    0.000    0.000    0.000    0.000    0.000    0.000 
#    0.000    0.000    0.000    0.000    0.000    0.000 
#
# Total GULP energy -173534.492327 kJ/mol
# GULP energy per Si atom -12395.320880 kJ/mol
# Density = 2.550505 g / cm^3
# Si number density = 25.563235 Si / 1000 Ang^3
#
#
#
# Elastic Constant Matrix: (Units=GPa)
#
#
# Indices 1 2 3 4 5 6 
#
# 1 51.2905 -8.2768 -7.5376 4.5142 7.2139 -8.5093
# 2 -8.2768 118.8726 49.4357 -12.3444 9.7495 8.4797
# 3 -7.5376 49.4357 116.6409 -2.3485 6.5830 7.7392
# 4 4.5142 -12.3444 -2.3485 52.7846 0.6831 8.3213
# 5 7.2139 9.7495 6.5830 0.6831 29.9690 -2.2060
# 6 -8.5093 8.4797 7.7392 8.3213 -2.2060 43.1803
#
#
#
# Elastic Compliance Matrix: (Units=1/GPa)
#
#
# Indices 1 2 3 4 5 6 
#
# 1 0.021400 0.001036 0.000940 -0.002104 -0.005354 0.003977
# 2 0.001036 0.010883 -0.004198 0.002599 -0.003062 -0.001838
# 3 0.000940 -0.004198 0.010530 -0.000443 -0.001226 -0.000855
# 4 -0.002104 0.002599 -0.000443 0.020491 -0.001066 -0.004849
# 5 -0.005354 -0.003062 -0.001226 -0.001066 0.036080 0.001815
# 6 0.003977 -0.001838 -0.000855 -0.004849 0.001815 0.025484
#
#
# Mechanical properties :
#
#
# Convention : Reuss Voigt Hill
#
# Bulk Modulus (GPa) = 26.06316 39.33851 32.70084
# Shear Modulus (GPa) = 35.18591 42.06562 38.62576
#
# Velocity S-wave (km/s) = 3.71405 4.06094 3.89136
# Velocity P-wave (km/s) = 5.34882 6.11641 5.74545
#
# Compressibility (1/GPa) = 0.03836833
#
# Stress axis : x y z
#
# Youngs Moduli (GPa) = 46.72867 91.88988 94.96291
#
# Poissons Ratio (x) = -0.09522 -0.08924
# Poissons Ratio (y) = -0.04842 0.39868
# Poissons Ratio (z) = -0.04391 0.38578
#
# Static dielectric constant tensor:
#      x y z
#    x 3.822170 -0.022870 0.140010 
#    y -0.022870 4.424940 0.074740 
#    z 0.140010 0.074740 5.090760 
# 
# 
# High freq. dielectric constant tensor:
#      x y z
#    x 2.007410 -0.000520 0.010880 
#    y -0.000520 2.019450 -0.002650 
#    z 0.010880 -0.002650 2.035420 
# 
# From -- ./inp_files/88120.got.cif
#   From: 2010.06.25/outbox.cif.g09.slc.cpg/sg2_45_cif.got.tgz:88120.got - 2010.06.27 13:26:56.
