data_PCOD8026967
_publ_section_title
;
Structure prediction by ZEFSAII (Michael W. Deem and Ramdas Pophale) SiO2 
 PCOD8026967
Probable space group: P -1
;
_chemical_formula_sum "Si O2"
_cell_formula_units_Z 16
_cell_length_a 10.693787
_cell_length_b 8.700423
_cell_length_c 15.310243
_cell_angle_alpha 43.799833
_cell_angle_beta 131.680134
_cell_angle_gamma 138.493403
_cell_volume 628.873637
_symmetry_space_group_name_H-M "P -1"
_symmetry_group_IT_number 2
_symmetry_cell_setting 'triclinic'
loop_
_space_group_symop_operation_xyz
x,y,z
-x,-y,-z
loop_
_atom_site_type_symbol
_atom_site_label
_atom_site_fract_x
_atom_site_fract_y
_atom_site_fract_z
Si Si1 0.494628 0.652344 0.352201
Si Si2 0.729216 0.485338 0.054251
Si Si3 0.766787 0.332008 0.469719
Si Si4 0.186331 0.608521 0.338261
Si Si5 0.359260 0.434292 0.836022
Si Si6 0.961800 0.012898 0.869261
Si Si7 0.769018 0.830913 0.678167
Si Si8 0.098952 0.853363 0.709771
O O1 0.500000 0.500000 0.500000
O O2 0.348998 0.746903 0.279949
O O3 0.400039 0.461185 0.304284
O O4 0.710134 0.881058 0.337751
O O5 0.640343 0.406394 0.143138
O O6 0.830193 0.325993 0.136671
O O7 0.557380 0.426450 0.930058
O O8 0.896326 0.799929 0.004803
O O9 0.716253 0.369358 0.530648
O O10 0.655065 0.420847 0.315961
O O11 0.000000 0.500000 0.500000
O O12 0.696226 0.031659 0.540096
O O13 0.036362 0.301662 0.373148
O O14 0.057155 0.739248 0.221922
O O15 0.180878 0.133762 0.883221
O O16 0.804345 0.835911 0.795291
O O17 0.974245 0.919809 0.689222
#
# Coordination Sequence:
#
# PCOD8026967 Si02
#       8
#     2   2   2   2   2   2   2   2
#     4  11  28  40  67 103 144 183 229 278 348 422
#     4  11  26  42  68 104 141 183 230 280 338 422
#     4  11  21  44  77 104 137 176 229 295 355 391
#     4  10  24  43  73 105 134 182 229 292 347 405
#     4  11  24  41  71 104 139 178 225 287 346 402
#     4  11  23  44  73 102 135 178 235 289 342 396
#     4  10  26  46  71 104 139 183 228 287 351 410
#     4  11  25  48  69 100 146 186 226 276 351 416
#
# _framework density 25.442312999999999
#
# number of rings (size 3 to 8) (size 9 to 14) (size 15 to 20)
#    0.000    1.250    3.750    0.375    8.750    4.500 
#    0.000    6.250    0.000    0.000    0.000    0.000 
#    0.000    0.000    0.000    0.000    0.000    0.000 
#
# Total GULP energy -198419.155875 kJ/mol
# GULP energy per Si atom -12401.197242 kJ/mol
# Density = 2.538441 g / cm^3
# Si number density = 25.442313 Si / 1000 Ang^3
#
#
#
# Elastic Constant Matrix: (Units=GPa)
#
#
# Indices 1 2 3 4 5 6 
#
# 1 89.0889 49.9222 28.7816 1.7797 6.2672 -1.6931
# 2 49.9222 129.7388 34.8423 -6.6224 -1.3329 6.5163
# 3 28.7816 34.8423 138.3298 11.6223 3.4230 0.5958
# 4 1.7797 -6.6224 11.6223 37.4931 8.4737 -6.2582
# 5 6.2672 -1.3329 3.4230 8.4737 35.6546 7.7348
# 6 -1.6931 6.5163 0.5958 -6.2582 7.7348 41.9051
#
#
#
# Elastic Compliance Matrix: (Units=1/GPa)
#
#
# Indices 1 2 3 4 5 6 
#
# 1 0.015113 -0.005505 -0.001679 -0.000123 -0.003116 0.002047
# 2 -0.005505 0.010489 -0.001693 0.002016 0.001432 -0.001793
# 3 -0.001679 -0.001693 0.008244 -0.002888 0.000212 -0.000392
# 4 -0.000123 0.002016 -0.002888 0.030755 -0.008199 0.005829
# 5 -0.003116 0.001432 0.000212 -0.008199 0.032208 -0.007521
# 6 0.002047 -0.001793 -0.000392 0.005829 -0.007521 0.026489
#
#
# Mechanical properties :
#
#
# Convention : Reuss Voigt Hill
#
# Bulk Modulus (GPa) = 62.15204 64.91663 63.53433
# Shear Modulus (GPa) = 34.14901 39.25133 36.70017
#
# Velocity S-wave (km/s) = 3.66760 3.93206 3.80213
# Velocity P-wave (km/s) = 6.51281 6.79598 6.65590
#
# Compressibility (1/GPa) = 0.01608958
#
# Stress axis : x y z
#
# Youngs Moduli (GPa) = 66.16890 95.34077 121.29845
#
# Poissons Ratio (x) = 0.52490 0.20367
# Poissons Ratio (y) = 0.36429 0.20542
# Poissons Ratio (z) = 0.11110 0.16146
#
# Static dielectric constant tensor:
#      x y z
#    x -48.374100 -21.376080 0.842180 
#    y -21.376080 -3.922030 0.516420 
#    z 0.842180 0.516420 4.632830 
# 
# 
# High freq. dielectric constant tensor:
#      x y z
#    x 2.021270 0.013050 0.006600 
#    y 0.013050 2.026250 0.019820 
#    z 0.006600 0.019820 2.017310 
# 
# From -- ./inp_files/515098.got.cif
#   From: 2010.06.25/outbox.cif.g09.slc.cpg/sg2_258_cif.got.tgz:515098.got - 2010.06.27 13:26:56.
