data_PCOD8026045
_publ_section_title
;
Structure prediction by ZEFSAII (Michael W. Deem and Ramdas Pophale) SiO2 
 PCOD8026045
Probable space group: P -1
;
_chemical_formula_sum "Si O2"
_cell_formula_units_Z 12
_cell_length_a 12.362357
_cell_length_b 5.365408
_cell_length_c 15.956895
_cell_angle_alpha 120.823541
_cell_angle_beta 142.207095
_cell_angle_gamma 81.411039
_cell_volume 486.895163
_symmetry_space_group_name_H-M "P -1"
_symmetry_group_IT_number 2
_symmetry_cell_setting 'triclinic'
loop_
_space_group_symop_operation_xyz
x,y,z
-x,-y,-z
loop_
_atom_site_type_symbol
_atom_site_label
_atom_site_fract_x
_atom_site_fract_y
_atom_site_fract_z
Si Si1 0.815961 0.662411 0.174226
Si Si2 0.136655 0.405584 0.510347
Si Si3 0.453429 0.833185 0.354040
Si Si4 0.824728 0.395022 0.617683
Si Si5 0.229029 0.189912 0.202379
Si Si6 0.560478 0.371612 0.126717
O O1 0.724035 0.614915 0.202353
O O2 0.933444 0.456361 0.190054
O O3 0.639665 0.586410 0.986639
O O4 0.005052 0.022272 0.345275
O O5 0.202209 0.592085 0.495252
O O6 0.348348 0.525149 0.708092
O O7 0.000000 0.500000 0.500000
O O8 0.352798 0.438399 0.243547
O O9 0.500000 0.000000 0.500000
O O10 0.676125 0.997960 0.475808
O O11 0.308561 0.929792 0.226549
O O12 0.750267 0.608855 0.663552
O O13 0.000000 0.000000 0.000000
O O14 0.500000 0.000000 0.000000
#
# Coordination Sequence:
#
# PCOD8026045 Si02
#       6
#     2   2   2   2   2   2
#     4  11  24  42  69  98 140 189 244 288 351 423
#     4  12  24  44  67 100 144 190 233 291 357 424
#     4  10  23  47  75 102 140 188 236 298 369 434
#     4  11  25  43  71 101 136 191 238 287 364 434
#     4  11  25  50  75 106 147 180 240 312 366 428
#     4  11  23  45  66  96 142 188 239 296 345 417
#
# _framework density 24.645962000000001
#
# number of rings (size 3 to 8) (size 9 to 14) (size 15 to 20)
#    0.000    1.000    3.333    3.000    7.000    0.000 
#    9.000    0.000    0.000    0.000    0.000    0.000 
#    0.000    0.000    0.000    0.000    0.000    0.000 
#
# Total GULP energy -148715.354424 kJ/mol
# GULP energy per Si atom -12392.946202 kJ/mol
# Density = 2.458987 g / cm^3
# Si number density = 24.645962 Si / 1000 Ang^3
#
#
#
# Elastic Constant Matrix: (Units=GPa)
#
#
# Indices 1 2 3 4 5 6 
#
# 1 111.8937 36.9439 49.4885 -16.3431 21.1050 24.7292
# 2 36.9439 115.6984 41.9301 -20.2991 14.3561 35.6325
# 3 49.4885 41.9301 141.1374 -32.7475 33.5196 25.2296
# 4 -16.3431 -20.2991 -32.7475 51.9512 -7.8460 10.1526
# 5 21.1050 14.3561 33.5196 -7.8460 42.5728 -5.2230
# 6 24.7292 35.6325 25.2296 10.1526 -5.2230 47.1470
#
#
#
# Elastic Compliance Matrix: (Units=1/GPa)
#
#
# Indices 1 2 3 4 5 6 
#
# 1 0.012717 0.000159 -0.000621 0.004332 -0.006060 -0.008062
# 2 0.000159 0.015001 0.001922 0.009052 -0.006842 -0.015156
# 3 -0.000621 0.001922 0.013663 0.009844 -0.010725 -0.011746
# 4 0.004332 0.009052 0.009844 0.033326 -0.009583 -0.022619
# 5 -0.006060 -0.006842 -0.010725 -0.009583 0.037976 0.020359
# 6 -0.008062 -0.015156 -0.011746 -0.022619 0.020359 0.050306
#
#
# Mechanical properties :
#
#
# Convention : Reuss Voigt Hill
#
# Bulk Modulus (GPa) = 22.57267 69.49495 46.03381
# Shear Modulus (GPa) = 28.59859 44.35867 36.47863
#
# Velocity S-wave (km/s) = 3.41012 4.24705 3.85139
# Velocity P-wave (km/s) = 4.96829 7.23246 6.20453
#
# Compressibility (1/GPa) = 0.04430135
#
# Stress axis : x y z
#
# Youngs Moduli (GPa) = 78.63797 66.66421 73.19153
#
# Poissons Ratio (x) = -0.01063 0.04544
# Poissons Ratio (y) = -0.01253 -0.14069
# Poissons Ratio (z) = 0.04882 -0.12814
#
# Static dielectric constant tensor:
#      x y z
#    x 4.536810 -0.056820 0.265740 
#    y -0.056820 4.048530 -0.297470 
#    z 0.265740 -0.297470 4.580520 
# 
# 
# High freq. dielectric constant tensor:
#      x y z
#    x 1.984250 0.011500 0.025440 
#    y 0.011500 1.983830 -0.010330 
#    z 0.025440 -0.010330 1.988960 
# 
# From -- ./inp_files/35701.got.cif
#   From: 2010.06.25/outbox.cif.g09.slc.cpg/sg2_18_cif.got.tgz:35701.got - 2010.06.27 13:26:56.
