data_PCOD8026504
_publ_section_title
;
Structure prediction by ZEFSAII (Michael W. Deem and Ramdas Pophale) SiO2 
 PCOD8026504
Probable space group: P -1
;
_chemical_formula_sum "Si O2"
_cell_formula_units_Z 16
_cell_length_a 8.125713
_cell_length_b 15.436356
_cell_length_c 10.707263
_cell_angle_alpha 54.441052
_cell_angle_beta 42.775069
_cell_angle_gamma 72.590797
_cell_volume 721.908744
_symmetry_space_group_name_H-M "P -1"
_symmetry_group_IT_number 2
_symmetry_cell_setting 'triclinic'
loop_
_space_group_symop_operation_xyz
x,y,z
-x,-y,-z
loop_
_atom_site_type_symbol
_atom_site_label
_atom_site_fract_x
_atom_site_fract_y
_atom_site_fract_z
Si Si1 0.557698 0.183911 0.303063
Si Si2 0.427518 0.297514 0.871126
Si Si3 0.624439 0.539420 0.032336
Si Si4 0.068310 0.332538 0.831992
Si Si5 0.708001 0.664566 0.541176
Si Si6 0.752362 0.018391 0.487880
Si Si7 0.299658 0.043108 0.157343
Si Si8 0.063838 0.577706 0.596445
O O1 0.340292 0.239303 0.424823
O O2 0.661334 0.124751 0.408269
O O3 0.441374 0.093938 0.341662
O O4 0.777526 0.275374 0.043430
O O5 0.191998 0.319740 0.907323
O O6 0.669916 0.338106 0.615871
O O7 0.458892 0.361286 0.933389
O O8 0.400816 0.170942 0.022034
O O9 0.918916 0.580778 0.806339
O O10 0.500000 0.500000 0.000000
O O11 0.548485 0.430806 0.252109
O O12 0.202349 0.281116 0.688353
O O13 0.104542 0.456428 0.661543
O O14 0.915539 0.609745 0.533936
O O15 0.022703 0.024148 0.266965
O O16 0.755337 0.027628 0.627209
O O17 0.500000 0.000000 0.000000
#
# Coordination Sequence:
#
# PCOD8026504 Si02
#       8
#     2   2   2   2   2   2   2   2
#     4  11  25  46  73 100 141 185 234 296 345 403
#     4  12  27  44  69 104 144 188 223 291 354 411
#     4  10  24  42  67 101 138 183 230 274 346 423
#     4  12  25  44  67 104 146 182 232 286 347 426
#     4  11  25  40  71 102 138 187 235 278 347 421
#     4  10  26  49  71 102 137 184 241 295 346 407
#     4  11  27  47  74 104 141 181 241 288 351 412
#     4  11  25  41  68 101 143 181 230 280 345 425
#
# _framework density 22.163468000000002
#
# number of rings (size 3 to 8) (size 9 to 14) (size 15 to 20)
#    0.000    1.000    3.750    0.750   10.500    2.500 
#    0.000    2.500    0.000    0.000    0.000    0.000 
#    0.000    0.000    0.000    0.000    0.000    0.000 
#
# Total GULP energy -198361.114347 kJ/mol
# GULP energy per Si atom -12397.569647 kJ/mol
# Density = 2.211302 g / cm^3
# Si number density = 22.163468 Si / 1000 Ang^3
#
#
#
# Elastic Constant Matrix: (Units=GPa)
#
#
# Indices 1 2 3 4 5 6 
#
# 1 61.8039 30.0345 20.6110 1.5220 -2.4301 -2.3135
# 2 30.0345 98.9429 32.0968 10.7749 8.7804 -4.8840
# 3 20.6110 32.0968 113.1874 9.0752 -13.7660 1.4442
# 4 1.5220 10.7749 9.0752 44.8630 -0.8546 2.0222
# 5 -2.4301 8.7804 -13.7660 -0.8546 32.4715 3.3984
# 6 -2.3135 -4.8840 1.4442 2.0222 3.3984 25.0547
#
#
#
# Elastic Compliance Matrix: (Units=1/GPa)
#
#
# Indices 1 2 3 4 5 6 
#
# 1 0.019606 -0.005667 -0.001784 0.001080 0.002228 0.000419
# 2 -0.005667 0.013973 -0.003500 -0.002728 -0.006119 0.003452
# 3 -0.001784 -0.003500 0.010956 -0.001110 0.005654 -0.002156
# 4 0.001080 -0.002728 -0.001110 0.023265 0.001212 -0.002410
# 5 0.002228 -0.006119 0.005654 0.001212 0.035701 -0.006253
# 6 0.000419 0.003452 -0.002156 -0.002410 -0.006253 0.041791
#
#
# Mechanical properties :
#
#
# Convention : Reuss Voigt Hill
#
# Bulk Modulus (GPa) = 44.18383 48.82432 46.50408
# Shear Modulus (GPa) = 28.61391 33.22397 30.91894
#
# Velocity S-wave (km/s) = 3.59700 3.87595 3.73908
# Velocity P-wave (km/s) = 6.10163 6.48904 6.29832
#
# Compressibility (1/GPa) = 0.02263272
#
# Stress axis : x y z
#
# Youngs Moduli (GPa) = 51.00468 71.56589 91.27020
#
# Poissons Ratio (x) = 0.40560 0.16283
# Poissons Ratio (y) = 0.28907 0.31944
# Poissons Ratio (z) = 0.09100 0.25048
#
# Static dielectric constant tensor:
#      x y z
#    x 3.823130 -0.141960 -0.111740 
#    y -0.141960 3.857390 0.124070 
#    z -0.111740 0.124070 4.468780 
# 
# 
# High freq. dielectric constant tensor:
#      x y z
#    x 1.856580 -0.009200 -0.000690 
#    y -0.009200 1.865170 0.003430 
#    z -0.000690 0.003430 1.895670 
# 
# From -- ./inp_files/398527.got.cif
#   From: 2010.06.25/outbox.cif.g09.slc.cpg/sg2_200_cif.got.tgz:398527.got - 2010.06.27 13:26:56.
