data_PCOD8026717
_publ_section_title
;
Structure prediction by ZEFSAII (Michael W. Deem and Ramdas Pophale) SiO2 
 PCOD8026717
Probable space group: P -1
;
_chemical_formula_sum "Si O2"
_cell_formula_units_Z 16
_cell_length_a 18.895635
_cell_length_b 8.084546
_cell_length_c 5.564100
_cell_angle_alpha 62.237437
_cell_angle_beta 58.537523
_cell_angle_gamma 66.075812
_cell_volume 626.536071
_symmetry_space_group_name_H-M "P -1"
_symmetry_group_IT_number 2
_symmetry_cell_setting 'triclinic'
loop_
_space_group_symop_operation_xyz
x,y,z
-x,-y,-z
loop_
_atom_site_type_symbol
_atom_site_label
_atom_site_fract_x
_atom_site_fract_y
_atom_site_fract_z
Si Si1 0.890199 0.593552 0.296862
Si Si2 0.801796 0.713694 0.876540
Si Si3 0.349349 0.305639 0.121558
Si Si4 0.668240 0.325332 0.818029
Si Si5 0.978540 0.191124 0.247478
Si Si6 0.317972 0.958051 0.636060
Si Si7 0.532428 0.314493 0.721702
Si Si8 0.814215 0.109677 0.426871
O O1 0.842030 0.611287 0.625774
O O2 0.948378 0.378651 0.343122
O O3 0.833648 0.609735 0.140448
O O4 0.943871 0.762524 0.078420
O O5 0.700228 0.721301 0.020019
O O6 0.820144 0.926212 0.715419
O O7 0.324245 0.528602 0.082125
O O8 0.317511 0.182747 0.473940
O O9 0.450606 0.226086 0.976667
O O10 0.575558 0.394768 0.819059
O O11 0.749398 0.298152 0.519428
O O12 0.668791 0.115495 0.068534
O O13 0.905554 0.163635 0.205874
O O14 0.000000 0.000000 0.500000
O O15 0.393517 0.847698 0.408725
O O16 0.224523 0.934392 0.730328
O O17 0.500000 0.500000 0.500000
#
# Coordination Sequence:
#
# PCOD8026717 Si02
#       8
#     2   2   2   2   2   2   2   2
#     4  11  27  50  71 110 149 187 241 296 359 431
#     4  11  26  49  74 106 148 190 240 295 359 430
#     4  11  24  42  72 101 134 191 233 292 355 419
#     4  11  24  45  67  98 140 182 234 292 356 420
#     4  11  24  47  76 107 143 194 235 299 359 429
#     4  10  24  43  65  98 138 184 232 297 349 430
#     4  11  23  44  65 100 142 178 240 292 352 422
#     4  10  24  45  69 102 139 184 238 293 353 432
#
# _framework density 25.537237999999999
#
# number of rings (size 3 to 8) (size 9 to 14) (size 15 to 20)
#    0.000    1.250    2.500    1.500    5.250    4.000 
#    9.000    0.000    0.000    0.000    0.000    0.000 
#    0.000    0.000    0.000    0.000    0.000    0.000 
#
# Total GULP energy -198295.621032 kJ/mol
# GULP energy per Si atom -12393.476315 kJ/mol
# Density = 2.547911 g / cm^3
# Si number density = 25.537238 Si / 1000 Ang^3
#
#
#
# Elastic Constant Matrix: (Units=GPa)
#
#
# Indices 1 2 3 4 5 6 
#
# 1 172.8158 18.0812 66.3310 -9.5210 -15.7908 -1.4401
# 2 18.0812 81.6043 24.0964 -12.3096 3.3401 -3.1256
# 3 66.3310 24.0964 71.9747 -9.9208 9.1358 5.2544
# 4 -9.5210 -12.3096 -9.9208 42.9112 -0.1203 2.5439
# 5 -15.7908 3.3401 9.1358 -0.1203 41.2742 -9.1717
# 6 -1.4401 -3.1256 5.2544 2.5439 -9.1717 31.3896
#
#
#
# Elastic Compliance Matrix: (Units=1/GPa)
#
#
# Indices 1 2 3 4 5 6 
#
# 1 0.010950 0.000870 -0.011771 -0.000309 0.007805 0.004865
# 2 0.000870 0.014152 -0.005440 0.002855 0.000933 0.002401
# 3 -0.011771 -0.005440 0.029349 0.003169 -0.012768 -0.009982
# 4 -0.000309 0.002855 0.003169 0.024946 -0.001588 -0.002746
# 5 0.007805 0.000933 -0.012768 -0.001588 0.032686 0.012268
# 6 0.004865 0.002401 -0.009982 -0.002746 0.012268 0.037798
#
#
# Mechanical properties :
#
#
# Convention : Reuss Voigt Hill
#
# Bulk Modulus (GPa) = 45.93575 60.37912 53.15743
# Shear Modulus (GPa) = 26.34067 37.64074 31.99070
#
# Velocity S-wave (km/s) = 3.21512 3.84338 3.54320
# Velocity P-wave (km/s) = 5.63999 6.58713 6.13187
#
# Compressibility (1/GPa) = 0.02176954
#
# Stress axis : x y z
#
# Youngs Moduli (GPa) = 91.32243 70.65986 34.07224
#
# Poissons Ratio (x) = -0.06147 0.40107
# Poissons Ratio (y) = -0.07944 0.18535
# Poissons Ratio (z) = 1.07497 0.38438
#
# Static dielectric constant tensor:
#      x y z
#    x 5.566030 -0.552500 -0.666890 
#    y -0.552500 4.899880 0.056180 
#    z -0.666890 0.056180 4.648120 
# 
# 
# High freq. dielectric constant tensor:
#      x y z
#    x 2.032270 -0.010010 -0.012080 
#    y -0.010010 2.030650 -0.012730 
#    z -0.012080 -0.012730 2.000440 
# 
# From -- ./inp_files/106198.got.cif
#   From: 2010.06.25/outbox.cif.g09.slc.cpg/sg2_54_cif.got.tgz:106198.got - 2010.06.27 13:26:56.
