data_PCOD8026279
_publ_section_title
;
Structure prediction by ZEFSAII (Michael W. Deem and Ramdas Pophale) SiO2 
 PCOD8026279
Probable space group: P -1
;
_chemical_formula_sum "Si O2"
_cell_formula_units_Z 16
_cell_length_a 9.572789
_cell_length_b 6.536482
_cell_length_c 25.935387
_cell_angle_alpha 130.006586
_cell_angle_beta 140.246790
_cell_angle_gamma 45.728230
_cell_volume 722.822988
_symmetry_space_group_name_H-M "P -1"
_symmetry_group_IT_number 2
_symmetry_cell_setting 'triclinic'
loop_
_space_group_symop_operation_xyz
x,y,z
-x,-y,-z
loop_
_atom_site_type_symbol
_atom_site_label
_atom_site_fract_x
_atom_site_fract_y
_atom_site_fract_z
Si Si1 0.041110 0.556759 0.580449
Si Si2 0.369718 0.957706 0.121387
Si Si3 0.633599 0.426457 0.472990
Si Si4 0.796482 0.738486 0.778551
Si Si5 0.915459 0.392882 0.008652
Si Si6 0.276215 0.427830 0.912434
Si Si7 0.257942 0.840329 0.361543
Si Si8 0.521433 0.072396 0.661899
O O1 0.902149 0.403043 0.549919
O O2 0.000000 0.500000 0.500000
O O3 0.320430 0.406793 0.653456
O O4 0.945483 0.904334 0.621339
O O5 0.620409 0.849025 0.142630
O O6 0.382839 0.153716 0.205384
O O7 0.306592 0.691932 0.082223
O O8 0.155661 0.116179 0.046903
O O9 0.500000 0.500000 0.500000
O O10 0.502535 0.694903 0.439826
O O11 0.627742 0.124460 0.404307
O O12 0.824841 0.417696 0.716788
O O13 0.061784 0.696560 0.865565
O O14 0.699857 0.993199 0.748860
O O15 0.830511 0.622938 0.070996
O O16 0.000000 0.500000 0.000000
O O17 0.500000 0.500000 0.000000
O O18 0.308500 0.996658 0.351074
#
# Coordination Sequence:
#
# PCOD8026279 Si02
#       8
#     2   2   2   2   2   2   2   2
#     4  12  23  41  70  96 126 169 221 269 315 386
#     4   9  19  38  59  87 125 162 209 257 313 382
#     4  11  21  42  68  92 128 168 213 269 322 375
#     4  10  24  41  62  90 134 175 207 268 330 386
#     4   9  18  34  62  96 122 157 205 264 315 371
#     4   9  19  40  66  92 124 164 214 264 312 378
#     4  11  24  42  60  95 136 166 213 273 326 378
#     4  11  24  41  62  95 129 170 212 266 328 382
#
# _framework density 22.135432000000002
#
# number of rings (size 3 to 8) (size 9 to 14) (size 15 to 20)
#    0.000    1.750    2.500    2.250    0.000    4.500 
#    0.000    2.500    0.000    0.000    0.000    0.000 
#    0.000    0.000    0.000    0.000    0.000    0.000 
#
# Total GULP energy -198219.398544 kJ/mol
# GULP energy per Si atom -12388.712409 kJ/mol
# Density = 2.208505 g / cm^3
# Si number density = 22.135432 Si / 1000 Ang^3
#
#
#
# Elastic Constant Matrix: (Units=GPa)
#
#
# Indices 1 2 3 4 5 6 
#
# 1 146.0772 48.2344 42.5935 -9.7599 -30.3930 -13.5652
# 2 48.2344 110.4943 47.0717 -6.8049 -18.1574 -18.8106
# 3 42.5935 47.0717 93.3692 -17.2815 -21.9169 -8.8240
# 4 -9.7599 -6.8049 -17.2815 37.5862 -3.0733 -4.0794
# 5 -30.3930 -18.1574 -21.9169 -3.0733 33.3547 5.1712
# 6 -13.5652 -18.8106 -8.8240 -4.0794 5.1712 44.5768
#
#
#
# Elastic Compliance Matrix: (Units=1/GPa)
#
#
# Indices 1 2 3 4 5 6 
#
# 1 0.009590 -0.002257 -0.001112 0.002253 0.006806 0.001162
# 2 -0.002257 0.012929 -0.004849 0.000024 0.001229 0.003669
# 3 -0.001112 -0.004849 0.016994 0.007386 0.008083 0.000718
# 4 0.002253 0.000024 0.007386 0.031779 0.009227 0.003995
# 5 0.006806 0.001229 0.008083 0.009227 0.043006 0.000045
# 6 0.001162 0.003669 0.000718 0.003995 0.000045 0.024837
#
#
# Mechanical properties :
#
#
# Convention : Reuss Voigt Hill
#
# Bulk Modulus (GPa) = 43.33470 69.52666 56.43068
# Shear Modulus (GPa) = 30.62509 37.23961 33.93235
#
# Velocity S-wave (km/s) = 3.72362 4.10610 3.91953
# Velocity P-wave (km/s) = 6.17306 7.34561 6.78471
#
# Compressibility (1/GPa) = 0.02307619
#
# Stress axis : x y z
#
# Youngs Moduli (GPa) = 104.27614 77.34360 58.84324
#
# Poissons Ratio (x) = 0.17460 0.06545
# Poissons Ratio (y) = 0.23540 0.28533
# Poissons Ratio (z) = 0.11599 0.37503
#
# Static dielectric constant tensor:
#      x y z
#    x 4.492950 -0.202680 -0.011690 
#    y -0.202680 4.213400 0.159450 
#    z -0.011690 0.159450 4.125820 
# 
# 
# High freq. dielectric constant tensor:
#      x y z
#    x 1.874720 -0.019330 -0.016470 
#    y -0.019330 1.856950 -0.004860 
#    z -0.016470 -0.004860 1.861700 
# 
# From -- ./inp_files/55392.got.cif
#   From: 2010.06.25/outbox.cif.g09.slc.cpg/sg2_28_cif.got.tgz:55392.got - 2010.06.27 13:26:56.
