data_PCOD8026597
_publ_section_title
;
Structure prediction by ZEFSAII (Michael W. Deem and Ramdas Pophale) SiO2 
 PCOD8026597
Probable space group: P -1
;
_chemical_formula_sum "Si O2"
_cell_formula_units_Z 14
_cell_length_a 8.728695
_cell_length_b 18.003838
_cell_length_c 12.177512
_cell_angle_alpha 149.449417
_cell_angle_beta 37.797824
_cell_angle_gamma 135.884572
_cell_volume 591.839550
_symmetry_space_group_name_H-M "P -1"
_symmetry_group_IT_number 2
_symmetry_cell_setting 'triclinic'
loop_
_space_group_symop_operation_xyz
x,y,z
-x,-y,-z
loop_
_atom_site_type_symbol
_atom_site_label
_atom_site_fract_x
_atom_site_fract_y
_atom_site_fract_z
Si Si1 0.137123 0.615354 0.840072
Si Si2 0.272915 0.600128 0.973754
Si Si3 0.751486 0.968359 0.877759
Si Si4 0.029830 0.721949 0.451089
Si Si5 0.111725 0.103396 0.666557
Si Si6 0.724954 0.421423 0.523113
Si Si7 0.668507 0.145826 0.355301
O O1 0.329044 0.650304 0.879369
O O2 0.279851 0.644894 0.681716
O O3 0.021603 0.444996 0.690496
O O4 0.926504 0.725539 0.113547
O O5 0.511963 0.529233 0.792446
O O6 0.234010 0.731302 0.247429
O O7 0.000000 0.500000 0.000000
O O8 0.782834 0.793155 0.638692
O O9 0.989012 0.052472 0.786973
O O10 0.500000 0.000000 0.000000
O O11 0.753699 0.021953 0.069861
O O12 0.130519 0.824754 0.624989
O O13 0.405038 0.090466 0.490833
O O14 0.000000 0.000000 0.500000
O O15 0.640385 0.290749 0.486404
O O16 0.000000 0.500000 0.500000
#
# Coordination Sequence:
#
# PCOD8026597 Si02
#       7
#     2   2   2   2   2   2   2
#     4  11  24  46  77 110 151 195 257 315 374 454
#     4  10  24  42  70 107 150 192 250 312 375 446
#     4  12  27  48  75 107 153 200 256 312 382 459
#     4  11  26  48  73 112 148 197 258 314 384 449
#     4  12  26  47  77 114 147 203 252 310 384 459
#     4  12  25  45  75 118 153 197 253 322 389 452
#     4  12  26  47  78 107 161 197 253 314 388 457
#
# _framework density 23.655061
#
# number of rings (size 3 to 8) (size 9 to 14) (size 15 to 20)
#    0.000    0.571    4.286    3.429    6.000    2.857 
#    2.571    0.000    0.000    0.000    0.000    0.000 
#    0.000    0.000    0.000    0.000    0.000    0.000 
#
# Total GULP energy -173565.421500 kJ/mol
# GULP energy per Si atom -12397.530107 kJ/mol
# Density = 2.360122 g / cm^3
# Si number density = 23.655061 Si / 1000 Ang^3
#
#
#
# Elastic Constant Matrix: (Units=GPa)
#
#
# Indices 1 2 3 4 5 6 
#
# 1 112.0384 26.4462 65.1802 -13.0991 1.9455 -8.4882
# 2 26.4462 92.3850 38.3042 -14.1948 -7.8662 3.1065
# 3 65.1802 38.3042 187.6139 -4.9599 -6.3382 -2.7970
# 4 -13.0991 -14.1948 -4.9599 43.2445 -5.5062 2.7740
# 5 1.9455 -7.8662 -6.3382 -5.5062 48.2473 -7.4072
# 6 -8.4882 3.1065 -2.7970 2.7740 -7.4072 28.8899
#
#
#
# Elastic Compliance Matrix: (Units=1/GPa)
#
#
# Indices 1 2 3 4 5 6 
#
# 1 0.012011 -0.001661 -0.003743 0.002407 -0.000514 0.002982
# 2 -0.001661 0.012937 -0.001919 0.003910 0.002077 -0.001908
# 3 -0.003743 -0.001919 0.007022 -0.000876 0.000667 0.000042
# 4 0.002407 0.003910 -0.000876 0.025526 0.003116 -0.001450
# 5 -0.000514 0.002077 0.000667 0.003116 0.022314 0.005112
# 6 0.002982 -0.001908 0.000042 -0.001450 0.005112 0.037149
#
#
# Mechanical properties :
#
#
# Convention : Reuss Voigt Hill
#
# Bulk Modulus (GPa) = 57.72049 72.43314 65.07682
# Shear Modulus (GPa) = 36.39484 41.55014 38.97249
#
# Velocity S-wave (km/s) = 3.92671 4.19561 4.06338
# Velocity P-wave (km/s) = 6.70914 7.35921 7.04168
#
# Compressibility (1/GPa) = 0.01732487
#
# Stress axis : x y z
#
# Youngs Moduli (GPa) = 83.25370 77.29617 142.40169
#
# Poissons Ratio (x) = 0.12836 0.53304
# Poissons Ratio (y) = 0.13825 0.27331
# Poissons Ratio (z) = 0.31164 0.14835
#
# Static dielectric constant tensor:
#      x y z
#    x 4.977000 -0.510360 0.531080 
#    y -0.510360 4.350080 -0.290060 
#    z 0.531080 -0.290060 4.834920 
# 
# 
# High freq. dielectric constant tensor:
#      x y z
#    x 1.937380 -0.020230 0.004080 
#    y -0.020230 1.923940 -0.008260 
#    z 0.004080 -0.008260 1.962920 
# 
# From -- ./inp_files/403456.got.cif
#   From: 2010.06.25/outbox.cif.g09.slc.cpg/sg2_202_cif.got.tgz:403456.got - 2010.06.27 13:26:56.
