data_PCOD8026127
_publ_section_title
;
Structure prediction by ZEFSAII (Michael W. Deem and Ramdas Pophale) SiO2 
 PCOD8026127
Probable space group: P -1
;
_chemical_formula_sum "Si O2"
_cell_formula_units_Z 16
_cell_length_a 9.802269
_cell_length_b 9.195742
_cell_length_c 13.933654
_cell_angle_alpha 72.250663
_cell_angle_beta 84.217513
_cell_angle_gamma 40.997953
_cell_volume 767.738602
_symmetry_space_group_name_H-M "P -1"
_symmetry_group_IT_number 2
_symmetry_cell_setting 'triclinic'
loop_
_space_group_symop_operation_xyz
x,y,z
-x,-y,-z
loop_
_atom_site_type_symbol
_atom_site_label
_atom_site_fract_x
_atom_site_fract_y
_atom_site_fract_z
Si Si1 0.185430 0.360622 0.385436
Si Si2 0.641724 0.032718 0.429882
Si Si3 0.180898 0.510954 0.704531
Si Si4 0.471536 0.692942 0.425500
Si Si5 0.639014 0.933261 0.131255
Si Si6 0.908071 0.884337 0.276542
Si Si7 0.803749 0.777368 0.944743
Si Si8 0.922365 0.940099 0.759705
O O1 0.423301 0.174614 0.361864
O O2 0.043841 0.378683 0.322376
O O3 0.090310 0.610644 0.350540
O O4 0.218671 0.241816 0.508535
O O5 0.587602 0.150261 0.512856
O O6 0.773425 0.033658 0.352595
O O7 0.308502 0.440792 0.612613
O O8 0.313687 0.284693 0.807709
O O9 0.121000 0.713727 0.726775
O O10 0.500000 0.500000 0.500000
O O11 0.286188 0.854985 0.328824
O O12 0.748938 0.951879 0.195337
O O13 0.382377 0.162422 0.106459
O O14 0.723343 0.908571 0.025951
O O15 0.009948 0.955412 0.219335
O O16 0.874135 0.864542 0.862867
O O17 0.000000 0.500000 0.000000
#
# Coordination Sequence:
#
# PCOD8026127 Si02
#       8
#     2   2   2   2   2   2   2   2
#     4  10  24  37  61  91 128 178 224 274 313 383
#     4  11  24  38  62  93 133 184 227 265 323 387
#     4  11  23  41  68  94 129 179 226 271 319 401
#     4  12  26  40  62  97 144 178 223 270 324 391
#     4  10  24  44  70  99 126 164 224 279 324 402
#     4  11  26  42  64  97 137 171 219 276 332 386
#     4  11  23  45  76  98 123 171 221 274 342 395
#     4  12  25  43  68 100 134 177 220 274 337 393
#
# _framework density 20.840425
#
# number of rings (size 3 to 8) (size 9 to 14) (size 15 to 20)
#    0.000    1.000    3.750    1.875   12.250    1.500 
#    0.000    0.625    0.000    0.000    0.000    0.000 
#    0.000    0.000    0.000    0.000    0.000    0.000 
#
# Total GULP energy -198374.244687 kJ/mol
# GULP energy per Si atom -12398.390293 kJ/mol
# Density = 2.079299 g / cm^3
# Si number density = 20.840425 Si / 1000 Ang^3
#
#
#
# Elastic Constant Matrix: (Units=GPa)
#
#
# Indices 1 2 3 4 5 6 
#
# 1 135.0643 69.5896 65.9014 -13.7553 -9.9525 2.2869
# 2 69.5896 107.1636 61.7119 -14.9173 -3.3342 -5.3585
# 3 65.9014 61.7119 126.1468 -10.3549 -18.8143 -5.4200
# 4 -13.7553 -14.9173 -10.3549 39.5537 -7.6245 3.6368
# 5 -9.9525 -3.3342 -18.8143 -7.6245 37.7168 -4.8077
# 6 2.2869 -5.3585 -5.4200 3.6368 -4.8077 32.7233
#
#
#
# Elastic Compliance Matrix: (Units=1/GPa)
#
#
# Indices 1 2 3 4 5 6 
#
# 1 0.012417 -0.005987 -0.003369 0.001610 0.001083 -0.002426
# 2 -0.005987 0.016396 -0.004912 0.002289 -0.001894 0.001757
# 3 -0.003369 -0.004912 0.013165 0.001329 0.005808 0.002317
# 4 0.001610 0.002289 0.001329 0.028527 0.006842 -0.001683
# 5 0.001083 -0.001894 0.005808 0.006842 0.031478 0.004440
# 6 -0.002426 0.001757 0.002317 -0.001683 0.004440 0.032240
#
#
# Mechanical properties :
#
#
# Convention : Reuss Voigt Hill
#
# Bulk Modulus (GPa) = 74.39272 84.75340 79.57306
# Shear Modulus (GPa) = 29.89735 33.41022 31.65378
#
# Velocity S-wave (km/s) = 3.79170 4.00827 3.90149
# Velocity P-wave (km/s) = 7.41237 7.88529 7.65248
#
# Compressibility (1/GPa) = 0.01344217
#
# Stress axis : x y z
#
# Youngs Moduli (GPa) = 80.53454 60.99168 75.95845
#
# Poissons Ratio (x) = 0.36516 0.25587
# Poissons Ratio (y) = 0.48216 0.37313
# Poissons Ratio (z) = 0.27128 0.29961
#
# Static dielectric constant tensor:
#      x y z
#    x 3.696490 -0.308490 0.284270 
#    y -0.308490 3.875350 0.166880 
#    z 0.284270 0.166880 2.859710 
# 
# 
# High freq. dielectric constant tensor:
#      x y z
#    x 1.817200 -0.016480 -0.003010 
#    y -0.016480 1.823410 -0.011290 
#    z -0.003010 -0.011290 1.814640 
# 
# From -- ./inp_files/226597.got.cif
#   From: 2010.06.25/outbox.cif.g09.slc.cpg/sg2_114_cif.got.tgz:226597.got - 2010.06.27 13:26:56.
