data_PCOD8026300
_publ_section_title
;
Structure prediction by ZEFSAII (Michael W. Deem and Ramdas Pophale) SiO2 
 PCOD8026300
Probable space group: P -1
;
_chemical_formula_sum "Si O2"
_cell_formula_units_Z 16
_cell_length_a 12.683603
_cell_length_b 11.287309
_cell_length_c 12.818698
_cell_angle_alpha 77.782955
_cell_angle_beta 145.513594
_cell_angle_gamma 77.554905
_cell_volume 720.623330
_symmetry_space_group_name_H-M "P -1"
_symmetry_group_IT_number 2
_symmetry_cell_setting 'triclinic'
loop_
_space_group_symop_operation_xyz
x,y,z
-x,-y,-z
loop_
_atom_site_type_symbol
_atom_site_label
_atom_site_fract_x
_atom_site_fract_y
_atom_site_fract_z
Si Si1 0.356517 0.191777 0.339040
Si Si2 0.279972 0.319666 0.035212
Si Si3 0.831439 0.782768 0.231538
Si Si4 0.231548 0.732432 0.982861
Si Si5 0.515989 0.833733 0.142129
Si Si6 0.667986 0.345746 0.414124
Si Si7 0.133105 0.297737 0.361034
Si Si8 0.889046 0.060779 0.785551
O O1 0.214386 0.273687 0.096235
O O2 0.167225 0.294846 0.264239
O O3 0.500000 0.000000 0.500000
O O4 0.578602 0.190567 0.520007
O O5 0.537254 0.289132 0.259956
O O6 0.310500 0.212744 0.985131
O O7 0.025214 0.514156 0.763463
O O8 0.768143 0.729860 0.291531
O O9 0.147576 0.654713 0.508776
O O10 0.707835 0.971752 0.112366
O O11 0.395865 0.754641 0.047413
O O12 0.437490 0.538845 0.236402
O O13 0.031863 0.749588 0.742287
O O14 0.048081 0.883555 0.888512
O O15 0.597535 0.824535 0.331014
O O16 0.888742 0.193560 0.705537
O O17 0.000000 0.000000 0.000000
#
# Coordination Sequence:
#
# PCOD8026300 Si02
#       8
#     2   2   2   2   2   2   2   2
#     4  11  21  37  63  91 126 169 212 261 320 384
#     4  10  24  41  64  95 131 168 216 269 319 389
#     4  11  24  43  68  94 132 170 217 270 327 387
#     4  11  23  43  65  93 131 169 217 269 321 386
#     4  11  25  42  67  99 125 173 220 268 327 385
#     4  10  24  42  65  94 129 171 215 265 327 386
#     4  11  23  42  65  95 130 171 217 265 325 383
#     4  11  23  39  62  94 131 170 216 265 321 385
#
# _framework density 22.202998999999998
#
# number of rings (size 3 to 8) (size 9 to 14) (size 15 to 20)
#    0.000    1.250    2.500    2.625    3.500    3.500 
#    0.000    5.000    0.000    0.000    0.000    0.000 
#    0.000    0.000    0.000    0.000    0.000    0.000 
#
# Total GULP energy -198268.784562 kJ/mol
# GULP energy per Si atom -12391.799035 kJ/mol
# Density = 2.215246 g / cm^3
# Si number density = 22.202999 Si / 1000 Ang^3
#
#
#
# Elastic Constant Matrix: (Units=GPa)
#
#
# Indices 1 2 3 4 5 6 
#
# 1 104.6065 31.7682 17.6981 14.3039 7.9584 8.2492
# 2 31.7682 91.7266 21.4342 -9.8479 0.3242 11.5025
# 3 17.6981 21.4342 61.3474 -4.3535 8.2226 0.2556
# 4 14.3039 -9.8479 -4.3535 34.6183 -0.7254 3.6977
# 5 7.9584 0.3242 8.2226 -0.7254 34.5164 4.9894
# 6 8.2492 11.5025 0.2556 3.6977 4.9894 30.0514
#
#
#
# Elastic Compliance Matrix: (Units=1/GPa)
#
#
# Indices 1 2 3 4 5 6 
#
# 1 0.012403 -0.004432 -0.002183 -0.006659 -0.002369 -0.000477
# 2 -0.004432 0.014666 -0.003747 0.006185 0.002713 -0.005577
# 3 -0.002183 -0.003747 0.018936 0.001877 -0.004273 0.002351
# 4 -0.006659 0.006185 0.001877 0.034239 0.002499 -0.005183
# 5 -0.002369 0.002713 -0.004273 0.002499 0.031412 -0.005875
# 6 -0.000477 -0.005577 0.002351 -0.005183 -0.005875 0.037135
#
#
# Mechanical properties :
#
#
# Convention : Reuss Voigt Hill
#
# Bulk Modulus (GPa) = 39.55528 44.38684 41.97106
# Shear Modulus (GPa) = 28.09887 32.28921 30.19404
#
# Velocity S-wave (km/s) = 3.56131 3.81763 3.69169
# Velocity P-wave (km/s) = 5.89614 6.28229 6.09228
#
# Compressibility (1/GPa) = 0.02528107
#
# Stress axis : x y z
#
# Youngs Moduli (GPa) = 80.62281 68.18288 52.81077
#
# Poissons Ratio (x) = 0.30222 0.11526
# Poissons Ratio (y) = 0.35736 0.19789
# Poissons Ratio (z) = 0.17597 0.25549
#
# Static dielectric constant tensor:
#      x y z
#    x 1.733740 0.608310 -0.463780 
#    y 0.608310 3.935720 0.147320 
#    z -0.463780 0.147320 3.539690 
# 
# 
# High freq. dielectric constant tensor:
#      x y z
#    x 1.872530 0.018680 0.013400 
#    y 0.018680 1.875980 -0.012980 
#    z 0.013400 -0.012980 1.870960 
# 
# From -- ./inp_files/274179.got.cif
#   From: 2010.06.25/outbox.cif.g09.slc.cpg/sg2_138_cif.got.tgz:274179.got - 2010.06.27 13:26:56.
