data_PCOD8026824
_publ_section_title
;
Structure prediction by ZEFSAII (Michael W. Deem and Ramdas Pophale) SiO2 
 PCOD8026824
Probable space group: P -1
;
_chemical_formula_sum "Si O2"
_cell_formula_units_Z 16
_cell_length_a 15.903928
_cell_length_b 8.491115
_cell_length_c 6.570316
_cell_angle_alpha 114.182895
_cell_angle_beta 116.835683
_cell_angle_gamma 67.447855
_cell_volume 700.411027
_symmetry_space_group_name_H-M "P -1"
_symmetry_group_IT_number 2
_symmetry_cell_setting 'triclinic'
loop_
_space_group_symop_operation_xyz
x,y,z
-x,-y,-z
loop_
_atom_site_type_symbol
_atom_site_label
_atom_site_fract_x
_atom_site_fract_y
_atom_site_fract_z
Si Si1 0.752050 0.450557 0.524959
Si Si2 0.490500 0.215667 0.305870
Si Si3 0.854084 0.387939 0.011934
Si Si4 0.813702 0.704284 0.427735
Si Si5 0.338752 0.030762 0.877085
Si Si6 0.806052 0.134296 0.151553
Si Si7 0.469782 0.483753 0.731869
Si Si8 0.950242 0.853841 0.948378
O O1 0.780478 0.476154 0.801154
O O2 0.755221 0.627210 0.496716
O O3 0.824938 0.268746 0.419845
O O4 0.643661 0.426887 0.378495
O O5 0.588885 0.085546 0.268847
O O6 0.497833 0.275202 0.581491
O O7 0.467282 0.403509 0.261375
O O8 0.396668 0.138688 0.137236
O O9 0.869010 0.540134 0.262247
O O10 0.807280 0.239952 0.994868
O O11 0.960459 0.312102 0.985749
O O12 0.887740 0.799281 0.669482
O O13 0.743724 0.846366 0.284237
O O14 0.295628 0.912728 0.928972
O O15 0.885584 0.942789 0.120295
O O16 0.500000 0.500000 0.000000
O O17 0.000000 0.000000 0.000000
#
# Coordination Sequence:
#
# PCOD8026824 Si02
#       8
#     2   2   2   2   2   2   2   2
#     4  11  24  45  71  99 132 187 223 272 342 402
#     4  10  24  43  68  97 140 175 226 276 336 400
#     4  10  24  48  69  95 137 180 230 276 332 414
#     4  11  25  43  70  99 139 175 225 281 336 409
#     4  11  23  47  67 104 136 179 225 284 337 393
#     4  10  24  43  69 100 135 177 224 280 340 395
#     4  11  23  43  68 101 134 180 223 279 335 404
#     4  10  24  44  68 102 134 176 224 284 343 391
#
# _framework density 22.843727000000001
#
# number of rings (size 3 to 8) (size 9 to 14) (size 15 to 20)
#    0.000    1.500    1.250    1.875    7.000    5.000 
#    4.500    1.875    0.000    0.000    0.000    0.000 
#    0.000    0.000    0.000    0.000    0.000    0.000 
#
# Total GULP energy -198295.108010 kJ/mol
# GULP energy per Si atom -12393.444251 kJ/mol
# Density = 2.279173 g / cm^3
# Si number density = 22.843727 Si / 1000 Ang^3
#
#
#
# Elastic Constant Matrix: (Units=GPa)
#
#
# Indices 1 2 3 4 5 6 
#
# 1 100.1801 28.9561 58.5686 13.6726 7.5088 -5.1860
# 2 28.9561 72.8133 42.9385 18.3999 3.8965 -4.6378
# 3 58.5686 42.9385 145.8407 24.5606 0.0000 -2.6032
# 4 13.6726 18.3999 24.5606 37.1980 2.9364 3.2451
# 5 7.5088 3.8965 0.0000 2.9364 32.5101 2.8890
# 6 -5.1860 -4.6378 -2.6032 3.2451 2.8890 36.4583
#
#
#
# Elastic Compliance Matrix: (Units=1/GPa)
#
#
# Indices 1 2 3 4 5 6 
#
# 1 0.013808 -0.002249 -0.004728 -0.000748 -0.002998 0.001645
# 2 -0.002249 0.018437 -0.003451 -0.006120 -0.001354 0.002431
# 3 -0.004728 -0.003451 0.010361 -0.003524 0.001842 -0.000204
# 4 -0.000748 -0.006120 -0.003524 0.032992 -0.001724 -0.003937
# 5 -0.002998 -0.001354 0.001842 -0.001724 0.032023 -0.002851
# 6 0.001645 0.002431 -0.000204 -0.003937 -0.002851 0.028534
#
#
# Mechanical properties :
#
#
# Convention : Reuss Voigt Hill
#
# Bulk Modulus (GPa) = 45.97506 64.41782 55.19644
# Shear Modulus (GPa) = 30.43945 33.79136 32.11540
#
# Velocity S-wave (km/s) = 3.65431 3.85026 3.75357
# Velocity P-wave (km/s) = 6.16238 6.93012 6.55750
#
# Compressibility (1/GPa) = 0.02175092
#
# Stress axis : x y z
#
# Youngs Moduli (GPa) = 72.42177 54.23884 96.51289
#
# Poissons Ratio (x) = 0.12198 0.45629
# Poissons Ratio (y) = 0.16287 0.33307
# Poissons Ratio (z) = 0.34239 0.18718
#
# Static dielectric constant tensor:
#      x y z
#    x 4.168660 0.136100 0.064880 
#    y 0.136100 3.993000 0.219190 
#    z 0.064880 0.219190 3.987640 
# 
# 
# High freq. dielectric constant tensor:
#      x y z
#    x 1.910100 -0.001210 -0.008330 
#    y -0.001210 1.898970 0.030960 
#    z -0.008330 0.030960 1.902530 
# 
# From -- ./inp_files/107704.got.cif
#   From: 2010.06.25/outbox.cif.g09.slc.cpg/sg2_54_cif.got.tgz:107704.got - 2010.06.27 13:26:56.
