data_PCOD8026793
_publ_section_title
;
Structure prediction by ZEFSAII (Michael W. Deem and Ramdas Pophale) SiO2 
 PCOD8026793
Probable space group: P -1
;
_chemical_formula_sum "Si O2"
_cell_formula_units_Z 14
_cell_length_a 14.038501
_cell_length_b 8.970850
_cell_length_c 11.277585
_cell_angle_alpha 118.538835
_cell_angle_beta 53.169191
_cell_angle_gamma 75.363556
_cell_volume 641.204071
_symmetry_space_group_name_H-M "P -1"
_symmetry_group_IT_number 2
_symmetry_cell_setting 'triclinic'
loop_
_space_group_symop_operation_xyz
x,y,z
-x,-y,-z
loop_
_atom_site_type_symbol
_atom_site_label
_atom_site_fract_x
_atom_site_fract_y
_atom_site_fract_z
Si Si1 0.085674 0.558692 0.226206
Si Si2 0.998462 0.268545 0.182281
Si Si3 0.649408 0.217829 0.402943
Si Si4 0.172476 0.642716 0.412390
Si Si5 0.230039 0.964685 0.498695
Si Si6 0.621044 0.616871 0.510555
Si Si7 0.462599 0.140963 0.878685
O O1 0.027561 0.431762 0.251975
O O2 0.031658 0.735301 0.448025
O O3 0.979890 0.740995 0.257607
O O4 0.310342 0.319635 0.951797
O O5 0.928057 0.252012 0.346859
O O6 0.839721 0.418289 0.257035
O O7 0.185443 0.973354 0.888942
O O8 0.716890 0.059404 0.413722
O O9 0.594249 0.476117 0.557043
O O10 0.471389 0.309722 0.521596
O O11 0.243552 0.753944 0.374757
O O12 0.355444 0.320341 0.146387
O O13 0.365725 0.924218 0.299193
O O14 0.526510 0.877497 0.748283
#
# Coordination Sequence:
#
# PCOD8026793 Si02
#       7
#     2   2   2   2   2   2   2
#     4  10  24  43  68 101 131 174 215 273 335 383
#     4  12  22  48  67 100 132 173 223 273 325 387
#     4  11  26  43  70  98 131 176 224 268 327 391
#     4  10  24  44  69  98 133 172 224 269 325 392
#     4  12  23  46  65  98 139 176 212 269 334 392
#     4  11  23  46  66  98 131 174 226 271 322 384
#     4  10  24  45  65 100 134 168 225 264 335 387
#
# _framework density 21.833922000000001
#
# number of rings (size 3 to 8) (size 9 to 14) (size 15 to 20)
#    0.857    0.286    4.286    1.714    0.000    2.857 
#    5.143    0.000    0.000    0.000    0.000    0.000 
#    0.000    0.000    0.000    0.000    0.000    0.000 
#
# Total GULP energy -173511.508954 kJ/mol
# GULP energy per Si atom -12393.679211 kJ/mol
# Density = 2.178423 g / cm^3
# Si number density = 21.833922 Si / 1000 Ang^3
#
#
#
# Elastic Constant Matrix: (Units=GPa)
#
#
# Indices 1 2 3 4 5 6 
#
# 1 128.0791 44.3990 37.5061 9.1123 -19.1839 5.3601
# 2 44.3990 88.2107 43.0487 15.7020 11.4801 3.3058
# 3 37.5061 43.0487 77.9209 5.0677 0.7926 2.2292
# 4 9.1123 15.7020 5.0677 27.8431 -4.7938 -0.3619
# 5 -19.1839 11.4801 0.7926 -4.7938 32.5617 8.0761
# 6 5.3601 3.3058 2.2292 -0.3619 8.0761 47.7252
#
#
#
# Elastic Compliance Matrix: (Units=1/GPa)
#
#
# Indices 1 2 3 4 5 6 
#
# 1 0.012410 -0.006698 -0.002434 0.001962 0.010667 -0.002606
# 2 -0.006698 0.022568 -0.008417 -0.011360 -0.013826 0.001836
# 3 -0.002434 -0.008417 0.018489 0.002434 0.001502 -0.000243
# 4 0.001962 -0.011360 0.002434 0.043247 0.011769 -0.001211
# 5 0.010667 -0.013826 0.001502 0.011769 0.045532 -0.007926
# 6 -0.002606 0.001836 -0.000243 -0.001211 -0.007926 0.022462
#
#
# Mechanical properties :
#
#
# Convention : Reuss Voigt Hill
#
# Bulk Modulus (GPa) = 54.44369 60.45758 57.45063
# Shear Modulus (GPa) = 24.28010 32.90980 28.59495
#
# Velocity S-wave (km/s) = 3.33834 3.88658 3.62284
# Velocity P-wave (km/s) = 6.31259 6.92030 6.62342
#
# Compressibility (1/GPa) = 0.01836760
#
# Stress axis : x y z
#
# Youngs Moduli (GPa) = 80.58256 44.31016 54.08632
#
# Poissons Ratio (x) = 0.29678 0.13167
# Poissons Ratio (y) = 0.53973 0.45526
# Poissons Ratio (z) = 0.19617 0.37297
#
# Static dielectric constant tensor:
#      x y z
#    x 4.325430 0.074440 -0.218590 
#    y 0.074440 3.661190 0.355650 
#    z -0.218590 0.355650 3.683020 
# 
# 
# High freq. dielectric constant tensor:
#      x y z
#    x 1.884840 0.014170 -0.012030 
#    y 0.014170 1.842850 0.028350 
#    z -0.012030 0.028350 1.833390 
# 
# From -- ./inp_files/346445.got.cif
#   From: 2010.06.25/outbox.cif.g09.slc.cpg/sg2_174_cif.got.tgz:346445.got - 2010.06.27 13:26:56.
