data_PCOD8026208
_publ_section_title
;
Structure prediction by ZEFSAII (Michael W. Deem and Ramdas Pophale) SiO2 
 PCOD8026208
Probable space group: P -1
;
_chemical_formula_sum "Si O2"
_cell_formula_units_Z 10
_cell_length_a 10.433330
_cell_length_b 10.799112
_cell_length_c 12.913127
_cell_angle_alpha 157.437409
_cell_angle_beta 59.476196
_cell_angle_gamma 112.529811
_cell_volume 464.375184
_symmetry_space_group_name_H-M "P -1"
_symmetry_group_IT_number 2
_symmetry_cell_setting 'triclinic'
loop_
_space_group_symop_operation_xyz
x,y,z
-x,-y,-z
loop_
_atom_site_type_symbol
_atom_site_label
_atom_site_fract_x
_atom_site_fract_y
_atom_site_fract_z
Si Si1 0.177613 0.475237 0.791126
Si Si2 0.630560 0.192913 0.768991
Si Si3 0.831647 0.640913 0.050314
Si Si4 0.567165 0.232923 0.571903
Si Si5 0.539800 0.347808 0.254933
O O1 0.173084 0.460675 0.906081
O O2 0.277696 0.721791 0.901234
O O3 0.271348 0.102686 0.425870
O O4 0.007447 0.582537 0.895189
O O5 0.551937 0.018463 0.572941
O O6 0.750812 0.391516 0.828188
O O7 0.490549 0.448081 0.081827
O O8 0.742995 0.026541 0.362522
O O9 0.561322 0.382683 0.575154
O O10 0.500000 0.500000 0.500000
O O11 0.500000 0.000000 0.000000
#
# Coordination Sequence:
#
# PCOD8026208 Si02
#       5
#     2   2   2   2   2
#     4  10  24  40  65  93 129 160 196 256 315 364
#     4  11  20  39  59  95 126 158 193 243 313 374
#     4  11  22  40  63 101 127 151 196 263 324 355
#     4  11  24  38  66  93 122 161 208 251 300 366
#     4  11  23  43  62  84 119 169 215 241 289 366
#
# _framework density 21.534310999999999
#
# number of rings (size 3 to 8) (size 9 to 14) (size 15 to 20)
#    0.000    1.200    4.000    4.200    2.800    0.000 
#    0.000    2.000    0.000    0.000    0.000    0.000 
#    0.000    0.000    0.000    0.000    0.000    0.000 
#
# Total GULP energy -123940.960907 kJ/mol
# GULP energy per Si atom -12394.096091 kJ/mol
# Density = 2.148530 g / cm^3
# Si number density = 21.534311 Si / 1000 Ang^3
#
#
#
# Elastic Constant Matrix: (Units=GPa)
#
#
# Indices 1 2 3 4 5 6 
#
# 1 155.2034 65.5429 92.1564 -3.7521 -19.2539 16.1559
# 2 65.5429 113.7329 50.6770 3.9493 -3.2425 18.0053
# 3 92.1564 50.6770 162.0422 11.0419 -13.2850 17.6723
# 4 -3.7521 3.9493 11.0419 26.6537 -2.0948 5.8367
# 5 -19.2539 -3.2425 -13.2850 -2.0948 55.9884 -10.3527
# 6 16.1559 18.0053 17.6723 5.8367 -10.3527 39.6798
#
#
#
# Elastic Compliance Matrix: (Units=1/GPa)
#
#
# Indices 1 2 3 4 5 6 
#
# 1 0.012182 -0.004565 -0.005572 0.005008 0.002709 -0.000437
# 2 -0.004565 0.012413 -0.000941 -0.001442 -0.001796 -0.003611
# 3 -0.005572 -0.000941 0.010070 -0.004571 0.000043 -0.001106
# 4 0.005008 -0.001442 -0.004571 0.041551 0.001155 -0.005159
# 5 0.002709 -0.001796 0.000043 0.001155 0.019599 0.004636
# 6 -0.000437 -0.003611 -0.001106 -0.005159 0.004636 0.029479
#
#
# Mechanical properties :
#
#
# Convention : Reuss Voigt Hill
#
# Bulk Modulus (GPa) = 79.94128 94.19237 87.06682
# Shear Modulus (GPa) = 32.97683 39.30453 36.14068
#
# Velocity S-wave (km/s) = 3.91751 4.27688 4.10113
# Velocity P-wave (km/s) = 7.59380 8.25981 7.93380
#
# Compressibility (1/GPa) = 0.01250918
#
# Stress axis : x y z
#
# Youngs Moduli (GPa) = 82.08611 80.55894 99.30436
#
# Poissons Ratio (x) = 0.36777 0.55333
# Poissons Ratio (y) = 0.37474 0.09343
# Poissons Ratio (z) = 0.45739 0.07580
#
# Static dielectric constant tensor:
#      x y z
#    x 4.351630 -0.009260 -0.218250 
#    y -0.009260 3.855360 0.218800 
#    z -0.218250 0.218800 4.364570 
# 
# 
# High freq. dielectric constant tensor:
#      x y z
#    x 1.858590 -0.003410 0.003990 
#    y -0.003410 1.806210 0.010420 
#    z 0.003990 0.010420 1.866490 
# 
# From -- ./inp_files/28704.got.cif
#   From: 2010.06.25/outbox.cif.g09.slc.cpg/sg2_15_cif.got.tgz:28704.got - 2010.06.27 13:26:56.
