data_PCOD8026205
_publ_section_title
;
Structure prediction by ZEFSAII (Michael W. Deem and Ramdas Pophale) SiO2 
 PCOD8026205
Probable space group: P -1
;
_chemical_formula_sum "Si O2"
_cell_formula_units_Z 14
_cell_length_a 9.118554
_cell_length_b 8.570869
_cell_length_c 12.041607
_cell_angle_alpha 76.044436
_cell_angle_beta 121.553906
_cell_angle_gamma 130.667079
_cell_volume 600.989177
_symmetry_space_group_name_H-M "P -1"
_symmetry_group_IT_number 2
_symmetry_cell_setting 'triclinic'
loop_
_space_group_symop_operation_xyz
x,y,z
-x,-y,-z
loop_
_atom_site_type_symbol
_atom_site_label
_atom_site_fract_x
_atom_site_fract_y
_atom_site_fract_z
Si Si1 0.791868 0.061158 0.932938
Si Si2 0.506780 0.603847 0.829745
Si Si3 0.619493 0.002718 0.297666
Si Si4 0.392830 0.593302 0.391321
Si Si5 0.925483 0.247999 0.179244
Si Si6 0.739987 0.350465 0.445918
Si Si7 0.215334 0.481572 0.945207
O O1 0.983581 0.248511 0.899282
O O2 0.721437 0.844672 0.897544
O O3 0.582828 0.056945 0.847704
O O4 0.869758 0.088188 0.087462
O O5 0.390429 0.571875 0.671504
O O6 0.309810 0.517152 0.853659
O O7 0.603956 0.480520 0.900017
O O8 0.838015 0.136827 0.283418
O O9 0.639921 0.129330 0.391710
O O10 0.579220 0.797989 0.359033
O O11 0.500000 0.500000 0.500000
O O12 0.299569 0.660927 0.436447
O O13 0.190959 0.421725 0.261319
O O14 0.819985 0.351983 0.075711
O O15 0.000000 0.500000 0.500000
#
# Coordination Sequence:
#
# PCOD8026205 Si02
#       7
#     2   2   2   2   2   2   2
#     4  11  23  39  69  97 132 168 215 272 337 390
#     4  10  24  40  65 102 131 164 223 275 324 388
#     4  11  24  45  72  92 131 179 225 271 332 400
#     4  12  28  46  68 100 133 176 230 274 327 396
#     4  12  24  44  66  99 133 173 216 272 343 394
#     4  11  22  48  70  93 137 182 224 265 324 404
#     4  11  21  41  66  99 129 170 216 273 333 391
#
# _framework density 23.294927999999999
#
# number of rings (size 3 to 8) (size 9 to 14) (size 15 to 20)
#    0.000    0.857    5.714    1.714    2.000    0.571 
#    2.571    0.000    0.000    0.000    0.000    0.000 
#    0.000    0.000    0.000    0.000    0.000    0.000 
#
# Total GULP energy -173630.367889 kJ/mol
# GULP energy per Si atom -12402.169135 kJ/mol
# Density = 2.324191 g / cm^3
# Si number density = 23.294928 Si / 1000 Ang^3
#
#
#
# Elastic Constant Matrix: (Units=GPa)
#
#
# Indices 1 2 3 4 5 6 
#
# 1 29.8441 28.4527 8.8220 7.7751 4.4551 2.9826
# 2 28.4527 118.4490 33.7363 -11.3194 5.2946 16.7259
# 3 8.8220 33.7363 103.9991 13.4368 9.6149 -17.2625
# 4 7.7751 -11.3194 13.4368 36.4389 -5.0539 7.1170
# 5 4.4551 5.2946 9.6149 -5.0539 45.5644 -11.3063
# 6 2.9826 16.7259 -17.2625 7.1170 -11.3063 35.6215
#
#
#
# Elastic Compliance Matrix: (Units=1/GPa)
#
#
# Indices 1 2 3 4 5 6 
#
# 1 0.054420 -0.018156 0.006199 -0.022108 -0.004500 0.009961
# 2 -0.018156 0.019192 -0.009285 0.016194 -0.000519 -0.015391
# 3 0.006199 -0.009285 0.016196 -0.013041 -0.000916 0.014004
# 4 -0.022108 0.016194 -0.013041 0.046409 0.003129 -0.020351
# 5 -0.004500 -0.000519 -0.000916 0.003129 0.024832 0.007433
# 6 0.009961 -0.015391 0.014004 -0.020351 0.007433 0.047677
#
#
# Mechanical properties :
#
#
# Convention : Reuss Voigt Hill
#
# Bulk Modulus (GPa) = 21.13056 43.81269 32.47163
# Shear Modulus (GPa) = 18.72774 35.61039 27.16906
#
# Velocity S-wave (km/s) = 2.83846 3.91407 3.41883
# Velocity P-wave (km/s) = 4.45343 6.26700 5.43637
#
# Compressibility (1/GPa) = 0.04732482
#
# Stress axis : x y z
#
# Youngs Moduli (GPa) = 18.37551 52.10467 61.74535
#
# Poissons Ratio (x) = 0.94602 -0.38277
# Poissons Ratio (y) = 0.33363 0.57328
# Poissons Ratio (z) = -0.11391 0.48377
#
# Static dielectric constant tensor:
#      x y z
#    x 4.157540 0.149180 0.043070 
#    y 0.149180 4.304870 -0.028570 
#    z 0.043070 -0.028570 4.294840 
# 
# 
# High freq. dielectric constant tensor:
#      x y z
#    x 1.920750 0.012630 0.002350 
#    y 0.012630 1.921250 -0.000860 
#    z 0.002350 -0.000860 1.921650 
# 
# From -- ./inp_files/190533.got.cif
#   From: 2010.06.25/outbox.cif.g09.slc.cpg/sg2_96_cif.got.tgz:190533.got - 2010.06.27 13:26:56.
