data_PCOD8026079
_publ_section_title
;
Structure prediction by ZEFSAII (Michael W. Deem and Ramdas Pophale) SiO2 
 PCOD8026079
Probable space group: P -1
;
_chemical_formula_sum "Si O2"
_cell_formula_units_Z 14
_cell_length_a 9.184283
_cell_length_b 15.062607
_cell_length_c 14.501363
_cell_angle_alpha 28.259890
_cell_angle_beta 58.231198
_cell_angle_gamma 78.386305
_cell_volume 612.329308
_symmetry_space_group_name_H-M "P -1"
_symmetry_group_IT_number 2
_symmetry_cell_setting 'triclinic'
loop_
_space_group_symop_operation_xyz
x,y,z
-x,-y,-z
loop_
_atom_site_type_symbol
_atom_site_label
_atom_site_fract_x
_atom_site_fract_y
_atom_site_fract_z
Si Si1 0.826843 0.857294 0.106254
Si Si2 0.506503 0.889012 0.267148
Si Si3 0.097772 0.719662 0.097960
Si Si4 0.865690 0.170793 0.641203
Si Si5 0.020479 0.997287 0.604256
Si Si6 0.599977 0.893208 0.515337
Si Si7 0.205895 0.537419 0.849704
O O1 0.578926 0.737669 0.337477
O O2 0.859650 0.663619 0.241927
O O3 0.891504 0.045406 0.830656
O O4 0.000000 0.000000 0.000000
O O5 0.390879 0.935067 0.184992
O O6 0.317892 0.737145 0.548127
O O7 0.734794 0.153633 0.985123
O O8 0.220760 0.911437 0.798205
O O9 0.042553 0.465709 0.327549
O O10 0.923938 0.112520 0.578799
O O11 0.876892 0.712193 0.941497
O O12 0.000000 0.000000 0.500000
O O13 0.279353 0.152990 0.407569
O O14 0.397051 0.630396 0.777408
O O15 0.500000 0.000000 0.500000
O O16 0.000000 0.500000 0.000000
#
# Coordination Sequence:
#
# PCOD8026079 Si02
#       7
#     2   2   2   2   2   2   2
#     4  10  23  48  71 105 139 180 241 285 347 418
#     4  10  24  44  73 104 135 187 235 282 353 416
#     4  10  24  47  71 101 144 182 230 293 348 416
#     4  12  25  45  72 104 144 180 231 292 352 412
#     4  12  27  43  65 108 142 179 239 290 342 426
#     4  11  23  43  72  95 134 192 230 280 361 409
#     4  11  23  45  71  97 141 185 231 290 347 416
#
# _framework density 22.863516000000001
#
# number of rings (size 3 to 8) (size 9 to 14) (size 15 to 20)
#    0.000    1.143    2.857    2.143    4.000    4.571 
#    2.571    0.000    0.000    0.000    0.000    0.000 
#    0.000    0.000    0.000    0.000    0.000    0.000 
#
# Total GULP energy -173551.694596 kJ/mol
# GULP energy per Si atom -12396.549614 kJ/mol
# Density = 2.281148 g / cm^3
# Si number density = 22.863516 Si / 1000 Ang^3
#
#
#
# Elastic Constant Matrix: (Units=GPa)
#
#
# Indices 1 2 3 4 5 6 
#
# 1 150.1917 33.8192 41.5459 1.1737 -13.7523 5.0050
# 2 33.8192 119.0060 42.6791 4.0349 -6.2534 -20.5006
# 3 41.5459 42.6791 80.6346 -12.8881 -12.7149 -4.6769
# 4 1.1737 4.0349 -12.8881 42.2035 0.2669 2.1943
# 5 -13.7523 -6.2534 -12.7149 0.2669 31.3903 2.0184
# 6 5.0050 -20.5006 -4.6769 2.1943 2.0184 48.4311
#
#
#
# Elastic Compliance Matrix: (Units=1/GPa)
#
#
# Indices 1 2 3 4 5 6 
#
# 1 0.008156 -0.001209 -0.003520 -0.001109 0.002027 -0.001729
# 2 -0.001209 0.011759 -0.005971 -0.003153 -0.000881 0.004705
# 3 -0.003520 -0.005971 0.019165 0.006532 0.005028 -0.000818
# 4 -0.001109 -0.003153 0.006532 0.026108 0.001428 -0.001832
# 5 0.002027 -0.000881 0.005028 0.001428 0.034698 -0.001608
# 6 -0.001729 0.004705 -0.000818 -0.001832 -0.001608 0.022889
#
#
# Mechanical properties :
#
#
# Convention : Reuss Voigt Hill
#
# Bulk Modulus (GPa) = 56.56206 65.10230 60.83218
# Shear Modulus (GPa) = 33.31788 39.85751 36.58770
#
# Velocity S-wave (km/s) = 3.82154 4.17979 4.00467
# Velocity P-wave (km/s) = 6.65319 7.19933 6.93164
#
# Compressibility (1/GPa) = 0.01767970
#
# Stress axis : x y z
#
# Youngs Moduli (GPa) = 122.60821 85.04043 52.17738
#
# Poissons Ratio (x) = 0.10281 0.18368
# Poissons Ratio (y) = 0.14823 0.31156
# Poissons Ratio (z) = 0.43162 0.50779
#
# Static dielectric constant tensor:
#      x y z
#    x 2.400640 0.435880 1.004750 
#    y 0.435880 4.320940 -0.265180 
#    z 1.004750 -0.265180 3.240310 
# 
# 
# High freq. dielectric constant tensor:
#      x y z
#    x 1.923360 0.004340 -0.013840 
#    y 0.004340 1.924260 0.002090 
#    z -0.013840 0.002090 1.874160 
# 
# From -- ./inp_files/503562.got.cif
#   From: 2010.06.25/outbox.cif.g09.slc.cpg/sg2_252_cif.got.tgz:503562.got - 2010.06.27 13:26:56.
