data_PCOD8026230
_publ_section_title
;
Structure prediction by ZEFSAII (Michael W. Deem and Ramdas Pophale) SiO2 
 PCOD8026230
Probable space group: P -1
;
_chemical_formula_sum "Si O2"
_cell_formula_units_Z 16
_cell_length_a 12.315199
_cell_length_b 11.122087
_cell_length_c 10.885741
_cell_angle_alpha 87.491635
_cell_angle_beta 139.776574
_cell_angle_gamma 62.126066
_cell_volume 606.163320
_symmetry_space_group_name_H-M "P -1"
_symmetry_group_IT_number 2
_symmetry_cell_setting 'triclinic'
loop_
_space_group_symop_operation_xyz
x,y,z
-x,-y,-z
loop_
_atom_site_type_symbol
_atom_site_label
_atom_site_fract_x
_atom_site_fract_y
_atom_site_fract_z
Si Si1 0.951295 0.308762 0.336061
Si Si2 0.561440 0.614556 0.334106
Si Si3 0.823612 0.489601 0.812976
Si Si4 0.387568 0.821601 0.584541
Si Si5 0.686661 0.665666 0.201820
Si Si6 0.927279 0.210560 0.575672
Si Si7 0.542764 0.948456 0.888780
Si Si8 0.966993 0.192296 0.087328
O O1 0.706349 0.541861 0.128315
O O2 0.946493 0.210518 0.444142
O O3 0.907705 0.278742 0.167357
O O4 0.265811 0.181082 0.622691
O O5 0.761883 0.547806 0.615253
O O6 0.529910 0.723590 0.188534
O O7 0.673479 0.428557 0.386711
O O8 0.280243 0.758312 0.153827
O O9 0.578470 0.620410 0.691589
O O10 0.983677 0.277271 0.985743
O O11 0.000000 0.500000 0.000000
O O12 0.153831 0.882336 0.457346
O O13 0.545565 0.838416 0.795245
O O14 0.243790 0.968122 0.339213
O O15 0.000000 0.500000 0.500000
O O16 0.545452 0.866319 0.021541
O O17 0.191783 0.115210 0.880666
#
# Coordination Sequence:
#
# PCOD8026230 Si02
#       8
#     2   2   2   2   2   2   2   2
#     4  10  24  40  67 105 140 180 223 281 344 410
#     4  11  25  44  68 102 135 180 233 283 339 412
#     4  12  27  50  73  93 139 181 233 295 341 396
#     4  11  27  46  72 104 135 185 231 283 346 410
#     4  11  23  38  69 105 136 182 223 272 351 412
#     4  11  23  43  70 102 143 182 219 285 348 402
#     4  11  23  44  68 104 150 172 231 282 340 416
#     4  11  26  46  70 101 136 176 237 279 343 415
#
# _framework density 26.395526
#
# number of rings (size 3 to 8) (size 9 to 14) (size 15 to 20)
#    0.000    1.000    3.750    2.250    5.250    3.000 
#    2.250    0.000    0.000    0.000    0.000    0.000 
#    0.000    0.000    0.000    0.000    0.000    0.000 
#
# Total GULP energy -198247.735835 kJ/mol
# GULP energy per Si atom -12390.483490 kJ/mol
# Density = 2.633545 g / cm^3
# Si number density = 26.395526 Si / 1000 Ang^3
#
#
#
# Elastic Constant Matrix: (Units=GPa)
#
#
# Indices 1 2 3 4 5 6 
#
# 1 64.6290 17.1677 9.5618 -6.1663 -0.1677 16.3482
# 2 17.1677 61.8300 14.7211 -5.0260 -13.6217 15.6798
# 3 9.5618 14.7211 86.8849 -1.9553 -9.6067 15.9125
# 4 -6.1663 -5.0260 -1.9553 43.0909 1.7192 -8.6034
# 5 -0.1677 -13.6217 -9.6067 1.7192 34.1071 8.5041
# 6 16.3482 15.6798 15.9125 -8.6034 8.5041 39.2720
#
#
#
# Elastic Compliance Matrix: (Units=1/GPa)
#
#
# Indices 1 2 3 4 5 6 
#
# 1 0.017975 -0.003347 -0.000318 0.001005 0.000060 -0.005811
# 2 -0.003347 0.022099 -0.000360 -0.000313 0.011160 -0.009770
# 3 -0.000318 -0.000360 0.013358 -0.000990 0.005287 -0.006498
# 4 0.001005 -0.000313 -0.000990 0.024633 -0.003185 0.006194
# 5 0.000060 0.011160 0.005287 -0.003185 0.039378 -0.015848
# 6 -0.005811 -0.009770 -0.006498 0.006194 -0.015848 0.039205
#
#
# Mechanical properties :
#
#
# Convention : Reuss Voigt Hill
#
# Bulk Modulus (GPa) = 22.03457 32.91610 27.47533
# Shear Modulus (GPa) = 27.80510 34.75355 31.27933
#
# Velocity S-wave (km/s) = 3.24914 3.63250 3.44615
# Velocity P-wave (km/s) = 4.73728 5.48551 5.12507
#
# Compressibility (1/GPa) = 0.04538324
#
# Stress axis : x y z
#
# Youngs Moduli (GPa) = 55.63350 45.25103 74.86225
#
# Poissons Ratio (x) = 0.15144 0.02378
# Poissons Ratio (y) = 0.18619 0.02694
# Poissons Ratio (z) = 0.01767 0.01628
#
# Static dielectric constant tensor:
#      x y z
#    x 7.067060 2.041630 -0.709150 
#    y 2.041630 8.083680 -0.914130 
#    z -0.709150 -0.914130 5.204700 
# 
# 
# High freq. dielectric constant tensor:
#      x y z
#    x 2.041200 0.000920 -0.005780 
#    y 0.000920 2.067940 0.001650 
#    z -0.005780 0.001650 2.073660 
# 
# From -- ./inp_files/428249.got.cif
#   From: 2010.06.25/outbox.cif.g09.slc.cpg/sg2_215_cif.got.tgz:428249.got - 2010.06.27 13:26:56.
