data_PCOD8026605
_publ_section_title
;
Structure prediction by ZEFSAII (Michael W. Deem and Ramdas Pophale) SiO2 
 PCOD8026605
Probable space group: P -1
;
_chemical_formula_sum "Si O2"
_cell_formula_units_Z 14
_cell_length_a 14.334781
_cell_length_b 11.534796
_cell_length_c 9.608713
_cell_angle_alpha 53.613719
_cell_angle_beta 150.205746
_cell_angle_gamma 115.661056
_cell_volume 622.115976
_symmetry_space_group_name_H-M "P -1"
_symmetry_group_IT_number 2
_symmetry_cell_setting 'triclinic'
loop_
_space_group_symop_operation_xyz
x,y,z
-x,-y,-z
loop_
_atom_site_type_symbol
_atom_site_label
_atom_site_fract_x
_atom_site_fract_y
_atom_site_fract_z
Si Si1 0.091175 0.617224 0.219451
Si Si2 0.783528 0.557522 0.233199
Si Si3 0.399552 0.941431 0.783651
Si Si4 0.980909 0.055573 0.089664
Si Si5 0.400675 0.625585 0.087004
Si Si6 0.655523 0.904378 0.869624
Si Si7 0.769010 0.502186 0.792854
O O1 0.228210 0.502575 0.580973
O O2 0.100429 0.600540 0.076097
O O3 0.128907 0.776500 0.188049
O O4 0.871810 0.595427 0.968687
O O5 0.000000 0.500000 0.500000
O O6 0.638421 0.492587 0.992822
O O7 0.716045 0.733992 0.021883
O O8 0.554723 0.923187 0.874788
O O9 0.329576 0.788782 0.822923
O O10 0.196292 0.053095 0.422920
O O11 0.500000 0.000000 0.000000
O O12 0.851643 0.968091 0.078205
O O13 0.000000 0.000000 0.000000
O O14 0.624091 0.604444 0.427267
O O15 0.312741 0.609571 0.135885
O O16 0.500000 0.000000 0.500000
#
# Coordination Sequence:
#
# PCOD8026605 Si02
#       7
#     2   2   2   2   2   2   2
#     4  11  24  45  70 103 137 188 240 294 363 437
#     4  12  25  45  77 107 146 189 254 307 356 440
#     4  12  28  48  73 110 155 193 251 310 378 446
#     4  12  26  47  75 105 150 196 243 304 375 439
#     4  11  24  44  71 102 139 190 241 302 363 430
#     4  12  29  48  77 111 152 201 249 304 380 445
#     4  10  24  42  70  98 141 179 241 294 365 429
#
# _framework density 22.503844000000001
#
# number of rings (size 3 to 8) (size 9 to 14) (size 15 to 20)
#    0.000    0.571    2.857    4.286    4.000    4.000 
#    0.000    0.000    0.000    0.000    0.000    0.000 
#    0.000    0.000    0.000    0.000    0.000    0.000 
#
# Total GULP energy -173483.474834 kJ/mol
# GULP energy per Si atom -12391.676774 kJ/mol
# Density = 2.245262 g / cm^3
# Si number density = 22.503844 Si / 1000 Ang^3
#
#
#
# Elastic Constant Matrix: (Units=GPa)
#
#
# Indices 1 2 3 4 5 6 
#
# 1 111.2814 38.3748 35.2233 -5.1681 -9.0808 -0.9647
# 2 38.3748 146.2082 52.9437 -17.2320 -7.3386 -7.8485
# 3 35.2233 52.9437 128.8044 4.0226 -6.8875 -4.6189
# 4 -5.1681 -17.2320 4.0226 46.9424 -1.7109 -1.1412
# 5 -9.0808 -7.3386 -6.8875 -1.7109 39.8863 3.8203
# 6 -0.9647 -7.8485 -4.6189 -1.1412 3.8203 31.0472
#
#
#
# Elastic Compliance Matrix: (Units=1/GPa)
#
#
# Indices 1 2 3 4 5 6 
#
# 1 0.010447 -0.001868 -0.002039 0.000688 0.001774 -0.000644
# 2 -0.001868 0.009028 -0.003208 0.003451 0.000658 0.001793
# 3 -0.002039 -0.003208 0.009751 -0.002209 0.000493 0.000434
# 4 0.000688 0.003451 -0.002209 0.022911 0.001273 0.001251
# 5 0.001774 0.000658 0.000493 0.001273 0.026010 -0.002859
# 6 -0.000644 0.001793 0.000434 0.001251 -0.002859 0.033105
#
#
# Mechanical properties :
#
#
# Convention : Reuss Voigt Hill
#
# Bulk Modulus (GPa) = 66.68746 71.04197 68.86471
# Shear Modulus (GPa) = 38.32031 40.89198 39.60615
#
# Velocity S-wave (km/s) = 4.13102 4.26738 4.19975
# Velocity P-wave (km/s) = 7.24237 7.47784 7.36105
#
# Compressibility (1/GPa) = 0.01499532
#
# Stress axis : x y z
#
# Youngs Moduli (GPa) = 95.72247 110.77222 102.55573
#
# Poissons Ratio (x) = 0.20694 0.20908
# Poissons Ratio (y) = 0.17883 0.32901
# Poissons Ratio (z) = 0.19515 0.35537
#
# Static dielectric constant tensor:
#      x y z
#    x 3.950750 -0.255900 -0.156780 
#    y -0.255900 3.708330 -0.080980 
#    z -0.156780 -0.080980 4.079960 
# 
# 
# High freq. dielectric constant tensor:
#      x y z
#    x 1.901780 0.007520 -0.004870 
#    y 0.007520 1.890180 0.008400 
#    z -0.004870 0.008400 1.896780 
# 
# From -- ./inp_files/306643.got.cif
#   From: 2010.06.25/outbox.cif.g09.slc.cpg/sg2_154_cif.got.tgz:306643.got - 2010.06.27 13:26:56.
