data_PCOD8026857
_publ_section_title
;
Structure prediction by ZEFSAII (Michael W. Deem and Ramdas Pophale) SiO2 
 PCOD8026857
Probable space group: P -1
;
_chemical_formula_sum "Si O2"
_cell_formula_units_Z 16
_cell_length_a 14.577704
_cell_length_b 8.815327
_cell_length_c 20.479996
_cell_angle_alpha 51.946501
_cell_angle_beta 21.767552
_cell_angle_gamma 48.832421
_cell_volume 734.593438
_symmetry_space_group_name_H-M "P -1"
_symmetry_group_IT_number 2
_symmetry_cell_setting 'triclinic'
loop_
_space_group_symop_operation_xyz
x,y,z
-x,-y,-z
loop_
_atom_site_type_symbol
_atom_site_label
_atom_site_fract_x
_atom_site_fract_y
_atom_site_fract_z
Si Si1 0.629034 0.991978 0.061542
Si Si2 0.534700 0.718941 0.423115
Si Si3 0.768119 0.214394 0.664181
Si Si4 0.484170 0.413293 0.188507
Si Si5 0.981544 0.476884 0.777558
Si Si6 0.810861 0.638724 0.716702
Si Si7 0.969534 0.905643 0.730282
Si Si8 0.759962 0.977961 0.122422
O O1 0.426544 0.862172 0.231626
O O2 0.809625 0.952834 0.017700
O O3 0.460521 0.225043 0.110096
O O4 0.789639 0.942522 0.902427
O O5 0.500000 0.500000 0.500000
O O6 0.258616 0.886963 0.570749
O O7 0.672118 0.782993 0.252157
O O8 0.745170 0.696892 0.347516
O O9 0.608425 0.444012 0.726530
O O10 0.011516 0.219039 0.457906
O O11 0.860062 0.083261 0.703566
O O12 0.252114 0.483401 0.270589
O O13 0.521694 0.178361 0.242422
O O14 0.760048 0.418797 0.978424
O O15 0.944503 0.473580 0.725493
O O16 0.978738 0.698680 0.743415
O O17 0.000000 0.000000 0.000000
#
# Coordination Sequence:
#
# PCOD8026857 Si02
#       8
#     2   2   2   2   2   2   2   2
#     4  11  23  40  71  99 129 182 225 276 340 400
#     4  10  24  43  69  95 135 185 221 276 329 401
#     4  12  23  42  69 101 136 172 229 285 334 402
#     4  11  23  42  67  97 135 178 218 283 348 393
#     4  11  21  41  64  97 136 178 227 270 335 404
#     4  11  24  38  66  99 134 177 223 284 343 395
#     4  11  22  42  66 100 137 170 231 283 324 394
#     4  11  24  48  69  99 139 176 221 279 341 403
#
# _framework density 21.780754999999999
#
# number of rings (size 3 to 8) (size 9 to 14) (size 15 to 20)
#    0.000    1.000    3.750    3.750    3.500    1.000 
#    2.250    3.750    0.000    0.000    0.000    0.000 
#    0.000    0.000    0.000    0.000    0.000    0.000 
#
# Total GULP energy -198309.281194 kJ/mol
# GULP energy per Si atom -12394.330075 kJ/mol
# Density = 2.173118 g / cm^3
# Si number density = 21.780755 Si / 1000 Ang^3
#
#
#
# Elastic Constant Matrix: (Units=GPa)
#
#
# Indices 1 2 3 4 5 6 
#
# 1 107.8597 20.3964 15.8448 19.7232 -17.1128 -20.7535
# 2 20.3964 64.7007 3.2227 -3.2668 2.2564 -8.4201
# 3 15.8448 3.2227 94.2418 5.6124 -9.3583 -15.3821
# 4 19.7232 -3.2668 5.6124 25.2992 -4.7645 2.0746
# 5 -17.1128 2.2564 -9.3583 -4.7645 32.4041 -0.2398
# 6 -20.7535 -8.4201 -15.3821 2.0746 -0.2398 32.5133
#
#
#
# Elastic Compliance Matrix: (Units=1/GPa)
#
#
# Indices 1 2 3 4 5 6 
#
# 1 0.015137 -0.004392 0.000560 -0.012005 0.006767 0.009605
# 2 -0.004392 0.017369 -0.000239 0.005083 -0.002841 0.001237
# 3 0.000560 -0.000239 0.012056 -0.003012 0.003397 0.006217
# 4 -0.012005 0.005083 -0.003012 0.051090 -0.000133 -0.011032
# 5 0.006767 -0.002841 0.003397 -0.000133 0.035634 0.005462
# 6 0.009605 0.001237 0.006217 -0.011032 0.005462 0.040894
#
#
# Mechanical properties :
#
#
# Convention : Reuss Voigt Hill
#
# Bulk Modulus (GPa) = 27.45647 38.41443 32.93545
# Shear Modulus (GPa) = 25.97941 33.19921 29.58931
#
# Velocity S-wave (km/s) = 3.45740 3.90839 3.68979
# Velocity P-wave (km/s) = 5.34521 6.16786 5.77122
#
# Compressibility (1/GPa) = 0.03642128
#
# Stress axis : x y z
#
# Youngs Moduli (GPa) = 66.06510 57.57458 82.94315
#
# Poissons Ratio (x) = 0.25285 -0.04644
# Poissons Ratio (y) = 0.29014 0.01978
# Poissons Ratio (z) = -0.03699 0.01373
#
# Static dielectric constant tensor:
#      x y z
#    x 4.165310 -0.201940 -0.384590 
#    y -0.201940 4.059580 -0.046330 
#    z -0.384590 -0.046330 4.096460 
# 
# 
# High freq. dielectric constant tensor:
#      x y z
#    x 1.856200 -0.011110 -0.018210 
#    y -0.011110 1.849600 -0.012620 
#    z -0.018210 -0.012620 1.861110 
# 
# From -- ./inp_files/204441.got.cif
#   From: 2010.06.25/outbox.cif.g09.slc.cpg/sg2_103_cif.got.tgz:204441.got - 2010.06.27 13:26:56.
