data_PCOD8026924
_publ_section_title
;
Structure prediction by ZEFSAII (Michael W. Deem and Ramdas Pophale) SiO2 
 PCOD8026924
Probable space group: P -1
;
_chemical_formula_sum "Si O2"
_cell_formula_units_Z 14
_cell_length_a 9.904647
_cell_length_b 12.606359
_cell_length_c 9.913021
_cell_angle_alpha 56.264873
_cell_angle_beta 137.769288
_cell_angle_gamma 122.750120
_cell_volume 672.930115
_symmetry_space_group_name_H-M "P -1"
_symmetry_group_IT_number 2
_symmetry_cell_setting 'triclinic'
loop_
_space_group_symop_operation_xyz
x,y,z
-x,-y,-z
loop_
_atom_site_type_symbol
_atom_site_label
_atom_site_fract_x
_atom_site_fract_y
_atom_site_fract_z
Si Si1 0.296805 0.650863 0.135862
Si Si2 0.957489 0.368435 0.648448
Si Si3 0.530081 0.895930 0.983707
Si Si4 0.030005 0.087152 0.824146
Si Si5 0.864216 0.619372 0.939443
Si Si6 0.479789 0.711103 0.503920
Si Si7 0.382941 0.002456 0.551434
O O1 0.447046 0.751316 0.081010
O O2 0.237907 0.513985 0.115459
O O3 0.424589 0.633187 0.378076
O O4 0.082709 0.694345 0.981148
O O5 0.023535 0.239781 0.730499
O O6 0.710839 0.332737 0.505230
O O7 0.000000 0.500000 0.500000
O O8 0.088645 0.408236 0.852599
O O9 0.766651 0.920794 0.099358
O O10 0.500000 0.000000 0.000000
O O11 0.404814 0.893637 0.753132
O O12 0.856161 0.015516 0.643076
O O13 0.000000 0.000000 0.000000
O O14 0.691742 0.702389 0.740519
O O15 0.513051 0.864165 0.387646
O O16 0.500000 0.000000 0.500000
#
# Coordination Sequence:
#
# PCOD8026924 Si02
#       7
#     2   2   2   2   2   2   2
#     4  10  24  45  63 101 133 177 231 285 341 415
#     4  11  26  43  65 106 139 176 238 289 338 422
#     4  12  27  45  70 104 141 174 238 295 336 414
#     4  12  26  46  73 100 143 188 228 285 354 413
#     4  10  24  43  71  89 138 186 222 281 352 407
#     4  11  22  43  71  94 135 179 232 282 348 411
#     4  12  24  43  71 101 133 183 226 280 351 414
#
# _framework density 20.804538000000001
#
# number of rings (size 3 to 8) (size 9 to 14) (size 15 to 20)
#    0.000    0.857    4.286    1.286    8.000    2.286 
#    0.000    0.000    0.000    0.000    0.000    0.000 
#    0.000    0.000    0.000    0.000    0.000    0.000 
#
# Total GULP energy -173539.372371 kJ/mol
# GULP energy per Si atom -12395.669455 kJ/mol
# Density = 2.075719 g / cm^3
# Si number density = 20.804538 Si / 1000 Ang^3
#
#
#
# Elastic Constant Matrix: (Units=GPa)
#
#
# Indices 1 2 3 4 5 6 
#
# 1 141.1301 40.0975 57.6007 -2.2497 6.3781 15.9592
# 2 40.0975 104.3959 28.8645 2.0993 -4.5623 7.0808
# 3 57.6007 28.8645 118.2797 8.7777 8.3665 11.4640
# 4 -2.2497 2.0993 8.7777 41.7299 2.9200 -1.9941
# 5 6.3781 -4.5623 8.3665 2.9200 34.5145 5.3919
# 6 15.9592 7.0808 11.4640 -1.9941 5.3919 38.9513
#
#
#
# Elastic Compliance Matrix: (Units=1/GPa)
#
#
# Indices 1 2 3 4 5 6 
#
# 1 0.009737 -0.002575 -0.003944 0.001449 -0.000970 -0.002152
# 2 -0.002575 0.011171 -0.001517 -0.000601 0.002513 -0.000908
# 3 -0.003944 -0.001517 0.011174 -0.002423 -0.001776 -0.001275
# 4 0.001449 -0.000601 -0.002423 0.024817 -0.002140 0.001796
# 5 -0.000970 0.002513 -0.001776 -0.002140 0.030705 -0.003897
# 6 -0.002152 -0.000908 -0.001275 0.001796 -0.003897 0.027727
#
#
# Mechanical properties :
#
#
# Convention : Reuss Voigt Hill
#
# Bulk Modulus (GPa) = 62.45961 68.54790 65.50375
# Shear Modulus (GPa) = 36.56554 38.85535 37.71045
#
# Velocity S-wave (km/s) = 4.19689 4.32631 4.26209
# Velocity P-wave (km/s) = 7.31932 7.61419 7.46821
#
# Compressibility (1/GPa) = 0.01601035
#
# Stress axis : x y z
#
# Youngs Moduli (GPa) = 102.69860 89.51774 89.48959
#
# Poissons Ratio (x) = 0.23052 0.35293
# Poissons Ratio (y) = 0.26446 0.13578
# Poissons Ratio (z) = 0.40502 0.13582
#
# Static dielectric constant tensor:
#      x y z
#    x 3.856960 0.074030 0.112840 
#    y 0.074030 4.060910 0.125830 
#    z 0.112840 0.125830 3.886650 
# 
# 
# High freq. dielectric constant tensor:
#      x y z
#    x 1.816680 0.003220 0.003930 
#    y 0.003220 1.826300 0.013350 
#    z 0.003930 0.013350 1.825600 
# 
# From -- ./inp_files/75920.got.cif
#   From: 2010.06.25/outbox.cif.g09.slc.cpg/sg2_38_cif.got.tgz:75920.got - 2010.06.27 13:26:56.
