data_PCOD8026364
_publ_section_title
;
Structure prediction by ZEFSAII (Michael W. Deem and Ramdas Pophale) SiO2 
 PCOD8026364
Probable space group: P -1
;
_chemical_formula_sum "Si O2"
_cell_formula_units_Z 12
_cell_length_a 7.039096
_cell_length_b 15.180599
_cell_length_c 6.495841
_cell_angle_alpha 115.334621
_cell_angle_beta 62.521746
_cell_angle_gamma 128.749575
_cell_volume 470.468285
_symmetry_space_group_name_H-M "P -1"
_symmetry_group_IT_number 2
_symmetry_cell_setting 'triclinic'
loop_
_space_group_symop_operation_xyz
x,y,z
-x,-y,-z
loop_
_atom_site_type_symbol
_atom_site_label
_atom_site_fract_x
_atom_site_fract_y
_atom_site_fract_z
Si Si1 0.230537 0.199725 0.327366
Si Si2 0.291108 0.404646 0.290419
Si Si3 0.629838 0.147902 0.941644
Si Si4 0.230537 0.699725 0.341547
Si Si5 0.291108 0.904645 0.727764
Si Si6 0.629838 0.647902 0.224323
O O1 0.375178 0.320119 0.250574
O O2 0.206889 0.233210 0.609714
O O3 0.951664 0.113790 0.291615
O O4 0.389058 0.140157 0.166114
O O5 0.519186 0.538351 0.326651
O O6 0.048336 0.386210 0.515699
O O7 0.214472 0.367946 0.050537
O O8 0.793111 0.266790 0.850183
O O9 0.519186 0.038351 0.730864
O O10 0.785528 0.132053 0.029116
O O11 0.375178 0.820119 0.514486
O O12 0.389059 0.640158 0.225142
#
# Coordination Sequence:
#
# PCOD8026364 Si02
#       6
#     2   2   2   2   2   2
#     4  11  22  42  68  97 132 176 220 274 331 393
#     4  10  24  41  68  99 132 177 222 269 333 395
#     4  11  22  44  67  99 135 174 223 274 328 396
#     4  11  22  42  68  97 132 176 220 274 331 393
#     4  10  24  41  68  99 132 177 222 269 333 395
#     4  11  22  44  67  99 135 174 223 274 328 396
#
# _framework density 25.506502000000001
#
# number of rings (size 3 to 8) (size 9 to 14) (size 15 to 20)
#    0.000    1.333    3.333    2.000    0.000    5.333 
#    0.000    1.667    0.000    0.000    0.000    0.000 
#    0.000    0.000    0.000    0.000    0.000    0.000 
#
# Total GULP energy -148756.914347 kJ/mol
# GULP energy per Si atom -12396.409529 kJ/mol
# Density = 2.544845 g / cm^3
# Si number density = 25.506502 Si / 1000 Ang^3
#
#
#
# Elastic Constant Matrix: (Units=GPa)
#
#
# Indices 1 2 3 4 5 6 
#
# 1 76.0014 3.9592 13.2282 -4.5901 3.8807 7.6177
# 2 3.9592 76.9275 1.8067 -10.1069 1.4069 4.2258
# 3 13.2282 1.8067 71.4374 0.3159 2.9608 19.9268
# 4 -4.5901 -10.1069 0.3159 48.4434 1.3626 3.0493
# 5 3.8807 1.4069 2.9608 1.3626 33.4950 4.4918
# 6 7.6177 4.2258 19.9268 3.0493 4.4918 31.2454
#
#
#
# Elastic Compliance Matrix: (Units=1/GPa)
#
#
# Indices 1 2 3 4 5 6 
#
# 1 0.013867 -0.000347 -0.001940 0.001418 -0.001202 -0.002062
# 2 -0.000347 0.013522 0.000336 0.002935 -0.000383 -0.002190
# 3 -0.001940 0.000336 0.017321 0.000443 0.000093 -0.010676
# 4 0.001418 0.002935 0.000443 0.021599 -0.000801 -0.003018
# 5 -0.001202 -0.000383 0.000093 -0.000801 0.030576 -0.004032
# 6 -0.002062 -0.002190 -0.010676 -0.003018 -0.004032 0.040486
#
#
# Mechanical properties :
#
#
# Convention : Reuss Voigt Hill
#
# Bulk Modulus (GPa) = 24.50473 29.15050 26.82762
# Shear Modulus (GPa) = 32.28401 36.32824 34.30612
#
# Velocity S-wave (km/s) = 3.56155 3.77805 3.67140
# Velocity P-wave (km/s) = 5.15179 5.52132 5.33976
#
# Compressibility (1/GPa) = 0.04080845
#
# Stress axis : x y z
#
# Youngs Moduli (GPa) = 72.11311 73.95313 57.73307
#
# Poissons Ratio (x) = 0.02563 0.11202
# Poissons Ratio (y) = 0.02499 -0.01940
# Poissons Ratio (z) = 0.13992 -0.02484
#
# Static dielectric constant tensor:
#      x y z
#    x 4.124510 -0.267240 0.215570 
#    y -0.267240 4.434360 -0.022990 
#    z 0.215570 -0.022990 4.816160 
# 
# 
# High freq. dielectric constant tensor:
#      x y z
#    x 1.996180 -0.012060 0.014650 
#    y -0.012060 2.010480 -0.004430 
#    z 0.014650 -0.004430 2.038130 
# 
# From -- ./inp_files/39643.got.cif
#   From: 2010.06.25/outbox.cif.g09.slc.cpg/sg2_20_cif.got.tgz:39643.got - 2010.06.27 13:26:56.
