data_PCOD8026595
_publ_section_title
;
Structure prediction by ZEFSAII (Michael W. Deem and Ramdas Pophale) SiO2 
 PCOD8026595
Probable space group: P -1
;
_chemical_formula_sum "Si O2"
_cell_formula_units_Z 14
_cell_length_a 18.589665
_cell_length_b 9.184322
_cell_length_c 5.415219
_cell_angle_alpha 49.210378
_cell_angle_beta 101.213751
_cell_angle_gamma 121.978562
_cell_volume 577.008891
_symmetry_space_group_name_H-M "P -1"
_symmetry_group_IT_number 2
_symmetry_cell_setting 'triclinic'
loop_
_space_group_symop_operation_xyz
x,y,z
-x,-y,-z
loop_
_atom_site_type_symbol
_atom_site_label
_atom_site_fract_x
_atom_site_fract_y
_atom_site_fract_z
Si Si1 0.925800 0.401175 0.358154
Si Si2 0.954642 0.138399 0.308820
Si Si3 0.792722 0.744743 0.436893
Si Si4 0.610292 0.093624 0.315325
Si Si5 0.631998 0.777024 0.396493
Si Si6 0.224116 0.525994 0.770281
Si Si7 0.510817 0.303413 0.992165
O O1 0.909547 0.162774 0.500519
O O2 0.834928 0.366936 0.420714
O O3 0.000000 0.500000 0.500000
O O4 0.965636 0.604482 0.961867
O O5 0.877957 0.005747 0.200500
O O6 0.000000 0.000000 0.500000
O O7 0.710952 0.769229 0.349767
O O8 0.791131 0.619665 0.324388
O O9 0.796239 0.620946 0.827231
O O10 0.675185 0.260691 0.388422
O O11 0.570638 0.219127 0.998965
O O12 0.665781 0.027851 0.251509
O O13 0.527597 0.848769 0.619935
O O14 0.577875 0.574500 0.789968
O O15 0.567640 0.733414 0.181263
#
# Coordination Sequence:
#
# PCOD8026595 Si02
#       7
#     2   2   2   2   2   2   2
#     4  11  26  45  77 109 143 191 241 295 358 432
#     4  11  24  47  75 106 146 187 240 292 361 423
#     4  12  28  47  75 105 148 194 239 298 358 429
#     4  11  24  44  72 100 145 187 241 299 365 421
#     4  11  24  44  71 102 142 187 246 293 367 423
#     4  12  28  48  73 107 149 189 244 293 362 428
#     4  10  24  42  70 105 140 184 246 297 364 427
#
# _framework density 24.263058999999998
#
# number of rings (size 3 to 8) (size 9 to 14) (size 15 to 20)
#    0.000    0.857    2.857    2.571    8.000    6.857 
#    0.000    0.000    0.000    0.000    0.000    0.000 
#    0.000    0.000    0.000    0.000    0.000    0.000 
#
# Total GULP energy -173436.214727 kJ/mol
# GULP energy per Si atom -12388.301052 kJ/mol
# Density = 2.420783 g / cm^3
# Si number density = 24.263059 Si / 1000 Ang^3
#
#
#
# Elastic Constant Matrix: (Units=GPa)
#
#
# Indices 1 2 3 4 5 6 
#
# 1 205.2855 80.6264 22.4190 -0.5419 43.1314 -9.9473
# 2 80.6264 158.2573 4.2168 -2.0657 11.7685 -20.8735
# 3 22.4190 4.2168 40.0383 0.8193 16.8778 -4.2778
# 4 -0.5419 -2.0657 0.8193 38.3005 2.1610 -0.4449
# 5 43.1314 11.7685 16.8778 2.1610 41.0670 -8.0705
# 6 -9.9473 -20.8735 -4.2778 -0.4449 -8.0705 50.7255
#
#
#
# Elastic Compliance Matrix: (Units=1/GPa)
#
#
# Indices 1 2 3 4 5 6 
#
# 1 0.007807 -0.003577 -0.001206 0.000321 -0.006920 -0.001141
# 2 -0.003577 0.008412 0.000755 0.000331 0.001625 0.003085
# 3 -0.001206 0.000755 0.030420 0.000020 -0.011286 0.000844
# 4 0.000321 0.000331 0.000020 0.026234 -0.001791 0.000146
# 5 -0.006920 0.001625 -0.011286 -0.001791 0.036708 0.004184
# 6 -0.001141 0.003085 0.000844 0.000146 0.004184 0.021498
#
#
# Mechanical properties :
#
#
# Convention : Reuss Voigt Hill
#
# Bulk Modulus (GPa) = 25.91923 68.67840 47.29881
# Shear Modulus (GPa) = 32.89560 45.77319 39.33440
#
# Velocity S-wave (km/s) = 3.68610 4.34814 4.03074
# Velocity P-wave (km/s) = 5.36863 7.31954 6.41864
#
# Compressibility (1/GPa) = 0.03858140
#
# Stress axis : x y z
#
# Youngs Moduli (GPa) = 128.08267 118.88464 32.87358
#
# Poissons Ratio (x) = 0.42527 0.03966
# Poissons Ratio (y) = 0.45817 -0.02482
# Poissons Ratio (z) = 0.15450 -0.08974
#
# Static dielectric constant tensor:
#      x y z
#    x 4.844380 -0.174490 0.196790 
#    y -0.174490 4.116290 -0.178690 
#    z 0.196790 -0.178690 4.314530 
# 
# 
# High freq. dielectric constant tensor:
#      x y z
#    x 1.990290 -0.002580 0.017010 
#    y -0.002580 1.967290 -0.023290 
#    z 0.017010 -0.023290 1.947930 
# 
# From -- ./inp_files/106131.got.cif
#   From: 2010.06.25/outbox.cif.g09.slc.cpg/sg2_54_cif.got.tgz:106131.got - 2010.06.27 13:26:56.
