data_PCOD8026273
_publ_section_title
;
Structure prediction by ZEFSAII (Michael W. Deem and Ramdas Pophale) SiO2 
 PCOD8026273
Probable space group: P -1
;
_chemical_formula_sum "Si O2"
_cell_formula_units_Z 16
_cell_length_a 11.398125
_cell_length_b 8.945098
_cell_length_c 9.555284
_cell_angle_alpha 116.439950
_cell_angle_beta 87.026315
_cell_angle_gamma 113.185550
_cell_volume 792.807392
_symmetry_space_group_name_H-M "P -1"
_symmetry_group_IT_number 2
_symmetry_cell_setting 'triclinic'
loop_
_space_group_symop_operation_xyz
x,y,z
-x,-y,-z
loop_
_atom_site_type_symbol
_atom_site_label
_atom_site_fract_x
_atom_site_fract_y
_atom_site_fract_z
Si Si1 0.947795 0.360337 0.573984
Si Si2 0.632671 0.267361 0.010994
Si Si3 0.890459 0.964740 0.380847
Si Si4 0.118223 0.128633 0.958280
Si Si5 0.747464 0.460019 0.795526
Si Si6 0.368708 0.416004 0.386246
Si Si7 0.348999 0.095265 0.062405
Si Si8 0.781207 0.597798 0.344692
O O1 0.842622 0.385325 0.687631
O O2 0.000000 0.500000 0.500000
O O3 0.072258 0.383022 0.668132
O O4 0.869314 0.149994 0.438165
O O5 0.672651 0.341271 0.883165
O O6 0.479294 0.187351 0.003320
O O7 0.690032 0.422831 0.189799
O O8 0.679358 0.106774 0.965835
O O9 0.934287 0.909946 0.210595
O O10 0.767830 0.780421 0.361802
O O11 0.000000 0.000000 0.500000
O O12 0.238124 0.075396 0.951222
O O13 0.157811 0.338475 0.078936
O O14 0.000000 0.000000 0.000000
O O15 0.637524 0.461953 0.695295
O O16 0.500000 0.500000 0.500000
O O17 0.255683 0.412691 0.494165
O O18 0.346967 0.215449 0.248038
#
# Coordination Sequence:
#
# PCOD8026273 Si02
#       8
#     2   2   2   2   2   2   2   2
#     4  11  23  41  65  99 136 168 220 276 331 390
#     4  11  24  47  66  98 131 171 231 273 330 385
#     4  10  24  41  61  96 132 173 212 267 330 392
#     4  11  24  42  67  96 132 175 219 267 339 395
#     4  11  25  42  69 100 128 174 223 272 329 398
#     4  11  23  44  68  92 127 177 215 265 334 393
#     4  10  26  42  70  95 135 174 220 281 326 393
#     4  11  23  42  67  91 136 174 217 271 333 393
#
# _framework density 20.181445
#
# number of rings (size 3 to 8) (size 9 to 14) (size 15 to 20)
#    0.000    1.250    3.750    0.750   10.500    4.500 
#    0.000    0.625    0.000    0.000    0.000    0.000 
#    0.000    0.000    0.000    0.000    0.000    0.000 
#
# Total GULP energy -198340.358953 kJ/mol
# GULP energy per Si atom -12396.272435 kJ/mol
# Density = 2.013551 g / cm^3
# Si number density = 20.181445 Si / 1000 Ang^3
#
#
#
# Elastic Constant Matrix: (Units=GPa)
#
#
# Indices 1 2 3 4 5 6 
#
# 1 55.7173 25.0980 23.7467 11.0907 -2.3569 3.5220
# 2 25.0980 163.0250 60.6040 3.9616 -5.4354 -4.7504
# 3 23.7467 60.6040 128.7588 -5.6893 -2.1929 -1.5964
# 4 11.0907 3.9616 -5.6893 39.2869 0.2001 -5.9899
# 5 -2.3569 -5.4354 -2.1929 0.2001 33.3796 2.0413
# 6 3.5220 -4.7504 -1.5964 -5.9899 2.0413 24.6217
#
#
#
# Elastic Compliance Matrix: (Units=1/GPa)
#
#
# Indices 1 2 3 4 5 6 
#
# 1 0.022287 -0.002063 -0.003517 -0.007477 0.001403 -0.005749
# 2 -0.002063 0.007739 -0.003251 -0.000460 0.000818 0.001398
# 3 -0.003517 -0.003251 0.010089 0.002977 -0.000211 0.001272
# 4 -0.007477 -0.000460 0.002977 0.029328 -0.001097 0.008400
# 5 0.001403 0.000818 -0.000211 -0.001097 0.030357 -0.002840
# 6 -0.005749 0.001398 0.001272 0.008400 -0.002840 0.044068
#
#
# Mechanical properties :
#
#
# Convention : Reuss Voigt Hill
#
# Bulk Modulus (GPa) = 44.53749 62.93317 53.73533
# Shear Modulus (GPa) = 29.58296 35.32777 32.45537
#
# Velocity S-wave (km/s) = 3.83279 4.18845 4.01456
# Velocity P-wave (km/s) = 6.45783 7.39203 6.94067
#
# Compressibility (1/GPa) = 0.02245300
#
# Stress axis : x y z
#
# Youngs Moduli (GPa) = 44.86923 129.20743 99.11550
#
# Poissons Ratio (x) = 0.26651 0.34861
# Poissons Ratio (y) = 0.09255 0.32227
# Poissons Ratio (z) = 0.15782 0.42011
#
# Static dielectric constant tensor:
#      x y z
#    x 3.839370 -0.143110 0.094770 
#    y -0.143110 4.256730 0.056560 
#    z 0.094770 0.056560 4.036780 
# 
# 
# High freq. dielectric constant tensor:
#      x y z
#    x 1.781220 -0.004800 -0.002160 
#    y -0.004800 1.802840 0.003020 
#    z -0.002160 0.003020 1.802310 
# 
# From -- ./inp_files/185343.got.cif
#   From: 2010.06.25/outbox.cif.g09.slc.cpg/sg2_93_cif.got.tgz:185343.got - 2010.06.27 13:26:56.
