data_PCOD8026592
_publ_section_title
;
Structure prediction by ZEFSAII (Michael W. Deem and Ramdas Pophale) SiO2 
 PCOD8026592
Probable space group: P -1
;
_chemical_formula_sum "Si O2"
_cell_formula_units_Z 10
_cell_length_a 8.740423
_cell_length_b 14.994648
_cell_length_c 15.311072
_cell_angle_alpha 159.993978
_cell_angle_beta 140.775252
_cell_angle_gamma 39.945854
_cell_volume 427.116821
_symmetry_space_group_name_H-M "P -1"
_symmetry_group_IT_number 2
_symmetry_cell_setting 'triclinic'
loop_
_space_group_symop_operation_xyz
x,y,z
-x,-y,-z
loop_
_atom_site_type_symbol
_atom_site_label
_atom_site_fract_x
_atom_site_fract_y
_atom_site_fract_z
Si Si1 0.260808 0.495761 0.003441
Si Si2 0.858205 0.872843 0.247394
Si Si3 0.109300 0.596382 0.549021
Si Si4 0.404499 0.055599 0.106852
Si Si5 0.305146 0.256607 0.629584
O O1 0.541344 0.526506 0.139375
O O2 0.060416 0.766330 0.165135
O O3 0.256511 0.358753 0.969467
O O4 0.170904 0.338286 0.737317
O O5 0.635942 0.069211 0.284893
O O6 0.000000 0.000000 0.500000
O O7 0.232874 0.342371 0.311093
O O8 0.000000 0.500000 0.500000
O O9 0.896272 0.773851 0.560138
O O10 0.282254 0.802190 0.843868
O O11 0.500000 0.000000 0.000000
O O12 0.500000 0.000000 0.500000
#
# Coordination Sequence:
#
# PCOD8026592 Si02
#       5
#     2   2   2   2   2
#     4  10  24  42  70 104 138 182 246 294 354 420
#     4  11  25  43  74 101 143 186 246 292 359 430
#     4  12  29  49  76 108 153 195 245 304 377 437
#     4  12  29  49  76 108 153 195 245 304 377 437
#     4  11  25  43  74 101 143 186 246 292 359 430
#
# _framework density 23.412797999999999
#
# number of rings (size 3 to 8) (size 9 to 14) (size 15 to 20)
#    0.000    0.800    0.000    4.800   22.400    0.000 
#    0.000    0.000    0.000    0.000    0.000    0.000 
#    0.000    0.000    0.000    0.000    0.000    0.000 
#
# Total GULP energy -123969.432476 kJ/mol
# GULP energy per Si atom -12396.943248 kJ/mol
# Density = 2.335951 g / cm^3
# Si number density = 23.412798 Si / 1000 Ang^3
#
#
#
# Elastic Constant Matrix: (Units=GPa)
#
#
# Indices 1 2 3 4 5 6 
#
# 1 113.4207 36.6021 26.4179 -1.6345 -26.7941 -5.9553
# 2 36.6021 172.3672 47.7918 -16.7502 -19.1466 -6.4832
# 3 26.4179 47.7918 120.7049 -1.1311 -19.3111 -11.5079
# 4 -1.6345 -16.7502 -1.1311 42.8078 -4.8097 -6.3379
# 5 -26.7941 -19.1466 -19.3111 -4.8097 43.9491 3.4400
# 6 -5.9553 -6.4832 -11.5079 -6.3379 3.4400 27.0080
#
#
#
# Elastic Compliance Matrix: (Units=1/GPa)
#
#
# Indices 1 2 3 4 5 6 
#
# 1 0.010846 -0.001338 -0.000823 0.000675 0.005651 0.001158
# 2 -0.001338 0.007202 -0.002174 0.003042 0.001620 0.001015
# 3 -0.000823 -0.002174 0.010079 0.000178 0.002742 0.003284
# 4 0.000675 0.003042 0.000178 0.026014 0.004151 0.006531
# 5 0.005651 0.001620 0.002742 0.004151 0.028553 0.000141
# 6 0.001158 0.001015 0.003284 0.006531 0.000141 0.040439
#
#
# Mechanical properties :
#
#
# Convention : Reuss Voigt Hill
#
# Bulk Modulus (GPa) = 51.39748 69.79069 60.59409
# Shear Modulus (GPa) = 36.15597 42.46504 39.31051
#
# Velocity S-wave (km/s) = 3.93400 4.26344 4.10203
# Velocity P-wave (km/s) = 6.52959 7.35591 6.95503
#
# Compressibility (1/GPa) = 0.01945621
#
# Stress axis : x y z
#
# Youngs Moduli (GPa) = 92.20216 138.84438 99.21417
#
# Poissons Ratio (x) = 0.18577 0.08167
# Poissons Ratio (y) = 0.12336 0.21573
# Poissons Ratio (z) = 0.07590 0.30190
#
# Static dielectric constant tensor:
#      x y z
#    x 4.992320 0.156010 0.352020 
#    y 0.156010 4.319620 -0.057660 
#    z 0.352020 -0.057660 4.148300 
# 
# 
# High freq. dielectric constant tensor:
#      x y z
#    x 1.949640 0.000210 -0.000600 
#    y 0.000210 1.925190 -0.001980 
#    z -0.000600 -0.001980 1.927990 
# 
# From -- ./inp_files/15468.got.cif
#   From: 2010.06.25/outbox.cif.g09.slc.cpg/sg2_8_cif.got.tgz:15468.got - 2010.06.27 13:26:56.
