data_PCOD8026261
_publ_section_title
;
Structure prediction by ZEFSAII (Michael W. Deem and Ramdas Pophale) SiO2 
 PCOD8026261
Probable space group: P -1
;
_chemical_formula_sum "Si O2"
_cell_formula_units_Z 14
_cell_length_a 15.008041
_cell_length_b 15.744961
_cell_length_c 8.799610
_cell_angle_alpha 30.919412
_cell_angle_beta 36.869766
_cell_angle_gamma 39.128072
_cell_volume 613.502733
_symmetry_space_group_name_H-M "P -1"
_symmetry_group_IT_number 2
_symmetry_cell_setting 'triclinic'
loop_
_space_group_symop_operation_xyz
x,y,z
-x,-y,-z
loop_
_atom_site_type_symbol
_atom_site_label
_atom_site_fract_x
_atom_site_fract_y
_atom_site_fract_z
Si Si1 0.563759 0.466574 0.205933
Si Si2 0.625969 0.673376 0.545307
Si Si3 0.636452 0.289575 0.668127
Si Si4 0.100042 0.120949 0.615373
Si Si5 0.459710 0.030202 0.334002
Si Si6 0.032127 0.844637 0.579595
Si Si7 0.036634 0.487482 0.792882
O O1 0.517603 0.357302 0.303174
O O2 0.680623 0.348731 0.349862
O O3 0.414796 0.558983 0.371261
O O4 0.637626 0.600820 0.814209
O O5 0.781385 0.581340 0.384780
O O6 0.580515 0.879816 0.303264
O O7 0.797391 0.167745 0.701532
O O8 0.497414 0.203978 0.965422
O O9 0.280724 0.041834 0.531634
O O10 0.089040 0.121134 0.446733
O O11 0.036565 0.316825 0.472250
O O12 0.000000 0.000000 0.000000
O O13 0.500000 0.000000 0.500000
O O14 0.000000 0.000000 0.500000
O O15 0.033904 0.663837 0.940115
O O16 0.000000 0.500000 0.000000
#
# Coordination Sequence:
#
# PCOD8026261 Si02
#       7
#     2   2   2   2   2   2   2
#     4  10  24  40  72 100 139 185 242 292 353 420
#     4  11  24  44  73 104 141 189 251 288 357 437
#     4  11  24  44  71 101 149 182 239 294 363 427
#     4  11  27  46  72 101 149 189 235 299 368 420
#     4  12  26  45  72 108 145 188 246 301 357 428
#     4  11  25  45  70 104 144 184 237 297 360 429
#     4  10  24  45  73 102 144 191 240 292 366 430
#
# _framework density 22.819783999999999
#
# number of rings (size 3 to 8) (size 9 to 14) (size 15 to 20)
#    0.000    1.143    1.429    3.429   14.000    0.571 
#    0.000    2.143    0.000    0.000    0.000    0.000 
#    0.000    0.000    0.000    0.000    0.000    0.000 
#
# Total GULP energy -173479.230495 kJ/mol
# GULP energy per Si atom -12391.373607 kJ/mol
# Density = 2.276785 g / cm^3
# Si number density = 22.819784 Si / 1000 Ang^3
#
#
#
# Elastic Constant Matrix: (Units=GPa)
#
#
# Indices 1 2 3 4 5 6 
#
# 1 114.9050 45.2077 39.2623 2.2520 -3.1619 -5.1784
# 2 45.2077 126.1018 34.7637 -18.4201 -0.9532 -3.6742
# 3 39.2623 34.7637 120.7262 -19.4032 -4.5377 0.3345
# 4 2.2520 -18.4201 -19.4032 43.5334 6.7970 -13.2697
# 5 -3.1619 -0.9532 -4.5377 6.7970 35.9040 4.6781
# 6 -5.1784 -3.6742 0.3345 -13.2697 4.6781 38.9541
#
#
#
# Elastic Compliance Matrix: (Units=1/GPa)
#
#
# Indices 1 2 3 4 5 6 
#
# 1 0.011373 -0.003765 -0.003191 -0.003892 0.001274 -0.000295
# 2 -0.003765 0.010358 -0.001002 0.005088 -0.001458 0.002394
# 3 -0.003191 -0.001002 0.010355 0.004656 -0.000008 0.000979
# 4 -0.003892 0.005088 0.004656 0.032103 -0.007224 0.011726
# 5 0.001274 -0.001458 -0.000008 -0.007224 0.030079 -0.006041
# 6 -0.000295 0.002394 0.000979 0.011726 -0.006041 0.030569
#
#
# Mechanical properties :
#
#
# Convention : Reuss Voigt Hill
#
# Bulk Modulus (GPa) = 61.84568 66.68892 64.26730
# Shear Modulus (GPa) = 34.21313 39.84493 37.02903
#
# Velocity S-wave (km/s) = 3.87625 4.18313 4.03261
# Velocity P-wave (km/s) = 6.86981 7.25390 7.06447
#
# Compressibility (1/GPa) = 0.01616928
#
# Stress axis : x y z
#
# Youngs Moduli (GPa) = 87.93080 96.54399 96.57230
#
# Poissons Ratio (x) = 0.36347 0.30820
# Poissons Ratio (y) = 0.33105 0.09676
# Poissons Ratio (z) = 0.28062 0.09673
#
# Static dielectric constant tensor:
#      x y z
#    x 4.108680 -0.017860 -0.103550 
#    y -0.017860 4.177260 -0.345120 
#    z -0.103550 -0.345120 4.481180 
# 
# 
# High freq. dielectric constant tensor:
#      x y z
#    x 1.892680 0.004280 -0.006590 
#    y 0.004280 1.907310 -0.009890 
#    z -0.006590 -0.009890 1.907570 
# 
# From -- ./inp_files/159117.got.cif
#   From: 2010.06.25/outbox.cif.g09.slc.cpg/sg2_80_cif.got.tgz:159117.got - 2010.06.27 13:26:56.
