data_PCOD8026217
_publ_section_title
;
Structure prediction by ZEFSAII (Michael W. Deem and Ramdas Pophale) SiO2 
 PCOD8026217
Probable space group: P -1
;
_chemical_formula_sum "Si O2"
_cell_formula_units_Z 16
_cell_length_a 15.288595
_cell_length_b 8.999142
_cell_length_c 12.357381
_cell_angle_alpha 71.694324
_cell_angle_beta 58.235141
_cell_angle_gamma 122.679845
_cell_volume 667.462151
_symmetry_space_group_name_H-M "P -1"
_symmetry_group_IT_number 2
_symmetry_cell_setting 'triclinic'
loop_
_space_group_symop_operation_xyz
x,y,z
-x,-y,-z
loop_
_atom_site_type_symbol
_atom_site_label
_atom_site_fract_x
_atom_site_fract_y
_atom_site_fract_z
Si Si1 0.488039 0.593913 0.846850
Si Si2 0.031921 0.361231 0.026806
Si Si3 0.275743 0.413646 0.454469
Si Si4 0.276145 0.015438 0.191255
Si Si5 0.198976 0.359653 0.751626
Si Si6 0.429508 0.328427 0.456460
Si Si7 0.189088 0.555327 0.325090
Si Si8 0.893774 0.696959 0.795036
O O1 0.679458 0.893474 0.731956
O O2 0.554937 0.745741 0.650074
O O3 0.433739 0.334310 0.944772
O O4 0.275844 0.391755 0.072310
O O5 0.144249 0.475127 0.042412
O O6 0.799188 0.974414 0.267311
O O7 0.000000 0.500000 0.000000
O O8 0.185598 0.500989 0.799087
O O9 0.179575 0.371639 0.633889
O O10 0.470111 0.564584 0.339012
O O11 0.334588 0.623106 0.279775
O O12 0.120972 0.082462 0.571035
O O13 0.318972 0.890373 0.163197
O O14 0.028170 0.720859 0.400928
O O15 0.404746 0.524615 0.602132
O O16 0.000000 0.000000 0.000000
O O17 0.133006 0.430560 0.269391
#
# Coordination Sequence:
#
# PCOD8026217 Si02
#       8
#     2   2   2   2   2   2   2   2
#     4  11  22  43  69  99 141 185 231 283 353 426
#     4  11  26  47  73 105 138 186 231 300 360 410
#     4  11  23  40  72 102 135 191 233 290 348 417
#     4  10  24  40  66 101 140 186 228 292 347 421
#     4  12  23  46  70 103 141 177 245 286 342 429
#     4  11  24  44  73 101 137 189 236 286 357 422
#     4  11  24  44  66 104 140 182 237 288 356 412
#     4  11  22  44  68  96 144 184 230 289 347 422
#
# _framework density 23.971392999999999
#
# number of rings (size 3 to 8) (size 9 to 14) (size 15 to 20)
#    0.000    1.000    5.000    2.250    3.500    4.000 
#    2.250    0.000    0.000    0.000    0.000    0.000 
#    0.000    0.000    0.000    0.000    0.000    0.000 
#
# Total GULP energy -198311.135509 kJ/mol
# GULP energy per Si atom -12394.445969 kJ/mol
# Density = 2.391683 g / cm^3
# Si number density = 23.971393 Si / 1000 Ang^3
#
#
#
# Elastic Constant Matrix: (Units=GPa)
#
#
# Indices 1 2 3 4 5 6 
#
# 1 147.6239 69.6535 18.4676 -3.4881 7.9313 -13.9691
# 2 69.6535 143.1285 40.0783 19.2956 26.3745 -1.7045
# 3 18.4676 40.0783 50.2811 4.4549 4.1558 8.0622
# 4 -3.4881 19.2956 4.4549 31.7612 7.5658 4.3903
# 5 7.9313 26.3745 4.1558 7.5658 34.4846 7.4152
# 6 -13.9691 -1.7045 8.0622 4.3903 7.4152 47.7272
#
#
#
# Elastic Compliance Matrix: (Units=1/GPa)
#
#
# Indices 1 2 3 4 5 6 
#
# 1 0.009493 -0.005165 -0.000095 0.003777 0.000479 0.002188
# 2 -0.005165 0.014229 -0.008592 -0.006477 -0.007720 0.002243
# 3 -0.000095 -0.008592 0.027230 0.001158 0.004285 -0.005707
# 4 0.003777 -0.006477 0.001158 0.036844 -0.003678 -0.002139
# 5 0.000479 -0.007720 0.004285 -0.003678 0.036412 -0.006178
# 6 0.002188 0.002243 -0.005707 -0.002139 -0.006178 0.023794
#
#
# Mechanical properties :
#
#
# Convention : Reuss Voigt Hill
#
# Bulk Modulus (GPa) = 43.01458 66.38138 54.69798
# Shear Modulus (GPa) = 27.25460 36.98355 32.11908
#
# Velocity S-wave (km/s) = 3.37555 3.93214 3.66442
# Velocity P-wave (km/s) = 5.75982 6.95468 6.38526
#
# Compressibility (1/GPa) = 0.02324793
#
# Stress axis : x y z
#
# Youngs Moduli (GPa) = 105.33739 70.28094 36.72397
#
# Poissons Ratio (x) = 0.36297 0.00350
# Poissons Ratio (y) = 0.54403 0.31554
# Poissons Ratio (z) = 0.01003 0.60387
#
# Static dielectric constant tensor:
#      x y z
#    x 4.722100 -0.230800 -0.175340 
#    y -0.230800 3.971560 0.107460 
#    z -0.175340 0.107460 4.157530 
# 
# 
# High freq. dielectric constant tensor:
#      x y z
#    x 1.963760 0.002940 -0.010130 
#    y 0.002940 1.947060 0.032300 
#    z -0.010130 0.032300 1.941910 
# 
# From -- ./inp_files/447132.got.cif
#   From: 2010.06.25/outbox.cif.g09.slc.cpg/sg2_224_cif.got.tgz:447132.got - 2010.06.27 13:26:56.
