data_PCOD8026660
_publ_section_title
;
Structure prediction by ZEFSAII (Michael W. Deem and Ramdas Pophale) SiO2 
 PCOD8026660
Probable space group: P -1
;
_chemical_formula_sum "Si O2"
_cell_formula_units_Z 14
_cell_length_a 22.705725
_cell_length_b 8.401173
_cell_length_c 12.157766
_cell_angle_alpha 35.851373
_cell_angle_beta 28.171395
_cell_angle_gamma 47.646594
_cell_volume 634.237543
_symmetry_space_group_name_H-M "P -1"
_symmetry_group_IT_number 2
_symmetry_cell_setting 'triclinic'
loop_
_space_group_symop_operation_xyz
x,y,z
-x,-y,-z
loop_
_atom_site_type_symbol
_atom_site_label
_atom_site_fract_x
_atom_site_fract_y
_atom_site_fract_z
Si Si1 0.913291 0.041892 0.777753
Si Si2 0.726730 0.768833 0.392644
Si Si3 0.784017 0.504976 0.656007
Si Si4 0.215481 0.522175 0.742173
Si Si5 0.822714 0.877466 0.594018
Si Si6 0.538595 0.129034 0.248506
Si Si7 0.633315 0.672166 0.209359
O O1 0.868114 0.258613 0.645733
O O2 0.055150 0.142719 0.522689
O O3 0.813832 0.035252 0.047746
O O4 0.901036 0.734146 0.917124
O O5 0.810785 0.684291 0.401628
O O6 0.701196 0.531770 0.472658
O O7 0.589954 0.826575 0.627055
O O8 0.824893 0.680615 0.597401
O O9 0.633273 0.407206 0.958585
O O10 0.291646 0.522599 0.730742
O O11 0.170925 0.815191 0.635673
O O12 0.702009 0.771273 0.927147
O O13 0.500000 0.000000 0.500000
O O14 0.617215 0.940684 0.154093
O O15 0.500000 0.500000 0.500000
#
# Coordination Sequence:
#
# PCOD8026660 Si02
#       7
#     2   2   2   2   2   2   2
#     4  10  24  47  70  96 137 186 226 273 333 409
#     4  10  24  42  74  93 132 178 237 264 339 402
#     4  12  24  43  71 102 132 183 226 280 333 404
#     4  10  24  46  67 100 134 179 220 281 336 396
#     4  12  28  42  69 107 138 172 230 282 341 394
#     4  12  20  47  69  95 133 181 225 273 333 406
#     4  12  27  44  72 101 140 176 223 286 343 396
#
# _framework density 22.073748999999999
#
# number of rings (size 3 to 8) (size 9 to 14) (size 15 to 20)
#    0.857    0.000    4.286    3.000    2.000    2.857 
#    0.000    0.000    0.000    0.000    0.000    0.000 
#    0.000    0.000    0.000    0.000    0.000    0.000 
#
# Total GULP energy -173558.895016 kJ/mol
# GULP energy per Si atom -12397.063930 kJ/mol
# Density = 2.202351 g / cm^3
# Si number density = 22.073749 Si / 1000 Ang^3
#
#
#
# Elastic Constant Matrix: (Units=GPa)
#
#
# Indices 1 2 3 4 5 6 
#
# 1 124.6623 24.2166 33.1260 -14.6844 -4.7594 -18.2226
# 2 24.2166 79.0885 21.8879 -12.0258 0.5515 -18.0080
# 3 33.1260 21.8879 64.2945 -3.6990 -25.6396 -5.3556
# 4 -14.6844 -12.0258 -3.6990 19.3919 -3.6176 -1.6950
# 5 -4.7594 0.5515 -25.6396 -3.6176 39.5575 -1.4494
# 6 -18.2226 -18.0080 -5.3556 -1.6950 -1.4494 43.0147
#
#
#
# Elastic Compliance Matrix: (Units=1/GPa)
#
#
# Indices 1 2 3 4 5 6 
#
# 1 0.010876 0.000318 -0.005482 0.007502 -0.001405 0.004306
# 2 0.000318 0.017339 -0.006126 0.009866 -0.003019 0.006918
# 3 -0.005482 -0.006126 0.027211 0.000343 0.017061 -0.000911
# 4 0.007502 0.009866 0.000343 0.065698 0.007369 0.010188
# 5 -0.001405 -0.003019 0.017061 0.007369 0.036951 0.001801
# 6 0.004306 0.006918 -0.000911 0.010188 0.001801 0.028317
#
#
# Mechanical properties :
#
#
# Convention : Reuss Voigt Hill
#
# Bulk Modulus (GPa) = 30.44610 47.38960 38.91785
# Shear Modulus (GPa) = 22.73556 32.98048 27.85802
#
# Velocity S-wave (km/s) = 3.21282 3.86956 3.55638
# Velocity P-wave (km/s) = 5.25221 6.44050 5.87647
#
# Compressibility (1/GPa) = 0.03284492
#
# Stress axis : x y z
#
# Youngs Moduli (GPa) = 91.94498 57.67495 36.74998
#
# Poissons Ratio (x) = -0.01833 0.20146
# Poissons Ratio (y) = -0.02923 0.22514
# Poissons Ratio (z) = 0.50403 0.35333
#
# Static dielectric constant tensor:
#      x y z
#    x 4.051870 -0.094100 0.045600 
#    y -0.094100 3.871910 -0.007430 
#    z 0.045600 -0.007430 3.970280 
# 
# 
# High freq. dielectric constant tensor:
#      x y z
#    x 1.878280 -0.013310 0.001510 
#    y -0.013310 1.856840 -0.005540 
#    z 0.001510 -0.005540 1.866480 
# 
# From -- ./inp_files/469743.got.cif
#   From: 2010.06.25/outbox.cif.g09.slc.cpg/sg2_235_cif.got.tgz:469743.got - 2010.06.27 13:26:56.
