data_PCOD8026180
_publ_section_title
;
Structure prediction by ZEFSAII (Michael W. Deem and Ramdas Pophale) SiO2 
 PCOD8026180
Probable space group: P -1
;
_chemical_formula_sum "Si O2"
_cell_formula_units_Z 16
_cell_length_a 14.573838
_cell_length_b 11.166786
_cell_length_c 11.688106
_cell_angle_alpha 70.957944
_cell_angle_beta 91.893925
_cell_angle_gamma 148.887561
_cell_volume 802.346871
_symmetry_space_group_name_H-M "P -1"
_symmetry_group_IT_number 2
_symmetry_cell_setting 'triclinic'
loop_
_space_group_symop_operation_xyz
x,y,z
-x,-y,-z
loop_
_atom_site_type_symbol
_atom_site_label
_atom_site_fract_x
_atom_site_fract_y
_atom_site_fract_z
Si Si1 0.232626 0.725521 0.051027
Si Si2 0.827433 0.082344 0.942737
Si Si3 0.645003 0.533912 0.855832
Si Si4 0.708206 0.359528 0.508842
Si Si5 0.534615 0.878070 0.639974
Si Si6 0.646351 0.317968 0.772341
Si Si7 0.171596 0.962847 0.303064
Si Si8 0.788555 0.517838 0.052218
O O1 0.204020 0.612996 0.205477
O O2 0.169790 0.555479 0.999090
O O3 0.104852 0.697407 0.069338
O O4 0.459318 0.060600 0.932479
O O5 0.844825 0.119695 0.796064
O O6 0.601469 0.752931 0.067462
O O7 0.996248 0.190825 0.963394
O O8 0.723304 0.552374 0.741624
O O9 0.747090 0.795411 0.776568
O O10 0.723186 0.559970 0.965101
O O11 0.605808 0.317088 0.417672
O O12 0.594994 0.253643 0.656600
O O13 0.684004 0.182090 0.532072
O O14 0.946332 0.686520 0.435728
O O15 0.673069 0.925027 0.646797
O O16 0.393083 0.733753 0.787942
#
# Coordination Sequence:
#
# PCOD8026180 Si02
#       8
#     2   2   2   2   2   2   2   2
#     4   9  18  35  62  90 118 146 193 250 294 344
#     4  11  21  35  60  91 118 152 193 242 300 343
#     4  10  24  40  60  87 122 153 201 247 284 343
#     4  11  23  41  61  87 119 158 195 239 296 355
#     4  11  23  39  60  90 122 150 196 244 294 351
#     4   9  18  38  62  84 117 160 190 242 295 338
#     4  12  24  40  59  88 120 164 196 236 292 351
#     4  11  20  38  62  92 118 151 194 246 301 344
#
# _framework density 19.941499
#
# number of rings (size 3 to 8) (size 9 to 14) (size 15 to 20)
#    0.000    1.500    3.750    2.625    0.000    2.000 
#    0.000    3.125    0.000    0.000    0.000    0.000 
#    0.000    0.000    0.000    0.000    0.000    0.000 
#
# Total GULP energy -198319.004304 kJ/mol
# GULP energy per Si atom -12394.937769 kJ/mol
# Density = 1.989611 g / cm^3
# Si number density = 19.941499 Si / 1000 Ang^3
#
#
#
# Elastic Constant Matrix: (Units=GPa)
#
#
# Indices 1 2 3 4 5 6 
#
# 1 93.2656 60.3177 40.3787 -2.1399 20.2155 10.8191
# 2 60.3177 96.9464 46.1926 6.5196 12.9699 23.5083
# 3 40.3787 46.1926 74.4990 10.0293 12.3766 -0.6027
# 4 -2.1399 6.5196 10.0293 40.7935 -1.5110 -2.7348
# 5 20.2155 12.9699 12.3766 -1.5110 23.2895 3.0949
# 6 10.8191 23.5083 -0.6027 -2.7348 3.0949 31.6190
#
#
#
# Elastic Compliance Matrix: (Units=1/GPa)
#
#
# Indices 1 2 3 4 5 6 
#
# 1 0.021547 -0.011059 -0.003490 0.003501 -0.010746 0.002138
# 2 -0.011059 0.025806 -0.010129 -0.003201 0.002546 -0.016121
# 3 -0.003490 -0.010129 0.023019 -0.003785 -0.005048 0.009331
# 4 0.003501 -0.003201 -0.003785 0.026429 0.002045 0.003195
# 5 -0.010746 0.002546 -0.005048 0.002045 0.054119 -0.003432
# 6 0.002138 -0.016121 0.009331 0.003195 -0.003432 0.043671
#
#
# Mechanical properties :
#
#
# Convention : Reuss Voigt Hill
#
# Bulk Modulus (GPa) = 47.58542 62.05436 54.81989
# Shear Modulus (GPa) = 19.92401 26.99521 23.45961
#
# Velocity S-wave (km/s) = 3.16432 3.68329 3.43362
# Velocity P-wave (km/s) = 6.10450 7.01958 6.57797
#
# Compressibility (1/GPa) = 0.02101484
#
# Stress axis : x y z
#
# Youngs Moduli (GPa) = 46.40998 38.75081 43.44282
#
# Poissons Ratio (x) = 0.42856 0.15162
# Poissons Ratio (y) = 0.51326 0.44004
# Poissons Ratio (z) = 0.16198 0.39251
#
# Static dielectric constant tensor:
#      x y z
#    x 3.706690 0.060770 0.029910 
#    y 0.060770 3.633790 0.121060 
#    z 0.029910 0.121060 3.461730 
# 
# 
# High freq. dielectric constant tensor:
#      x y z
#    x 1.775180 0.003960 0.002860 
#    y 0.003960 1.780470 0.011860 
#    z 0.002860 0.011860 1.761310 
# 
# From -- ./inp_files/345594.got.cif
#   From: 2010.06.25/outbox.cif.g09.slc.cpg/sg2_173_cif.got.tgz:345594.got - 2010.06.27 13:26:56.
