data_PCOD8026780
_publ_section_title
;
Structure prediction by ZEFSAII (Michael W. Deem and Ramdas Pophale) SiO2 
 PCOD8026780
Probable space group: P -1
;
_chemical_formula_sum "Si O2"
_cell_formula_units_Z 16
_cell_length_a 6.846680
_cell_length_b 10.324500
_cell_length_c 11.966405
_cell_angle_alpha 117.995846
_cell_angle_beta 89.852760
_cell_angle_gamma 82.103198
_cell_volume 737.642613
_symmetry_space_group_name_H-M "P -1"
_symmetry_group_IT_number 2
_symmetry_cell_setting 'triclinic'
loop_
_space_group_symop_operation_xyz
x,y,z
-x,-y,-z
loop_
_atom_site_type_symbol
_atom_site_label
_atom_site_fract_x
_atom_site_fract_y
_atom_site_fract_z
Si Si1 0.791481 0.565346 0.073241
Si Si2 0.658744 0.857422 0.930279
Si Si3 0.089933 0.108200 0.277584
Si Si4 0.794855 0.886474 0.187006
Si Si5 0.516051 0.402898 0.603624
Si Si6 0.826138 0.417076 0.432234
Si Si7 0.467011 0.077001 0.411748
Si Si8 0.491622 0.425699 0.129084
O O1 0.807626 0.729282 0.190547
O O2 0.719766 0.446696 0.110953
O O3 0.626876 0.586168 0.987163
O O4 0.000000 0.500000 0.000000
O O5 0.802359 0.871530 0.831490
O O6 0.535282 0.720206 0.857388
O O7 0.781010 0.845316 0.039953
O O8 0.500000 0.000000 0.000000
O O9 0.242036 0.095136 0.375741
O O10 0.909275 0.243793 0.345315
O O11 0.994705 0.957771 0.224933
O O12 0.607538 0.995202 0.281797
O O13 0.674131 0.462507 0.550471
O O14 0.298395 0.507832 0.643351
O O15 0.518144 0.237340 0.498537
O O16 0.591495 0.425158 0.739043
O O17 0.000000 0.500000 0.500000
O O18 0.500000 0.000000 0.500000
#
# Coordination Sequence:
#
# PCOD8026780 Si02
#       8
#     2   2   2   2   2   2   2   2
#     4  10  24  45  69  97 133 180 235 281 334 411
#     4  11  24  42  72 101 137 175 222 294 359 398
#     4  12  25  44  70 106 143 181 232 288 350 422
#     4  11  25  45  69 105 134 179 235 283 351 412
#     4  11  24  42  68  97 141 176 222 283 337 409
#     4  11  23  41  67  99 134 175 225 274 342 406
#     4  12  26  46  67 100 142 191 230 282 343 410
#     4  10  24  43  67  98 133 180 223 280 340 405
#
# _framework density 21.690719999999999
#
# number of rings (size 3 to 8) (size 9 to 14) (size 15 to 20)
#    0.000    1.000    3.750    1.875    5.250    5.500 
#    2.250    0.000    0.000    0.000    0.000    0.000 
#    0.000    0.000    0.000    0.000    0.000    0.000 
#
# Total GULP energy -198237.879856 kJ/mol
# GULP energy per Si atom -12389.867491 kJ/mol
# Density = 2.164135 g / cm^3
# Si number density = 21.690720 Si / 1000 Ang^3
#
#
#
# Elastic Constant Matrix: (Units=GPa)
#
#
# Indices 1 2 3 4 5 6 
#
# 1 100.0978 62.1794 29.4935 14.6620 -19.1228 28.2614
# 2 62.1794 110.3854 33.9628 20.5205 -0.7758 22.4443
# 3 29.4935 33.9628 102.8712 12.7357 -6.7155 11.8452
# 4 14.6620 20.5205 12.7357 44.6157 2.6662 2.0563
# 5 -19.1228 -0.7758 -6.7155 2.6662 32.6824 9.7651
# 6 28.2614 22.4443 11.8452 2.0563 9.7651 43.0247
#
#
#
# Elastic Compliance Matrix: (Units=1/GPa)
#
#
# Indices 1 2 3 4 5 6 
#
# 1 0.024672 -0.009861 -0.000361 -0.003907 0.018951 -0.015077
# 2 -0.009861 0.015811 -0.002436 -0.003008 -0.005754 0.000350
# 3 -0.000361 -0.002436 0.011321 -0.002064 0.002871 -0.002162
# 4 -0.003907 -0.003008 -0.002064 0.025824 -0.006356 0.004912
# 5 0.018951 -0.005754 0.002871 -0.006356 0.048945 -0.021042
# 6 -0.015077 0.000350 -0.002162 0.004912 -0.021042 0.038100
#
#
# Mechanical properties :
#
#
# Convention : Reuss Voigt Hill
#
# Bulk Modulus (GPa) = 37.75518 62.73619 50.24569
# Shear Modulus (GPa) = 25.14862 36.57913 30.86387
#
# Velocity S-wave (km/s) = 3.40872 4.11103 3.77624
# Velocity P-wave (km/s) = 5.73902 7.17774 6.49832
#
# Compressibility (1/GPa) = 0.02648643
#
# Stress axis : x y z
#
# Youngs Moduli (GPa) = 40.53210 63.24617 88.33422
#
# Poissons Ratio (x) = 0.62370 0.03188
# Poissons Ratio (y) = 0.39970 0.21521
# Poissons Ratio (z) = 0.01463 0.15409
#
# Static dielectric constant tensor:
#      x y z
#    x 3.531970 -0.214940 1.020810 
#    y -0.214940 4.144360 0.601550 
#    z 1.020810 0.601550 2.910050 
# 
# 
# High freq. dielectric constant tensor:
#      x y z
#    x 1.855310 0.021040 0.000440 
#    y 0.021040 1.857460 0.009090 
#    z 0.000440 0.009090 1.863730 
# 
# From -- ./inp_files/365196.got.cif
#   From: 2010.06.25/outbox.cif.g09.slc.cpg/sg2_183_cif.got.tgz:365196.got - 2010.06.27 13:26:56.
