data_PCOD8026589
_publ_section_title
;
Structure prediction by ZEFSAII (Michael W. Deem and Ramdas Pophale) SiO2 
 PCOD8026589
Probable space group: P -1
;
_chemical_formula_sum "Si O2"
_cell_formula_units_Z 16
_cell_length_a 8.135809
_cell_length_b 8.912827
_cell_length_c 11.786435
_cell_angle_alpha 71.786967
_cell_angle_beta 122.093151
_cell_angle_gamma 112.058798
_cell_volume 664.073834
_symmetry_space_group_name_H-M "P -1"
_symmetry_group_IT_number 2
_symmetry_cell_setting 'triclinic'
loop_
_space_group_symop_operation_xyz
x,y,z
-x,-y,-z
loop_
_atom_site_type_symbol
_atom_site_label
_atom_site_fract_x
_atom_site_fract_y
_atom_site_fract_z
Si Si1 0.826227 0.730146 0.151251
Si Si2 0.430397 0.082325 0.848071
Si Si3 0.383090 0.300656 0.146950
Si Si4 0.305236 0.640988 0.435735
Si Si5 0.167800 0.571512 0.646210
Si Si6 0.749040 0.085374 0.788345
Si Si7 0.733910 0.634627 0.680675
Si Si8 0.067215 0.871944 0.632982
O O1 0.692687 0.790710 0.183984
O O2 0.928918 0.601131 0.282827
O O3 0.006442 0.868421 0.125310
O O4 0.680450 0.655223 0.011350
O O5 0.632963 0.157061 0.830646
O O6 0.284405 0.946898 0.748668
O O7 0.500000 0.000000 0.000000
O O8 0.617432 0.376178 0.227795
O O9 0.279960 0.390219 0.182925
O O10 0.333447 0.108069 0.200637
O O11 0.171551 0.550659 0.515388
O O12 0.294689 0.826485 0.364063
O O13 0.534840 0.661169 0.544661
O O14 0.225111 0.525782 0.324542
O O15 0.059222 0.713425 0.592234
O O16 0.905200 0.804258 0.687586
O O17 0.000000 0.000000 0.500000
#
# Coordination Sequence:
#
# PCOD8026589 Si02
#       8
#     2   2   2   2   2   2   2   2
#     4  12  27  47  75 106 148 199 249 297 373 451
#     4  12  27  48  74 109 152 195 250 308 373 443
#     4  11  24  47  70 103 144 191 246 304 366 435
#     4  10  25  46  68 107 143 193 239 306 376 442
#     4  11  26  47  73 103 152 191 239 311 376 438
#     4  12  25  45  73 105 144 192 247 304 370 435
#     4  10  24  42  70 101 145 186 244 299 372 437
#     4  12  26  44  71 112 143 192 250 310 366 446
#
# _framework density 24.093707999999999
#
# number of rings (size 3 to 8) (size 9 to 14) (size 15 to 20)
#    0.000    0.750    2.500    3.000   12.250    2.000 
#    0.000    1.250    0.000    0.000    0.000    0.000 
#    0.000    0.000    0.000    0.000    0.000    0.000 
#
# Total GULP energy -198370.142662 kJ/mol
# GULP energy per Si atom -12398.133916 kJ/mol
# Density = 2.403887 g / cm^3
# Si number density = 24.093708 Si / 1000 Ang^3
#
#
#
# Elastic Constant Matrix: (Units=GPa)
#
#
# Indices 1 2 3 4 5 6 
#
# 1 142.7299 30.6774 18.1632 5.5246 -17.8146 -1.5489
# 2 30.6774 93.9564 48.6485 -9.1163 -13.8426 -9.7420
# 3 18.1632 48.6485 117.1510 -4.2592 -10.4409 -10.5702
# 4 5.5246 -9.1163 -4.2592 42.2467 -5.5968 -1.8348
# 5 -17.8146 -13.8426 -10.4409 -5.5968 28.5352 -1.8603
# 6 -1.5489 -9.7420 -10.5702 -1.8348 -1.8603 49.6258
#
#
#
# Elastic Compliance Matrix: (Units=1/GPa)
#
#
# Indices 1 2 3 4 5 6 
#
# 1 0.007975 -0.002130 -0.000065 -0.001020 0.003716 -0.000082
# 2 -0.002130 0.015427 -0.005284 0.003847 0.005116 0.002170
# 3 -0.000065 -0.005284 0.011013 0.000245 0.001563 0.001374
# 4 -0.001020 0.003847 0.000245 0.025601 0.006468 0.001965
# 5 0.003716 0.005116 0.001563 0.006468 0.041900 0.003263
# 6 -0.000082 0.002170 0.001374 0.001965 0.003263 0.021062
#
#
# Mechanical properties :
#
#
# Convention : Reuss Voigt Hill
#
# Bulk Modulus (GPa) = 51.39980 60.97950 56.18965
# Shear Modulus (GPa) = 34.62101 41.17144 37.89622
#
# Velocity S-wave (km/s) = 3.79480 4.13825 3.97024
# Velocity P-wave (km/s) = 6.37027 6.94246 6.66251
#
# Compressibility (1/GPa) = 0.01945533
#
# Stress axis : x y z
#
# Youngs Moduli (GPa) = 125.39538 64.82191 90.80467
#
# Poissons Ratio (x) = 0.13807 0.00592
# Poissons Ratio (y) = 0.26710 0.47984
# Poissons Ratio (z) = 0.00817 0.34254
#
# Static dielectric constant tensor:
#      x y z
#    x 5.038410 0.157560 -0.009730 
#    y 0.157560 4.356320 0.155710 
#    z -0.009730 0.155710 4.272760 
# 
# 
# High freq. dielectric constant tensor:
#      x y z
#    x 1.985680 0.014980 0.006590 
#    y 0.014980 1.956690 0.003010 
#    z 0.006590 0.003010 1.959730 
# 
# From -- ./inp_files/381798.got.cif
#   From: 2010.06.25/outbox.cif.g09.slc.cpg/sg2_191_cif.got.tgz:381798.got - 2010.06.27 13:26:56.
