data_PCOD8026394
_publ_section_title
;
Structure prediction by ZEFSAII (Michael W. Deem and Ramdas Pophale) SiO2 
 PCOD8026394
Probable space group: P -1
;
_chemical_formula_sum "Si O2"
_cell_formula_units_Z 16
_cell_length_a 8.956958
_cell_length_b 30.270759
_cell_length_c 12.030119
_cell_angle_alpha 150.940497
_cell_angle_beta 47.249396
_cell_angle_gamma 151.912641
_cell_volume 682.369733
_symmetry_space_group_name_H-M "P -1"
_symmetry_group_IT_number 2
_symmetry_cell_setting 'triclinic'
loop_
_space_group_symop_operation_xyz
x,y,z
-x,-y,-z
loop_
_atom_site_type_symbol
_atom_site_label
_atom_site_fract_x
_atom_site_fract_y
_atom_site_fract_z
Si Si1 0.391772 0.619524 0.332980
Si Si2 0.308933 0.783399 0.640550
Si Si3 0.282666 0.718755 0.984015
Si Si4 0.563631 0.514977 0.370754
Si Si5 0.492263 0.985634 0.821787
Si Si6 0.303828 0.262266 0.327709
Si Si7 0.793055 0.984549 0.482220
Si Si8 0.184745 0.287606 0.870747
O O1 0.445796 0.741969 0.534831
O O2 0.649649 0.702768 0.488847
O O3 0.515611 0.597522 0.122487
O O4 0.002567 0.454998 0.206273
O O5 0.565605 0.925381 0.734080
O O6 0.964939 0.633821 0.416182
O O7 0.248892 0.837614 0.887575
O O8 0.508334 0.761344 0.861001
O O9 0.542897 0.829867 0.198357
O O10 0.113351 0.749354 0.091502
O O11 0.500000 0.500000 0.500000
O O12 0.489437 0.584844 0.506157
O O13 0.336761 0.359805 0.076378
O O14 0.563750 0.979238 0.647391
O O15 0.104562 0.884437 0.812691
O O16 0.000000 0.000000 0.500000
O O17 0.044763 0.133340 0.601647
#
# Coordination Sequence:
#
# PCOD8026394 Si02
#       8
#     2   2   2   2   2   2   2   2
#     4  12  26  47  76 109 144 189 246 303 365 432
#     4  10  24  41  74 103 141 184 248 291 364 418
#     4  12  28  47  72 107 148 189 244 297 366 435
#     4  11  24  43  72 105 143 188 243 297 359 426
#     4  10  24  48  71 103 148 192 235 302 358 432
#     4  11  26  45  77 104 143 193 244 297 359 433
#     4  12  29  47  74 108 147 190 242 297 367 433
#     4  12  28  48  75 104 150 195 237 302 369 429
#
# _framework density 23.447697999999999
#
# number of rings (size 3 to 8) (size 9 to 14) (size 15 to 20)
#    0.000    0.750    1.250    4.125   17.500    1.000 
#    0.000    0.000    0.000    0.000    0.000    0.000 
#    0.000    0.000    0.000    0.000    0.000    0.000 
#
# Total GULP energy -198403.526203 kJ/mol
# GULP energy per Si atom -12400.220388 kJ/mol
# Density = 2.339433 g / cm^3
# Si number density = 23.447698 Si / 1000 Ang^3
#
#
#
# Elastic Constant Matrix: (Units=GPa)
#
#
# Indices 1 2 3 4 5 6 
#
# 1 139.8016 28.8190 44.9154 5.1257 2.3905 -14.2870
# 2 28.8190 95.6471 23.7099 -15.8174 6.2727 -4.0323
# 3 44.9154 23.7099 103.9815 0.9683 19.4809 -6.0041
# 4 5.1257 -15.8174 0.9683 40.5405 -7.7441 6.0208
# 5 2.3905 6.2727 19.4809 -7.7441 47.7122 -1.9282
# 6 -14.2870 -4.0323 -6.0041 6.0208 -1.9282 28.0777
#
#
#
# Elastic Compliance Matrix: (Units=1/GPa)
#
#
# Indices 1 2 3 4 5 6 
#
# 1 0.009200 -0.002213 -0.003391 -0.002381 0.000998 0.004217
# 2 -0.002213 0.012458 -0.002010 0.005347 0.000125 -0.000905
# 3 -0.003391 -0.002010 0.012518 -0.001698 -0.004925 0.000689
# 4 -0.002381 0.005347 -0.001698 0.028957 0.004539 -0.006705
# 5 0.000998 0.000125 -0.004925 0.004539 0.023645 0.000123
# 6 0.004217 -0.000905 0.000689 -0.006705 0.000123 0.039225
#
#
# Mechanical properties :
#
#
# Convention : Reuss Voigt Hill
#
# Bulk Modulus (GPa) = 52.77460 59.36875 56.07167
# Shear Modulus (GPa) = 33.88750 39.39845 36.64298
#
# Velocity S-wave (km/s) = 3.80575 4.10356 3.95746
# Velocity P-wave (km/s) = 6.47054 6.91570 6.69682
#
# Compressibility (1/GPa) = 0.01894851
#
# Stress axis : x y z
#
# Youngs Moduli (GPa) = 108.69863 80.26941 79.88287
#
# Poissons Ratio (x) = 0.17763 0.27085
# Poissons Ratio (y) = 0.24054 0.16059
# Poissons Ratio (z) = 0.36856 0.16136
#
# Static dielectric constant tensor:
#      x y z
#    x 4.173100 -0.115640 0.040940 
#    y -0.115640 4.283010 0.062780 
#    z 0.040940 0.062780 4.347280 
# 
# 
# High freq. dielectric constant tensor:
#      x y z
#    x 1.934800 -0.006200 0.003080 
#    y -0.006200 1.928050 -0.000920 
#    z 0.003080 -0.000920 1.933830 
# 
# From -- ./inp_files/407526.got.cif
#   From: 2010.06.25/outbox.cif.g09.slc.cpg/sg2_204_cif.got.tgz:407526.got - 2010.06.27 13:26:56.
