data_PCOD8026175
_publ_section_title
;
Structure prediction by ZEFSAII (Michael W. Deem and Ramdas Pophale) SiO2 
 PCOD8026175
Probable space group: P -1
;
_chemical_formula_sum "Si O2"
_cell_formula_units_Z 16
_cell_length_a 5.606666
_cell_length_b 22.996157
_cell_length_c 18.266276
_cell_angle_alpha 20.600530
_cell_angle_beta 82.525984
_cell_angle_gamma 72.239732
_cell_volume 699.088471
_symmetry_space_group_name_H-M "P -1"
_symmetry_group_IT_number 2
_symmetry_cell_setting 'triclinic'
loop_
_space_group_symop_operation_xyz
x,y,z
-x,-y,-z
loop_
_atom_site_type_symbol
_atom_site_label
_atom_site_fract_x
_atom_site_fract_y
_atom_site_fract_z
Si Si1 0.142171 0.908544 0.526177
Si Si2 0.199306 0.294612 0.269173
Si Si3 0.560593 0.506463 0.284663
Si Si4 0.842451 0.440056 0.500194
Si Si5 0.866314 0.799419 0.106282
Si Si6 0.959585 0.099792 0.163880
Si Si7 0.613734 0.788147 0.349006
Si Si8 0.083003 0.243350 0.489042
O O1 0.479340 0.779370 0.681960
O O2 0.956938 0.819209 0.611700
O O3 0.000000 0.000000 0.500000
O O4 0.108572 0.058950 0.286014
O O5 0.211666 0.302367 0.347667
O O6 0.000000 0.500000 0.000000
O O7 0.627198 0.461904 0.420742
O O8 0.433529 0.376172 0.421351
O O9 0.829389 0.443122 0.297564
O O10 0.367337 0.734553 0.006895
O O11 0.750068 0.653683 0.281563
O O12 0.851263 0.311514 0.721665
O O13 0.162174 0.310998 0.607796
O O14 0.924397 0.812152 0.003439
O O15 0.664297 0.010793 0.902701
O O16 0.014224 0.900674 0.363511
O O17 0.701202 0.865182 0.325544
#
# Coordination Sequence:
#
# PCOD8026175 Si02
#       8
#     2   2   2   2   2   2   2   2
#     4  11  26  47  72 108 143 180 233 287 352 418
#     4  11  25  46  74 105 142 184 230 283 356 418
#     4  11  23  40  64  96 127 175 227 278 339 408
#     4  10  24  40  58  94 126 173 226 275 344 403
#     4  11  21  41  63  86 133 171 218 286 337 407
#     4  11  23  43  68  94 133 177 224 277 349 408
#     4  11  21  41  62  91 125 171 223 277 339 401
#     4  10  24  42  66  93 134 171 228 276 339 415
#
# _framework density 22.886946999999999
#
# number of rings (size 3 to 8) (size 9 to 14) (size 15 to 20)
#    0.000    1.250    2.500    2.625    3.500    3.000 
#    2.250    0.000    0.000    0.000    0.000    0.000 
#    0.000    0.000    0.000    0.000    0.000    0.000 
#
# Total GULP energy -198214.635976 kJ/mol
# GULP energy per Si atom -12388.414748 kJ/mol
# Density = 2.283486 g / cm^3
# Si number density = 22.886947 Si / 1000 Ang^3
#
#
#
# Elastic Constant Matrix: (Units=GPa)
#
#
# Indices 1 2 3 4 5 6 
#
# 1 85.9436 27.7053 17.9143 1.5158 16.9267 -4.8808
# 2 27.7053 121.6599 49.8064 10.8979 7.4681 -2.1080
# 3 17.9143 49.8064 119.7026 6.4059 24.4619 -4.1839
# 4 1.5158 10.8979 6.4059 38.7244 -3.8705 0.9277
# 5 16.9267 7.4681 24.4619 -3.8705 30.5731 0.1719
# 6 -4.8808 -2.1080 -4.1839 0.9277 0.1719 30.4551
#
#
#
# Elastic Compliance Matrix: (Units=1/GPa)
#
#
# Indices 1 2 3 4 5 6 
#
# 1 0.014106 -0.002976 0.000850 -0.000695 -0.007863 0.002237
# 2 -0.002976 0.010723 -0.004393 -0.001938 0.002300 -0.000292
# 3 0.000850 -0.004393 0.012110 -0.001770 -0.009320 0.001602
# 4 -0.000695 -0.001938 -0.001770 0.027295 0.005737 -0.001352
# 5 -0.007863 0.002300 -0.009320 0.005737 0.044699 -0.002808
# 6 0.002237 -0.000292 0.001602 -0.001352 -0.002808 0.033451
#
#
# Mechanical properties :
#
#
# Convention : Reuss Voigt Hill
#
# Bulk Modulus (GPa) = 41.84154 57.57313 49.70733
# Shear Modulus (GPa) = 30.60183 35.40920 33.00551
#
# Velocity S-wave (km/s) = 3.66059 3.93763 3.80163
# Velocity P-wave (km/s) = 6.01565 6.77372 6.40591
#
# Compressibility (1/GPa) = 0.02389969
#
# Stress axis : x y z
#
# Youngs Moduli (GPa) = 70.89269 93.25616 82.57692
#
# Poissons Ratio (x) = 0.27757 -0.07016
# Poissons Ratio (y) = 0.21101 0.36274
# Poissons Ratio (z) = -0.06023 0.40965
#
# Static dielectric constant tensor:
#      x y z
#    x 4.730880 -0.028750 0.102290 
#    y -0.028750 4.473760 0.255070 
#    z 0.102290 0.255070 4.393960 
# 
# 
# High freq. dielectric constant tensor:
#      x y z
#    x 1.887010 -0.000590 0.013960 
#    y -0.000590 1.921480 0.002600 
#    z 0.013960 0.002600 1.906810 
# 
# From -- ./inp_files/49184.got.cif
#   From: 2010.06.25/outbox.cif.g09.slc.cpg/sg2_25_cif.got.tgz:49184.got - 2010.06.27 13:26:56.
