data_PCOD8026161
_publ_section_title
;
Structure prediction by ZEFSAII (Michael W. Deem and Ramdas Pophale) SiO2 
 PCOD8026161
Probable space group: P -1
;
_chemical_formula_sum "Si O2"
_cell_formula_units_Z 16
_cell_length_a 8.921900
_cell_length_b 11.015707
_cell_length_c 16.084045
_cell_angle_alpha 32.527243
_cell_angle_beta 52.182355
_cell_angle_gamma 65.229918
_cell_volume 653.338962
_symmetry_space_group_name_H-M "P -1"
_symmetry_group_IT_number 2
_symmetry_cell_setting 'triclinic'
loop_
_space_group_symop_operation_xyz
x,y,z
-x,-y,-z
loop_
_atom_site_type_symbol
_atom_site_label
_atom_site_fract_x
_atom_site_fract_y
_atom_site_fract_z
Si Si1 0.280077 0.007346 0.864058
Si Si2 0.336931 0.780783 0.140339
Si Si3 0.664251 0.089658 0.459596
Si Si4 0.424582 0.705726 0.864761
Si Si5 0.678296 0.543230 0.123602
Si Si6 0.910275 0.706719 0.344248
Si Si7 0.336496 0.775685 0.325408
Si Si8 0.011910 0.015248 0.282396
O O1 0.277394 0.788263 0.930989
O O2 0.112471 0.136714 0.819813
O O3 0.497305 0.180804 0.686401
O O4 0.264539 0.941005 0.004383
O O5 0.474815 0.625791 0.145567
O O6 0.411472 0.903480 0.135005
O O7 0.116076 0.625864 0.327240
O O8 0.681042 0.369219 0.301689
O O9 0.875606 0.064278 0.373419
O O10 0.500000 0.000000 0.500000
O O11 0.600878 0.932301 0.654002
O O12 0.310122 0.604925 0.878454
O O13 0.500000 0.500000 0.000000
O O14 0.866071 0.754635 0.938572
O O15 0.726715 0.491825 0.522703
O O16 0.881675 0.856750 0.348119
O O17 0.160375 0.884614 0.353367
#
# Coordination Sequence:
#
# PCOD8026161 Si02
#       8
#     2   2   2   2   2   2   2   2
#     4  12  24  46  63  98 140 175 224 278 346 399
#     4  11  23  43  69  96 132 179 228 273 342 399
#     4  10  24  39  68 100 130 175 228 274 331 403
#     4  11  23  42  69  99 137 180 213 279 347 400
#     4  11  23  43  72  98 138 177 234 276 333 410
#     4  11  26  40  69 102 135 176 227 286 338 399
#     4  11  25  42  71  97 134 179 229 278 337 409
#     4  11  22  45  69 103 135 179 235 278 333 408
#
# _framework density 24.489587
#
# number of rings (size 3 to 8) (size 9 to 14) (size 15 to 20)
#    0.000    1.000    2.500    4.500   10.500    0.000 
#    0.000    3.750    0.000    0.000    0.000    0.000 
#    0.000    0.000    0.000    0.000    0.000    0.000 
#
# Total GULP energy -198294.947288 kJ/mol
# GULP energy per Si atom -12393.434206 kJ/mol
# Density = 2.443385 g / cm^3
# Si number density = 24.489587 Si / 1000 Ang^3
#
#
#
# Elastic Constant Matrix: (Units=GPa)
#
#
# Indices 1 2 3 4 5 6 
#
# 1 80.3422 30.0531 -1.4551 -8.7594 2.1704 -10.9014
# 2 30.0531 76.9697 13.1061 -4.4538 -9.0136 -5.2542
# 3 -1.4551 13.1061 95.6856 -18.0994 12.7700 -6.9535
# 4 -8.7594 -4.4538 -18.0994 39.6946 1.4124 -4.8878
# 5 2.1704 -9.0136 12.7700 1.4124 35.1693 -1.7750
# 6 -10.9014 -5.2542 -6.9535 -4.8878 -1.7750 33.9791
#
#
#
# Elastic Compliance Matrix: (Units=1/GPa)
#
#
# Indices 1 2 3 4 5 6 
#
# 1 0.016381 -0.006690 0.003007 0.005029 -0.003748 0.005364
# 2 -0.006690 0.016813 -0.003489 -0.001414 0.006038 -0.000148
# 3 0.003007 -0.003489 0.013399 0.007073 -0.006033 0.003869
# 4 0.005029 -0.001414 0.007073 0.030376 -0.004107 0.006997
# 5 -0.003748 0.006038 -0.006033 -0.004107 0.032548 -0.000394
# 6 0.005364 -0.000148 0.003869 0.006997 -0.000394 0.032906
#
#
# Mechanical properties :
#
#
# Convention : Reuss Voigt Hill
#
# Bulk Modulus (GPa) = 31.00810 37.37839 34.19325
# Shear Modulus (GPa) = 29.84784 35.85483 32.85133
#
# Velocity S-wave (km/s) = 3.49492 3.83049 3.66654
# Velocity P-wave (km/s) = 5.38286 5.90420 5.64955
#
# Compressibility (1/GPa) = 0.03224964
#
# Stress axis : x y z
#
# Youngs Moduli (GPa) = 61.04639 59.47649 74.63441
#
# Poissons Ratio (x) = 0.39788 -0.22440
# Poissons Ratio (y) = 0.40839 0.26037
# Poissons Ratio (z) = -0.18355 0.20749
#
# Static dielectric constant tensor:
#      x y z
#    x 4.419330 -0.090970 0.064700 
#    y -0.090970 4.248530 -0.023990 
#    z 0.064700 -0.023990 5.142310 
# 
# 
# High freq. dielectric constant tensor:
#      x y z
#    x 1.968750 -0.012250 -0.000070 
#    y -0.012250 1.960000 -0.004800 
#    z -0.000070 -0.004800 1.993630 
# 
# From -- ./inp_files/559513.got.cif
#   From: 2010.06.25/outbox.cif.g09.slc.cpg/sg2_280_cif.got.tgz:559513.got - 2010.06.27 13:26:56.
