data_PCOD8026641
_publ_section_title
;
Structure prediction by ZEFSAII (Michael W. Deem and Ramdas Pophale) SiO2 
 PCOD8026641
Probable space group: P -1
;
_chemical_formula_sum "Si O2"
_cell_formula_units_Z 14
_cell_length_a 14.440350
_cell_length_b 12.627945
_cell_length_c 21.169317
_cell_angle_alpha 19.550134
_cell_angle_beta 29.767758
_cell_angle_gamma 37.110907
_cell_volume 636.427088
_symmetry_space_group_name_H-M "P -1"
_symmetry_group_IT_number 2
_symmetry_cell_setting 'triclinic'
loop_
_space_group_symop_operation_xyz
x,y,z
-x,-y,-z
loop_
_atom_site_type_symbol
_atom_site_label
_atom_site_fract_x
_atom_site_fract_y
_atom_site_fract_z
Si Si1 0.567620 0.146336 0.213401
Si Si2 0.016114 0.868758 0.264423
Si Si3 0.109429 0.915042 0.389283
Si Si4 0.317765 0.180598 0.997766
Si Si5 0.277504 0.142234 0.286855
Si Si6 0.905701 0.814379 0.219668
Si Si7 0.349980 0.912994 0.584056
O O1 0.468034 0.060320 0.253362
O O2 0.688929 0.871872 0.317451
O O3 0.403989 0.156318 0.356945
O O4 0.707560 0.474541 0.942837
O O5 0.008563 0.924199 0.162479
O O6 0.000000 0.500000 0.500000
O O7 0.855403 0.039421 0.297583
O O8 0.215377 0.041759 0.072911
O O9 0.090447 0.555589 0.580987
O O10 0.906454 0.997949 0.485579
O O11 0.177494 0.131759 0.167898
O O12 0.262553 0.983711 0.315878
O O13 0.367519 0.557387 0.749248
O O14 0.500000 0.000000 0.000000
O O15 0.000000 0.000000 0.000000
O O16 0.500000 0.000000 0.500000
#
# Coordination Sequence:
#
# PCOD8026641 Si02
#       7
#     2   2   2   2   2   2   2
#     4  11  23  44  67 102 131 177 227 278 350 408
#     4  12  26  46  70 101 142 189 228 291 354 407
#     4  11  23  45  67  98 134 178 227 282 344 407
#     4  12  26  45  70 102 139 182 237 287 346 415
#     4  10  24  42  72  94 135 177 221 284 345 413
#     4  12  25  42  69  99 138 175 228 283 340 413
#     4  12  24  43  72 100 138 179 234 286 340 421
#
# _framework density 21.997807000000002
#
# number of rings (size 3 to 8) (size 9 to 14) (size 15 to 20)
#    0.000    0.571    4.286    3.857    0.000    2.857 
#    0.000    0.000    0.000    0.000    0.000    0.000 
#    0.000    0.000    0.000    0.000    0.000    0.000 
#
# Total GULP energy -173651.808938 kJ/mol
# GULP energy per Si atom -12403.700638 kJ/mol
# Density = 2.194774 g / cm^3
# Si number density = 21.997807 Si / 1000 Ang^3
#
#
#
# Elastic Constant Matrix: (Units=GPa)
#
#
# Indices 1 2 3 4 5 6 
#
# 1 169.1745 46.7404 40.0210 3.0976 -22.0833 13.0901
# 2 46.7404 78.1452 18.7307 -2.8148 -9.5564 -2.1671
# 3 40.0210 18.7307 90.9246 9.3552 -7.8028 9.2469
# 4 3.0976 -2.8148 9.3552 33.7206 10.9847 6.4968
# 5 -22.0833 -9.5564 -7.8028 10.9847 46.5869 2.1202
# 6 13.0901 -2.1671 9.2469 6.4968 2.1202 40.7668
#
#
#
# Elastic Compliance Matrix: (Units=1/GPa)
#
#
# Indices 1 2 3 4 5 6 
#
# 1 0.008139 -0.004090 -0.002139 -0.001025 0.003009 -0.002339
# 2 -0.004090 0.015864 -0.001819 0.001590 0.000532 0.002288
# 3 -0.002139 -0.001819 0.013046 -0.003796 0.001778 -0.001857
# 4 -0.001025 0.001590 -0.003796 0.034516 -0.008763 -0.003770
# 5 0.003009 0.000532 0.001778 -0.008763 0.025423 -0.001267
# 6 -0.002339 0.002288 -0.001857 -0.003770 -0.001267 0.026490
#
#
# Mechanical properties :
#
#
# Convention : Reuss Voigt Hill
#
# Bulk Modulus (GPa) = 47.71826 61.02539 54.37183
# Shear Modulus (GPa) = 34.11611 39.73168 36.92390
#
# Velocity S-wave (km/s) = 3.94240 4.25451 4.10143
# Velocity P-wave (km/s) = 6.51635 7.20668 6.87019
#
# Compressibility (1/GPa) = 0.02095634
#
# Stress axis : x y z
#
# Youngs Moduli (GPa) = 122.85842 63.03383 76.65153
#
# Poissons Ratio (x) = 0.25778 0.16392
# Poissons Ratio (y) = 0.50244 0.13941
# Poissons Ratio (z) = 0.26274 0.11464
#
# Static dielectric constant tensor:
#      x y z
#    x 3.247810 0.231920 -1.407800 
#    y 0.231920 3.984850 0.399240 
#    z -1.407800 0.399240 2.319100 
# 
# 
# High freq. dielectric constant tensor:
#      x y z
#    x 1.884370 0.004730 -0.004050 
#    y 0.004730 1.859810 0.006350 
#    z -0.004050 0.006350 1.871640 
# 
# From -- ./inp_files/156674.got.cif
#   From: 2010.06.25/outbox.cif.g09.slc.cpg/sg2_79_cif.got.tgz:156674.got - 2010.06.27 13:26:56.
