data_PCOD8026188
_publ_section_title
;
Structure prediction by ZEFSAII (Michael W. Deem and Ramdas Pophale) SiO2 
 PCOD8026188
Probable space group: P -1
;
_chemical_formula_sum "Si O2"
_cell_formula_units_Z 14
_cell_length_a 21.785837
_cell_length_b 12.723187
_cell_length_c 7.659733
_cell_angle_alpha 46.416406
_cell_angle_beta 136.241646
_cell_angle_gamma 157.890064
_cell_volume 551.014429
_symmetry_space_group_name_H-M "P -1"
_symmetry_group_IT_number 2
_symmetry_cell_setting 'triclinic'
loop_
_space_group_symop_operation_xyz
x,y,z
-x,-y,-z
loop_
_atom_site_type_symbol
_atom_site_label
_atom_site_fract_x
_atom_site_fract_y
_atom_site_fract_z
Si Si1 0.244601 0.842361 0.255840
Si Si2 0.096704 0.783633 0.679356
Si Si3 0.494479 0.584843 0.719855
Si Si4 0.310355 0.601781 0.107490
Si Si5 0.545819 0.734370 0.234221
Si Si6 0.889717 0.880710 0.576361
Si Si7 0.532580 0.083970 0.261002
O O1 0.069743 0.542834 0.332297
O O2 0.350513 0.082114 0.339267
O O3 0.370241 0.873632 0.431715
O O4 0.190342 0.863233 0.958233
O O5 0.249906 0.983073 0.625286
O O6 0.041862 0.875019 0.480037
O O7 0.521616 0.516509 0.684375
O O8 0.308471 0.397526 0.567307
O O9 0.500000 0.500000 0.000000
O O10 0.444181 0.648527 0.296854
O O11 0.118434 0.265691 0.131745
O O12 0.365647 0.771191 0.196739
O O13 0.321199 0.714700 0.826675
O O14 0.509780 0.804314 0.922775
O O15 0.000000 0.000000 0.500000
#
# Coordination Sequence:
#
# PCOD8026188 Si02
#       7
#     2   2   2   2   2   2   2
#     4  11  21  42  62  95 137 166 219 268 315 399
#     4  10  24  40  62  99 134 166 222 268 333 366
#     4  11  21  41  63 100 126 172 224 260 329 384
#     4   9  20  41  67  97 129 171 221 261 326 397
#     4   9  20  40  67  92 131 168 215 271 314 394
#     4  11  23  42  68  93 130 169 216 279 322 384
#     4   9  20  40  68  94 127 175 219 251 332 391
#
# _framework density 25.407681
#
# number of rings (size 3 to 8) (size 9 to 14) (size 15 to 20)
#    0.857    1.143    4.286    0.000    0.000    6.286 
#    0.000    1.429    3.143    0.000    0.000    0.000 
#    0.000    0.000    0.000    0.000    0.000    0.000 
#
# Total GULP energy -173434.729917 kJ/mol
# GULP energy per Si atom -12388.194994 kJ/mol
# Density = 2.534985 g / cm^3
# Si number density = 25.407681 Si / 1000 Ang^3
#
#
#
# Elastic Constant Matrix: (Units=GPa)
#
#
# Indices 1 2 3 4 5 6 
#
# 1 88.4913 51.1447 0.8312 -4.6530 21.1753 -1.0912
# 2 51.1447 167.1984 15.1070 -24.3503 8.4745 -11.5841
# 3 0.8312 15.1070 62.7498 -11.0016 16.6565 -12.4280
# 4 -4.6530 -24.3503 -11.0016 41.9273 -5.0987 0.7203
# 5 21.1753 8.4745 16.6565 -5.0987 30.7874 -4.6093
# 6 -1.0912 -11.5841 -12.4280 0.7203 -4.6093 43.0250
#
#
#
# Elastic Compliance Matrix: (Units=1/GPa)
#
#
# Indices 1 2 3 4 5 6 
#
# 1 0.017387 -0.005347 0.003998 -0.001701 -0.013114 -0.001220
# 2 -0.005347 0.008343 -0.001700 0.004172 0.003276 0.001901
# 3 0.003998 -0.001700 0.021053 0.003391 -0.012462 0.004333
# 4 -0.001701 0.004172 0.003391 0.027306 0.002997 0.001924
# 5 -0.013114 0.003276 -0.012462 0.002997 0.048145 0.002058
# 6 -0.001220 0.001901 0.004333 0.001924 0.002058 0.025163
#
#
# Mechanical properties :
#
#
# Convention : Reuss Voigt Hill
#
# Bulk Modulus (GPa) = 24.57811 50.28949 37.43380
# Shear Modulus (GPa) = 29.92964 39.90504 34.91734
#
# Velocity S-wave (km/s) = 3.43589 3.96737 3.71115
# Velocity P-wave (km/s) = 5.04331 6.38926 5.75576
#
# Compressibility (1/GPa) = 0.04068661
#
# Stress axis : x y z
#
# Youngs Moduli (GPa) = 57.51311 119.85413 47.49872
#
# Poissons Ratio (x) = 0.64091 -0.18992
# Poissons Ratio (y) = 0.30755 0.08073
# Poissons Ratio (z) = -0.22996 0.20370
#
# Static dielectric constant tensor:
#      x y z
#    x 5.027250 0.409010 -0.936550 
#    y 0.409010 4.977550 -1.150920 
#    z -0.936550 -1.150920 7.193410 
# 
# 
# High freq. dielectric constant tensor:
#      x y z
#    x 1.997930 0.011580 0.005520 
#    y 0.011580 2.007610 -0.046000 
#    z 0.005520 -0.046000 2.045880 
# 
# From -- ./inp_files/474951.got.cif
#   From: 2010.06.25/outbox.cif.g09.slc.cpg/sg2_238_cif.got.tgz:474951.got - 2010.06.27 13:26:56.
