data_PCOD8026886
_publ_section_title
;
Structure prediction by ZEFSAII (Michael W. Deem and Ramdas Pophale) SiO2 
 PCOD8026886
Probable space group: P -1
;
_chemical_formula_sum "Si O2"
_cell_formula_units_Z 14
_cell_length_a 11.277741
_cell_length_b 10.890317
_cell_length_c 8.207033
_cell_angle_alpha 42.365220
_cell_angle_beta 116.929623
_cell_angle_gamma 107.867079
_cell_volume 604.924016
_symmetry_space_group_name_H-M "P -1"
_symmetry_group_IT_number 2
_symmetry_cell_setting 'triclinic'
loop_
_space_group_symop_operation_xyz
x,y,z
-x,-y,-z
loop_
_atom_site_type_symbol
_atom_site_label
_atom_site_fract_x
_atom_site_fract_y
_atom_site_fract_z
Si Si1 0.032010 0.653379 0.062776
Si Si2 0.730293 0.196186 0.785303
Si Si3 0.795179 0.942766 0.606371
Si Si4 0.405386 0.906896 0.907516
Si Si5 0.653684 0.846023 0.925349
Si Si6 0.122114 0.671678 0.742643
Si Si7 0.354015 0.540745 0.799503
O O1 0.118453 0.736853 0.180623
O O2 0.995659 0.446306 0.291067
O O3 0.118078 0.652923 0.952771
O O4 0.893059 0.765876 0.837298
O O5 0.661430 0.244215 0.870965
O O6 0.647235 0.294561 0.492342
O O7 0.730644 0.975499 0.972796
O O8 0.887798 0.116088 0.525286
O O9 0.679646 0.929157 0.682215
O O10 0.716554 0.964700 0.364914
O O11 0.496326 0.835618 0.882657
O O12 0.500000 0.000000 0.000000
O O13 0.704936 0.633873 0.160381
O O14 0.265382 0.591899 0.851081
O O15 0.500000 0.500000 0.000000
#
# Coordination Sequence:
#
# PCOD8026886 Si02
#       7
#     2   2   2   2   2   2   2
#     4  11  26  46  71 101 137 184 232 283 339 407
#     4  11  26  47  68 103 143 175 234 290 331 409
#     4  12  22  46  76  97 139 188 224 276 355 408
#     4  10  24  43  70 106 138 173 232 290 332 409
#     4  11  25  45  72 104 138 186 223 283 354 405
#     4  11  24  46  70 101 139 180 231 284 336 414
#     4  12  27  46  72 102 139 185 228 282 352 407
#
# _framework density 23.143402999999999
#
# number of rings (size 3 to 8) (size 9 to 14) (size 15 to 20)
#    0.000    0.857    4.286    1.714    4.000    2.857 
#    7.714    0.000    0.000    0.000    0.000    0.000 
#    0.000    0.000    0.000    0.000    0.000    0.000 
#
# Total GULP energy -173446.493182 kJ/mol
# GULP energy per Si atom -12389.035227 kJ/mol
# Density = 2.309073 g / cm^3
# Si number density = 23.143403 Si / 1000 Ang^3
#
#
#
# Elastic Constant Matrix: (Units=GPa)
#
#
# Indices 1 2 3 4 5 6 
#
# 1 134.2574 33.7392 51.2874 12.7532 -21.3618 -14.8027
# 2 33.7392 113.7722 30.7561 -12.2620 2.7193 15.1151
# 3 51.2874 30.7561 90.3026 8.5027 -7.0490 -3.4828
# 4 12.7532 -12.2620 8.5027 40.3875 8.3272 -2.6821
# 5 -21.3618 2.7193 -7.0490 8.3272 35.3647 2.9707
# 6 -14.8027 15.1151 -3.4828 -2.6821 2.9707 33.2542
#
#
#
# Elastic Compliance Matrix: (Units=1/GPa)
#
#
# Indices 1 2 3 4 5 6 
#
# 1 0.012573 -0.004104 -0.004385 -0.005521 0.007844 0.005857
# 2 -0.004104 0.012605 -0.003221 0.006373 -0.005008 -0.006932
# 3 -0.004385 -0.003221 0.015066 -0.002971 0.001239 0.000739
# 4 -0.005521 0.006373 -0.002971 0.031319 -0.011616 -0.002102
# 5 0.007844 -0.005008 0.001239 -0.011616 0.036238 0.001724
# 6 0.005857 -0.006932 0.000739 -0.002102 0.001724 0.035583
#
#
# Mechanical properties :
#
#
# Convention : Reuss Voigt Hill
#
# Bulk Modulus (GPa) = 59.43516 63.32198 61.37857
# Shear Modulus (GPa) = 29.00032 36.63790 32.81911
#
# Velocity S-wave (km/s) = 3.54371 3.98311 3.76982
# Velocity P-wave (km/s) = 6.51774 6.96948 6.74739
#
# Compressibility (1/GPa) = 0.01682506
#
# Stress axis : x y z
#
# Youngs Moduli (GPa) = 79.53433 79.33603 66.37296
#
# Poissons Ratio (x) = 0.32558 0.29105
# Poissons Ratio (y) = 0.32639 0.21376
# Poissons Ratio (z) = 0.34877 0.25551
#
# Static dielectric constant tensor:
#      x y z
#    x 4.984530 0.030440 -0.439810 
#    y 0.030440 4.452830 -0.272980 
#    z -0.439810 -0.272980 3.808610 
# 
# 
# High freq. dielectric constant tensor:
#      x y z
#    x 1.935540 0.006050 -0.025200 
#    y 0.006050 1.924010 -0.007000 
#    z -0.025200 -0.007000 1.881240 
# 
# From -- ./inp_files/256131.got.cif
#   From: 2010.06.25/outbox.cif.g09.slc.cpg/sg2_129_cif.got.tgz:256131.got - 2010.06.27 13:26:56.
