data_PCOD8026228
_publ_section_title
;
Structure prediction by ZEFSAII (Michael W. Deem and Ramdas Pophale) SiO2 
 PCOD8026228
Probable space group: P -1
;
_chemical_formula_sum "Si O2"
_cell_formula_units_Z 16
_cell_length_a 11.670149
_cell_length_b 14.732352
_cell_length_c 18.340460
_cell_angle_alpha 31.217927
_cell_angle_beta 131.837911
_cell_angle_gamma 151.913261
_cell_volume 718.321112
_symmetry_space_group_name_H-M "P -1"
_symmetry_group_IT_number 2
_symmetry_cell_setting 'triclinic'
loop_
_space_group_symop_operation_xyz
x,y,z
-x,-y,-z
loop_
_atom_site_type_symbol
_atom_site_label
_atom_site_fract_x
_atom_site_fract_y
_atom_site_fract_z
Si Si1 0.751480 0.806560 0.478453
Si Si2 0.809392 0.981215 0.954929
Si Si3 0.740005 0.505826 0.437987
Si Si4 0.424277 0.619351 0.913305
Si Si5 0.531495 0.010453 0.420136
Si Si6 0.449542 0.200631 0.730856
Si Si7 0.908214 0.453785 0.684753
Si Si8 0.144960 0.011025 0.872724
O O1 0.536111 0.669799 0.537074
O O2 0.668525 0.553263 0.576580
O O3 0.771397 0.969464 0.309193
O O4 0.000000 0.000000 0.500000
O O5 0.556997 0.771167 0.942830
O O6 0.974564 0.312347 0.793446
O O7 0.700822 0.852248 0.079297
O O8 0.000000 0.000000 0.000000
O O9 0.876496 0.522743 0.547413
O O10 0.920501 0.842731 0.268515
O O11 0.679091 0.325803 0.466473
O O12 0.523978 0.858245 0.735332
O O13 0.500000 0.500000 0.000000
O O14 0.115404 0.342646 0.985675
O O15 0.834150 0.232230 0.380943
O O16 0.500000 0.000000 0.500000
O O17 0.638322 0.209671 0.785845
O O18 0.314852 0.070267 0.841890
#
# Coordination Sequence:
#
# PCOD8026228 Si02
#       8
#     2   2   2   2   2   2   2   2
#     4   9  17  37  64  94 138 172 214 276 329 388
#     4  12  25  45  69  93 138 183 217 273 348 397
#     4  10  24  40  67 103 130 173 227 275 328 392
#     4  12  26  47  65  94 137 177 222 279 336 400
#     4  12  27  42  68 100 127 178 230 274 333 400
#     4   9  21  39  64 100 132 175 223 271 335 395
#     4  11  23  45  69  96 142 173 221 288 329 394
#     4  11  25  43  70 102 135 180 222 274 338 404
#
# _framework density 22.274160999999999
#
# number of rings (size 3 to 8) (size 9 to 14) (size 15 to 20)
#    0.000    1.250    3.750    1.500    5.250    3.000 
#    0.000    0.625    0.000    0.000    0.000    0.000 
#    0.000    0.000    0.000    0.000    0.000    0.000 
#
# Total GULP energy -198291.433040 kJ/mol
# GULP energy per Si atom -12393.214565 kJ/mol
# Density = 2.222346 g / cm^3
# Si number density = 22.274161 Si / 1000 Ang^3
#
#
#
# Elastic Constant Matrix: (Units=GPa)
#
#
# Indices 1 2 3 4 5 6 
#
# 1 77.8407 27.6488 28.2089 15.5349 -6.3494 -8.4672
# 2 27.6488 118.4715 17.5372 21.5258 -7.8574 -7.5249
# 3 28.2089 17.5372 97.8443 16.7760 -1.3583 -8.7301
# 4 15.5349 21.5258 16.7760 37.7343 -7.4320 0.7095
# 5 -6.3494 -7.8574 -1.3583 -7.4320 38.3215 5.8405
# 6 -8.4672 -7.5249 -8.7301 0.7095 5.8405 33.5925
#
#
#
# Elastic Compliance Matrix: (Units=1/GPa)
#
#
# Indices 1 2 3 4 5 6 
#
# 1 0.015961 -0.002352 -0.003320 -0.003612 0.000956 0.002543
# 2 -0.002352 0.009984 -0.000176 -0.004576 0.000519 0.001604
# 3 -0.003320 -0.000176 0.012153 -0.004256 -0.001379 0.002611
# 4 -0.003612 -0.004576 -0.004256 0.033675 0.005563 -0.004720
# 5 0.000956 0.000519 -0.001379 0.005563 0.028154 -0.005013
# 6 0.002543 0.001604 0.002611 -0.004720 -0.005013 0.032419
#
#
# Mechanical properties :
#
#
# Convention : Reuss Voigt Hill
#
# Bulk Modulus (GPa) = 37.87904 48.99404 43.43654
# Shear Modulus (GPa) = 32.71314 36.64710 34.68012
#
# Velocity S-wave (km/s) = 3.83647 4.06060 3.95012
# Velocity P-wave (km/s) = 6.05536 6.63538 6.35199
#
# Compressibility (1/GPa) = 0.02639983
#
# Stress axis : x y z
#
# Youngs Moduli (GPa) = 62.65206 100.16297 82.28552
#
# Poissons Ratio (x) = 0.23560 0.27323
# Poissons Ratio (y) = 0.14737 0.01451
# Poissons Ratio (z) = 0.20804 0.01766
#
# Static dielectric constant tensor:
#      x y z
#    x 4.074790 -0.174380 0.228170 
#    y -0.174380 3.730640 0.642020 
#    z 0.228170 0.642020 3.748370 
# 
# 
# High freq. dielectric constant tensor:
#      x y z
#    x 1.877100 -0.006030 0.005190 
#    y -0.006030 1.887130 0.018100 
#    z 0.005190 0.018100 1.867830 
# 
# From -- ./inp_files/569942.got.cif
#   From: 2010.06.25/outbox.cif.g09.slc.cpg/sg2_285_cif.got.tgz:569942.got - 2010.06.27 13:26:56.
