data_PCOD8026025
_publ_section_title
;
Structure prediction by ZEFSAII (Michael W. Deem and Ramdas Pophale) SiO2 
 PCOD8026025
Probable space group: P -1
;
_chemical_formula_sum "Si O2"
_cell_formula_units_Z 16
_cell_length_a 9.073861
_cell_length_b 21.630568
_cell_length_c 9.304985
_cell_angle_alpha 59.038910
_cell_angle_beta 58.303555
_cell_angle_gamma 28.228084
_cell_volume 728.923228
_symmetry_space_group_name_H-M "P -1"
_symmetry_group_IT_number 2
_symmetry_cell_setting 'triclinic'
loop_
_space_group_symop_operation_xyz
x,y,z
-x,-y,-z
loop_
_atom_site_type_symbol
_atom_site_label
_atom_site_fract_x
_atom_site_fract_y
_atom_site_fract_z
Si Si1 0.217033 0.486390 0.469996
Si Si2 0.664307 0.628909 0.939850
Si Si3 0.725110 0.852984 0.058235
Si Si4 0.727570 0.118274 0.691483
Si Si5 0.071669 0.257443 0.616784
Si Si6 0.613171 0.382812 0.123787
Si Si7 0.651402 0.280515 0.718899
Si Si8 0.409293 0.833998 0.617365
O O1 0.512681 0.397404 0.319067
O O2 0.322044 0.416443 0.651332
O O3 0.000000 0.500000 0.500000
O O4 0.052717 0.619045 0.432350
O O5 0.584842 0.591687 0.921608
O O6 0.632609 0.709743 0.757023
O O7 0.401716 0.724889 0.084177
O O8 0.000000 0.500000 0.000000
O O9 0.530625 0.845903 0.149024
O O10 0.907130 0.793071 0.186395
O O11 0.003959 0.760769 0.906305
O O12 0.500000 0.000000 0.000000
O O13 0.800845 0.160566 0.703868
O O14 0.608925 0.188509 0.512287
O O15 0.053995 0.960591 0.704966
O O16 0.420089 0.146963 0.499313
O O17 0.863307 0.279253 0.595493
O O18 0.500000 0.500000 0.000000
#
# Coordination Sequence:
#
# PCOD8026025 Si02
#       8
#     2   2   2   2   2   2   2   2
#     4  12  24  43  72  98 138 184 232 279 339 419
#     4  12  25  41  65 100 139 178 222 282 353 407
#     4  11  23  44  71  98 137 182 231 288 338 411
#     4  10  24  45  74  98 131 185 238 280 345 419
#     4  11  23  44  65 102 141 172 223 294 346 400
#     4  12  24  43  68 100 133 180 240 279 331 417
#     4  12  25  42  65 102 141 175 218 291 358 399
#     4  10  23  47  72  94 134 184 237 278 336 427
#
# _framework density 21.950185999999999
#
# number of rings (size 3 to 8) (size 9 to 14) (size 15 to 20)
#    0.000    0.750    2.500    5.625    1.750    4.000 
#    0.000    0.000    0.000    0.000    0.000    0.000 
#    0.000    0.000    0.000    0.000    0.000    0.000 
#
# Total GULP energy -198301.877569 kJ/mol
# GULP energy per Si atom -12393.867348 kJ/mol
# Density = 2.190023 g / cm^3
# Si number density = 21.950186 Si / 1000 Ang^3
#
#
#
# Elastic Constant Matrix: (Units=GPa)
#
#
# Indices 1 2 3 4 5 6 
#
# 1 143.9890 22.9811 17.9827 4.2350 -12.5977 5.9835
# 2 22.9811 88.8625 23.8145 1.3410 -11.8578 -1.1093
# 3 17.9827 23.8145 102.1139 -0.7359 -1.9510 -0.0177
# 4 4.2350 1.3410 -0.7359 37.7241 -7.2587 -9.2747
# 5 -12.5977 -11.8578 -1.9510 -7.2587 33.1552 0.7278
# 6 5.9835 -1.1093 -0.0177 -9.2747 0.7278 37.9773
#
#
#
# Elastic Compliance Matrix: (Units=1/GPa)
#
#
# Indices 1 2 3 4 5 6 
#
# 1 0.007565 -0.001413 -0.000967 -0.000758 0.002178 -0.001460
# 2 -0.001413 0.012871 -0.002672 0.000586 0.004023 0.000663
# 3 -0.000967 -0.002672 0.010577 0.000331 -0.000632 0.000172
# 4 -0.000758 0.000586 0.000331 0.029561 0.006254 0.007236
# 5 0.002178 0.004023 -0.000632 0.006254 0.033745 0.000655
# 6 -0.001460 0.000663 0.000172 0.007236 0.000655 0.028336
#
#
# Mechanical properties :
#
#
# Convention : Reuss Voigt Hill
#
# Bulk Modulus (GPa) = 47.82613 51.61355 49.71984
# Shear Modulus (GPa) = 35.78379 39.78379 37.78379
#
# Velocity S-wave (km/s) = 4.04199 4.26192 4.15341
# Velocity P-wave (km/s) = 6.60449 6.91257 6.76028
#
# Compressibility (1/GPa) = 0.02090907
#
# Stress axis : x y z
#
# Youngs Moduli (GPa) = 132.19066 77.69344 94.54822
#
# Poissons Ratio (x) = 0.10982 0.09140
# Poissons Ratio (y) = 0.18685 0.25260
# Poissons Ratio (z) = 0.12778 0.20757
#
# Static dielectric constant tensor:
#      x y z
#    x 3.917330 -0.095820 -0.059680 
#    y -0.095820 3.994510 0.153070 
#    z -0.059680 0.153070 4.210870 
# 
# 
# High freq. dielectric constant tensor:
#      x y z
#    x 1.866570 -0.008590 -0.011400 
#    y -0.008590 1.861820 0.004210 
#    z -0.011400 0.004210 1.874990 
# 
# From -- ./inp_files/223396.got.cif
#   From: 2010.06.25/outbox.cif.g09.slc.cpg/sg2_112_cif.got.tgz:223396.got - 2010.06.27 13:26:56.
