data_PCOD8026403
_publ_section_title
;
Structure prediction by ZEFSAII (Michael W. Deem and Ramdas Pophale) SiO2 
 PCOD8026403
Probable space group: P -1
;
_chemical_formula_sum "Si O2"
_cell_formula_units_Z 14
_cell_length_a 18.098894
_cell_length_b 16.513393
_cell_length_c 16.605176
_cell_angle_alpha 25.505761
_cell_angle_beta 22.810147
_cell_angle_gamma 22.669512
_cell_volume 695.250929
_symmetry_space_group_name_H-M "P -1"
_symmetry_group_IT_number 2
_symmetry_cell_setting 'triclinic'
loop_
_space_group_symop_operation_xyz
x,y,z
-x,-y,-z
loop_
_atom_site_type_symbol
_atom_site_label
_atom_site_fract_x
_atom_site_fract_y
_atom_site_fract_z
Si Si1 0.749284 0.929979 0.797802
Si Si2 0.874541 0.833363 0.054746
Si Si3 0.865767 0.291940 0.931477
Si Si4 0.985273 0.642964 0.682951
Si Si5 0.714894 0.964392 0.364082
Si Si6 0.637285 0.792598 0.755338
Si Si7 0.002179 0.034234 0.338141
O O1 0.773610 0.097774 0.561147
O O2 0.883945 0.685540 0.838135
O O3 0.839707 0.930965 0.793716
O O4 0.500000 0.000000 0.000000
O O5 0.988920 0.831578 0.024198
O O6 0.850071 0.619678 0.264868
O O7 0.628810 0.057896 0.090852
O O8 0.040970 0.817204 0.830805
O O9 0.693622 0.556407 0.876207
O O10 0.048202 0.243000 0.722651
O O11 0.715449 0.190377 0.152104
O O12 0.776063 0.758627 0.726866
O O13 0.118231 0.772486 0.427267
O O14 0.698087 0.916517 0.516981
O O15 0.500000 0.000000 0.500000
#
# Coordination Sequence:
#
# PCOD8026403 Si02
#       7
#     2   2   2   2   2   2   2
#     4   9  18  39  62  87 120 156 201 246 298 353
#     4  11  21  39  62  90 122 161 201 240 304 358
#     4  10  24  42  61  91 124 152 207 249 289 364
#     4   9  21  38  59  89 123 154 202 249 287 364
#     4  11  22  43  64  90 119 159 204 245 302 355
#     4  11  22  39  64  88 122 165 194 249 303 346
#     4   9  20  37  61  86 123 157 193 255 294 342
#
# _framework density 20.136614999999999
#
# number of rings (size 3 to 8) (size 9 to 14) (size 15 to 20)
#    0.857    1.143    1.429    2.143    0.000    2.286 
#    2.571    2.143    0.000    0.000    0.000    0.000 
#    0.000    0.000    0.000    0.000    0.000    0.000 
#
# Total GULP energy -173470.681978 kJ/mol
# GULP energy per Si atom -12390.762998 kJ/mol
# Density = 2.009078 g / cm^3
# Si number density = 20.136615 Si / 1000 Ang^3
#
#
#
# Elastic Constant Matrix: (Units=GPa)
#
#
# Indices 1 2 3 4 5 6 
#
# 1 71.8310 30.5739 36.2948 -1.1665 -16.6779 14.3579
# 2 30.5739 93.9586 25.5596 -6.6223 -20.0973 -1.5558
# 3 36.2948 25.5596 95.7606 10.8854 -6.8978 -0.9037
# 4 -1.1665 -6.6223 10.8854 28.4930 5.1444 -4.2403
# 5 -16.6779 -20.0973 -6.8978 5.1444 40.5413 -3.9858
# 6 14.3579 -1.5558 -0.9037 -4.2403 -3.9858 23.9555
#
#
#
# Elastic Compliance Matrix: (Units=1/GPa)
#
#
# Indices 1 2 3 4 5 6 
#
# 1 0.023658 -0.004933 -0.007413 -0.000282 0.004680 -0.014051
# 2 -0.004933 0.014130 -0.001942 0.003759 0.004684 0.005246
# 3 -0.007413 -0.001942 0.014410 -0.005610 -0.000476 0.003788
# 4 -0.000282 0.003759 -0.005610 0.039739 -0.003597 0.006637
# 5 0.004680 0.004684 -0.000476 -0.003597 0.029460 0.001746
# 6 -0.014051 0.005246 0.003788 0.006637 0.001746 0.052114
#
#
# Mechanical properties :
#
#
# Convention : Reuss Voigt Hill
#
# Bulk Modulus (GPa) = 42.33605 49.60076 45.96840
# Shear Modulus (GPa) = 23.81381 29.87275 26.84328
#
# Velocity S-wave (km/s) = 3.44264 3.85581 3.65507
# Velocity P-wave (km/s) = 6.07227 6.67148 6.37891
#
# Compressibility (1/GPa) = 0.02362053
#
# Stress axis : x y z
#
# Youngs Moduli (GPa) = 42.26969 70.77080 69.39574
#
# Poissons Ratio (x) = 0.34911 0.51446
# Poissons Ratio (y) = 0.20851 0.13479
# Poissons Ratio (z) = 0.31336 0.13746
#
# Static dielectric constant tensor:
#      x y z
#    x 3.486390 0.147030 0.020180 
#    y 0.147030 3.311570 -0.064330 
#    z 0.020180 -0.064330 3.674780 
# 
# 
# High freq. dielectric constant tensor:
#      x y z
#    x 1.800510 0.026900 -0.000690 
#    y 0.026900 1.758140 -0.000450 
#    z -0.000690 -0.000450 1.790570 
# 
# From -- ./inp_files/578390.got.cif
#   From: 2010.06.25/outbox.cif.g09.slc.cpg/sg2_290_cif.got.tgz:578390.got - 2010.06.27 13:26:56.
