data_PCOD8026324
_publ_section_title
;
Structure prediction by ZEFSAII (Michael W. Deem and Ramdas Pophale) SiO2 
 PCOD8026324
Probable space group: P -1
;
_chemical_formula_sum "Si O2"
_cell_formula_units_Z 14
_cell_length_a 10.448110
_cell_length_b 11.128906
_cell_length_c 9.607497
_cell_angle_alpha 72.548766
_cell_angle_beta 60.211585
_cell_angle_gamma 116.790441
_cell_volume 637.634109
_symmetry_space_group_name_H-M "P -1"
_symmetry_group_IT_number 2
_symmetry_cell_setting 'triclinic'
loop_
_space_group_symop_operation_xyz
x,y,z
-x,-y,-z
loop_
_atom_site_type_symbol
_atom_site_label
_atom_site_fract_x
_atom_site_fract_y
_atom_site_fract_z
Si Si1 0.906251 0.271757 0.413165
Si Si2 0.675614 0.373928 0.004240
Si Si3 0.251125 0.593680 0.724563
Si Si4 0.742583 0.186483 0.831395
Si Si5 0.010263 0.801528 0.086487
Si Si6 0.784216 0.915779 0.580904
Si Si7 0.282390 0.166381 0.664863
O O1 0.829459 0.326971 0.324883
O O2 0.858315 0.290680 0.587986
O O3 0.783435 0.066495 0.521550
O O4 0.163504 0.412677 0.199873
O O5 0.702230 0.349980 0.158835
O O6 0.425900 0.254655 0.156006
O O7 0.752995 0.309582 0.886396
O O8 0.073167 0.375961 0.880675
O O9 0.464212 0.681088 0.498598
O O10 0.873893 0.154129 0.844165
O O11 0.500000 0.000000 0.000000
O O12 0.812667 0.775043 0.220042
O O13 0.183636 0.972393 0.832873
O O14 0.768725 0.843105 0.465060
O O15 0.000000 0.000000 0.500000
#
# Coordination Sequence:
#
# PCOD8026324 Si02
#       7
#     2   2   2   2   2   2   2
#     4  12  24  42  70  98 132 173 217 271 333 379
#     4  11  25  42  69  98 132 169 221 272 324 389
#     4  11  24  42  69  99 128 170 223 270 321 387
#     4  12  24  42  66 101 134 173 217 271 326 389
#     4  11  23  44  66  94 136 169 221 267 324 388
#     4  11  25  45  65  95 135 173 219 267 329 394
#     4  10  24  41  66  95 129 179 212 268 326 386
#
# _framework density 21.956164000000001
#
# number of rings (size 3 to 8) (size 9 to 14) (size 15 to 20)
#    0.000    0.857    2.857    3.857    2.000    1.714 
#    0.000    1.429    0.000    0.000    0.000    0.000 
#    0.000    0.000    0.000    0.000    0.000    0.000 
#
# Total GULP energy -173630.471353 kJ/mol
# GULP energy per Si atom -12402.176525 kJ/mol
# Density = 2.190619 g / cm^3
# Si number density = 21.956164 Si / 1000 Ang^3
#
#
#
# Elastic Constant Matrix: (Units=GPa)
#
#
# Indices 1 2 3 4 5 6 
#
# 1 79.4597 14.0598 27.1868 -9.6993 -17.0387 9.9038
# 2 14.0598 67.5552 12.3156 -3.4434 -6.7244 5.1470
# 3 27.1868 12.3156 141.1118 -8.1292 -18.7286 16.1755
# 4 -9.6993 -3.4434 -8.1292 38.7667 6.5446 -7.5599
# 5 -17.0387 -6.7244 -18.7286 6.5446 25.3655 -7.1897
# 6 9.9038 5.1470 16.1755 -7.5599 -7.1897 25.0978
#
#
#
# Elastic Compliance Matrix: (Units=1/GPa)
#
#
# Indices 1 2 3 4 5 6 
#
# 1 0.015574 -0.001952 -0.001456 0.001693 0.007852 -0.002048
# 2 -0.001952 0.015625 -0.000549 0.000166 0.001967 -0.001467
# 3 -0.001456 -0.000549 0.008357 -0.000037 0.004051 -0.003550
# 4 0.001693 0.000166 -0.000037 0.028233 -0.004258 0.006606
# 5 0.007852 0.001967 0.004051 -0.004258 0.051385 0.007325
# 6 -0.002048 -0.001467 -0.003550 0.006606 0.007325 0.047329
#
#
# Mechanical properties :
#
#
# Convention : Reuss Voigt Hill
#
# Bulk Modulus (GPa) = 31.60234 43.91680 37.75957
# Shear Modulus (GPa) = 27.03218 33.48364 30.25791
#
# Velocity S-wave (km/s) = 3.51264 3.90939 3.71631
# Velocity P-wave (km/s) = 5.55663 6.35793 5.97073
#
# Compressibility (1/GPa) = 0.03164322
#
# Stress axis : x y z
#
# Youngs Moduli (GPa) = 64.20929 63.99982 119.65494
#
# Poissons Ratio (x) = 0.12493 0.17419
# Poissons Ratio (y) = 0.12534 0.06567
# Poissons Ratio (z) = 0.09347 0.03512
#
# Static dielectric constant tensor:
#      x y z
#    x 3.874270 0.147430 -0.166530 
#    y 0.147430 4.059410 -0.215210 
#    z -0.166530 -0.215210 4.442150 
# 
# 
# High freq. dielectric constant tensor:
#      x y z
#    x 1.852610 0.008410 -0.013030 
#    y 0.008410 1.867510 -0.003350 
#    z -0.013030 -0.003350 1.886150 
# 
# From -- ./inp_files/160076.got.cif
#   From: 2010.06.25/outbox.cif.g09.slc.cpg/sg2_81_cif.got.tgz:160076.got - 2010.06.27 13:26:56.
