data_PCOD8026232
_publ_section_title
;
Structure prediction by ZEFSAII (Michael W. Deem and Ramdas Pophale) SiO2 
 PCOD8026232
Probable space group: P -1
;
_chemical_formula_sum "Si O2"
_cell_formula_units_Z 16
_cell_length_a 9.411674
_cell_length_b 15.160752
_cell_length_c 9.055813
_cell_angle_alpha 102.242430
_cell_angle_beta 75.601969
_cell_angle_gamma 142.920709
_cell_volume 754.390567
_symmetry_space_group_name_H-M "P -1"
_symmetry_group_IT_number 2
_symmetry_cell_setting 'triclinic'
loop_
_space_group_symop_operation_xyz
x,y,z
-x,-y,-z
loop_
_atom_site_type_symbol
_atom_site_label
_atom_site_fract_x
_atom_site_fract_y
_atom_site_fract_z
Si Si1 0.468666 0.919330 0.117819
Si Si2 0.228438 0.267819 0.471477
Si Si3 0.081994 0.942147 0.012542
Si Si4 0.818552 0.346340 0.071897
Si Si5 0.467749 0.475874 0.745236
Si Si6 0.168940 0.364254 0.044477
Si Si7 0.367751 0.144870 0.293243
Si Si8 0.695112 0.050179 0.571107
O O1 0.299255 0.883315 0.265463
O O2 0.730089 0.012187 0.135603
O O3 0.341481 0.764472 0.059356
O O4 0.500000 0.000000 0.000000
O O5 0.322588 0.330419 0.636708
O O6 0.405989 0.397087 0.355391
O O7 0.226012 0.161167 0.398679
O O8 0.962451 0.177507 0.482701
O O9 0.207718 0.016418 0.165572
O O10 0.000000 0.000000 0.000000
O O11 0.874664 0.765932 0.003769
O O12 0.634792 0.300359 0.222801
O O13 0.939965 0.316930 0.105129
O O14 0.000000 0.500000 0.000000
O O15 0.663616 0.527568 0.822759
O O16 0.291975 0.448913 0.885980
O O17 0.393957 0.091535 0.407528
O O18 0.500000 0.000000 0.500000
#
# Coordination Sequence:
#
# PCOD8026232 Si02
#       8
#     2   2   2   2   2   2   2   2
#     4  11  21  45  67  95 130 175 225 281 340 386
#     4  11  24  44  64  93 142 173 221 264 348 410
#     4  11  22  37  74 100 128 166 230 288 335 392
#     4  11  22  39  72  98 134 175 227 283 340 396
#     4  10  24  40  67  93 131 184 211 271 343 401
#     4  11  21  42  67  97 131 170 238 274 330 397
#     4  11  23  43  63 101 138 174 219 285 342 395
#     4  12  26  42  69  97 129 186 225 275 340 398
#
# _framework density 21.209174000000001
#
# number of rings (size 3 to 8) (size 9 to 14) (size 15 to 20)
#    0.000    1.000    3.750    3.375    5.250    4.000 
#    2.250    0.625    0.000    0.000    0.000    0.000 
#    0.000    0.000    0.000    0.000    0.000    0.000 
#
# Total GULP energy -198246.230685 kJ/mol
# GULP energy per Si atom -12390.389418 kJ/mol
# Density = 2.116090 g / cm^3
# Si number density = 21.209174 Si / 1000 Ang^3
#
#
#
# Elastic Constant Matrix: (Units=GPa)
#
#
# Indices 1 2 3 4 5 6 
#
# 1 140.8561 39.3113 41.2662 -0.4863 -12.7901 7.4251
# 2 39.3113 109.6766 33.3201 -4.2935 2.0310 5.8485
# 3 41.2662 33.3201 86.9607 6.7145 -5.2536 8.2067
# 4 -0.4863 -4.2935 6.7145 31.1785 0.8543 1.1847
# 5 -12.7901 2.0310 -5.2536 0.8543 37.3580 -0.8575
# 6 7.4251 5.8485 8.2067 1.1847 -0.8575 35.4859
#
#
#
# Elastic Compliance Matrix: (Units=1/GPa)
#
#
# Indices 1 2 3 4 5 6 
#
# 1 0.008942 -0.002228 -0.003196 0.000474 0.002706 -0.000715
# 2 -0.002228 0.011123 -0.003434 0.002315 -0.001919 -0.000697
# 3 -0.003196 -0.003434 0.014884 -0.003683 0.001223 -0.002055
# 4 0.000474 0.002315 -0.003683 0.033257 -0.001260 -0.000770
# 5 0.002706 -0.001919 0.001223 -0.001260 0.028004 0.000186
# 6 -0.000715 -0.000697 -0.002055 -0.000770 0.000186 0.028950
#
#
# Mechanical properties :
#
#
# Convention : Reuss Voigt Hill
#
# Bulk Modulus (GPa) = 58.02167 62.80985 60.41576
# Shear Modulus (GPa) = 33.64320 35.71085 34.67702
#
# Velocity S-wave (km/s) = 3.98710 4.10780 4.04790
# Velocity P-wave (km/s) = 6.97225 7.22340 7.09893
#
# Compressibility (1/GPa) = 0.01723494
#
# Stress axis : x y z
#
# Youngs Moduli (GPa) = 111.82619 89.90611 67.18761
#
# Poissons Ratio (x) = 0.20030 0.21470
# Poissons Ratio (y) = 0.24913 0.23070
# Poissons Ratio (z) = 0.35734 0.30870
#
# Static dielectric constant tensor:
#      x y z
#    x 3.931010 0.180110 -0.271990 
#    y 0.180110 4.225680 -0.148810 
#    z -0.271990 -0.148810 3.837520 
# 
# 
# High freq. dielectric constant tensor:
#      x y z
#    x 1.833090 0.010240 -0.014760 
#    y 0.010240 1.835810 -0.008780 
#    z -0.014760 -0.008780 1.829210 
# 
# From -- ./inp_files/207722.got.cif
#   From: 2010.06.25/outbox.cif.g09.slc.cpg/sg2_104_cif.got.tgz:207722.got - 2010.06.27 13:26:56.
