data_PCOD8026314
_publ_section_title
;
Structure prediction by ZEFSAII (Michael W. Deem and Ramdas Pophale) SiO2 
 PCOD8026314
Probable space group: P -1
;
_chemical_formula_sum "Si O2"
_cell_formula_units_Z 16
_cell_length_a 9.819490
_cell_length_b 8.686686
_cell_length_c 12.556210
_cell_angle_alpha 99.247176
_cell_angle_beta 79.851027
_cell_angle_gamma 134.553972
_cell_volume 750.213363
_symmetry_space_group_name_H-M "P -1"
_symmetry_group_IT_number 2
_symmetry_cell_setting 'triclinic'
loop_
_space_group_symop_operation_xyz
x,y,z
-x,-y,-z
loop_
_atom_site_type_symbol
_atom_site_label
_atom_site_fract_x
_atom_site_fract_y
_atom_site_fract_z
Si Si1 0.467165 0.117643 0.372272
Si Si2 0.458099 0.346216 0.895656
Si Si3 0.048160 0.879170 0.423017
Si Si4 0.358563 0.035692 0.032785
Si Si5 0.971029 0.290515 0.803648
Si Si6 0.603391 0.420960 0.201407
Si Si7 0.194047 0.558646 0.491230
Si Si8 0.707632 0.315728 0.738030
O O1 0.521551 0.314557 0.317748
O O2 0.631867 0.216169 0.448024
O O3 0.258800 0.981680 0.442590
O O4 0.448142 0.948372 0.281547
O O5 0.378892 0.378558 0.806275
O O6 0.647358 0.398762 0.840515
O O7 0.500000 0.500000 0.000000
O O8 0.319710 0.099908 0.934201
O O9 0.044970 0.872287 0.292642
O O10 0.862853 0.636821 0.457023
O O11 0.000000 0.000000 0.500000
O O12 0.458140 0.236653 0.117635
O O13 0.154828 0.828015 0.086247
O O14 0.500000 0.000000 0.000000
O O15 0.906251 0.393495 0.758630
O O16 0.187047 0.489955 0.832605
O O17 0.266505 0.575265 0.364942
O O18 0.000000 0.500000 0.500000
#
# Coordination Sequence:
#
# PCOD8026314 Si02
#       8
#     2   2   2   2   2   2   2   2
#     4  11  22  42  67  92 135 180 211 263 329 390
#     4  10  24  41  65  97 126 168 216 274 330 371
#     4  11  25  40  62  97 131 171 213 261 327 388
#     4  11  21  43  69  89 127 167 213 269 323 382
#     4  11  22  42  67  91 128 169 218 254 324 389
#     4  11  22  40  67  92 131 164 211 269 323 380
#     4  12  23  41  65  98 133 167 224 265 313 397
#     4  11  22  42  67  94 131 175 217 267 318 389
#
# _framework density 21.327266999999999
#
# number of rings (size 3 to 8) (size 9 to 14) (size 15 to 20)
#    0.000    1.000    7.500    0.375    1.750    2.500 
#    0.000    0.000    5.500    0.000    0.000    0.000 
#    0.000    0.000    0.000    0.000    0.000    0.000 
#
# Total GULP energy -198216.180723 kJ/mol
# GULP energy per Si atom -12388.511295 kJ/mol
# Density = 2.127873 g / cm^3
# Si number density = 21.327267 Si / 1000 Ang^3
#
#
#
# Elastic Constant Matrix: (Units=GPa)
#
#
# Indices 1 2 3 4 5 6 
#
# 1 88.5503 31.1016 29.8758 2.3542 -5.7178 3.6225
# 2 31.1016 82.6565 17.8243 -23.7766 0.2907 10.3868
# 3 29.8758 17.8243 78.7716 -21.1139 -17.0391 -8.9332
# 4 2.3542 -23.7766 -21.1139 40.8554 -6.2447 3.9777
# 5 -5.7178 0.2907 -17.0391 -6.2447 39.8612 4.7138
# 6 3.6225 10.3868 -8.9332 3.9777 4.7138 38.4153
#
#
#
# Elastic Compliance Matrix: (Units=1/GPa)
#
#
# Indices 1 2 3 4 5 6 
#
# 1 0.016557 -0.007286 -0.007703 -0.009523 -0.002343 -0.000109
# 2 -0.007286 0.018978 0.001935 0.013386 0.002412 -0.005676
# 3 -0.007703 0.001935 0.021307 0.013844 0.009860 0.002515
# 4 -0.009523 0.013386 0.013844 0.042277 0.011706 -0.005316
# 5 -0.002343 0.002412 0.009860 0.011706 0.031157 -0.003173
# 6 -0.000109 -0.005676 0.002515 -0.005316 -0.003173 0.029101
#
#
# Mechanical properties :
#
#
# Convention : Reuss Voigt Hill
#
# Bulk Modulus (GPa) = 32.53666 45.28686 38.91176
# Shear Modulus (GPa) = 25.54534 35.23818 30.39176
#
# Velocity S-wave (km/s) = 3.46465 4.06921 3.77904
# Velocity P-wave (km/s) = 5.59411 6.58470 6.10952
#
# Compressibility (1/GPa) = 0.03073457
#
# Stress axis : x y z
#
# Youngs Moduli (GPa) = 60.39613 52.69268 46.93235
#
# Poissons Ratio (x) = 0.38394 0.36151
# Poissons Ratio (y) = 0.44007 -0.09082
# Poissons Ratio (z) = 0.46521 -0.10197
#
# Static dielectric constant tensor:
#      x y z
#    x 3.948460 -0.087640 0.215890 
#    y -0.087640 3.624330 -0.307250 
#    z 0.215890 -0.307250 4.148740 
# 
# 
# High freq. dielectric constant tensor:
#      x y z
#    x 1.825880 -0.003180 0.003670 
#    y -0.003180 1.829550 -0.025170 
#    z 0.003670 -0.025170 1.837990 
# 
# From -- ./inp_files/208188.got.cif
#   From: 2010.06.25/outbox.cif.g09.slc.cpg/sg2_105_cif.got.tgz:208188.got - 2010.06.27 13:26:56.
