data_PCOD8026680
_publ_section_title
;
Structure prediction by ZEFSAII (Michael W. Deem and Ramdas Pophale) SiO2 
 PCOD8026680
Probable space group: P -1
;
_chemical_formula_sum "Si O2"
_cell_formula_units_Z 16
_cell_length_a 9.156896
_cell_length_b 8.536508
_cell_length_c 23.169909
_cell_angle_alpha 51.584479
_cell_angle_beta 29.055096
_cell_angle_gamma 51.278441
_cell_volume 672.833707
_symmetry_space_group_name_H-M "P -1"
_symmetry_group_IT_number 2
_symmetry_cell_setting 'triclinic'
loop_
_space_group_symop_operation_xyz
x,y,z
-x,-y,-z
loop_
_atom_site_type_symbol
_atom_site_label
_atom_site_fract_x
_atom_site_fract_y
_atom_site_fract_z
Si Si1 0.031404 0.713140 0.725739
Si Si2 0.544291 0.499151 0.677362
Si Si3 0.840600 0.706824 0.976609
Si Si4 0.653779 0.409057 0.908241
Si Si5 0.996002 0.298127 0.474909
Si Si6 0.661533 0.126545 0.805872
Si Si7 0.740610 0.145520 0.494183
Si Si8 0.912298 0.922169 0.227715
O O1 0.201552 0.599600 0.749859
O O2 0.287488 0.775836 0.580295
O O3 0.844419 0.577364 0.783889
O O4 0.772221 0.904114 0.792081
O O5 0.755085 0.463242 0.556173
O O6 0.558067 0.288604 0.753827
O O7 0.666939 0.650631 0.644815
O O8 0.631249 0.621592 0.023185
O O9 0.638733 0.870415 0.052356
O O10 0.072163 0.835810 0.838153
O O11 0.000000 0.500000 0.000000
O O12 0.920236 0.198697 0.858975
O O13 0.500000 0.500000 0.000000
O O14 0.879047 0.308874 0.446727
O O15 0.009568 0.068518 0.545334
O O16 0.923420 0.175665 0.747213
O O17 0.433880 0.106518 0.639537
#
# Coordination Sequence:
#
# PCOD8026680 Si02
#       8
#     2   2   2   2   2   2   2   2
#     4  12  26  46  75 110 146 192 238 294 362 421
#     4  11  25  43  72 103 144 192 242 283 355 435
#     4  11  27  49  77 106 138 194 242 298 362 426
#     4  11  25  47  73 102 145 186 240 303 351 422
#     4  10  24  43  63 104 150 185 241 287 350 429
#     4  11  25  46  74 105 143 188 242 294 355 430
#     4  11  25  43  72 105 152 187 232 302 360 415
#     4  11  25  47  73 103 145 192 241 293 362 430
#
# _framework density 23.780021000000001
#
# number of rings (size 3 to 8) (size 9 to 14) (size 15 to 20)
#    0.000    1.000    1.250    4.500   12.250    3.000 
#    2.250    1.250    0.000    0.000    0.000    0.000 
#    0.000    0.000    0.000    0.000    0.000    0.000 
#
# Total GULP energy -198238.517148 kJ/mol
# GULP energy per Si atom -12389.907322 kJ/mol
# Density = 2.372590 g / cm^3
# Si number density = 23.780021 Si / 1000 Ang^3
#
#
#
# Elastic Constant Matrix: (Units=GPa)
#
#
# Indices 1 2 3 4 5 6 
#
# 1 115.9416 76.5436 56.2528 -5.8098 -7.5303 1.3829
# 2 76.5436 126.4598 59.3933 -6.7762 -2.6354 7.5268
# 3 56.2528 59.3933 118.5239 3.5102 -14.6484 5.3107
# 4 -5.8098 -6.7762 3.5102 31.3239 5.1967 1.8531
# 5 -7.5303 -2.6354 -14.6484 5.1967 31.0489 -10.3066
# 6 1.3829 7.5268 5.3107 1.8531 -10.3066 43.8647
#
#
#
# Elastic Compliance Matrix: (Units=1/GPa)
#
#
# Indices 1 2 3 4 5 6 
#
# 1 0.015603 -0.007877 -0.003331 0.001149 0.001903 0.001662
# 2 -0.007877 0.014898 -0.004196 0.003084 -0.004102 -0.002894
# 3 -0.003331 -0.004196 0.012929 -0.003996 0.005873 0.000808
# 4 0.001149 0.003084 -0.003996 0.034845 -0.008343 -0.003514
# 5 0.001903 -0.004102 0.005873 -0.008343 0.039677 0.009608
# 6 0.001662 -0.002894 0.000808 -0.003514 0.009608 0.025550
#
#
# Mechanical properties :
#
#
# Convention : Reuss Voigt Hill
#
# Bulk Modulus (GPa) = 79.23004 82.81163 81.02083
# Shear Modulus (GPa) = 28.00846 32.49655 30.25250
#
# Velocity S-wave (km/s) = 3.43565 3.70070 3.57063
# Velocity P-wave (km/s) = 7.00917 7.29108 7.15152
#
# Compressibility (1/GPa) = 0.01262148
#
# Stress axis : x y z
#
# Youngs Moduli (GPa) = 64.08877 67.12212 77.34816
#
# Poissons Ratio (x) = 0.52875 0.25767
# Poissons Ratio (y) = 0.50486 0.32452
# Poissons Ratio (z) = 0.21350 0.28161
#
# Static dielectric constant tensor:
#      x y z
#    x 13.132690 -0.835100 0.060450 
#    y -0.835100 4.650930 0.087710 
#    z 0.060450 0.087710 4.297550 
# 
# 
# High freq. dielectric constant tensor:
#      x y z
#    x 1.933200 0.016730 0.000970 
#    y 0.016730 1.957570 0.011380 
#    z 0.000970 0.011380 1.944400 
# 
# From -- ./inp_files/606649.got.cif
#   From: 2010.06.25/outbox.cif.g09.slc.cpg/sg2_304_cif.got.tgz:606649.got - 2010.06.27 13:26:56.
