data_PCOD8026590
_publ_section_title
;
Structure prediction by ZEFSAII (Michael W. Deem and Ramdas Pophale) SiO2 
 PCOD8026590
Probable space group: P -1
;
_chemical_formula_sum "Si O2"
_cell_formula_units_Z 14
_cell_length_a 9.836467
_cell_length_b 11.468707
_cell_length_c 12.313280
_cell_angle_alpha 129.245650
_cell_angle_beta 143.990504
_cell_angle_gamma 59.702818
_cell_volume 632.379527
_symmetry_space_group_name_H-M "P -1"
_symmetry_group_IT_number 2
_symmetry_cell_setting 'triclinic'
loop_
_space_group_symop_operation_xyz
x,y,z
-x,-y,-z
loop_
_atom_site_type_symbol
_atom_site_label
_atom_site_fract_x
_atom_site_fract_y
_atom_site_fract_z
Si Si1 0.612245 0.700245 0.461521
Si Si2 0.504284 0.928534 0.078766
Si Si3 0.668981 0.402574 0.977256
Si Si4 0.703954 0.188268 0.481981
Si Si5 0.069375 0.860950 0.888301
Si Si6 0.813371 0.663213 0.082420
Si Si7 0.479548 0.580877 0.647423
O O1 0.475538 0.699693 0.260617
O O2 0.468581 0.772723 0.509621
O O3 0.665058 0.525917 0.425502
O O4 0.840921 0.797789 0.644314
O O5 0.594557 0.759181 0.036666
O O6 0.669569 0.014300 0.324464
O O7 0.240687 0.926898 0.947427
O O8 0.500000 0.000000 0.000000
O O9 0.500000 0.500000 0.000000
O O10 0.823276 0.282155 0.066708
O O11 0.841049 0.520095 0.095017
O O12 0.649546 0.266244 0.375564
O O13 0.959898 0.231474 0.713443
O O14 0.000000 0.000000 0.000000
O O15 0.739223 0.608077 0.880626
O O16 0.500000 0.500000 0.500000
#
# Coordination Sequence:
#
# PCOD8026590 Si02
#       7
#     2   2   2   2   2   2   2
#     4  10  24  42  70 102 133 186 236 283 349 417
#     4  12  25  45  70 103 141 186 232 286 355 414
#     4  11  25  46  71 103 138 181 238 289 349 412
#     4  11  22  41  67 102 140 181 233 281 355 417
#     4  12  26  49  73  99 146 185 232 291 349 417
#     4  11  23  43  70 102 139 179 230 294 344 412
#     4   9  20  39  65 100 137 175 229 282 347 413
#
# _framework density 22.138604999999998
#
# number of rings (size 3 to 8) (size 9 to 14) (size 15 to 20)
#    0.000    1.143    4.286    1.286    0.000   10.857 
#    2.571    0.000    0.000    0.000    0.000    0.000 
#    0.000    0.000    0.000    0.000    0.000    0.000 
#
# Total GULP energy -173537.109923 kJ/mol
# GULP energy per Si atom -12395.507852 kJ/mol
# Density = 2.208822 g / cm^3
# Si number density = 22.138605 Si / 1000 Ang^3
#
#
#
# Elastic Constant Matrix: (Units=GPa)
#
#
# Indices 1 2 3 4 5 6 
#
# 1 112.0149 30.1936 57.6128 3.6870 11.9420 -1.1119
# 2 30.1936 89.0335 10.5611 6.1021 -4.9362 -5.2287
# 3 57.6128 10.5611 164.1772 15.1411 15.2672 8.3291
# 4 3.6870 6.1021 15.1411 28.5638 1.1131 1.2591
# 5 11.9420 -4.9362 15.2672 1.1131 42.0122 1.1292
# 6 -1.1119 -5.2287 8.3291 1.2591 1.1292 21.4244
#
#
#
# Elastic Compliance Matrix: (Units=1/GPa)
#
#
# Indices 1 2 3 4 5 6 
#
# 1 0.012269 -0.003845 -0.004017 0.001409 -0.002552 0.001312
# 2 -0.003845 0.012979 0.000390 -0.002705 0.002472 0.002845
# 3 -0.004017 0.000390 0.008112 -0.003672 -0.001583 -0.002968
# 4 0.001409 -0.002705 -0.003672 0.037424 -0.000339 -0.001341
# 5 -0.002552 0.002472 -0.001583 -0.000339 0.025409 -0.000233
# 6 0.001312 0.002845 -0.002968 -0.001341 -0.000233 0.048683
#
#
# Mechanical properties :
#
#
# Convention : Reuss Voigt Hill
#
# Bulk Modulus (GPa) = 54.30484 62.44009 58.37246
# Shear Modulus (GPa) = 30.12787 36.19063 33.15925
#
# Velocity S-wave (km/s) = 3.69301 4.04756 3.87434
# Velocity P-wave (km/s) = 6.53966 7.07878 6.81455
#
# Compressibility (1/GPa) = 0.01841457
#
# Stress axis : x y z
#
# Youngs Moduli (GPa) = 81.50837 77.04772 123.27329
#
# Poissons Ratio (x) = 0.29626 0.49520
# Poissons Ratio (y) = 0.31341 -0.04804
# Poissons Ratio (z) = 0.32743 -0.03002
#
# Static dielectric constant tensor:
#      x y z
#    x 3.945010 0.318170 -0.075350 
#    y 0.318170 5.481400 0.235700 
#    z -0.075350 0.235700 4.297870 
# 
# 
# High freq. dielectric constant tensor:
#      x y z
#    x 1.859350 0.003810 -0.008600 
#    y 0.003810 1.872750 0.016720 
#    z -0.008600 0.016720 1.890070 
# 
# From -- ./inp_files/71079.got.cif
#   From: 2010.06.25/outbox.cif.g09.slc.cpg/sg2_36_cif.got.tgz:71079.got - 2010.06.27 13:26:56.
