data_PCOD8026868
_publ_section_title
;
Structure prediction by ZEFSAII (Michael W. Deem and Ramdas Pophale) SiO2 
 PCOD8026868
Probable space group: P -1
;
_chemical_formula_sum "Si O2"
_cell_formula_units_Z 16
_cell_length_a 15.958668
_cell_length_b 11.155909
_cell_length_c 9.116801
_cell_angle_alpha 67.025083
_cell_angle_beta 142.733002
_cell_angle_gamma 130.595822
_cell_volume 717.003549
_symmetry_space_group_name_H-M "P -1"
_symmetry_group_IT_number 2
_symmetry_cell_setting 'triclinic'
loop_
_space_group_symop_operation_xyz
x,y,z
-x,-y,-z
loop_
_atom_site_type_symbol
_atom_site_label
_atom_site_fract_x
_atom_site_fract_y
_atom_site_fract_z
Si Si1 0.321005 0.812267 0.571112
Si Si2 0.973823 0.725234 0.231020
Si Si3 0.165168 0.163885 0.221919
Si Si4 0.697384 0.104562 0.042138
Si Si5 0.093707 0.997332 0.491121
Si Si6 0.197734 0.656055 0.166859
Si Si7 0.539239 0.370907 0.630662
Si Si8 0.730888 0.370616 0.150510
O O1 0.307472 0.760489 0.410266
O O2 0.307942 0.668489 0.712780
O O3 0.167559 0.825203 0.389517
O O4 0.498588 0.991449 0.764635
O O5 0.913996 0.550210 0.291163
O O6 0.968106 0.826481 0.307279
O O7 0.846368 0.696056 0.930842
O O8 0.347206 0.199142 0.410710
O O9 0.151765 0.147213 0.389482
O O10 0.000000 0.000000 0.000000
O O11 0.814814 0.225374 0.013509
O O12 0.743557 0.988201 0.220622
O O13 0.731813 0.221956 0.168113
O O14 0.000000 0.000000 0.500000
O O15 0.308402 0.603248 0.269611
O O16 0.000000 0.500000 0.000000
O O17 0.500000 0.500000 0.500000
O O18 0.580810 0.366021 0.861627
#
# Coordination Sequence:
#
# PCOD8026868 Si02
#       8
#     2   2   2   2   2   2   2   2
#     4  12  24  42  72 104 142 185 244 299 359 425
#     4  11  24  43  71 105 142 194 236 296 362 432
#     4  10  24  43  70 100 142 191 235 281 366 429
#     4  11  25  45  71 102 140 186 242 298 364 425
#     4  11  26  44  69 103 146 186 243 297 357 430
#     4  11  28  45  71 107 145 188 244 305 358 429
#     4  11  23  46  70 101 145 188 235 292 362 429
#     4  11  23  43  72 104 141 185 241 294 361 425
#
# _framework density 22.315093000000001
#
# number of rings (size 3 to 8) (size 9 to 14) (size 15 to 20)
#    0.000    1.000    2.500    3.375   10.500    2.000 
#    0.000    0.625    0.000    0.000    0.000    0.000 
#    0.000    0.000    0.000    0.000    0.000    0.000 
#
# Total GULP energy -198278.413536 kJ/mol
# GULP energy per Si atom -12392.400846 kJ/mol
# Density = 2.226430 g / cm^3
# Si number density = 22.315093 Si / 1000 Ang^3
#
#
#
# Elastic Constant Matrix: (Units=GPa)
#
#
# Indices 1 2 3 4 5 6 
#
# 1 115.0695 38.7314 62.8576 -8.1236 -2.7126 4.9059
# 2 38.7314 87.2677 26.6782 -10.4165 0.2177 13.6043
# 3 62.8576 26.6782 116.0551 -11.8223 5.1596 9.2641
# 4 -8.1236 -10.4165 -11.8223 58.2402 9.5265 -2.5513
# 5 -2.7126 0.2177 5.1596 9.5265 42.5222 1.2711
# 6 4.9059 13.6043 9.2641 -2.5513 1.2711 39.2743
#
#
#
# Elastic Compliance Matrix: (Units=1/GPa)
#
#
# Indices 1 2 3 4 5 6 
#
# 1 0.013748 -0.004315 -0.006679 -0.000444 0.001771 0.001267
# 2 -0.004315 0.014374 -0.000424 0.001793 -0.000573 -0.004205
# 3 -0.006679 -0.000424 0.012774 0.001888 -0.002342 -0.001834
# 4 -0.000444 0.001793 0.001888 0.018552 -0.004433 0.000338
# 5 0.001771 -0.000573 -0.002342 -0.004433 0.024927 -0.000565
# 6 0.001267 -0.004205 -0.001834 0.000338 -0.000565 0.027233
#
#
# Mechanical properties :
#
#
# Convention : Reuss Voigt Hill
#
# Bulk Modulus (GPa) = 55.36629 63.88077 59.62353
# Shear Modulus (GPa) = 35.59614 40.68234 38.13924
#
# Velocity S-wave (km/s) = 3.99828 4.27439 4.13864
# Velocity P-wave (km/s) = 6.79559 7.28350 7.04377
#
# Compressibility (1/GPa) = 0.01806153
#
# Stress axis : x y z
#
# Youngs Moduli (GPa) = 72.73989 69.56823 78.28107
#
# Poissons Ratio (x) = 0.30015 0.52286
# Poissons Ratio (y) = 0.31384 0.03317
# Poissons Ratio (z) = 0.48585 0.02948
#
# Static dielectric constant tensor:
#      x y z
#    x 3.812480 0.271720 -0.111240 
#    y 0.271720 4.524110 -0.258850 
#    z -0.111240 -0.258850 4.643460 
# 
# 
# High freq. dielectric constant tensor:
#      x y z
#    x 1.845210 0.018600 -0.007520 
#    y 0.018600 1.892740 -0.007480 
#    z -0.007520 -0.007480 1.910350 
# 
# From -- ./inp_files/307212.got.cif
#   From: 2010.06.25/outbox.cif.g09.slc.cpg/sg2_154_cif.got.tgz:307212.got - 2010.06.27 13:26:56.
