data_PCOD8026876
_publ_section_title
;
Structure prediction by ZEFSAII (Michael W. Deem and Ramdas Pophale) SiO2 
 PCOD8026876
Probable space group: P -1
;
_chemical_formula_sum "Si O2"
_cell_formula_units_Z 14
_cell_length_a 5.218961
_cell_length_b 8.845558
_cell_length_c 16.560388
_cell_angle_alpha 52.776691
_cell_angle_beta 67.106943
_cell_angle_gamma 79.964822
_cell_volume 558.864822
_symmetry_space_group_name_H-M "P -1"
_symmetry_group_IT_number 2
_symmetry_cell_setting 'triclinic'
loop_
_space_group_symop_operation_xyz
x,y,z
-x,-y,-z
loop_
_atom_site_type_symbol
_atom_site_label
_atom_site_fract_x
_atom_site_fract_y
_atom_site_fract_z
Si Si1 0.029454 0.551081 0.388176
Si Si2 0.089382 0.955191 0.090971
Si Si3 0.562496 0.773961 0.305018
Si Si4 0.466924 0.723600 0.024869
Si Si5 0.187157 0.152652 0.474791
Si Si6 0.363073 0.950017 0.662114
Si Si7 0.261983 0.643229 0.904654
O O1 0.301404 0.708676 0.299039
O O2 0.094038 0.359024 0.397871
O O3 0.000000 0.500000 0.500000
O O4 0.730015 0.601991 0.375184
O O5 0.810045 0.898415 0.191062
O O6 0.243838 0.140215 0.055490
O O7 0.288616 0.782151 0.106394
O O8 0.000000 0.000000 0.000000
O O9 0.448157 0.905921 0.348098
O O10 0.333677 0.759889 0.941027
O O11 0.499160 0.497508 0.103214
O O12 0.490123 0.150847 0.396722
O O13 0.170177 0.094277 0.591490
O O14 0.000000 0.000000 0.500000
O O15 0.209415 0.785083 0.790696
O O16 0.000000 0.500000 0.000000
#
# Coordination Sequence:
#
# PCOD8026876 Si02
#       7
#     2   2   2   2   2   2   2
#     4  12  27  50  76 108 147 188 254 308 369 442
#     4  11  25  45  69 103 151 186 249 299 372 436
#     4  12  28  46  80 107 145 201 245 305 374 438
#     4  10  24  43  70 102 146 192 238 309 359 447
#     4  11  27  47  71 105 146 189 242 304 369 439
#     4  11  26  45  72 101 145 192 242 301 372 433
#     4  11  24  45  71 104 145 186 247 297 375 440
#
# _framework density 25.050778000000001
#
# number of rings (size 3 to 8) (size 9 to 14) (size 15 to 20)
#    0.000    0.857    1.429    3.857   12.000    3.429 
#    0.000    0.000    0.000    0.000    0.000    0.000 
#    0.000    0.000    0.000    0.000    0.000    0.000 
#
# Total GULP energy -173435.751819 kJ/mol
# GULP energy per Si atom -12388.267987 kJ/mol
# Density = 2.499376 g / cm^3
# Si number density = 25.050778 Si / 1000 Ang^3
#
#
#
# Elastic Constant Matrix: (Units=GPa)
#
#
# Indices 1 2 3 4 5 6 
#
# 1 57.4253 -5.0840 15.8304 1.1208 -11.3807 21.3744
# 2 -5.0840 131.0052 24.3962 -8.7929 -0.5713 12.2065
# 3 15.8304 24.3962 113.0371 -4.0183 10.0039 10.0240
# 4 1.1208 -8.7929 -4.0183 33.1989 3.8464 0.3256
# 5 -11.3807 -0.5713 10.0039 3.8464 41.8243 -8.3479
# 6 21.3744 12.2065 10.0240 0.3256 -8.3479 49.4133
#
#
#
# Elastic Compliance Matrix: (Units=1/GPa)
#
#
# Indices 1 2 3 4 5 6 
#
# 1 0.022976 0.002310 -0.003450 -0.001124 0.005439 -0.008883
# 2 0.002310 0.008450 -0.001890 0.001900 0.000496 -0.002632
# 3 -0.003450 -0.001890 0.010172 0.001278 -0.003661 -0.000731
# 4 -0.001124 0.001900 0.001278 0.031253 -0.003673 -0.001069
# 5 0.005439 0.000496 -0.003661 -0.003673 0.027185 0.002884
# 6 -0.008883 -0.002632 -0.000731 -0.001069 0.002884 0.025373
#
#
# Mechanical properties :
#
#
# Convention : Reuss Voigt Hill
#
# Bulk Modulus (GPa) = 28.13928 41.30587 34.72258
# Shear Modulus (GPa) = 34.88822 42.64230 38.76526
#
# Velocity S-wave (km/s) = 3.73594 4.13029 3.93805
# Velocity P-wave (km/s) = 5.46506 6.26661 5.87951
#
# Compressibility (1/GPa) = 0.03553751
#
# Stress axis : x y z
#
# Youngs Moduli (GPa) = 43.52435 118.34595 98.30878
#
# Poissons Ratio (x) = -0.27338 0.33914
# Poissons Ratio (y) = -0.10054 0.18582
# Poissons Ratio (z) = 0.15015 0.22369
#
# Static dielectric constant tensor:
#      x y z
#    x 5.269790 -0.801600 -0.328410 
#    y -0.801600 3.743670 -0.548620 
#    z -0.328410 -0.548620 4.951290 
# 
# 
# High freq. dielectric constant tensor:
#      x y z
#    x 1.993250 -0.009240 0.008370 
#    y -0.009240 2.027140 -0.000930 
#    z 0.008370 -0.000930 1.991570 
# 
# From -- ./inp_files/484980.got.cif
#   From: 2010.06.25/outbox.cif.g09.slc.cpg/sg2_243_cif.got.tgz:484980.got - 2010.06.27 13:26:56.
