data_PCOD8026606
_publ_section_title
;
Structure prediction by ZEFSAII (Michael W. Deem and Ramdas Pophale) SiO2 
 PCOD8026606
Probable space group: P -1
;
_chemical_formula_sum "Si O2"
_cell_formula_units_Z 14
_cell_length_a 12.776445
_cell_length_b 5.385764
_cell_length_c 9.494445
_cell_angle_alpha 109.638290
_cell_angle_beta 98.623169
_cell_angle_gamma 86.484590
_cell_volume 608.322202
_symmetry_space_group_name_H-M "P -1"
_symmetry_group_IT_number 2
_symmetry_cell_setting 'triclinic'
loop_
_space_group_symop_operation_xyz
x,y,z
-x,-y,-z
loop_
_atom_site_type_symbol
_atom_site_label
_atom_site_fract_x
_atom_site_fract_y
_atom_site_fract_z
Si Si1 0.142280 0.636742 0.164091
Si Si2 0.510608 0.954145 0.828308
Si Si3 0.122589 0.069477 0.455656
Si Si4 0.880925 0.344427 0.409966
Si Si5 0.323558 0.868179 0.576432
Si Si6 0.034710 0.731145 0.885029
Si Si7 0.383261 0.617388 0.263528
O O1 0.261649 0.545858 0.198279
O O2 0.066959 0.446046 0.202389
O O3 0.120945 0.935221 0.274534
O O4 0.114958 0.595599 0.987274
O O5 0.396214 0.980902 0.736146
O O6 0.553790 0.657039 0.765061
O O7 0.581156 0.182519 0.814952
O O8 0.500000 0.000000 0.000000
O O9 0.072864 0.363728 0.492992
O O10 0.063500 0.877763 0.520774
O O11 0.245198 0.094980 0.538999
O O12 0.754689 0.355617 0.419274
O O13 0.898669 0.236877 0.236429
O O14 0.397405 0.754328 0.444472
O O15 0.000000 0.000000 0.000000
#
# Coordination Sequence:
#
# PCOD8026606 Si02
#       7
#     2   2   2   2   2   2   2
#     4  10  26  44  69  98 136 177 229 274 347 398
#     4  12  27  42  69 104 135 179 221 272 334 400
#     4   9  23  42  69  99 133 175 227 276 329 390
#     4  10  24  42  70  99 135 176 227 282 327 400
#     4   9  24  42  71  99 137 176 225 272 334 390
#     4  11  27  44  69  98 138 183 219 282 347 407
#     4  11  26  44  70  96 137 178 223 277 328 398
#
# _framework density 23.014118
#
# number of rings (size 3 to 8) (size 9 to 14) (size 15 to 20)
#    0.857    0.857    0.000    1.286   16.000    2.286 
#    0.000    0.000    0.000    0.000    0.000    0.000 
#    0.000    0.000    0.000    0.000    0.000    0.000 
#
# Total GULP energy -173556.069429 kJ/mol
# GULP energy per Si atom -12396.862102 kJ/mol
# Density = 2.296174 g / cm^3
# Si number density = 23.014118 Si / 1000 Ang^3
#
#
#
# Elastic Constant Matrix: (Units=GPa)
#
#
# Indices 1 2 3 4 5 6 
#
# 1 90.2406 56.7291 65.6263 -4.8621 11.9725 6.0313
# 2 56.7291 134.0798 47.9103 5.6363 -6.7629 -18.6065
# 3 65.6263 47.9103 143.7472 -10.2472 -7.3471 6.5305
# 4 -4.8621 5.6363 -10.2472 32.5006 6.2004 -5.8831
# 5 11.9725 -6.7629 -7.3471 6.2004 46.9174 3.6145
# 6 6.0313 -18.6065 6.5305 -5.8831 3.6145 35.8934
#
#
#
# Elastic Compliance Matrix: (Units=1/GPa)
#
#
# Indices 1 2 3 4 5 6 
#
# 1 0.024100 -0.008672 -0.008069 0.003186 -0.008647 -0.005684
# 2 -0.008672 0.012678 -0.000623 -0.003104 0.003794 0.007252
# 3 -0.008069 -0.000623 0.011193 0.001541 0.003604 -0.001114
# 4 0.003186 -0.003104 0.001541 0.034055 -0.005808 0.003742
# 5 -0.008647 0.003794 0.003604 -0.005808 0.025457 -0.000751
# 6 -0.005684 0.007252 -0.001114 0.003742 -0.000751 0.033466
#
#
# Mechanical properties :
#
#
# Convention : Reuss Voigt Hill
#
# Bulk Modulus (GPa) = 75.51398 78.73323 77.12361
# Shear Modulus (GPa) = 27.76358 36.24908 32.00633
#
# Velocity S-wave (km/s) = 3.47705 3.97303 3.73329
# Velocity P-wave (km/s) = 7.00022 7.43853 7.22270
#
# Compressibility (1/GPa) = 0.01324258
#
# Stress axis : x y z
#
# Youngs Moduli (GPa) = 41.49399 78.87414 89.34411
#
# Poissons Ratio (x) = 0.68403 0.72089
# Poissons Ratio (y) = 0.35985 0.05568
# Poissons Ratio (z) = 0.33480 0.04915
#
# Static dielectric constant tensor:
#      x y z
#    x 4.148940 0.048850 0.031790 
#    y 0.048850 4.060580 -0.175100 
#    z 0.031790 -0.175100 4.295010 
# 
# 
# High freq. dielectric constant tensor:
#      x y z
#    x 1.923280 0.001680 0.003880 
#    y 0.001680 1.912970 -0.011050 
#    z 0.003880 -0.011050 1.916740 
# 
# From -- ./inp_files/229889.got.cif
#   From: 2010.06.25/outbox.cif.g09.slc.cpg/sg2_115_cif.got.tgz:229889.got - 2010.06.27 13:26:56.
