data_PCOD8026877
_publ_section_title
;
Structure prediction by ZEFSAII (Michael W. Deem and Ramdas Pophale) SiO2 
 PCOD8026877
Probable space group: P -1
;
_chemical_formula_sum "Si O2"
_cell_formula_units_Z 14
_cell_length_a 8.954413
_cell_length_b 9.174246
_cell_length_c 19.968884
_cell_angle_alpha 48.222738
_cell_angle_beta 150.012445
_cell_angle_gamma 132.656823
_cell_volume 588.771165
_symmetry_space_group_name_H-M "P -1"
_symmetry_group_IT_number 2
_symmetry_cell_setting 'triclinic'
loop_
_space_group_symop_operation_xyz
x,y,z
-x,-y,-z
loop_
_atom_site_type_symbol
_atom_site_label
_atom_site_fract_x
_atom_site_fract_y
_atom_site_fract_z
Si Si1 0.297831 0.502088 0.026878
Si Si2 0.739209 0.215159 0.961398
Si Si3 0.135799 0.022992 0.705591
Si Si4 0.097670 0.653199 0.551067
Si Si5 0.769732 0.364152 0.184047
Si Si6 0.231135 0.605939 0.375788
Si Si7 0.764906 0.954129 0.715437
O O1 0.496187 0.339798 0.141081
O O2 0.943381 0.384922 0.939523
O O3 0.421991 0.668164 0.082725
O O4 0.341184 0.629718 0.936606
O O5 0.469073 0.073266 0.856158
O O6 0.951587 0.088374 0.118684
O O7 0.101279 0.187471 0.587784
O O8 0.862478 0.983759 0.666477
O O9 0.097047 0.830223 0.701138
O O10 0.000000 0.500000 0.500000
O O11 0.000008 0.526399 0.618846
O O12 0.467494 0.760311 0.664656
O O13 0.033268 0.571160 0.240775
O O14 0.500000 0.500000 0.500000
O O15 0.329421 0.844773 0.357915
#
# Coordination Sequence:
#
# PCOD8026877 Si02
#       7
#     2   2   2   2   2   2   2
#     4  10  24  43  70 102 152 185 239 299 370 428
#     4  11  25  44  77 109 141 194 249 299 360 438
#     4  12  26  44  79 108 148 192 250 300 367 435
#     4  12  29  49  79 107 145 196 252 297 363 443
#     4  11  25  45  68 106 150 188 237 303 372 424
#     4  12  29  48  76 106 151 193 242 307 367 431
#     4  12  26  50  76 108 149 193 248 302 361 442
#
# _framework density 23.77834
#
# number of rings (size 3 to 8) (size 9 to 14) (size 15 to 20)
#    0.000    0.571    2.857    3.429   12.000    4.000 
#    0.000    0.000    0.000    0.000    0.000    0.000 
#    0.000    0.000    0.000    0.000    0.000    0.000 
#
# Total GULP energy -173549.832421 kJ/mol
# GULP energy per Si atom -12396.416602 kJ/mol
# Density = 2.372422 g / cm^3
# Si number density = 23.778340 Si / 1000 Ang^3
#
#
#
# Elastic Constant Matrix: (Units=GPa)
#
#
# Indices 1 2 3 4 5 6 
#
# 1 83.5063 29.5468 15.5069 -2.2212 15.7714 -19.6066
# 2 29.5468 115.9824 14.0447 -4.1556 14.8099 -19.8833
# 3 15.5069 14.0447 70.4689 -3.0409 10.8672 -11.2434
# 4 -2.2212 -4.1556 -3.0409 50.8034 -4.9455 9.3707
# 5 15.7714 14.8099 10.8672 -4.9455 34.7827 -10.9281
# 6 -19.6066 -19.8833 -11.2434 9.3707 -10.9281 45.3533
#
#
#
# Elastic Compliance Matrix: (Units=1/GPa)
#
#
# Indices 1 2 3 4 5 6 
#
# 1 0.014825 -0.002390 -0.001533 -0.000801 -0.004028 0.004177
# 2 -0.002390 0.010050 -0.000721 -0.000029 -0.002130 0.002687
# 3 -0.001533 -0.000721 0.015497 0.000110 -0.003172 0.002076
# 4 -0.000801 -0.000029 0.000110 0.020604 0.001979 -0.004112
# 5 -0.004028 -0.002130 -0.003172 0.001979 0.034123 0.004352
# 6 0.004177 0.002687 0.002076 -0.004112 0.004352 0.027445
#
#
# Mechanical properties :
#
#
# Convention : Reuss Voigt Hill
#
# Bulk Modulus (GPa) = 32.17105 43.12825 37.64965
# Shear Modulus (GPa) = 35.16349 40.24516 37.70432
#
# Velocity S-wave (km/s) = 3.84969 4.11848 3.98635
# Velocity P-wave (km/s) = 5.77227 6.38693 6.08736
#
# Compressibility (1/GPa) = 0.03108385
#
# Stress axis : x y z
#
# Youngs Moduli (GPa) = 67.45226 99.50616 64.52930
#
# Poissons Ratio (x) = 0.23778 0.09894
# Poissons Ratio (y) = 0.16118 0.04654
# Poissons Ratio (z) = 0.10342 0.07176
#
# Static dielectric constant tensor:
#      x y z
#    x 4.491030 -0.263010 0.226150 
#    y -0.263010 4.385730 -0.078860 
#    z 0.226150 -0.078860 4.287830 
# 
# 
# High freq. dielectric constant tensor:
#      x y z
#    x 1.947320 -0.011540 0.003700 
#    y -0.011540 1.947880 -0.002700 
#    z 0.003700 -0.002700 1.951760 
# 
# From -- ./inp_files/224322.got.cif
#   From: 2010.06.25/outbox.cif.g09.slc.cpg/sg2_113_cif.got.tgz:224322.got - 2010.06.27 13:26:56.
