data_PCOD8026987
_publ_section_title
;
Structure prediction by ZEFSAII (Michael W. Deem and Ramdas Pophale) SiO2 
 PCOD8026987
Probable space group: P -1
;
_chemical_formula_sum "Si O2"
_cell_formula_units_Z 14
_cell_length_a 5.233161
_cell_length_b 9.229923
_cell_length_c 19.326552
_cell_angle_alpha 48.217991
_cell_angle_beta 61.116142
_cell_angle_gamma 59.655185
_cell_volume 584.979151
_symmetry_space_group_name_H-M "P -1"
_symmetry_group_IT_number 2
_symmetry_cell_setting 'triclinic'
loop_
_space_group_symop_operation_xyz
x,y,z
-x,-y,-z
loop_
_atom_site_type_symbol
_atom_site_label
_atom_site_fract_x
_atom_site_fract_y
_atom_site_fract_z
Si Si1 0.563451 0.940375 0.327307
Si Si2 0.489627 0.683654 0.614620
Si Si3 0.355270 0.410458 0.986657
Si Si4 0.738230 0.665730 0.263364
Si Si5 0.389797 0.393025 0.227218
Si Si6 0.084639 0.098749 0.562554
Si Si7 0.341150 0.015550 0.942322
O O1 0.746559 0.819691 0.275843
O O2 0.790299 0.911424 0.371721
O O3 0.278744 0.851469 0.408235
O O4 0.429022 0.179265 0.250073
O O5 0.480071 0.476355 0.643347
O O6 0.414735 0.653764 0.713980
O O7 0.820489 0.717233 0.546176
O O8 0.232566 0.894083 0.562863
O O9 0.494661 0.450469 0.883097
O O10 0.500000 0.500000 0.000000
O O11 0.448222 0.173712 0.066680
O O12 0.000000 0.500000 0.000000
O O13 0.052317 0.499817 0.261607
O O14 0.642495 0.788435 0.165206
O O15 0.500000 0.000000 0.000000
O O16 0.000000 0.000000 0.000000
#
# Coordination Sequence:
#
# PCOD8026987 Si02
#       7
#     2   2   2   2   2   2   2
#     4  11  26  44  71 104 144 181 236 292 346 418
#     4  10  24  43  75  98 143 190 231 287 359 409
#     4  12  27  47  74 103 140 188 233 294 358 422
#     4  12  26  44  74 103 139 190 235 291 358 416
#     4  11  25  47  71 102 144 183 239 290 353 424
#     4  10  24  46  69 104 143 186 234 287 350 422
#     4  12  26  46  70 102 141 181 234 294 352 422
#
# _framework density 23.932476000000001
#
# number of rings (size 3 to 8) (size 9 to 14) (size 15 to 20)
#    0.000    0.857    2.857    2.571    6.000    5.143 
#    0.000    0.000    0.000    0.000    0.000    0.000 
#    0.000    0.000    0.000    0.000    0.000    0.000 
#
# Total GULP energy -173560.578787 kJ/mol
# GULP energy per Si atom -12397.184199 kJ/mol
# Density = 2.387800 g / cm^3
# Si number density = 23.932476 Si / 1000 Ang^3
#
#
#
# Elastic Constant Matrix: (Units=GPa)
#
#
# Indices 1 2 3 4 5 6 
#
# 1 100.4025 30.8496 -1.2996 -2.6740 -5.7631 -1.6230
# 2 30.8496 160.3773 20.5679 -16.6562 2.2240 9.7825
# 3 -1.2996 20.5679 85.3229 -11.9736 -6.3531 2.2505
# 4 -2.6740 -16.6562 -11.9736 36.2029 8.6803 1.4027
# 5 -5.7631 2.2240 -6.3531 8.6803 34.3638 6.2161
# 6 -1.6230 9.7825 2.2505 1.4027 6.2161 35.1001
#
#
#
# Elastic Compliance Matrix: (Units=1/GPa)
#
#
# Indices 1 2 3 4 5 6 
#
# 1 0.010798 -0.002308 0.000782 -0.000539 0.002107 0.000741
# 2 -0.002308 0.007331 -0.001423 0.003185 -0.001585 -0.001905
# 3 0.000782 -0.001423 0.012685 0.003171 0.001921 -0.000847
# 4 -0.000539 0.003185 0.003171 0.031958 -0.007593 -0.001048
# 5 0.002107 -0.001585 0.001921 -0.007593 0.032748 -0.005080
# 6 0.000741 -0.001905 -0.000847 -0.001048 -0.005080 0.030051
#
#
# Mechanical properties :
#
#
# Convention : Reuss Voigt Hill
#
# Bulk Modulus (GPa) = 40.13289 49.59318 44.86304
# Shear Modulus (GPa) = 35.77214 40.86569 38.31891
#
# Velocity S-wave (km/s) = 3.87034 4.13672 4.00575
# Velocity P-wave (km/s) = 6.06452 6.60180 6.33885
#
# Compressibility (1/GPa) = 0.02491722
#
# Stress axis : x y z
#
# Youngs Moduli (GPa) = 92.61256 136.41240 78.83021
#
# Poissons Ratio (x) = 0.31481 -0.06168
# Poissons Ratio (y) = 0.21373 0.11218
# Poissons Ratio (z) = -0.07246 0.19412
#
# Static dielectric constant tensor:
#      x y z
#    x 4.258130 0.159400 0.010870 
#    y 0.159400 4.554100 -0.355740 
#    z 0.010870 -0.355740 4.902910 
# 
# 
# High freq. dielectric constant tensor:
#      x y z
#    x 1.944650 0.006970 0.002800 
#    y 0.006970 1.957720 -0.012140 
#    z 0.002800 -0.012140 1.954290 
# 
# From -- ./inp_files/35638.got.cif
#   From: 2010.06.25/outbox.cif.g09.slc.cpg/sg2_18_cif.got.tgz:35638.got - 2010.06.27 13:26:56.
