data_PCOD8026689
_publ_section_title
;
Structure prediction by ZEFSAII (Michael W. Deem and Ramdas Pophale) SiO2 
 PCOD8026689
Probable space group: P -1
;
_chemical_formula_sum "Si O2"
_cell_formula_units_Z 14
_cell_length_a 12.595422
_cell_length_b 8.066513
_cell_length_c 8.986316
_cell_angle_alpha 129.446535
_cell_angle_beta 109.429355
_cell_angle_gamma 89.411384
_cell_volume 639.051937
_symmetry_space_group_name_H-M "P -1"
_symmetry_group_IT_number 2
_symmetry_cell_setting 'triclinic'
loop_
_space_group_symop_operation_xyz
x,y,z
-x,-y,-z
loop_
_atom_site_type_symbol
_atom_site_label
_atom_site_fract_x
_atom_site_fract_y
_atom_site_fract_z
Si Si1 0.152381 0.007252 0.418965
Si Si2 0.512871 0.010805 0.262532
Si Si3 0.121412 0.614830 0.548363
Si Si4 0.882018 0.475605 0.839742
Si Si5 0.628466 0.308617 0.220328
Si Si6 0.889191 0.907234 0.220750
Si Si7 0.603820 0.763643 0.414437
O O1 0.195731 0.780250 0.320009
O O2 0.024490 0.956969 0.256485
O O3 0.133003 0.122839 0.631173
O O4 0.254801 0.168961 0.463084
O O5 0.602939 0.193868 0.306475
O O6 0.456475 0.134766 0.427435
O O7 0.575431 0.845137 0.283181
O O8 0.409182 0.873273 0.030201
O O9 0.097017 0.501802 0.312048
O O10 0.232766 0.566180 0.652432
O O11 0.000000 0.500000 0.500000
O O12 0.155592 0.884626 0.730709
O O13 0.821806 0.667660 0.976862
O O14 0.000000 0.500000 0.000000
O O15 0.560079 0.496023 0.263934
#
# Coordination Sequence:
#
# PCOD8026689 Si02
#       7
#     2   2   2   2   2   2   2
#     4   9  18  33  57  89 117 151 201 250 297 360
#     4  10  24  43  64  91 121 162 212 254 307 367
#     4  11  23  37  57  91 126 158 202 251 304 369
#     4   9  19  35  56  81 118 165 204 240 294 362
#     4  11  24  43  63  90 129 163 200 257 313 363
#     4   9  18  34  54  82 125 163 193 241 304 362
#     4  11  22  41  67  92 119 158 211 262 306 360
#
# _framework density 21.907453
#
# number of rings (size 3 to 8) (size 9 to 14) (size 15 to 20)
#    0.000    2.000    0.000    4.286    0.000    5.143 
#    0.000    7.143    0.000    0.000    0.000    0.000 
#    0.000    0.000    0.000    0.000    0.000    0.000 
#
# Total GULP energy -173455.988431 kJ/mol
# GULP energy per Si atom -12389.713459 kJ/mol
# Density = 2.185759 g / cm^3
# Si number density = 21.907453 Si / 1000 Ang^3
#
#
#
# Elastic Constant Matrix: (Units=GPa)
#
#
# Indices 1 2 3 4 5 6 
#
# 1 82.3841 16.3851 23.3460 -1.3050 8.0665 0.5644
# 2 16.3851 117.4652 41.5785 7.6934 -9.6189 -10.9686
# 3 23.3460 41.5785 115.9912 15.8821 -15.5672 -7.0334
# 4 -1.3050 7.6934 15.8821 31.7432 -12.5757 -4.9113
# 5 8.0665 -9.6189 -15.5672 -12.5757 26.9520 6.9940
# 6 0.5644 -10.9686 -7.0334 -4.9113 6.9940 26.6104
#
#
#
# Elastic Compliance Matrix: (Units=1/GPa)
#
#
# Indices 1 2 3 4 5 6 
#
# 1 0.013949 -0.001345 -0.003190 -0.000096 -0.006544 0.000009
# 2 -0.001345 0.010165 -0.002990 0.000058 0.001543 0.003033
# 3 -0.003190 -0.002990 0.011439 -0.003139 0.005042 -0.000046
# 4 -0.000096 0.000058 -0.003139 0.039840 0.016233 0.002283
# 5 -0.006544 0.001543 0.005042 0.016233 0.052344 -0.008654
# 6 0.000009 0.003033 -0.000046 0.002283 -0.008654 0.041513
#
#
# Mechanical properties :
#
#
# Convention : Reuss Voigt Hill
#
# Bulk Modulus (GPa) = 48.77458 53.16219 50.96839
# Shear Modulus (GPa) = 26.15955 32.69650 29.42802
#
# Velocity S-wave (km/s) = 3.45931 3.86746 3.66907
# Velocity P-wave (km/s) = 6.18612 6.65300 6.42380
#
# Compressibility (1/GPa) = 0.02050248
#
# Stress axis : x y z
#
# Youngs Moduli (GPa) = 71.68949 98.37722 87.42109
#
# Poissons Ratio (x) = 0.13236 0.27887
# Poissons Ratio (y) = 0.09645 0.26137
# Poissons Ratio (z) = 0.22869 0.29413
#
# Static dielectric constant tensor:
#      x y z
#    x 3.701780 -0.218350 -0.156860 
#    y -0.218350 4.093700 0.264730 
#    z -0.156860 0.264730 4.127500 
# 
# 
# High freq. dielectric constant tensor:
#      x y z
#    x 1.845250 -0.005860 -0.008300 
#    y -0.005860 1.866070 0.016310 
#    z -0.008300 0.016310 1.861450 
# 
# From -- ./inp_files/236703.got.cif
#   From: 2010.06.25/outbox.cif.g09.slc.cpg/sg2_119_cif.got.tgz:236703.got - 2010.06.27 13:26:56.
