data_PCOD8026388
_publ_section_title
;
Structure prediction by ZEFSAII (Michael W. Deem and Ramdas Pophale) SiO2 
 PCOD8026388
Probable space group: P -1
;
_chemical_formula_sum "Si O2"
_cell_formula_units_Z 16
_cell_length_a 5.220302
_cell_length_b 14.438635
_cell_length_c 11.224753
_cell_angle_alpha 69.446631
_cell_angle_beta 60.981580
_cell_angle_gamma 68.464395
_cell_volume 672.448170
_symmetry_space_group_name_H-M "P -1"
_symmetry_group_IT_number 2
_symmetry_cell_setting 'triclinic'
loop_
_space_group_symop_operation_xyz
x,y,z
-x,-y,-z
loop_
_atom_site_type_symbol
_atom_site_label
_atom_site_fract_x
_atom_site_fract_y
_atom_site_fract_z
Si Si1 0.009285 0.269888 0.122493
Si Si2 0.157961 0.492945 0.594624
Si Si3 0.144480 0.814657 0.364373
Si Si4 0.331114 0.518268 0.906869
Si Si5 0.135720 0.295200 0.341300
Si Si6 0.382791 0.345778 0.803786
Si Si7 0.512313 0.063838 0.621934
Si Si8 0.339669 0.876800 0.679040
O O1 0.704298 0.362085 0.168376
O O2 0.198454 0.269952 0.199658
O O3 0.936146 0.158270 0.178938
O O4 0.192142 0.289077 0.957266
O O5 0.500000 0.500000 0.500000
O O6 0.943298 0.583664 0.677810
O O7 0.176670 0.390226 0.714283
O O8 0.000000 0.500000 0.500000
O O9 0.127786 0.750065 0.518062
O O10 0.316292 0.736079 0.262568
O O11 0.337559 0.897588 0.314312
O O12 0.824777 0.868565 0.355743
O O13 0.490553 0.439689 0.802834
O O14 0.500000 0.500000 0.000000
O O15 0.000000 0.500000 0.000000
O O16 0.438847 0.230408 0.363410
O O17 0.734087 0.061770 0.457407
O O18 0.484792 0.947368 0.702836
#
# Coordination Sequence:
#
# PCOD8026388 Si02
#       8
#     2   2   2   2   2   2   2   2
#     4  11  24  43  67 102 142 180 231 288 350 413
#     4  12  28  45  70 105 148 189 233 280 344 420
#     4  11  24  44  70 100 135 182 234 286 354 416
#     4  10  24  42  63  96 141 185 224 270 335 416
#     4  11  24  43  70 102 138 184 235 285 345 419
#     4  11  26  46  69 107 145 189 227 290 349 420
#     4  10  24  45  71  98 133 179 237 297 346 408
#     4  10  24  41  72 100 134 176 239 296 348 404
#
# _framework density 23.793655000000001
#
# number of rings (size 3 to 8) (size 9 to 14) (size 15 to 20)
#    0.000    1.250    3.750    0.000   10.500    5.500 
#    0.000    1.250    0.000    0.000    0.000    0.000 
#    0.000    0.000    0.000    0.000    0.000    0.000 
#
# Total GULP energy -198283.733556 kJ/mol
# GULP energy per Si atom -12392.733347 kJ/mol
# Density = 2.373950 g / cm^3
# Si number density = 23.793655 Si / 1000 Ang^3
#
#
#
# Elastic Constant Matrix: (Units=GPa)
#
#
# Indices 1 2 3 4 5 6 
#
# 1 86.2752 3.3803 30.4511 -1.0014 13.8272 11.2437
# 2 3.3803 87.7037 32.4799 -6.3692 -9.2947 9.6224
# 3 30.4511 32.4799 139.5174 -9.4341 1.7425 6.7937
# 4 -1.0014 -6.3692 -9.4341 41.6400 3.9380 -5.9953
# 5 13.8272 -9.2947 1.7425 3.9380 20.2473 3.3732
# 6 11.2437 9.6224 6.7937 -5.9953 3.3732 38.4132
#
#
#
# Elastic Compliance Matrix: (Units=1/GPa)
#
#
# Indices 1 2 3 4 5 6 
#
# 1 0.014462 -0.000157 -0.002856 0.000141 -0.009254 -0.002854
# 2 -0.000157 0.013697 -0.003062 0.000223 0.007189 -0.003440
# 3 -0.002856 -0.003062 0.008595 0.001515 -0.000551 0.000368
# 4 0.000141 0.000223 0.001515 0.025537 -0.005779 0.004128
# 5 -0.009254 0.007189 -0.000551 -0.005779 0.061057 -0.005258
# 6 -0.002854 -0.003440 0.000368 0.004128 -0.005258 0.028771
#
#
# Mechanical properties :
#
#
# Convention : Reuss Voigt Hill
#
# Bulk Modulus (GPa) = 40.64236 49.56877 45.10557
# Shear Modulus (GPa) = 28.99063 36.53912 32.76488
#
# Velocity S-wave (km/s) = 3.49437 3.92301 3.71488
# Velocity P-wave (km/s) = 5.77920 6.43413 6.11544
#
# Compressibility (1/GPa) = 0.02460487
#
# Stress axis : x y z
#
# Youngs Moduli (GPa) = 69.14830 73.00667 116.34585
#
# Poissons Ratio (x) = 0.01148 0.33225
# Poissons Ratio (y) = 0.01087 0.35621
# Poissons Ratio (z) = 0.19747 0.22352
#
# Static dielectric constant tensor:
#      x y z
#    x 4.146960 0.042790 0.009150 
#    y 0.042790 4.942660 -0.260150 
#    z 0.009150 -0.260150 4.367190 
# 
# 
# High freq. dielectric constant tensor:
#      x y z
#    x 1.939060 -0.002570 -0.006220 
#    y -0.002570 1.948090 -0.015890 
#    z -0.006220 -0.015890 1.928150 
# 
# From -- ./inp_files/366854.got.cif
#   From: 2010.06.25/outbox.cif.g09.slc.cpg/sg2_184_cif.got.tgz:366854.got - 2010.06.27 13:26:56.
