data_PCOD8026767
_publ_section_title
;
Structure prediction by ZEFSAII (Michael W. Deem and Ramdas Pophale) SiO2 
 PCOD8026767
Probable space group: P -1
;
_chemical_formula_sum "Si O2"
_cell_formula_units_Z 14
_cell_length_a 12.193571
_cell_length_b 5.097642
_cell_length_c 15.669583
_cell_angle_alpha 54.230954
_cell_angle_beta 134.173546
_cell_angle_gamma 113.705996
_cell_volume 566.792298
_symmetry_space_group_name_H-M "P -1"
_symmetry_group_IT_number 2
_symmetry_cell_setting 'triclinic'
loop_
_space_group_symop_operation_xyz
x,y,z
-x,-y,-z
loop_
_atom_site_type_symbol
_atom_site_label
_atom_site_fract_x
_atom_site_fract_y
_atom_site_fract_z
Si Si1 0.903190 0.934725 0.542734
Si Si2 0.728743 0.329207 0.498623
Si Si3 0.861256 0.491552 0.183624
Si Si4 0.164721 0.435847 0.028926
Si Si5 0.573508 0.376656 0.148910
Si Si6 0.911966 0.941767 0.794760
Si Si7 0.528240 0.335997 0.787815
O O1 0.783325 0.656803 0.509210
O O2 0.018582 0.808471 0.704433
O O3 0.814562 0.250969 0.469835
O O4 0.000000 0.000000 0.500000
O O5 0.549326 0.388080 0.368096
O O6 0.764627 0.022435 0.639188
O O7 0.754538 0.398090 0.223325
O O8 0.769112 0.579775 0.029266
O O9 0.958512 0.800933 0.202954
O O10 0.146856 0.085510 0.132646
O O11 0.287537 0.634094 0.115267
O O12 0.995229 0.592684 0.894445
O O13 0.536997 0.615444 0.161465
O O14 0.520442 0.011808 0.208660
O O15 0.500000 0.500000 0.000000
#
# Coordination Sequence:
#
# PCOD8026767 Si02
#       7
#     2   2   2   2   2   2   2
#     4  11  22  39  63  92 130 172 211 263 322 389
#     4  11  23  42  62  94 132 165 217 264 326 385
#     4  11  22  39  68  93 129 170 221 272 322 383
#     4  11  23  43  67  92 130 172 227 271 320 384
#     4  12  25  42  67 100 139 170 214 263 334 396
#     4  10  24  43  67  94 126 176 224 273 319 381
#     4  12  26  43  67 102 133 174 211 269 330 394
#
# _framework density 24.700406000000001
#
# number of rings (size 3 to 8) (size 9 to 14) (size 15 to 20)
#    0.000    0.857    2.857    4.714    2.000    1.714 
#    0.000    0.000    0.000    4.286    0.000    0.000 
#    0.000    0.000    0.000    0.000    0.000    0.000 
#
# Total GULP energy -173460.758889 kJ/mol
# GULP energy per Si atom -12390.054206 kJ/mol
# Density = 2.464419 g / cm^3
# Si number density = 24.700406 Si / 1000 Ang^3
#
#
#
# Elastic Constant Matrix: (Units=GPa)
#
#
# Indices 1 2 3 4 5 6 
#
# 1 46.8031 9.1358 16.8428 2.9510 1.8958 6.2533
# 2 9.1358 66.3550 2.1343 2.9994 -0.0494 0.9126
# 3 16.8428 2.1343 164.2428 -3.9864 7.8226 3.5704
# 4 2.9510 2.9994 -3.9864 26.8842 -6.0295 2.6195
# 5 1.8958 -0.0494 7.8226 -6.0295 30.1092 2.9984
# 6 6.2533 0.9126 3.5704 2.6195 2.9984 26.2619
#
#
#
# Elastic Compliance Matrix: (Units=1/GPa)
#
#
# Indices 1 2 3 4 5 6 
#
# 1 0.023610 -0.003006 -0.002291 -0.002317 -0.000875 -0.004875
# 2 -0.003006 0.015543 0.000070 -0.001454 -0.000127 0.000326
# 3 -0.002291 0.000070 0.006413 0.000928 -0.001309 -0.000272
# 4 -0.002317 -0.001454 0.000928 0.040064 0.008371 -0.004476
# 5 -0.000875 -0.000127 -0.001309 0.008371 0.035734 -0.004524
# 6 -0.004875 0.000326 -0.000272 -0.004476 -0.004524 0.040227
#
#
# Mechanical properties :
#
#
# Convention : Reuss Voigt Hill
#
# Bulk Modulus (GPa) = 28.47913 37.06962 32.77438
# Shear Modulus (GPa) = 27.21083 33.27025 30.24054
#
# Velocity S-wave (km/s) = 3.32269 3.67407 3.50279
# Velocity P-wave (km/s) = 5.12593 5.74792 5.44582
#
# Compressibility (1/GPa) = 0.03511343
#
# Stress axis : x y z
#
# Youngs Moduli (GPa) = 42.35479 64.33682 155.92556
#
# Poissons Ratio (x) = 0.19338 0.35718
# Poissons Ratio (y) = 0.12731 -0.01091
# Poissons Ratio (z) = 0.09702 -0.00450
#
# Static dielectric constant tensor:
#      x y z
#    x 4.717680 0.265920 -0.061850 
#    y 0.265920 4.339270 -0.169660 
#    z -0.061850 -0.169660 5.310470 
# 
# 
# High freq. dielectric constant tensor:
#      x y z
#    x 1.967760 -0.000940 0.003130 
#    y -0.000940 1.953290 0.002300 
#    z 0.003130 0.002300 2.016770 
# 
# From -- ./inp_files/65659.got.cif
#   From: 2010.06.25/outbox.cif.g09.slc.cpg/sg2_33_cif.got.tgz:65659.got - 2010.06.27 13:26:56.
