data_PCOD8026216
_publ_section_title
;
Structure prediction by ZEFSAII (Michael W. Deem and Ramdas Pophale) SiO2 
 PCOD8026216
Probable space group: P -1
;
_chemical_formula_sum "Si O2"
_cell_formula_units_Z 14
_cell_length_a 9.401718
_cell_length_b 20.793088
_cell_length_c 12.222751
_cell_angle_alpha 140.398378
_cell_angle_beta 120.768326
_cell_angle_gamma 28.385025
_cell_volume 605.328215
_symmetry_space_group_name_H-M "P -1"
_symmetry_group_IT_number 2
_symmetry_cell_setting 'triclinic'
loop_
_space_group_symop_operation_xyz
x,y,z
-x,-y,-z
loop_
_atom_site_type_symbol
_atom_site_label
_atom_site_fract_x
_atom_site_fract_y
_atom_site_fract_z
Si Si1 0.820067 0.646918 0.325785
Si Si2 0.587977 0.467564 0.368466
Si Si3 0.806550 0.863416 0.248826
Si Si4 0.238633 0.505658 0.117762
Si Si5 0.299961 0.769293 0.259338
Si Si6 0.594998 0.015104 0.954484
Si Si7 0.261970 0.399584 0.381734
O O1 0.675057 0.610735 0.248914
O O2 0.061583 0.513394 0.134748
O O3 0.041367 0.564360 0.408532
O O4 0.482939 0.903220 0.508395
O O5 0.500000 0.500000 0.500000
O O6 0.334746 0.543202 0.287599
O O7 0.531493 0.615818 0.507189
O O8 0.987600 0.214212 0.189567
O O9 0.627853 0.903239 0.129280
O O10 0.931040 0.714490 0.190545
O O11 0.175137 0.722378 0.171674
O O12 0.598232 0.275477 0.890503
O O13 0.000000 0.000000 0.500000
O O14 0.527133 0.170060 0.147175
O O15 0.500000 0.000000 0.000000
O O16 0.000000 0.500000 0.500000
#
# Coordination Sequence:
#
# PCOD8026216 Si02
#       7
#     2   2   2   2   2   2   2
#     4  11  23  46  68 106 143 187 240 301 360 431
#     4  12  26  49  69 110 151 185 243 302 361 439
#     4  11  23  44  71 102 140 190 241 300 358 428
#     4  12  24  44  72 103 149 189 234 304 365 422
#     4  10  24  40  66 100 137 181 242 292 351 424
#     4  12  24  46  75 103 143 191 246 298 364 430
#     4  12  25  44  77 101 146 197 242 294 366 432
#
# _framework density 23.127948
#
# number of rings (size 3 to 8) (size 9 to 14) (size 15 to 20)
#    0.000    0.571    4.286    3.000    2.000    1.714 
#    5.143    0.000    0.000    0.000    0.000    0.000 
#    0.000    0.000    0.000    0.000    0.000    0.000 
#
# Total GULP energy -173447.069310 kJ/mol
# GULP energy per Si atom -12389.076379 kJ/mol
# Density = 2.307531 g / cm^3
# Si number density = 23.127948 Si / 1000 Ang^3
#
#
#
# Elastic Constant Matrix: (Units=GPa)
#
#
# Indices 1 2 3 4 5 6 
#
# 1 82.6959 7.7380 14.6460 19.4074 -19.0208 7.7633
# 2 7.7380 101.5607 19.5773 -1.7505 -2.3373 15.9626
# 3 14.6460 19.5773 118.8264 4.0504 -13.7068 7.7673
# 4 19.4074 -1.7505 4.0504 32.5870 1.4395 -6.6402
# 5 -19.0208 -2.3373 -13.7068 1.4395 51.6432 -8.2188
# 6 7.7633 15.9626 7.7673 -6.6402 -8.2188 34.2093
#
#
#
# Elastic Compliance Matrix: (Units=1/GPa)
#
#
# Indices 1 2 3 4 5 6 
#
# 1 0.016454 -0.000539 -0.000666 -0.010826 0.005507 -0.004110
# 2 -0.000539 0.010919 -0.001525 0.000156 -0.000879 -0.004807
# 3 -0.000666 -0.001525 0.009075 -0.001091 0.001976 -0.000935
# 4 -0.010826 0.000156 -0.001091 0.039353 -0.003881 0.009338
# 5 0.005507 -0.000879 0.001976 -0.003881 0.022521 0.003369
# 6 -0.004110 -0.004807 -0.000935 0.009338 0.003369 0.035242
#
#
# Mechanical properties :
#
#
# Convention : Reuss Voigt Hill
#
# Bulk Modulus (GPa) = 32.27097 43.00062 37.63580
# Shear Modulus (GPa) = 33.47746 41.09602 37.28674
#
# Velocity S-wave (km/s) = 3.80872 4.21990 4.01957
# Velocity P-wave (km/s) = 5.77281 6.50971 6.15230
#
# Compressibility (1/GPa) = 0.03098760
#
# Stress axis : x y z
#
# Youngs Moduli (GPa) = 60.77531 91.57995 110.18996
#
# Poissons Ratio (x) = 0.04938 0.07343
# Poissons Ratio (y) = 0.03277 0.16804
# Poissons Ratio (z) = 0.04050 0.13966
#
# Static dielectric constant tensor:
#      x y z
#    x 3.927760 -0.223340 -0.218530 
#    y -0.223340 4.168740 -0.184760 
#    z -0.218530 -0.184760 4.543990 
# 
# 
# High freq. dielectric constant tensor:
#      x y z
#    x 1.924460 -0.020890 -0.003240 
#    y -0.020890 1.902750 -0.015960 
#    z -0.003240 -0.015960 1.940240 
# 
# From -- ./inp_files/190448.got.cif
#   From: 2010.06.25/outbox.cif.g09.slc.cpg/sg2_96_cif.got.tgz:190448.got - 2010.06.27 13:26:56.
