data_PCOD8026351
_publ_section_title
;
Structure prediction by ZEFSAII (Michael W. Deem and Ramdas Pophale) SiO2 
 PCOD8026351
Probable space group: P -1
;
_chemical_formula_sum "Si O2"
_cell_formula_units_Z 16
_cell_length_a 14.926933
_cell_length_b 11.559907
_cell_length_c 12.698932
_cell_angle_alpha 101.520221
_cell_angle_beta 19.201428
_cell_angle_gamma 102.762623
_cell_volume 702.604414
_symmetry_space_group_name_H-M "P -1"
_symmetry_group_IT_number 2
_symmetry_cell_setting 'triclinic'
loop_
_space_group_symop_operation_xyz
x,y,z
-x,-y,-z
loop_
_atom_site_type_symbol
_atom_site_label
_atom_site_fract_x
_atom_site_fract_y
_atom_site_fract_z
Si Si1 0.292480 0.529127 0.052597
Si Si2 0.999210 0.929775 0.689749
Si Si3 0.951266 0.737899 0.195460
Si Si4 0.568258 0.043798 0.048597
Si Si5 0.404892 0.587843 0.707087
Si Si6 0.094005 0.308498 0.361013
Si Si7 0.805865 0.018192 0.123960
Si Si8 0.337295 0.261600 0.285719
O O1 0.275607 0.520857 0.943168
O O2 0.590780 0.595843 0.758057
O O3 0.269578 0.398065 0.103359
O O4 0.094136 0.615330 0.345551
O O5 0.051922 0.797751 0.567622
O O6 0.292800 0.997729 0.409904
O O7 0.842410 0.001767 0.787447
O O8 0.826959 0.924255 0.987961
O O9 0.648317 0.691815 0.480520
O O10 0.927174 0.771541 0.352494
O O11 0.152971 0.638172 0.937957
O O12 0.102602 0.850246 0.991477
O O13 0.583909 0.187573 0.042987
O O14 0.500000 0.000000 0.000000
O O15 0.500000 0.500000 0.500000
O O16 0.280949 0.238529 0.220177
O O17 0.500000 0.000000 0.500000
O O18 0.000000 0.000000 0.000000
#
# Coordination Sequence:
#
# PCOD8026351 Si02
#       8
#     2   2   2   2   2   2   2   2
#     4  10  24  41  67  99 140 189 228 286 359 418
#     4  12  27  44  68 107 137 185 236 293 351 429
#     4  11  24  43  73  96 137 178 232 296 353 419
#     4  12  24  39  70 104 141 172 232 288 348 421
#     4  11  24  45  72 104 132 183 244 292 343 411
#     4  11  23  43  65 101 145 184 230 289 357 427
#     4  12  27  48  70 100 140 190 238 294 365 420
#     4  11  22  40  69  97 138 181 229 280 358 421
#
# _framework density 22.772414999999999
#
# number of rings (size 3 to 8) (size 9 to 14) (size 15 to 20)
#    0.000    0.750    3.750    3.375    5.250    2.000 
#    0.000    0.000    0.000    0.000    0.000    0.000 
#    0.000    0.000    0.000    0.000    0.000    0.000 
#
# Total GULP energy -198242.240801 kJ/mol
# GULP energy per Si atom -12390.140050 kJ/mol
# Density = 2.272058 g / cm^3
# Si number density = 22.772415 Si / 1000 Ang^3
#
#
#
# Elastic Constant Matrix: (Units=GPa)
#
#
# Indices 1 2 3 4 5 6 
#
# 1 105.3806 34.7888 31.2410 -0.2363 20.1198 -8.6131
# 2 34.7888 111.2940 25.4170 -12.6512 16.8163 -13.8423
# 3 31.2410 25.4170 96.0150 -6.9392 19.5016 -13.3668
# 4 -0.2363 -12.6512 -6.9392 45.8163 2.1119 7.5269
# 5 20.1198 16.8163 19.5016 2.1119 47.4388 2.3271
# 6 -8.6131 -13.8423 -13.3668 7.5269 2.3271 33.8899
#
#
#
# Elastic Compliance Matrix: (Units=1/GPa)
#
#
# Indices 1 2 3 4 5 6 
#
# 1 0.011767 -0.002611 -0.002386 -0.001116 -0.003105 0.001444
# 2 -0.002611 0.011098 -0.000918 0.002522 -0.002715 0.003133
# 3 -0.002386 -0.000918 0.012964 0.001211 -0.004249 0.004154
# 4 -0.001116 0.002522 0.001211 0.023415 -0.001772 -0.003855
# 5 -0.003105 -0.002715 -0.004249 -0.001772 0.025427 -0.004926
# 6 0.001444 0.003133 0.004154 -0.003855 -0.004926 0.033987
#
#
# Mechanical properties :
#
#
# Convention : Reuss Voigt Hill
#
# Bulk Modulus (GPa) = 41.67249 55.06479 48.36864
# Shear Modulus (GPa) = 36.10406 40.17852 38.14129
#
# Velocity S-wave (km/s) = 3.98607 4.20497 4.09698
# Velocity P-wave (km/s) = 6.28683 6.91438 6.60806
#
# Compressibility (1/GPa) = 0.02399665
#
# Stress axis : x y z
#
# Youngs Moduli (GPa) = 84.98088 90.10773 77.13944
#
# Poissons Ratio (x) = 0.23530 0.18409
# Poissons Ratio (y) = 0.22192 0.07083
# Poissons Ratio (z) = 0.20281 0.08274
#
# Static dielectric constant tensor:
#      x y z
#    x 4.157400 0.054470 -0.052490 
#    y 0.054470 4.321040 -0.250890 
#    z -0.052490 -0.250890 4.788170 
# 
# 
# High freq. dielectric constant tensor:
#      x y z
#    x 1.893310 -0.000370 0.006410 
#    y -0.000370 1.900390 -0.004880 
#    z 0.006410 -0.004880 1.908200 
# 
# From -- ./inp_files/364616.got.cif
#   From: 2010.06.25/outbox.cif.g09.slc.cpg/sg2_183_cif.got.tgz:364616.got - 2010.06.27 13:26:56.
