data_PCOD8026007
_publ_section_title
;
Structure prediction by ZEFSAII (Michael W. Deem and Ramdas Pophale) SiO2 
 PCOD8026007
Probable space group: P -1
;
_chemical_formula_sum "Si O2"
_cell_formula_units_Z 16
_cell_length_a 16.043518
_cell_length_b 11.769713
_cell_length_c 8.658419
_cell_angle_alpha 70.512129
_cell_angle_beta 69.655846
_cell_angle_gamma 130.590203
_cell_volume 719.333719
_symmetry_space_group_name_H-M "P -1"
_symmetry_group_IT_number 2
_symmetry_cell_setting 'triclinic'
loop_
_space_group_symop_operation_xyz
x,y,z
-x,-y,-z
loop_
_atom_site_type_symbol
_atom_site_label
_atom_site_fract_x
_atom_site_fract_y
_atom_site_fract_z
Si Si1 0.296460 0.939562 0.334115
Si Si2 0.948352 0.567473 0.221765
Si Si3 0.331799 0.697637 0.006096
Si Si4 0.823443 0.627780 0.470283
Si Si5 0.316046 0.952236 0.957247
Si Si6 0.939106 0.896189 0.912112
Si Si7 0.997947 0.273464 0.201336
Si Si8 0.577714 0.458375 0.478909
O O1 0.214256 0.711915 0.515485
O O2 0.162995 0.885788 0.505902
O O3 0.485861 0.163588 0.202131
O O4 0.338028 0.011156 0.095526
O O5 0.889873 0.634837 0.270833
O O6 0.006055 0.633363 0.975862
O O7 0.108549 0.711530 0.160179
O O8 0.386928 0.902128 0.896705
O O9 0.241251 0.548225 0.290284
O O10 0.193526 0.512779 0.042117
O O11 0.668525 0.536915 0.551807
O O12 0.986270 0.896936 0.320075
O O13 0.423994 0.176721 0.681876
O O14 0.036692 0.899186 0.766782
O O15 0.725252 0.626396 0.169775
O O16 0.000000 0.000000 0.000000
O O17 0.500000 0.500000 0.500000
#
# Coordination Sequence:
#
# PCOD8026007 Si02
#       8
#     2   2   2   2   2   2   2   2
#     4  12  25  45  70 110 146 189 236 292 372 423
#     4  12  23  44  72 105 145 189 238 298 360 429
#     4  12  26  46  73 109 150 189 236 299 365 428
#     4  11  22  47  74  99 137 192 248 287 353 435
#     4  12  24  44  76 108 145 191 242 297 353 437
#     4  10  23  47  71  94 135 190 239 291 352 424
#     4  12  27  45  66 111 149 186 238 302 363 425
#     4  11  23  41  72 110 130 182 255 293 342 422
#
# _framework density 22.242805000000001
#
# number of rings (size 3 to 8) (size 9 to 14) (size 15 to 20)
#    0.000    0.500    6.250    3.375    1.750    2.000 
#    0.000    0.625    0.000    0.000    0.000    0.000 
#    0.000    0.000    0.000    0.000    0.000    0.000 
#
# Total GULP energy -198368.934208 kJ/mol
# GULP energy per Si atom -12398.058388 kJ/mol
# Density = 2.219218 g / cm^3
# Si number density = 22.242805 Si / 1000 Ang^3
#
#
#
# Elastic Constant Matrix: (Units=GPa)
#
#
# Indices 1 2 3 4 5 6 
#
# 1 100.4229 36.4328 22.6430 -1.1530 -14.5178 2.5360
# 2 36.4328 99.6469 36.0916 -1.5736 -14.4651 -7.6214
# 3 22.6430 36.0916 81.4558 -21.6998 -17.1712 -1.4621
# 4 -1.1530 -1.5736 -21.6998 31.7088 -5.5383 0.6110
# 5 -14.5178 -14.4651 -17.1712 -5.5383 39.3519 -2.9039
# 6 2.5360 -7.6214 -1.4621 0.6110 -2.9039 26.6384
#
#
#
# Elastic Compliance Matrix: (Units=1/GPa)
#
#
# Indices 1 2 3 4 5 6 
#
# 1 0.011986 -0.003745 -0.001266 -0.000172 0.002319 -0.002025
# 2 -0.003745 0.013886 -0.005654 -0.003203 0.001116 0.004214
# 3 -0.001266 -0.005654 0.021224 0.015756 0.008954 0.000282
# 4 -0.000172 -0.003203 0.015756 0.044224 0.011877 0.000245
# 5 0.002319 0.001116 0.008954 0.011877 0.032541 0.003865
# 6 -0.002025 0.004214 0.000282 0.000245 0.003865 0.039370
#
#
# Mechanical properties :
#
#
# Convention : Reuss Voigt Hill
#
# Bulk Modulus (GPa) = 38.80987 52.42892 45.61939
# Shear Modulus (GPa) = 25.88658 31.96369 28.92514
#
# Velocity S-wave (km/s) = 3.41518 3.79494 3.61005
# Velocity P-wave (km/s) = 5.74782 6.54404 6.15881
#
# Compressibility (1/GPa) = 0.02576664
#
# Stress axis : x y z
#
# Youngs Moduli (GPa) = 83.42768 72.01385 47.11689
#
# Poissons Ratio (x) = 0.26968 0.05965
# Poissons Ratio (y) = 0.31242 0.26640
# Poissons Ratio (z) = 0.10562 0.40717
#
# Static dielectric constant tensor:
#      x y z
#    x 4.031860 -0.121540 0.102850 
#    y -0.121540 4.004250 -0.377330 
#    z 0.102850 -0.377330 4.347740 
# 
# 
# High freq. dielectric constant tensor:
#      x y z
#    x 1.880710 -0.009050 0.000780 
#    y -0.009050 1.861430 -0.019870 
#    z 0.000780 -0.019870 1.884220 
# 
# From -- ./inp_files/333234.got.cif
#   From: 2010.06.25/outbox.cif.g09.slc.cpg/sg2_167_cif.got.tgz:333234.got - 2010.06.27 13:26:56.
