data_PCOD8026707
_publ_section_title
;
Structure prediction by ZEFSAII (Michael W. Deem and Ramdas Pophale) SiO2 
 PCOD8026707
Probable space group: P -1
;
_chemical_formula_sum "Si O2"
_cell_formula_units_Z 14
_cell_length_a 9.152699
_cell_length_b 20.679334
_cell_length_c 6.829918
_cell_angle_alpha 63.384358
_cell_angle_beta 126.028547
_cell_angle_gamma 140.318590
_cell_volume 667.508882
_symmetry_space_group_name_H-M "P -1"
_symmetry_group_IT_number 2
_symmetry_cell_setting 'triclinic'
loop_
_space_group_symop_operation_xyz
x,y,z
-x,-y,-z
loop_
_atom_site_type_symbol
_atom_site_label
_atom_site_fract_x
_atom_site_fract_y
_atom_site_fract_z
Si Si1 0.458185 0.374383 0.122517
Si Si2 0.136389 0.592787 0.836773
Si Si3 0.572377 0.092239 0.545006
Si Si4 0.349241 0.471485 0.615666
Si Si5 0.039969 0.158266 0.967063
Si Si6 0.560225 0.817606 0.972494
Si Si7 0.245583 0.033308 0.739027
O O1 0.720794 0.414041 0.204281
O O2 0.505653 0.422670 0.304725
O O3 0.350242 0.401098 0.845398
O O4 0.248320 0.252892 0.145020
O O5 0.334228 0.696251 0.976725
O O6 0.938516 0.588708 0.576247
O O7 0.000000 0.500000 0.000000
O O8 0.508235 0.144667 0.299973
O O9 0.425497 0.053497 0.686286
O O10 0.874634 0.173981 0.708953
O O11 0.500000 0.000000 0.500000
O O12 0.500000 0.500000 0.500000
O O13 0.177426 0.147483 0.927572
O O14 0.839809 0.056147 0.070365
O O15 0.596964 0.864446 0.148431
O O16 0.000000 0.000000 0.500000
#
# Coordination Sequence:
#
# PCOD8026707 Si02
#       7
#     2   2   2   2   2   2   2
#     4  10  24  43  65  93 130 169 207 266 319 372
#     4  11  23  44  67  94 128 171 212 260 322 376
#     4  12  24  43  67  92 130 172 210 260 316 374
#     4  11  22  43  65  93 128 164 217 264 312 375
#     4  11  23  44  65  95 130 167 212 259 320 378
#     4  11  25  45  65  94 132 166 213 267 311 377
#     4  12  24  43  66  95 129 168 208 261 317 378
#
# _framework density 20.973503000000001
#
# number of rings (size 3 to 8) (size 9 to 14) (size 15 to 20)
#    0.000    0.857    4.286    3.000    0.000    2.286 
#    5.143    0.000    0.000    0.000    0.000    0.000 
#    0.000    0.000    0.000    0.000    0.000    0.000 
#
# Total GULP energy -173672.358559 kJ/mol
# GULP energy per Si atom -12405.168469 kJ/mol
# Density = 2.092577 g / cm^3
# Si number density = 20.973503 Si / 1000 Ang^3
#
#
#
# Elastic Constant Matrix: (Units=GPa)
#
#
# Indices 1 2 3 4 5 6 
#
# 1 174.7594 62.1259 69.9991 20.1180 -2.7008 2.2616
# 2 62.1259 120.9740 36.2356 8.1876 -19.9207 -4.0897
# 3 69.9991 36.2356 99.1252 20.1894 1.6609 8.6419
# 4 20.1180 8.1876 20.1894 24.8815 -3.4964 -1.4332
# 5 -2.7008 -19.9207 1.6609 -3.4964 53.3712 12.9297
# 6 2.2616 -4.0897 8.6419 -1.4332 12.9297 30.4053
#
#
#
# Elastic Compliance Matrix: (Units=1/GPa)
#
#
# Indices 1 2 3 4 5 6 
#
# 1 0.009008 -0.003168 -0.004722 -0.002502 -0.000863 0.000495
# 2 -0.003168 0.011155 -0.002239 0.001309 0.003979 0.000742
# 3 -0.004722 -0.002239 0.016558 -0.009299 -0.001076 -0.004637
# 4 -0.002502 0.001309 -0.009299 0.049976 0.002928 0.004116
# 5 -0.000863 0.003979 -0.001076 0.002928 0.022465 -0.008510
# 6 0.000495 0.000742 -0.004637 0.004116 -0.008510 0.038083
#
#
# Mechanical properties :
#
#
# Convention : Reuss Voigt Hill
#
# Bulk Modulus (GPa) = 60.74190 81.28662 71.01426
# Shear Modulus (GPa) = 28.90324 36.83145 32.86734
#
# Velocity S-wave (km/s) = 3.71628 4.19512 3.96294
# Velocity P-wave (km/s) = 6.88756 7.89344 7.40759
#
# Compressibility (1/GPa) = 0.01646310
#
# Stress axis : x y z
#
# Youngs Moduli (GPa) = 111.01210 89.64313 60.39501
#
# Poissons Ratio (x) = 0.28396 0.28521
# Poissons Ratio (y) = 0.35165 0.13522
# Poissons Ratio (z) = 0.52424 0.20071
#
# Static dielectric constant tensor:
#      x y z
#    x 4.087270 -0.234220 0.289970 
#    y -0.234220 4.003460 -0.097170 
#    z 0.289970 -0.097170 4.101260 
# 
# 
# High freq. dielectric constant tensor:
#      x y z
#    x 1.838950 -0.006030 0.014870 
#    y -0.006030 1.826030 0.009860 
#    z 0.014870 0.009860 1.827080 
# 
# From -- ./inp_files/39589.got.cif
#   From: 2010.06.25/outbox.cif.g09.slc.cpg/sg2_20_cif.got.tgz:39589.got - 2010.06.27 13:26:56.
