data_PCOD8026276
_publ_section_title
;
Structure prediction by ZEFSAII (Michael W. Deem and Ramdas Pophale) SiO2 
 PCOD8026276
Probable space group: P -1
;
_chemical_formula_sum "Si O2"
_cell_formula_units_Z 16
_cell_length_a 11.447863
_cell_length_b 10.283363
_cell_length_c 16.786309
_cell_angle_alpha 113.395195
_cell_angle_beta 130.045490
_cell_angle_gamma 108.454900
_cell_volume 806.160965
_symmetry_space_group_name_H-M "P -1"
_symmetry_group_IT_number 2
_symmetry_cell_setting 'triclinic'
loop_
_space_group_symop_operation_xyz
x,y,z
-x,-y,-z
loop_
_atom_site_type_symbol
_atom_site_label
_atom_site_fract_x
_atom_site_fract_y
_atom_site_fract_z
Si Si1 0.927574 0.958228 0.184806
Si Si2 0.741166 0.739964 0.740464
Si Si3 0.130176 0.867282 0.043828
Si Si4 0.286184 0.480204 0.094977
Si Si5 0.524104 0.134397 0.841117
Si Si6 0.053004 0.401598 0.550583
Si Si7 0.697487 0.667106 0.440523
Si Si8 0.453450 0.802367 0.951654
O O1 0.802666 0.711858 0.050404
O O2 0.704791 0.905552 0.057302
O O3 0.187952 0.191262 0.304017
O O4 0.035424 0.048032 0.345581
O O5 0.466653 0.467337 0.581748
O O6 0.723223 0.884085 0.800954
O O7 0.959511 0.796225 0.879742
O O8 0.339615 0.915013 0.114806
O O9 0.950181 0.661756 0.983479
O O10 0.343902 0.662430 0.114593
O O11 0.545111 0.634742 0.296361
O O12 0.219859 0.886129 0.623426
O O13 0.572559 0.236820 0.974430
O O14 0.000000 0.500000 0.500000
O O15 0.240223 0.441272 0.591591
O O16 0.191620 0.547431 0.730476
O O17 0.500000 0.000000 0.000000
#
# Coordination Sequence:
#
# PCOD8026276 Si02
#       8
#     2   2   2   2   2   2   2   2
#     4  11  21  40  61  92 124 159 206 253 302 361
#     4   9  19  34  68  93 119 156 197 265 306 353
#     4   9  19  38  64  92 120 158 206 248 307 360
#     4  10  24  41  62  87 124 165 209 250 292 369
#     4  12  24  41  64  88 125 170 196 249 311 360
#     4  12  24  40  62  92 124 156 201 255 308 364
#     4  11  21  40  61  92 124 159 206 253 302 361
#     4  12  24  40  62  92 124 156 201 255 308 364
#
# _framework density 19.847152999999999
#
# number of rings (size 3 to 8) (size 9 to 14) (size 15 to 20)
#    0.000    1.250    3.750    3.000    0.000    2.000 
#    0.000    5.000    0.000    7.500    0.000    0.000 
#    0.000    0.000    0.000    0.000    0.000    0.000 
#
# Total GULP energy -198260.643801 kJ/mol
# GULP energy per Si atom -12391.290238 kJ/mol
# Density = 1.980198 g / cm^3
# Si number density = 19.847153 Si / 1000 Ang^3
#
#
#
# Elastic Constant Matrix: (Units=GPa)
#
#
# Indices 1 2 3 4 5 6 
#
# 1 87.3725 16.1324 44.2277 -24.8610 4.8318 -5.0545
# 2 16.1324 77.1833 25.5863 2.8416 -5.6384 0.5302
# 3 44.2277 25.5863 146.9913 3.0350 -30.0943 -5.5913
# 4 -24.8610 2.8416 3.0350 -52.4959 13.8884 33.9382
# 5 4.8318 -5.6384 -30.0943 13.8884 34.6670 -11.2646
# 6 -5.0545 0.5302 -5.5913 33.9382 -11.2646 13.1628
#
#
#
# Elastic Compliance Matrix: (Units=1/GPa)
#
#
# Indices 1 2 3 4 5 6 
#
# 1 0.013641 -0.001681 -0.003900 -0.002303 -0.002109 0.007783
# 2 -0.001681 0.013988 -0.002002 0.000054 0.000048 -0.002159
# 3 -0.003900 -0.002002 0.009629 0.003618 0.006878 -0.000769
# 4 -0.002303 0.000054 0.003618 -0.003232 0.010645 0.018094
# 5 -0.002109 0.000048 0.006878 0.010645 0.031334 0.001479
# 6 0.007783 -0.002159 -0.000769 0.018094 0.001479 0.033334
#
#
# Mechanical properties :
#
#
# Convention : Reuss Voigt Hill
#
# Bulk Modulus (GPa) = 45.26677 53.71555 49.49116
# Shear Modulus (GPa) = 41.24570 14.10682 27.67626
#
# Velocity S-wave (km/s) = 4.56364 2.66893 3.73831
# Velocity P-wave (km/s) = 7.11521 6.05152 6.60482
#
# Compressibility (1/GPa) = 0.02209126
#
# Stress axis : x y z
#
# Youngs Moduli (GPa) = 73.30651 71.49160 103.84935
#
# Poissons Ratio (x) = 0.12018 0.40501
# Poissons Ratio (y) = 0.12324 0.20795
# Poissons Ratio (z) = 0.28590 0.14316
#
# Static dielectric constant tensor:
#      x y z
#    x 3.725840 0.025230 -0.024770 
#    y 0.025230 3.333760 0.002780 
#    z -0.024770 0.002780 3.789400 
# 
# 
# High freq. dielectric constant tensor:
#      x y z
#    x 1.785240 -0.002240 -0.001450 
#    y -0.002240 1.755710 -0.001660 
#    z -0.001450 -0.001660 1.788070 
# 
# From -- ./inp_files/566081.got.cif
#   From: 2010.06.25/outbox.cif.g09.slc.cpg/sg2_284_cif.got.tgz:566081.got - 2010.06.27 13:26:56.
