data_PCOD8026483
_publ_section_title
;
Structure prediction by ZEFSAII (Michael W. Deem and Ramdas Pophale) SiO2 
 PCOD8026483
Probable space group: P -1
;
_chemical_formula_sum "Si O2"
_cell_formula_units_Z 16
_cell_length_a 14.530209
_cell_length_b 5.060116
_cell_length_c 22.346240
_cell_angle_alpha 55.595060
_cell_angle_beta 148.489951
_cell_angle_gamma 116.489170
_cell_volume 706.059497
_symmetry_space_group_name_H-M "P -1"
_symmetry_group_IT_number 2
_symmetry_cell_setting 'triclinic'
loop_
_space_group_symop_operation_xyz
x,y,z
-x,-y,-z
loop_
_atom_site_type_symbol
_atom_site_label
_atom_site_fract_x
_atom_site_fract_y
_atom_site_fract_z
Si Si1 0.551793 0.291388 0.951502
Si Si2 0.621013 0.890148 0.715103
Si Si3 0.758469 0.945528 0.562724
Si Si4 0.706650 0.132540 0.299410
Si Si5 0.765029 0.837893 0.039206
Si Si6 0.372194 0.836068 0.184602
Si Si7 0.839894 0.216495 0.697978
Si Si8 0.965880 0.145679 0.545112
O O1 0.380765 0.501204 0.802194
O O2 0.658778 0.519527 0.024544
O O3 0.500000 0.000000 0.000000
O O4 0.669996 0.143892 0.981736
O O5 0.687921 0.519779 0.806759
O O6 0.434751 0.890656 0.578245
O O7 0.606156 0.053403 0.750146
O O8 0.760484 0.069348 0.731629
O O9 0.750898 0.571580 0.590723
O O10 0.805574 0.988181 0.652538
O O11 0.905666 0.112626 0.584359
O O12 0.805079 0.049189 0.427250
O O13 0.555833 0.881634 0.244843
O O14 0.851992 0.078002 0.334336
O O15 0.954468 0.751854 0.183374
O O16 0.777521 0.940497 0.962873
O O17 0.000000 0.500000 0.500000
#
# Coordination Sequence:
#
# PCOD8026483 Si02
#       8
#     2   2   2   2   2   2   2   2
#     4  11  25  45  73  98 145 191 235 277 349 424
#     4  12  24  45  76 100 134 186 234 288 366 407
#     4  12  26  45  70 100 146 181 230 291 353 417
#     4  10  24  42  66 106 138 178 231 288 347 419
#     4  11  26  46  68 104 141 184 235 294 344 408
#     4  11  23  44  73 100 138 178 234 294 343 420
#     4  12  28  47  68 103 143 183 236 290 345 426
#     4  11  25  40  71 103 140 180 231 286 353 412
#
# _framework density 22.660978
#
# number of rings (size 3 to 8) (size 9 to 14) (size 15 to 20)
#    0.000    0.750    1.250    5.625    8.750    2.000 
#    0.000    0.000    0.000    0.000    0.000    0.000 
#    0.000    0.000    0.000    0.000    0.000    0.000 
#
# Total GULP energy -198460.008953 kJ/mol
# GULP energy per Si atom -12403.750560 kJ/mol
# Density = 2.260940 g / cm^3
# Si number density = 22.660978 Si / 1000 Ang^3
#
#
#
# Elastic Constant Matrix: (Units=GPa)
#
#
# Indices 1 2 3 4 5 6 
#
# 1 95.9807 16.8064 32.8669 -8.1808 19.0845 15.3570
# 2 16.8064 136.6941 15.4678 -9.9208 -24.8771 -10.3832
# 3 32.8669 15.4678 61.1796 -3.5296 -8.3637 -7.6290
# 4 -8.1808 -9.9208 -3.5296 41.8908 -18.6282 -22.0422
# 5 19.0845 -24.8771 -8.3637 -18.6282 69.6117 20.4525
# 6 15.3570 -10.3832 -7.6290 -22.0422 20.4525 54.8882
#
#
#
# Elastic Compliance Matrix: (Units=1/GPa)
#
#
# Indices 1 2 3 4 5 6 
#
# 1 0.015911 -0.002648 -0.009612 -0.003919 -0.005842 -0.005686
# 2 -0.002648 0.009017 0.000425 0.005199 0.004538 0.002903
# 3 -0.009612 0.000425 0.023263 0.005902 0.005279 0.006406
# 4 -0.003919 0.005199 0.005902 0.036335 0.009237 0.014050
# 5 -0.005842 0.004538 0.005279 0.009237 0.020951 -0.000871
# 6 -0.005686 0.002903 0.006406 0.014050 -0.000871 0.027216
#
#
# Mechanical properties :
#
#
# Convention : Reuss Voigt Hill
#
# Bulk Modulus (GPa) = 40.78160 47.12629 43.95395
# Shear Modulus (GPa) = 30.38860 48.52569 39.45714
#
# Velocity S-wave (km/s) = 3.66595 4.63252 4.17729
# Velocity P-wave (km/s) = 5.99620 7.03243 6.53489
#
# Compressibility (1/GPa) = 0.02452086
#
# Stress axis : x y z
#
# Youngs Moduli (GPa) = 62.84929 110.90456 42.98751
#
# Poissons Ratio (x) = 0.29368 0.41319
# Poissons Ratio (y) = 0.16643 -0.01828
# Poissons Ratio (z) = 0.60410 -0.04716
#
# Static dielectric constant tensor:
#      x y z
#    x 4.202920 -0.190940 -0.092810 
#    y -0.190940 4.009630 0.135910 
#    z -0.092810 0.135910 4.300230 
# 
# 
# High freq. dielectric constant tensor:
#      x y z
#    x 1.893900 -0.001340 -0.007040 
#    y -0.001340 1.903080 -0.002960 
#    z -0.007040 -0.002960 1.899340 
# 
# From -- ./inp_files/611136.got.cif
#   From: 2010.06.25/outbox.cif.g09.slc.cpg/sg2_306_cif.got.tgz:611136.got - 2010.06.27 13:26:56.
