data_PCOD8026544
_publ_section_title
;
Structure prediction by ZEFSAII (Michael W. Deem and Ramdas Pophale) SiO2 
 PCOD8026544
Probable space group: P -1
;
_chemical_formula_sum "Si O2"
_cell_formula_units_Z 14
_cell_length_a 14.294110
_cell_length_b 10.124304
_cell_length_c 5.101410
_cell_angle_alpha 64.232644
_cell_angle_beta 69.643270
_cell_angle_gamma 80.201449
_cell_volume 623.176285
_symmetry_space_group_name_H-M "P -1"
_symmetry_group_IT_number 2
_symmetry_cell_setting 'triclinic'
loop_
_space_group_symop_operation_xyz
x,y,z
-x,-y,-z
loop_
_atom_site_type_symbol
_atom_site_label
_atom_site_fract_x
_atom_site_fract_y
_atom_site_fract_z
Si Si1 0.658438 0.151335 0.294075
Si Si2 0.021341 0.171669 0.812359
Si Si3 0.249263 0.138143 0.701909
Si Si4 0.949757 0.343557 0.223062
Si Si5 0.728263 0.405140 0.307345
Si Si6 0.333960 0.272777 0.005807
Si Si7 0.561848 0.230449 0.817045
O O1 0.715026 0.305167 0.144600
O O2 0.598697 0.114298 0.654635
O O3 0.743548 0.033356 0.231963
O O4 0.572557 0.155577 0.153317
O O5 0.997658 0.243441 0.491644
O O6 0.137255 0.197376 0.731585
O O7 0.957564 0.255432 0.021247
O O8 0.000000 0.000000 0.000000
O O9 0.285778 0.161015 0.943367
O O10 0.320822 0.221086 0.360376
O O11 0.833037 0.368551 0.378359
O O12 0.000000 0.500000 0.000000
O O13 0.724689 0.574021 0.092115
O O14 0.636674 0.368444 0.623467
O O15 0.450719 0.289047 0.820925
#
# Coordination Sequence:
#
# PCOD8026544 Si02
#       7
#     2   2   2   2   2   2   2
#     4  10  24  42  68  92 138 172 222 264 330 394
#     4  12  27  46  72  99 138 181 229 275 342 407
#     4  12  26  44  67 101 136 170 221 279 334 386
#     4  12  26  45  72 103 136 177 228 285 340 394
#     4  10  26  43  71  95 137 173 227 266 332 399
#     4  12  26  43  70  98 137 172 219 278 332 392
#     4  10  24  42  70  96 132 176 225 261 334 395
#
# _framework density 22.465551000000001
#
# number of rings (size 3 to 8) (size 9 to 14) (size 15 to 20)
#    0.857    0.000    0.000    6.429    6.000    4.000 
#    0.000    0.000    0.000    0.000    0.000    0.000 
#    0.000    0.000    0.000    0.000    0.000    0.000 
#
# Total GULP energy -173580.630988 kJ/mol
# GULP energy per Si atom -12398.616499 kJ/mol
# Density = 2.241442 g / cm^3
# Si number density = 22.465551 Si / 1000 Ang^3
#
#
#
# Elastic Constant Matrix: (Units=GPa)
#
#
# Indices 1 2 3 4 5 6 
#
# 1 140.7609 22.6582 25.5022 1.6525 -0.0802 -10.2513
# 2 22.6582 102.2506 22.4370 -10.4011 0.9090 1.4473
# 3 25.5022 22.4370 93.4330 0.0776 14.9622 10.3152
# 4 1.6525 -10.4011 0.0776 31.7714 0.6788 2.5137
# 5 -0.0802 0.9090 14.9622 0.6788 41.3388 0.4795
# 6 -10.2513 1.4473 10.3152 2.5137 0.4795 29.2711
#
#
#
# Elastic Compliance Matrix: (Units=1/GPa)
#
#
# Indices 1 2 3 4 5 6 
#
# 1 0.008070 -0.001442 -0.002424 -0.001209 0.000900 0.003841
# 2 -0.001442 0.010977 -0.002266 0.003709 0.000522 -0.000576
# 3 -0.002424 -0.002266 0.013246 -0.000127 -0.004685 -0.005317
# 4 -0.001209 0.003709 -0.000127 0.033032 -0.000541 -0.003390
# 5 0.000900 0.000522 -0.004685 -0.000541 0.025867 0.001563
# 6 0.003841 -0.000576 -0.005317 -0.003390 0.001563 0.037676
#
#
# Mechanical properties :
#
#
# Convention : Reuss Voigt Hill
#
# Bulk Modulus (GPa) = 49.92196 53.07104 51.49650
# Shear Modulus (GPa) = 33.82794 38.19939 36.01367
#
# Velocity S-wave (km/s) = 3.88463 4.12801 4.00817
# Velocity P-wave (km/s) = 6.51078 6.81140 6.66279
#
# Compressibility (1/GPa) = 0.02003126
#
# Stress axis : x y z
#
# Youngs Moduli (GPa) = 123.91865 91.09722 75.49572
#
# Poissons Ratio (x) = 0.13134 0.18296
# Poissons Ratio (y) = 0.17866 0.17104
# Poissons Ratio (z) = 0.30032 0.20638
#
# Static dielectric constant tensor:
#      x y z
#    x 3.988580 -0.094120 0.064280 
#    y -0.094120 4.310690 -0.053400 
#    z 0.064280 -0.053400 4.012470 
# 
# 
# High freq. dielectric constant tensor:
#      x y z
#    x 1.896140 -0.004900 0.004810 
#    y -0.004900 1.891120 0.005160 
#    z 0.004810 0.005160 1.880740 
# 
# From -- ./inp_files/86961.got.cif
#   From: 2010.06.25/outbox.cif.g09.slc.cpg/sg2_44_cif.got.tgz:86961.got - 2010.06.27 13:26:56.
