data_PCOD8026414
_publ_section_title
;
Structure prediction by ZEFSAII (Michael W. Deem and Ramdas Pophale) SiO2 
 PCOD8026414
Probable space group: P -1
;
_chemical_formula_sum "Si O2"
_cell_formula_units_Z 14
_cell_length_a 9.125079
_cell_length_b 7.489706
_cell_length_c 21.077653
_cell_angle_alpha 117.367787
_cell_angle_beta 39.163930
_cell_angle_gamma 91.251284
_cell_volume 648.416050
_symmetry_space_group_name_H-M "P -1"
_symmetry_group_IT_number 2
_symmetry_cell_setting 'triclinic'
loop_
_space_group_symop_operation_xyz
x,y,z
-x,-y,-z
loop_
_atom_site_type_symbol
_atom_site_label
_atom_site_fract_x
_atom_site_fract_y
_atom_site_fract_z
Si Si1 0.222611 0.738683 0.915024
Si Si2 0.829321 0.272461 0.339721
Si Si3 0.813853 0.950009 0.196383
Si Si4 0.862804 0.484354 0.693669
Si Si5 0.099737 0.971043 0.597592
Si Si6 0.790436 0.861764 0.589998
Si Si7 0.421064 0.277026 0.694011
O O1 0.521269 0.679746 0.828864
O O2 0.261006 0.556988 0.816913
O O3 0.067127 0.739259 0.031130
O O4 0.000000 0.000000 0.000000
O O5 0.500000 0.500000 0.500000
O O6 0.926911 0.056019 0.323475
O O7 0.029732 0.365172 0.285982
O O8 0.869463 0.143805 0.236988
O O9 0.505211 0.106377 0.287856
O O10 0.789986 0.805595 0.240041
O O11 0.945731 0.259292 0.676859
O O12 0.009144 0.388049 0.559785
O O13 0.443681 0.788149 0.432811
O O14 0.948098 0.853892 0.598476
O O15 0.705216 0.103220 0.615885
#
# Coordination Sequence:
#
# PCOD8026414 Si02
#       7
#     2   2   2   2   2   2   2
#     4  12  25  40  66 101 135 170 219 277 332 382
#     4  12  26  41  66 103 138 167 219 277 326 399
#     4  10  24  42  62  98 133 173 216 266 337 390
#     4  11  22  44  68  97 135 171 223 275 320 393
#     4  11  21  41  75  99 123 175 225 270 339 371
#     4   9  18  40  73  93 120 168 229 279 318 370
#     4   9  19  40  70  93 126 166 222 277 318 385
#
# _framework density 21.591073999999999
#
# number of rings (size 3 to 8) (size 9 to 14) (size 15 to 20)
#    0.857    0.571    4.286    1.286    4.000    3.429 
#    0.000    0.714    0.000    0.000    0.000    0.000 
#    0.000    0.000    0.000    0.000    0.000    0.000 
#
# Total GULP energy -173511.747475 kJ/mol
# GULP energy per Si atom -12393.696248 kJ/mol
# Density = 2.154193 g / cm^3
# Si number density = 21.591074 Si / 1000 Ang^3
#
#
#
# Elastic Constant Matrix: (Units=GPa)
#
#
# Indices 1 2 3 4 5 6 
#
# 1 61.1324 47.6917 24.2504 -1.5037 -8.2013 14.0591
# 2 47.6917 91.3373 39.8667 8.6438 -8.5297 20.9599
# 3 24.2504 39.8667 122.9097 -1.5448 -15.5468 8.2769
# 4 -1.5037 8.6438 -1.5448 34.8854 3.3970 -1.5570
# 5 -8.2013 -8.5297 -15.5468 3.3970 31.1943 -1.8003
# 6 14.0591 20.9599 8.2769 -1.5570 -1.8003 33.2625
#
#
#
# Elastic Compliance Matrix: (Units=1/GPa)
#
#
# Indices 1 2 3 4 5 6 
#
# 1 0.028892 -0.014450 -0.000426 0.004416 0.002799 -0.002642
# 2 -0.014450 0.022659 -0.003991 -0.006817 0.000720 -0.007458
# 3 -0.000426 -0.003991 0.009961 0.001075 0.003671 0.000465
# 4 0.004416 -0.006817 0.001075 0.031072 -0.003353 0.003435
# 5 0.002799 0.000720 0.003671 -0.003353 0.035138 -0.000805
# 6 -0.002642 -0.007458 0.000465 0.003435 -0.000805 0.035881
#
#
# Mechanical properties :
#
#
# Convention : Reuss Voigt Hill
#
# Bulk Modulus (GPa) = 42.05601 55.44411 48.75006
# Shear Modulus (GPa) = 23.89323 30.77315 27.33319
#
# Velocity S-wave (km/s) = 3.33021 3.77937 3.56188
# Velocity P-wave (km/s) = 5.85728 6.69177 6.28838
#
# Compressibility (1/GPa) = 0.02377781
#
# Stress axis : x y z
#
# Youngs Moduli (GPa) = 34.61192 44.13179 100.38996
#
# Poissons Ratio (x) = 0.63771 0.04276
# Poissons Ratio (y) = 0.50015 0.40067
# Poissons Ratio (z) = 0.01474 0.17614
#
# Static dielectric constant tensor:
#      x y z
#    x 3.736060 0.082650 0.063690 
#    y 0.082650 3.773420 -0.156170 
#    z 0.063690 -0.156170 4.025470 
# 
# 
# High freq. dielectric constant tensor:
#      x y z
#    x 1.834010 0.011540 -0.001820 
#    y 0.011540 1.846680 -0.001410 
#    z -0.001820 -0.001410 1.835520 
# 
# From -- ./inp_files/606459.got.cif
#   From: 2010.06.25/outbox.cif.g09.slc.cpg/sg2_304_cif.got.tgz:606459.got - 2010.06.27 13:26:56.
