data_PCOD8026920
_publ_section_title
;
Structure prediction by ZEFSAII (Michael W. Deem and Ramdas Pophale) SiO2 
 PCOD8026920
Probable space group: P -1
;
_chemical_formula_sum "Si O2"
_cell_formula_units_Z 14
_cell_length_a 11.806935
_cell_length_b 12.144829
_cell_length_c 8.952460
_cell_angle_alpha 125.043807
_cell_angle_beta 140.817591
_cell_angle_gamma 47.849267
_cell_volume 597.281430
_symmetry_space_group_name_H-M "P -1"
_symmetry_group_IT_number 2
_symmetry_cell_setting 'triclinic'
loop_
_space_group_symop_operation_xyz
x,y,z
-x,-y,-z
loop_
_atom_site_type_symbol
_atom_site_label
_atom_site_fract_x
_atom_site_fract_y
_atom_site_fract_z
Si Si1 0.815385 0.553420 0.036424
Si Si2 0.965217 0.155977 0.655460
Si Si3 0.910356 0.239985 0.000188
Si Si4 0.333247 0.134147 0.848999
Si Si5 0.220421 0.538403 0.398797
Si Si6 0.327284 0.138640 0.512107
Si Si7 0.493531 0.637783 0.197797
O O1 0.807797 0.418712 0.014067
O O2 0.634901 0.715074 0.021262
O O3 0.023841 0.555985 0.301633
O O4 0.789086 0.539330 0.824174
O O5 0.149860 0.185632 0.816440
O O6 0.777018 0.300118 0.506499
O O7 0.000000 0.000000 0.500000
O O8 0.950483 0.150977 0.815506
O O9 0.116463 0.179383 0.250870
O O10 0.733122 0.228864 0.907032
O O11 0.307070 0.084593 0.616866
O O12 0.500000 0.000000 0.000000
O O13 0.418148 0.432059 0.605095
O O14 0.377479 0.281723 0.676181
O O15 0.500000 0.000000 0.500000
O O16 0.500000 0.500000 0.000000
#
# Coordination Sequence:
#
# PCOD8026920 Si02
#       7
#     2   2   2   2   2   2   2
#     4   9  19  41  74  98 135 189 247 294 356 434
#     4  10  24  43  71 106 145 190 248 303 360 440
#     4  11  25  47  77 109 144 198 242 309 375 434
#     4  11  25  43  72 101 139 195 243 299 370 438
#     4   9  20  40  69 102 140 188 240 299 360 430
#     4  12  29  49  73 106 156 196 243 311 378 451
#     4  12  28  44  75 112 150 191 252 307 375 449
#
# _framework density 23.439537000000001
#
# number of rings (size 3 to 8) (size 9 to 14) (size 15 to 20)
#    0.000    1.429    1.429    2.571    8.000    7.429 
#    0.000    0.000    0.000    0.000    0.000    0.000 
#    0.000    0.000    0.000    0.000    0.000    0.000 
#
# Total GULP energy -173458.975389 kJ/mol
# GULP energy per Si atom -12389.926813 kJ/mol
# Density = 2.338619 g / cm^3
# Si number density = 23.439537 Si / 1000 Ang^3
#
#
#
# Elastic Constant Matrix: (Units=GPa)
#
#
# Indices 1 2 3 4 5 6 
#
# 1 92.3893 12.4889 42.1747 -13.0831 -10.6185 -17.4368
# 2 12.4889 137.9741 57.6042 -4.5219 -10.7727 -10.5895
# 3 42.1747 57.6042 125.6096 -19.9802 -2.1115 -2.5897
# 4 -13.0831 -4.5219 -19.9802 43.8355 -3.1278 -2.9425
# 5 -10.6185 -10.7727 -2.1115 -3.1278 35.4895 -0.3970
# 6 -17.4368 -10.5895 -2.5897 -2.9425 -0.3970 32.9833
#
#
#
# Elastic Compliance Matrix: (Units=1/GPa)
#
#
# Indices 1 2 3 4 5 6 
#
# 1 0.015837 0.002065 -0.005439 0.003452 0.005446 0.008982
# 2 0.002065 0.009711 -0.005042 -0.000188 0.003292 0.003836
# 3 -0.005439 -0.005042 0.012502 0.003182 -0.002170 -0.003255
# 4 0.003452 -0.000188 0.003182 0.025816 0.003489 0.004360
# 5 0.005446 0.003292 -0.002170 0.003489 0.031034 0.004451
# 6 0.008982 0.003836 -0.003255 0.004360 0.004451 0.036485
#
#
# Mechanical properties :
#
#
# Convention : Reuss Voigt Hill
#
# Bulk Modulus (GPa) = 47.12818 64.50095 55.81456
# Shear Modulus (GPa) = 32.19758 38.70867 35.45312
#
# Velocity S-wave (km/s) = 3.71029 4.06818 3.89335
# Velocity P-wave (km/s) = 6.20523 7.04589 6.63888
#
# Compressibility (1/GPa) = 0.02121873
#
# Stress axis : x y z
#
# Youngs Moduli (GPa) = 63.14192 102.97261 79.98613
#
# Poissons Ratio (x) = -0.21262 0.43501
# Poissons Ratio (y) = -0.13038 0.40331
# Poissons Ratio (z) = 0.34340 0.51922
#
# Static dielectric constant tensor:
#      x y z
#    x 4.820060 -0.192380 0.052450 
#    y -0.192380 5.222100 -0.021630 
#    z 0.052450 -0.021630 4.177400 
# 
# 
# High freq. dielectric constant tensor:
#      x y z
#    x 1.928070 -0.003550 -0.005120 
#    y -0.003550 1.944310 0.000450 
#    z -0.005120 0.000450 1.917010 
# 
# From -- ./inp_files/263247.got.cif
#   From: 2010.06.25/outbox.cif.g09.slc.cpg/sg2_132_cif.got.tgz:263247.got - 2010.06.27 13:26:56.
