data_PCOD8026516
_publ_section_title
;
Structure prediction by ZEFSAII (Michael W. Deem and Ramdas Pophale) SiO2 
 PCOD8026516
Probable space group: P -1
;
_chemical_formula_sum "Si O2"
_cell_formula_units_Z 14
_cell_length_a 6.903301
_cell_length_b 8.850793
_cell_length_c 17.127957
_cell_angle_alpha 105.419993
_cell_angle_beta 70.960894
_cell_angle_gamma 55.199043
_cell_volume 660.339802
_symmetry_space_group_name_H-M "P -1"
_symmetry_group_IT_number 2
_symmetry_cell_setting 'triclinic'
loop_
_space_group_symop_operation_xyz
x,y,z
-x,-y,-z
loop_
_atom_site_type_symbol
_atom_site_label
_atom_site_fract_x
_atom_site_fract_y
_atom_site_fract_z
Si Si1 0.214267 0.979814 0.915098
Si Si2 0.788221 0.498910 0.813315
Si Si3 0.232883 0.317810 0.007725
Si Si4 0.798985 0.180580 0.856803
Si Si5 0.829472 0.860128 0.413446
Si Si6 0.171505 0.824777 0.633527
Si Si7 0.834316 0.430030 0.523084
O O1 0.517537 0.716062 0.827784
O O2 0.288783 0.102277 0.964648
O O3 0.062331 0.092154 0.866981
O O4 0.000000 0.000000 0.000000
O O5 0.682619 0.396710 0.855407
O O6 0.064479 0.313134 0.694304
O O7 0.888574 0.571252 0.874933
O O8 0.536585 0.246288 0.948357
O O9 0.000000 0.500000 0.000000
O O10 0.920787 0.984599 0.753540
O O11 0.047837 0.727242 0.439332
O O12 0.500000 0.000000 0.500000
O O13 0.837494 0.034040 0.409726
O O14 0.486907 0.649013 0.610954
O O15 0.105328 0.699086 0.581785
O O16 0.000000 0.500000 0.500000
#
# Coordination Sequence:
#
# PCOD8026516 Si02
#       7
#     2   2   2   2   2   2   2
#     4  12  24  43  69  95 137 174 218 269 324 391
#     4  11  24  43  66  97 130 175 221 268 328 388
#     4  12  24  43  68  98 135 176 215 267 331 394
#     4  11  24  44  66  94 137 168 220 268 328 390
#     4  11  23  43  68  95 131 173 219 273 328 388
#     4  10  24  42  67  97 126 177 214 273 331 387
#     4  11  22  43  68  93 132 167 224 271 330 384
#
# _framework density 21.201205000000002
#
# number of rings (size 3 to 8) (size 9 to 14) (size 15 to 20)
#    0.000    0.857    4.286    3.000    0.000    3.429 
#    0.000    1.429    0.000    0.000    0.000    0.000 
#    0.000    0.000    0.000    0.000    0.000    0.000 
#
# Total GULP energy -173683.460219 kJ/mol
# GULP energy per Si atom -12405.961444 kJ/mol
# Density = 2.115295 g / cm^3
# Si number density = 21.201205 Si / 1000 Ang^3
#
#
#
# Elastic Constant Matrix: (Units=GPa)
#
#
# Indices 1 2 3 4 5 6 
#
# 1 121.5398 44.2026 52.0333 10.3752 10.1670 -2.4153
# 2 44.2026 116.0361 31.1166 19.0397 -2.6049 -19.0443
# 3 52.0333 31.1166 118.2026 14.0324 5.7849 5.5067
# 4 10.3752 19.0397 14.0324 31.6065 2.3067 6.1250
# 5 10.1670 -2.6049 5.7849 2.3067 25.0001 1.2292
# 6 -2.4153 -19.0443 5.5067 6.1250 1.2292 40.2673
#
#
#
# Elastic Compliance Matrix: (Units=1/GPa)
#
#
# Indices 1 2 3 4 5 6 
#
# 1 0.011522 -0.003568 -0.003971 0.000513 -0.004166 -0.000404
# 2 -0.003568 0.012839 -0.001411 -0.007565 0.003465 0.007096
# 3 -0.003971 -0.001411 0.010982 -0.002271 -0.000763 -0.002039
# 4 0.000513 -0.007565 -0.002271 0.039058 -0.003629 -0.009067
# 5 -0.004166 0.003465 -0.000763 -0.003629 0.042530 0.000747
# 6 -0.000404 0.007096 -0.002039 -0.009067 0.000747 0.029801
#
#
# Mechanical properties :
#
#
# Convention : Reuss Voigt Hill
#
# Bulk Modulus (GPa) = 57.33262 67.83151 62.58206
# Shear Modulus (GPa) = 29.33458 34.60317 31.96888
#
# Velocity S-wave (km/s) = 3.72375 4.04435 3.88736
# Velocity P-wave (km/s) = 6.75198 7.33980 7.05202
#
# Compressibility (1/GPa) = 0.01744208
#
# Stress axis : x y z
#
# Youngs Moduli (GPa) = 86.78836 77.88487 91.06209
#
# Poissons Ratio (x) = 0.27793 0.36160
# Poissons Ratio (y) = 0.30970 0.12851
# Poissons Ratio (z) = 0.34463 0.10991
#
# Static dielectric constant tensor:
#      x y z
#    x 3.788750 -0.122370 0.202850 
#    y -0.122370 4.165850 0.178330 
#    z 0.202850 0.178330 3.877550 
# 
# 
# High freq. dielectric constant tensor:
#      x y z
#    x 1.826380 -0.004830 0.014630 
#    y -0.004830 1.853700 0.009970 
#    z 0.014630 0.009970 1.833960 
# 
# From -- ./inp_files/37094.got.cif
#   From: 2010.06.25/outbox.cif.g09.slc.cpg/sg2_19_cif.got.tgz:37094.got - 2010.06.27 13:26:56.
