data_PCOD8026637
_publ_section_title
;
Structure prediction by ZEFSAII (Michael W. Deem and Ramdas Pophale) SiO2 
 PCOD8026637
Probable space group: P -1
;
_chemical_formula_sum "Si O2"
_cell_formula_units_Z 14
_cell_length_a 8.865262
_cell_length_b 12.414007
_cell_length_c 8.396565
_cell_angle_alpha 61.603183
_cell_angle_beta 119.084922
_cell_angle_gamma 130.771255
_cell_volume 593.859790
_symmetry_space_group_name_H-M "P -1"
_symmetry_group_IT_number 2
_symmetry_cell_setting 'triclinic'
loop_
_space_group_symop_operation_xyz
x,y,z
-x,-y,-z
loop_
_atom_site_type_symbol
_atom_site_label
_atom_site_fract_x
_atom_site_fract_y
_atom_site_fract_z
Si Si1 0.123888 0.680755 0.882410
Si Si2 0.725183 0.615938 0.330580
Si Si3 0.557788 0.889771 0.542419
Si Si4 0.707500 0.459780 0.753430
Si Si5 0.988484 0.953865 0.207150
Si Si6 0.333336 0.001847 0.807753
Si Si7 0.190489 0.570015 0.671622
O O1 0.208278 0.845493 0.763479
O O2 0.124592 0.584473 0.803150
O O3 0.878850 0.599486 0.848774
O O4 0.245711 0.668232 0.104913
O O5 0.726447 0.515079 0.543710
O O6 0.515862 0.610607 0.235045
O O7 0.917529 0.785120 0.314045
O O8 0.735094 0.542983 0.222117
O O9 0.386245 0.728713 0.619190
O O10 0.500000 0.000000 0.500000
O O11 0.556409 0.878924 0.357626
O O12 0.784806 0.938748 0.681637
O O13 0.822305 0.975804 0.190002
O O14 0.000000 0.000000 0.000000
O O15 0.500000 0.000000 0.000000
O O16 0.000000 0.500000 0.500000
#
# Coordination Sequence:
#
# PCOD8026637 Si02
#       7
#     2   2   2   2   2   2   2
#     4  11  24  46  70 109 144 191 250 297 374 440
#     4  11  25  46  73 104 146 187 248 301 379 427
#     4  12  26  48  76 110 152 202 252 310 377 449
#     4  10  24  42  72 103 144 186 239 306 362 444
#     4  12  29  50  77 111 153 198 258 312 378 449
#     4  12  27  47  77 107 156 199 256 306 378 449
#     4  12  26  45  73 107 149 192 246 307 371 438
#
# _framework density 23.574589
#
# number of rings (size 3 to 8) (size 9 to 14) (size 15 to 20)
#    0.000    0.571    2.857    3.857   10.000    2.857 
#    0.000    0.000    0.000    0.000    0.000    0.000 
#    0.000    0.000    0.000    0.000    0.000    0.000 
#
# Total GULP energy -173494.060541 kJ/mol
# GULP energy per Si atom -12392.432896 kJ/mol
# Density = 2.352093 g / cm^3
# Si number density = 23.574589 Si / 1000 Ang^3
#
#
#
# Elastic Constant Matrix: (Units=GPa)
#
#
# Indices 1 2 3 4 5 6 
#
# 1 115.2980 40.7425 27.7661 12.3522 3.7198 2.2360
# 2 40.7425 135.8133 17.0685 -5.7779 3.9748 8.1439
# 3 27.7661 17.0685 96.7544 10.3628 -1.1352 8.0047
# 4 12.3522 -5.7779 10.3628 33.4503 4.5242 1.4073
# 5 3.7198 3.9748 -1.1352 4.5242 38.1313 6.6439
# 6 2.2360 8.1439 8.0047 1.4073 6.6439 48.6980
#
#
#
# Elastic Compliance Matrix: (Units=1/GPa)
#
#
# Indices 1 2 3 4 5 6 
#
# 1 0.010707 -0.003121 -0.002167 -0.003786 -0.000431 0.000555
# 2 -0.003121 0.008631 -0.000870 0.003067 -0.000787 -0.001138
# 3 -0.002167 -0.000870 0.011598 -0.003047 0.001314 -0.001753
# 4 -0.003786 0.003067 -0.003047 0.033312 -0.003948 -0.000262
# 5 -0.000431 -0.000787 0.001314 -0.003948 0.027502 -0.003703
# 6 0.000555 -0.001138 -0.001753 -0.000262 -0.003703 0.021500
#
#
# Mechanical properties :
#
#
# Convention : Reuss Voigt Hill
#
# Bulk Modulus (GPa) = 53.71419 57.66887 55.69153
# Shear Modulus (GPa) = 37.94393 41.54183 39.74288
#
# Velocity S-wave (km/s) = 4.01624 4.20234 4.11035
# Velocity P-wave (km/s) = 6.65892 6.93265 6.79716
#
# Compressibility (1/GPa) = 0.01861705
#
# Stress axis : x y z
#
# Youngs Moduli (GPa) = 93.39778 115.86737 86.22373
#
# Poissons Ratio (x) = 0.36166 0.18688
# Poissons Ratio (y) = 0.29152 0.07505
# Poissons Ratio (z) = 0.20243 0.10085
#
# Static dielectric constant tensor:
#      x y z
#    x 4.711450 0.094570 0.029630 
#    y 0.094570 4.618470 -0.072190 
#    z 0.029630 -0.072190 4.393710 
# 
# 
# High freq. dielectric constant tensor:
#      x y z
#    x 1.948270 0.018520 0.004690 
#    y 0.018520 1.948280 -0.003990 
#    z 0.004690 -0.003990 1.934460 
# 
# From -- ./inp_files/185417.got.cif
#   From: 2010.06.25/outbox.cif.g09.slc.cpg/sg2_93_cif.got.tgz:185417.got - 2010.06.27 13:26:56.
