data_PCOD8026953
_publ_section_title
;
Structure prediction by ZEFSAII (Michael W. Deem and Ramdas Pophale) SiO2 
 PCOD8026953
Probable space group: P -1
;
_chemical_formula_sum "Si O2"
_cell_formula_units_Z 16
_cell_length_a 15.026135
_cell_length_b 8.646931
_cell_length_c 12.535548
_cell_angle_alpha 80.551453
_cell_angle_beta 151.189248
_cell_angle_gamma 104.978603
_cell_volume 751.430154
_symmetry_space_group_name_H-M "P -1"
_symmetry_group_IT_number 2
_symmetry_cell_setting 'triclinic'
loop_
_space_group_symop_operation_xyz
x,y,z
-x,-y,-z
loop_
_atom_site_type_symbol
_atom_site_label
_atom_site_fract_x
_atom_site_fract_y
_atom_site_fract_z
Si Si1 0.674916 0.740442 0.815601
Si Si2 0.467255 0.506389 0.799047
Si Si3 0.423273 0.732293 0.909618
Si Si4 0.786739 0.021482 0.250550
Si Si5 0.548569 0.210723 0.625174
Si Si6 0.749252 0.738337 0.547447
Si Si7 0.807225 0.541066 0.820316
Si Si8 0.169219 0.945927 0.948208
O O1 0.561856 0.588610 0.781665
O O2 0.540883 0.817660 0.585477
O O3 0.833558 0.686763 0.916027
O O4 0.794337 0.865039 0.011419
O O5 0.397436 0.644668 0.776664
O O6 0.298241 0.350547 0.606207
O O7 0.606400 0.419681 0.022511
O O8 0.263401 0.835620 0.745692
O O9 0.633283 0.852732 0.129436
O O10 0.766223 0.077727 0.101386
O O11 0.000000 0.000000 0.500000
O O12 0.399167 0.163489 0.572162
O O13 0.648215 0.398458 0.719222
O O14 0.711381 0.117069 0.827549
O O15 0.732208 0.590773 0.625896
O O16 0.949540 0.863653 0.739055
O O17 0.000000 0.500000 0.000000
#
# Coordination Sequence:
#
# PCOD8026953 Si02
#       8
#     2   2   2   2   2   2   2   2
#     4  11  23  42  66  98 138 171 220 271 323 402
#     4  11  20  44  71  99 126 182 229 270 336 398
#     4  10  24  43  72  93 134 175 225 285 333 390
#     4  11  24  46  66 100 137 172 221 283 343 390
#     4  11  22  42  67  96 135 176 217 262 330 397
#     4  11  22  40  67  93 132 172 219 264 329 390
#     4  11  21  40  64  94 135 171 212 267 320 386
#     4  12  25  42  67  98 133 175 217 274 332 391
#
# _framework density 21.292731
#
# number of rings (size 3 to 8) (size 9 to 14) (size 15 to 20)
#    0.000    1.000    5.000    2.625    0.000    3.000 
#    4.500    6.875    0.000    0.000    0.000    0.000 
#    0.000    0.000    0.000    0.000    0.000    0.000 
#
# Total GULP energy -198249.982677 kJ/mol
# GULP energy per Si atom -12390.623917 kJ/mol
# Density = 2.124427 g / cm^3
# Si number density = 21.292731 Si / 1000 Ang^3
#
#
#
# Elastic Constant Matrix: (Units=GPa)
#
#
# Indices 1 2 3 4 5 6 
#
# 1 199.0336 136.1653 92.3051 -12.5177 18.4710 -61.9503
# 2 136.1653 175.1510 85.6678 -7.2232 26.0922 -58.6799
# 3 92.3051 85.6678 117.5176 4.4219 20.8027 -38.0794
# 4 -12.5177 -7.2232 4.4219 36.0560 -2.4930 3.3072
# 5 18.4710 26.0922 20.8027 -2.4930 42.9154 -12.6105
# 6 -61.9503 -58.6799 -38.0794 3.3072 -12.6105 69.6034
#
#
#
# Elastic Compliance Matrix: (Units=1/GPa)
#
#
# Indices 1 2 3 4 5 6 
#
# 1 0.012886 -0.006798 -0.004532 0.003489 0.002002 0.003456
# 2 -0.006798 0.014347 -0.003428 0.000393 -0.003056 0.003598
# 3 -0.004532 -0.003428 0.015776 -0.004555 -0.003498 0.001291
# 4 0.003489 0.000393 -0.004555 0.029740 0.002173 -0.000074
# 5 0.002002 -0.003056 -0.003498 0.002173 0.026716 0.002029
# 6 0.003456 0.003598 0.001291 -0.000074 0.002029 0.021553
#
#
# Mechanical properties :
#
#
# Convention : Reuss Voigt Hill
#
# Bulk Modulus (GPa) = 74.09977 124.44209 99.27093
# Shear Modulus (GPa) = 32.25160 41.55256 36.90208
#
# Velocity S-wave (km/s) = 3.89611 4.42236 4.16755
# Velocity P-wave (km/s) = 7.42399 9.20036 8.35949
#
# Compressibility (1/GPa) = 0.01349532
#
# Stress axis : x y z
#
# Youngs Moduli (GPa) = 77.60580 69.70000 63.38606
#
# Poissons Ratio (x) = 0.47379 0.28725
# Poissons Ratio (y) = 0.52753 0.21727
# Poissons Ratio (z) = 0.35169 0.23891
#
# Static dielectric constant tensor:
#      x y z
#    x 4.817030 0.172870 0.874930 
#    y 0.172870 3.868680 0.117010 
#    z 0.874930 0.117010 5.020500 
# 
# 
# High freq. dielectric constant tensor:
#      x y z
#    x 1.843040 0.002500 -0.012060 
#    y 0.002500 1.842300 0.004190 
#    z -0.012060 0.004190 1.821430 
# 
# From -- ./inp_files/217382.got.cif
#   From: 2010.06.25/outbox.cif.g09.slc.cpg/sg2_109_cif.got.tgz:217382.got - 2010.06.27 13:26:56.
