data_PCOD8026463
_publ_section_title
;
Structure prediction by ZEFSAII (Michael W. Deem and Ramdas Pophale) SiO2 
 PCOD8026463
Probable space group: P -1
;
_chemical_formula_sum "Si O2"
_cell_formula_units_Z 16
_cell_length_a 11.869301
_cell_length_b 8.973230
_cell_length_c 9.700395
_cell_angle_alpha 81.324362
_cell_angle_beta 54.911286
_cell_angle_gamma 62.298273
_cell_volume 738.767822
_symmetry_space_group_name_H-M "P -1"
_symmetry_group_IT_number 2
_symmetry_cell_setting 'triclinic'
loop_
_space_group_symop_operation_xyz
x,y,z
-x,-y,-z
loop_
_atom_site_type_symbol
_atom_site_label
_atom_site_fract_x
_atom_site_fract_y
_atom_site_fract_z
Si Si1 0.903276 0.907836 0.724839
Si Si2 0.988616 0.353682 0.843728
Si Si3 0.570518 0.185464 0.331999
Si Si4 0.270745 0.281990 0.051427
Si Si5 0.896695 0.164241 0.140394
Si Si6 0.338164 0.202848 0.713029
Si Si7 0.101951 0.750755 0.350790
Si Si8 0.590812 0.582809 0.845001
O O1 0.757945 0.880726 0.878863
O O2 0.037169 0.848416 0.752708
O O3 0.975296 0.796127 0.553212
O O4 0.836032 0.108966 0.715814
O O5 0.898796 0.553158 0.845400
O O6 0.984797 0.242888 0.731904
O O7 0.164742 0.301747 0.762724
O O8 0.899130 0.323682 0.039668
O O9 0.723621 0.190934 0.276212
O O10 0.446722 0.250154 0.534052
O O11 0.507188 0.309185 0.229303
O O12 0.606169 0.997262 0.290292
O O13 0.383872 0.291581 0.085850
O O14 0.349176 0.264725 0.849858
O O15 0.000000 0.000000 0.000000
O O16 0.245225 0.565847 0.303257
O O17 0.500000 0.500000 0.000000
#
# Coordination Sequence:
#
# PCOD8026463 Si02
#       8
#     2   2   2   2   2   2   2   2
#     4  11  23  41  70 101 126 171 236 277 321 384
#     4  11  22  41  71  95 135 174 225 271 334 396
#     4  11  25  43  67  99 137 181 215 275 352 390
#     4  11  25  42  70 100 130 177 226 278 330 400
#     4  12  21  42  72  92 128 179 223 273 326 405
#     4  11  24  42  66 104 136 170 226 284 331 397
#     4  10  24  42  65  98 134 176 225 271 330 401
#     4  11  27  46  66  94 142 183 213 273 347 407
#
# _framework density 21.657685000000001
#
# number of rings (size 3 to 8) (size 9 to 14) (size 15 to 20)
#    0.000    1.000    3.750    1.875    5.250    2.500 
#    2.250    1.875    0.000    0.000    0.000    0.000 
#    0.000    0.000    0.000    0.000    0.000    0.000 
#
# Total GULP energy -198494.911604 kJ/mol
# GULP energy per Si atom -12405.931975 kJ/mol
# Density = 2.160839 g / cm^3
# Si number density = 21.657685 Si / 1000 Ang^3
#
#
#
# Elastic Constant Matrix: (Units=GPa)
#
#
# Indices 1 2 3 4 5 6 
#
# 1 112.9983 21.9269 52.5731 -10.0293 -7.1541 10.3235
# 2 21.9269 46.4957 22.4809 -14.4867 4.0650 3.8001
# 3 52.5731 22.4809 132.5679 -7.4720 -2.9900 4.4966
# 4 -10.0293 -14.4867 -7.4720 35.8040 7.9965 6.1749
# 5 -7.1541 4.0650 -2.9900 7.9965 39.7007 -7.0804
# 6 10.3235 3.8001 4.4966 6.1749 -7.0804 20.1920
#
#
#
# Elastic Compliance Matrix: (Units=1/GPa)
#
#
# Indices 1 2 3 4 5 6 
#
# 1 0.011917 -0.002702 -0.003959 0.002116 0.000796 -0.005071
# 2 -0.002702 0.030645 -0.003097 0.014948 -0.008900 -0.011388
# 3 -0.003959 -0.003097 0.009585 -0.000652 0.000615 0.000887
# 4 0.002116 0.014948 -0.000652 0.040984 -0.013182 -0.020905
# 5 0.000796 -0.008900 0.000615 -0.013182 0.031857 0.016333
# 6 -0.005071 -0.011388 0.000887 -0.020905 0.016333 0.066183
#
#
# Mechanical properties :
#
#
# Convention : Reuss Voigt Hill
#
# Bulk Modulus (GPa) = 30.64452 54.00265 42.32358
# Shear Modulus (GPa) = 22.56669 32.14474 27.35572
#
# Velocity S-wave (km/s) = 3.23146 3.85674 3.55786
# Velocity P-wave (km/s) = 5.30126 6.69487 6.03840
#
# Compressibility (1/GPa) = 0.03263226
#
# Stress axis : x y z
#
# Youngs Moduli (GPa) = 83.91235 32.63146 104.32460
#
# Poissons Ratio (x) = 0.08817 0.41299
# Poissons Ratio (y) = 0.22672 0.32312
# Poissons Ratio (z) = 0.33218 0.10107
#
# Static dielectric constant tensor:
#      x y z
#    x 3.898180 0.037810 0.061630 
#    y 0.037810 4.063170 -0.038720 
#    z 0.061630 -0.038720 4.040660 
# 
# 
# High freq. dielectric constant tensor:
#      x y z
#    x 1.850200 0.004520 0.007310 
#    y 0.004520 1.858070 -0.005790 
#    z 0.007310 -0.005790 1.859080 
# 
# From -- ./inp_files/243416.got.cif
#   From: 2010.06.25/outbox.cif.g09.slc.cpg/sg2_122_cif.got.tgz:243416.got - 2010.06.27 13:26:56.
