data_PCOD8026757
_publ_section_title
;
Structure prediction by ZEFSAII (Michael W. Deem and Ramdas Pophale) SiO2 
 PCOD8026757
Probable space group: P -1
;
_chemical_formula_sum "Si O2"
_cell_formula_units_Z 16
_cell_length_a 11.414070
_cell_length_b 10.914518
_cell_length_c 7.463404
_cell_angle_alpha 46.946901
_cell_angle_beta 98.323844
_cell_angle_gamma 90.383131
_cell_volume 666.774328
_symmetry_space_group_name_H-M "P -1"
_symmetry_group_IT_number 2
_symmetry_cell_setting 'triclinic'
loop_
_space_group_symop_operation_xyz
x,y,z
-x,-y,-z
loop_
_atom_site_type_symbol
_atom_site_label
_atom_site_fract_x
_atom_site_fract_y
_atom_site_fract_z
Si Si1 0.432615 0.478454 0.820165
Si Si2 0.919599 0.717292 0.622685
Si Si3 0.709460 0.804752 0.021632
Si Si4 0.107947 0.664656 0.999166
Si Si5 0.363339 0.766737 0.944275
Si Si6 0.426355 0.840576 0.488624
Si Si7 0.668713 0.875402 0.333767
Si Si8 0.974920 0.811321 0.152510
O O1 0.328762 0.356184 0.934505
O O2 0.379609 0.670734 0.559818
O O3 0.500000 0.500000 0.000000
O O4 0.538047 0.383508 0.809674
O O5 0.797335 0.844143 0.492803
O O6 0.977063 0.720929 0.434801
O O7 0.013756 0.768531 0.738864
O O8 0.888825 0.531731 0.838633
O O9 0.677314 0.771689 0.254564
O O10 0.850145 0.805425 0.027587
O O11 0.643752 0.986652 0.769972
O O12 0.238546 0.703746 0.939830
O O13 0.077967 0.714734 0.147903
O O14 0.414635 0.841497 0.698914
O O15 0.353332 0.924285 0.921570
O O16 0.566620 0.820922 0.492055
O O17 0.000000 0.000000 0.000000
#
# Coordination Sequence:
#
# PCOD8026757 Si02
#       8
#     2   2   2   2   2   2   2   2
#     4  10  24  43  67 102 137 175 233 280 350 417
#     4  10  25  45  70 102 136 187 234 297 357 412
#     4  11  25  46  67 104 140 181 233 291 352 422
#     4  11  24  45  69  99 141 183 240 292 351 424
#     4  11  24  41  67 102 135 181 236 283 347 428
#     4  11  24  42  71  97 138 185 225 288 352 420
#     4  11  23  44  67  99 141 175 232 292 352 417
#     4  11  26  47  72 103 141 184 238 294 354 423
#
# _framework density 23.996126
#
# number of rings (size 3 to 8) (size 9 to 14) (size 15 to 20)
#    0.000    1.250    1.250    3.375    5.250    5.500 
#    9.000    0.000    0.000    0.000    0.000    0.000 
#    0.000    0.000    0.000    0.000    0.000    0.000 
#
# Total GULP energy -198367.347286 kJ/mol
# GULP energy per Si atom -12397.959205 kJ/mol
# Density = 2.394151 g / cm^3
# Si number density = 23.996126 Si / 1000 Ang^3
#
#
#
# Elastic Constant Matrix: (Units=GPa)
#
#
# Indices 1 2 3 4 5 6 
#
# 1 83.6115 14.2574 15.5873 -0.2945 -12.7249 11.2891
# 2 14.2574 81.0690 12.6192 -26.9307 -6.2737 17.0240
# 3 15.5873 12.6192 76.6560 -15.2068 -1.2104 8.4614
# 4 -0.2945 -26.9307 -15.2068 50.7328 -6.7503 -10.0014
# 5 -12.7249 -6.2737 -1.2104 -6.7503 28.1161 -6.9642
# 6 11.2891 17.0240 8.4614 -10.0014 -6.9642 43.6176
#
#
#
# Elastic Compliance Matrix: (Units=1/GPa)
#
#
# Indices 1 2 3 4 5 6 
#
# 1 0.013713 -0.001660 -0.002476 -0.001263 0.004950 -0.001920
# 2 -0.001660 0.016545 -0.000246 0.008594 0.004165 -0.003345
# 3 -0.002476 -0.000246 0.014510 0.003996 0.000126 -0.001142
# 4 -0.001263 0.008594 0.003996 0.027449 0.009085 0.003942
# 5 0.004950 0.004165 0.000126 0.009085 0.042389 0.005920
# 6 -0.001920 -0.003345 -0.001142 0.003942 0.005920 0.026800
#
#
# Mechanical properties :
#
#
# Convention : Reuss Voigt Hill
#
# Bulk Modulus (GPa) = 27.77439 36.25159 32.01299
# Shear Modulus (GPa) = 30.83172 37.75149 34.29161
#
# Velocity S-wave (km/s) = 3.58839 3.97070 3.78438
# Velocity P-wave (km/s) = 5.36361 6.01349 5.69782
#
# Compressibility (1/GPa) = 0.03600439
#
# Stress axis : x y z
#
# Youngs Moduli (GPa) = 72.92433 60.44158 68.91842
#
# Poissons Ratio (x) = 0.10031 0.17062
# Poissons Ratio (y) = 0.12102 0.01698
# Poissons Ratio (z) = 0.18054 0.01489
#
# Static dielectric constant tensor:
#      x y z
#    x 4.509280 -0.111250 0.100850 
#    y -0.111250 4.631060 -0.310440 
#    z 0.100850 -0.310440 4.646360 
# 
# 
# High freq. dielectric constant tensor:
#      x y z
#    x 1.956790 -0.002580 -0.003500 
#    y -0.002580 1.961350 -0.016040 
#    z -0.003500 -0.016040 1.944940 
# 
# From -- ./inp_files/255910.got.cif
#   From: 2010.06.25/outbox.cif.g09.slc.cpg/sg2_128_cif.got.tgz:255910.got - 2010.06.27 13:26:56.
