data_PCOD8026665
_publ_section_title
;
Structure prediction by ZEFSAII (Michael W. Deem and Ramdas Pophale) SiO2 
 PCOD8026665
Probable space group: P -1
;
_chemical_formula_sum "Si O2"
_cell_formula_units_Z 16
_cell_length_a 14.235971
_cell_length_b 15.429525
_cell_length_c 5.569879
_cell_angle_alpha 58.413461
_cell_angle_beta 111.741215
_cell_angle_gamma 138.463047
_cell_volume 690.573929
_symmetry_space_group_name_H-M "P -1"
_symmetry_group_IT_number 2
_symmetry_cell_setting 'triclinic'
loop_
_space_group_symop_operation_xyz
x,y,z
-x,-y,-z
loop_
_atom_site_type_symbol
_atom_site_label
_atom_site_fract_x
_atom_site_fract_y
_atom_site_fract_z
Si Si1 0.172029 0.985693 0.604376
Si Si2 0.026460 0.762756 0.156399
Si Si3 0.273721 0.885610 0.493199
Si Si4 0.253809 0.463024 0.984865
Si Si5 0.474997 0.896157 0.933803
Si Si6 0.080294 0.149361 0.743607
Si Si7 0.606829 0.381235 0.609390
Si Si8 0.676312 0.709370 0.558127
O O1 0.248888 0.957645 0.554540
O O2 0.008094 0.888563 0.523419
O O3 0.260323 0.151776 0.432336
O O4 0.151067 0.924692 0.938178
O O5 0.917966 0.637720 0.042173
O O6 0.917652 0.749546 0.237321
O O7 0.123550 0.751478 0.414802
O O8 0.329474 0.821603 0.763201
O O9 0.392788 0.014630 0.245969
O O10 0.317155 0.559843 0.663942
O O11 0.298053 0.541116 0.171771
O O12 0.299164 0.376393 0.145315
O O13 0.463889 0.779716 0.220211
O O14 0.500000 0.000000 0.000000
O O15 0.241989 0.239186 0.695049
O O16 0.000000 0.000000 0.000000
O O17 0.488839 0.386751 0.508015
#
# Coordination Sequence:
#
# PCOD8026665 Si02
#       8
#     2   2   2   2   2   2   2   2
#     4  11  22  39  68 110 137 177 241 304 356 411
#     4  11  22  43  66 101 145 189 240 293 355 415
#     4  10  24  42  79 107 135 173 231 319 372 419
#     4  12  28  48  67 102 154 204 240 287 339 448
#     4  11  25  50  78 108 134 173 237 313 374 427
#     4  11  21  34  62 103 143 185 239 294 353 409
#     4  12  30  48  72 104 146 195 248 290 361 434
#     4  12  23  44  69 103 148 201 240 292 352 418
#
# _framework density 23.169132999999999
#
# number of rings (size 3 to 8) (size 9 to 14) (size 15 to 20)
#    0.000    0.750    2.500    4.875    8.750    1.000 
#    0.000    1.250    0.000    0.000    0.000    0.000 
#    0.000    0.000    0.000    0.000    0.000    0.000 
#
# Total GULP energy -198301.160941 kJ/mol
# GULP energy per Si atom -12393.822559 kJ/mol
# Density = 2.311640 g / cm^3
# Si number density = 23.169133 Si / 1000 Ang^3
#
#
#
# Elastic Constant Matrix: (Units=GPa)
#
#
# Indices 1 2 3 4 5 6 
#
# 1 98.6293 23.3068 35.0058 8.5101 2.7054 9.5989
# 2 23.3068 81.2574 25.2161 20.4885 7.2463 8.3780
# 3 35.0058 25.2161 122.9011 -3.4992 -4.4551 4.2517
# 4 8.5101 20.4885 -3.4992 38.0705 -0.3655 3.6264
# 5 2.7054 7.2463 -4.4551 -0.3655 40.3140 5.9092
# 6 9.5989 8.3780 4.2517 3.6264 5.9092 29.3499
#
#
#
# Elastic Compliance Matrix: (Units=1/GPa)
#
#
# Indices 1 2 3 4 5 6 
#
# 1 0.012063 -0.001744 -0.003052 -0.001786 -0.000455 -0.002693
# 2 -0.001744 0.016419 -0.003154 -0.008574 -0.002967 -0.002003
# 3 -0.003052 -0.003154 0.009830 0.003333 0.001936 -0.000327
# 4 -0.001786 -0.008574 0.003333 0.031793 0.002596 -0.001902
# 5 -0.000455 -0.002967 0.001936 0.002596 0.026326 -0.004906
# 6 -0.002693 -0.002003 -0.000327 -0.001902 -0.004906 0.036794
#
#
# Mechanical properties :
#
#
# Convention : Reuss Voigt Hill
#
# Bulk Modulus (GPa) = 44.62331 52.20502 48.41416
# Shear Modulus (GPa) = 31.92940 36.16415 34.04678
#
# Velocity S-wave (km/s) = 3.71631 3.95508 3.83755
# Velocity P-wave (km/s) = 6.14135 6.59075 6.37001
#
# Compressibility (1/GPa) = 0.02240981
#
# Stress axis : x y z
#
# Youngs Moduli (GPa) = 82.89714 60.90670 101.73416
#
# Poissons Ratio (x) = 0.10624 0.31052
# Poissons Ratio (y) = 0.14459 0.32089
# Poissons Ratio (z) = 0.25302 0.19211
#
# Static dielectric constant tensor:
#      x y z
#    x 4.219050 0.266020 0.204040 
#    y 0.266020 4.227630 0.432280 
#    z 0.204040 0.432280 4.792220 
# 
# 
# High freq. dielectric constant tensor:
#      x y z
#    x 1.915980 0.016940 -0.002820 
#    y 0.016940 1.906370 0.017370 
#    z -0.002820 0.017370 1.925910 
# 
# From -- ./inp_files/97601.got.cif
#   From: 2010.06.25/outbox.cif.g09.slc.cpg/sg2_49_cif.got.tgz:97601.got - 2010.06.27 13:26:56.
