data_PCOD8026572
_publ_section_title
;
Structure prediction by ZEFSAII (Michael W. Deem and Ramdas Pophale) SiO2 
 PCOD8026572
Probable space group: P -1
;
_chemical_formula_sum "Si O2"
_cell_formula_units_Z 14
_cell_length_a 16.910179
_cell_length_b 12.723176
_cell_length_c 9.200173
_cell_angle_alpha 124.846332
_cell_angle_beta 135.630424
_cell_angle_gamma 30.500703
_cell_volume 696.984083
_symmetry_space_group_name_H-M "P -1"
_symmetry_group_IT_number 2
_symmetry_cell_setting 'triclinic'
loop_
_space_group_symop_operation_xyz
x,y,z
-x,-y,-z
loop_
_atom_site_type_symbol
_atom_site_label
_atom_site_fract_x
_atom_site_fract_y
_atom_site_fract_z
Si Si1 0.423194 0.120507 0.848528
Si Si2 0.705469 0.002837 0.606238
Si Si3 0.046185 0.998677 0.721670
Si Si4 0.077651 0.562680 0.708486
Si Si5 0.317086 0.700004 0.327655
Si Si6 0.372373 0.873145 0.082041
Si Si7 0.290105 0.589187 0.896010
O O1 0.256561 0.360865 0.876749
O O2 0.572573 0.067731 0.913684
O O3 0.362984 0.055993 0.620482
O O4 0.500000 0.000000 0.000000
O O5 0.679280 0.153767 0.595166
O O6 0.597649 0.105690 0.697053
O O7 0.921378 0.785919 0.759784
O O8 0.197981 0.770829 0.811021
O O9 0.157533 0.033455 0.893835
O O10 0.000000 0.000000 0.500000
O O11 0.859533 0.172843 0.705102
O O12 0.162604 0.576086 0.703612
O O13 0.000000 0.500000 0.500000
O O14 0.500000 0.500000 0.500000
O O15 0.295660 0.634779 0.104419
O O16 0.501462 0.631464 0.049530
#
# Coordination Sequence:
#
# PCOD8026572 Si02
#       7
#     2   2   2   2   2   2   2
#     4  10  24  42  69  95 127 169 223 278 326 390
#     4  11  22  43  67  92 132 174 223 259 334 393
#     4  12  25  39  64  98 134 169 221 272 325 390
#     4   9  20  39  65  89 123 174 213 258 324 386
#     4  12  26  41  68  98 133 177 220 271 328 398
#     4  11  24  42  66  94 134 173 219 269 329 393
#     4  11  22  43  63  94 135 176 215 266 337 385
#
# _framework density 20.086544
#
# number of rings (size 3 to 8) (size 9 to 14) (size 15 to 20)
#    0.000    1.143    2.857    3.000    8.000    0.000 
#    0.000    0.714    0.000    0.000    0.000    0.000 
#    0.000    0.000    0.000    0.000    0.000    0.000 
#
# Total GULP energy -173481.788332 kJ/mol
# GULP energy per Si atom -12391.556309 kJ/mol
# Density = 2.004083 g / cm^3
# Si number density = 20.086544 Si / 1000 Ang^3
#
#
#
# Elastic Constant Matrix: (Units=GPa)
#
#
# Indices 1 2 3 4 5 6 
#
# 1 138.9741 84.7159 70.8957 -22.0523 -3.3304 -0.6762
# 2 84.7159 137.0784 50.8820 -9.5817 -9.7668 -7.0374
# 3 70.8957 50.8820 116.1131 -7.1795 -12.1879 -1.2660
# 4 -22.0523 -9.5817 -7.1795 27.7605 -2.9472 0.6983
# 5 -3.3304 -9.7668 -12.1879 -2.9472 45.8347 4.7617
# 6 -0.6762 -7.0374 -1.2660 0.6983 4.7617 32.8571
#
#
#
# Elastic Compliance Matrix: (Units=1/GPa)
#
#
# Indices 1 2 3 4 5 6 
#
# 1 0.016126 -0.007189 -0.006321 0.008588 -0.001339 -0.001440
# 2 -0.007189 0.012165 -0.000860 -0.001631 0.001503 0.002241
# 3 -0.006321 -0.000860 0.013032 -0.001653 0.002734 -0.000173
# 4 0.008588 -0.001631 -0.001653 0.042180 0.002708 -0.001525
# 5 -0.001339 0.001503 0.002734 0.002708 0.023256 -0.003028
# 6 -0.001440 0.002241 -0.000173 -0.001525 -0.003028 0.031350
#
#
# Mechanical properties :
#
#
# Convention : Reuss Voigt Hill
#
# Bulk Modulus (GPa) = 79.47473 89.46142 84.46807
# Shear Modulus (GPa) = 29.23227 33.66859 31.45043
#
# Velocity S-wave (km/s) = 3.81900 4.09856 3.96124
# Velocity P-wave (km/s) = 7.68755 8.18732 7.94137
#
# Compressibility (1/GPa) = 0.01258262
#
# Stress axis : x y z
#
# Youngs Moduli (GPa) = 62.01159 82.20085 76.73563
#
# Poissons Ratio (x) = 0.59092 0.48506
# Poissons Ratio (y) = 0.44578 0.06602
# Poissons Ratio (z) = 0.39199 0.07072
#
# Static dielectric constant tensor:
#      x y z
#    x 4.203740 0.206440 0.005510 
#    y 0.206440 4.209480 -0.184970 
#    z 0.005510 -0.184970 3.958420 
# 
# 
# High freq. dielectric constant tensor:
#      x y z
#    x 1.796220 -0.001630 0.020740 
#    y -0.001630 1.799510 -0.002160 
#    z 0.020740 -0.002160 1.780570 
# 
# From -- ./inp_files/175565.got.cif
#   From: 2010.06.25/outbox.cif.g09.slc.cpg/sg2_88_cif.got.tgz:175565.got - 2010.06.27 13:26:56.
