data_PCOD8026744
_publ_section_title
;
Structure prediction by ZEFSAII (Michael W. Deem and Ramdas Pophale) SiO2 
 PCOD8026744
Probable space group: P -1
;
_chemical_formula_sum "Si O2"
_cell_formula_units_Z 16
_cell_length_a 6.792186
_cell_length_b 11.716289
_cell_length_c 14.539061
_cell_angle_alpha 89.366770
_cell_angle_beta 45.713411
_cell_angle_gamma 109.916345
_cell_volume 723.503796
_symmetry_space_group_name_H-M "P -1"
_symmetry_group_IT_number 2
_symmetry_cell_setting 'triclinic'
loop_
_space_group_symop_operation_xyz
x,y,z
-x,-y,-z
loop_
_atom_site_type_symbol
_atom_site_label
_atom_site_fract_x
_atom_site_fract_y
_atom_site_fract_z
Si Si1 0.300682 0.518924 0.844327
Si Si2 0.761478 0.491509 0.352529
Si Si3 0.554525 0.930966 0.685337
Si Si4 0.205613 0.197990 0.261544
Si Si5 0.424103 0.799737 0.549296
Si Si6 0.552385 0.328877 0.805095
Si Si7 0.117610 0.135899 0.091018
Si Si8 0.623928 0.864854 0.287594
O O1 0.246123 0.482808 0.754331
O O2 0.575922 0.666944 0.759859
O O3 0.414178 0.427174 0.858625
O O4 0.000000 0.500000 0.000000
O O5 0.500000 0.500000 0.500000
O O6 0.743806 0.353096 0.373091
O O7 0.087943 0.603177 0.284418
O O8 0.756552 0.916837 0.700737
O O9 0.641742 0.883628 0.562380
O O10 0.177046 0.836090 0.825810
O O11 0.622103 0.080446 0.652701
O O12 0.305061 0.203358 0.122832
O O13 0.841023 0.158590 0.384795
O O14 0.645802 0.837421 0.387838
O O15 0.505643 0.274468 0.717411
O O16 0.362914 0.199006 0.928951
O O17 0.975594 0.977397 0.141099
#
# Coordination Sequence:
#
# PCOD8026744 Si02
#       8
#     2   2   2   2   2   2   2   2
#     4  12  26  43  74 105 136 184 238 288 344 417
#     4  12  28  46  68 105 144 181 235 288 347 425
#     4   9  21  41  65  98 133 172 232 282 326 410
#     4  11  21  40  70  97 129 177 227 286 340 391
#     4  11  22  43  67  97 133 179 231 283 341 402
#     4  12  25  46  70  98 146 186 220 288 354 401
#     4   9  23  43  65  99 132 175 229 278 336 406
#     4  10  24  43  66  97 141 184 221 279 345 414
#
# _framework density 22.114605000000001
#
# number of rings (size 3 to 8) (size 9 to 14) (size 15 to 20)
#    0.750    0.500    2.500    3.000    3.500    2.500 
#    4.500    0.625    0.000    0.000    0.000    0.000 
#    0.000    0.000    0.000    0.000    0.000    0.000 
#
# Total GULP energy -198368.870369 kJ/mol
# GULP energy per Si atom -12398.054398 kJ/mol
# Density = 2.206427 g / cm^3
# Si number density = 22.114605 Si / 1000 Ang^3
#
#
#
# Elastic Constant Matrix: (Units=GPa)
#
#
# Indices 1 2 3 4 5 6 
#
# 1 94.7963 8.4407 33.0389 9.2580 4.1824 0.6960
# 2 8.4407 70.5564 5.7809 4.3356 -3.3480 7.3177
# 3 33.0389 5.7809 100.7045 3.7004 8.6257 2.9720
# 4 9.2580 4.3356 3.7004 35.7616 1.6348 10.8232
# 5 4.1824 -3.3480 8.6257 1.6348 28.6197 0.7594
# 6 0.6960 7.3177 2.9720 10.8232 0.7594 25.5117
#
#
#
# Elastic Compliance Matrix: (Units=1/GPa)
#
#
# Indices 1 2 3 4 5 6 
#
# 1 0.012323 -0.001182 -0.003857 -0.003168 -0.000644 0.001815
# 2 -0.001182 0.014908 -0.000524 -0.000300 0.002201 -0.004121
# 3 -0.003857 -0.000524 0.011499 0.000354 -0.002953 -0.001147
# 4 -0.003168 -0.000300 0.000354 0.033028 -0.001198 -0.013845
# 5 -0.000644 0.002201 -0.002953 -0.001198 0.036273 -0.000841
# 6 0.001815 -0.004121 -0.001147 -0.013845 -0.000841 0.046362
#
#
# Mechanical properties :
#
#
# Convention : Reuss Voigt Hill
#
# Bulk Modulus (GPa) = 36.22705 40.06425 38.14565
# Shear Modulus (GPa) = 28.61707 32.56503 30.59105
#
# Velocity S-wave (km/s) = 3.60117 3.84155 3.72330
# Velocity P-wave (km/s) = 5.80589 6.15083 5.98085
#
# Compressibility (1/GPa) = 0.02760368
#
# Stress axis : x y z
#
# Youngs Moduli (GPa) = 81.14952 67.07930 86.96188
#
# Poissons Ratio (x) = 0.07931 0.33541
# Poissons Ratio (y) = 0.09595 0.04555
# Poissons Ratio (z) = 0.31300 0.03513
#
# Static dielectric constant tensor:
#      x y z
#    x 3.965140 0.055880 0.170850 
#    y 0.055880 3.929120 0.040730 
#    z 0.170850 0.040730 3.783700 
# 
# 
# High freq. dielectric constant tensor:
#      x y z
#    x 1.870530 0.005920 0.015050 
#    y 0.005920 1.873100 -0.003790 
#    z 0.015050 -0.003790 1.863490 
# 
# From -- ./inp_files/482825.got.cif
#   From: 2010.06.25/outbox.cif.g09.slc.cpg/sg2_242_cif.got.tgz:482825.got - 2010.06.27 13:26:56.
