data_PCOD8026122
_publ_section_title
;
Structure prediction by ZEFSAII (Michael W. Deem and Ramdas Pophale) SiO2 
 PCOD8026122
Probable space group: P -1
;
_chemical_formula_sum "Si O2"
_cell_formula_units_Z 14
_cell_length_a 10.041239
_cell_length_b 14.101562
_cell_length_c 10.002708
_cell_angle_alpha 38.822406
_cell_angle_beta 119.888497
_cell_angle_gamma 115.816400
_cell_volume 766.913019
_symmetry_space_group_name_H-M "P -1"
_symmetry_group_IT_number 2
_symmetry_cell_setting 'triclinic'
loop_
_space_group_symop_operation_xyz
x,y,z
-x,-y,-z
loop_
_atom_site_type_symbol
_atom_site_label
_atom_site_fract_x
_atom_site_fract_y
_atom_site_fract_z
Si Si1 0.143781 0.424024 0.345548
Si Si2 0.326631 0.686153 0.027610
Si Si3 0.832302 0.426344 0.450483
Si Si4 0.685012 0.692578 0.190988
Si Si5 0.846697 0.246086 0.388556
Si Si6 0.100372 0.058923 0.111107
Si Si7 0.126872 0.732556 0.108786
O O1 0.229720 0.327446 0.603592
O O2 0.057373 0.560649 0.222354
O O3 0.013748 0.306402 0.341256
O O4 0.265497 0.506107 0.210267
O O5 0.285162 0.747008 0.795013
O O6 0.507667 0.707013 0.115699
O O7 0.250093 0.786784 0.994530
O O8 0.707010 0.548883 0.264908
O O9 0.820161 0.358876 0.371799
O O10 0.788332 0.285740 0.685556
O O11 0.000000 0.500000 0.500000
O O12 0.752912 0.842498 0.983519
O O13 0.841673 0.075292 0.624897
O O14 0.006212 0.155427 0.062520
O O15 0.000000 0.000000 0.000000
#
# Coordination Sequence:
#
# PCOD8026122 Si02
#       7
#     2   2   2   2   2   2   2
#     4   9  18  37  61  80 108 149 192 225 272 341
#     4  10  24  36  58  87 122 141 181 245 298 317
#     4  11  16  34  62  85 105 148 196 231 264 335
#     4  11  20  38  62  83 113 153 187 230 289 335
#     4  12  21  35  61  90 112 145 196 238 270 335
#     4  12  20  35  63  86 104 157 202 223 262 354
#     4   9  19  36  58  84 110 149 191 228 280 334
#
# _framework density 18.255005000000001
#
# number of rings (size 3 to 8) (size 9 to 14) (size 15 to 20)
#    0.857    0.571    7.143    0.857    0.000    1.714 
#    0.000    0.714    3.143    0.000    0.000    0.000 
#    0.000    0.000    0.000    0.000    0.000    0.000 
#
# Total GULP energy -173442.991663 kJ/mol
# GULP energy per Si atom -12388.785119 kJ/mol
# Density = 1.821346 g / cm^3
# Si number density = 18.255005 Si / 1000 Ang^3
#
#
#
# Elastic Constant Matrix: (Units=GPa)
#
#
# Indices 1 2 3 4 5 6 
#
# 1 92.9351 25.2309 33.2892 -1.3602 -1.7701 -1.3529
# 2 25.2309 34.8436 24.5633 1.8836 2.7457 -2.5538
# 3 33.2892 24.5633 93.7176 -6.8631 -7.4802 -0.9796
# 4 -1.3602 1.8836 -6.8631 24.3933 4.7196 -8.6175
# 5 -1.7701 2.7457 -7.4802 4.7196 24.8552 3.7269
# 6 -1.3529 -2.5538 -0.9796 -8.6175 3.7269 22.8349
#
#
#
# Elastic Compliance Matrix: (Units=1/GPa)
#
#
# Indices 1 2 3 4 5 6 
#
# 1 0.014017 -0.008396 -0.002667 0.000377 0.001090 -0.000258
# 2 -0.008396 0.042132 -0.008893 -0.003337 -0.007873 0.003859
# 3 -0.002667 -0.008893 0.014586 0.003861 0.004418 0.000209
# 4 0.000377 -0.003337 0.003861 0.052147 -0.011550 0.021379
# 5 0.001090 -0.007873 0.004418 -0.011550 0.046591 -0.012589
# 6 -0.000258 0.003859 0.000209 0.021379 -0.012589 0.054341
#
#
# Mechanical properties :
#
#
# Convention : Reuss Voigt Hill
#
# Bulk Modulus (GPa) = 32.44154 43.07367 37.75760
# Shear Modulus (GPa) = 18.24825 23.64422 20.94623
#
# Velocity S-wave (km/s) = 3.16512 3.60282 3.39104
# Velocity P-wave (km/s) = 5.58276 6.39952 6.00504
#
# Compressibility (1/GPa) = 0.03082468
#
# Stress axis : x y z
#
# Youngs Moduli (GPa) = 71.34098 23.73503 68.55918
#
# Poissons Ratio (x) = 0.19927 0.18282
# Poissons Ratio (y) = 0.59894 0.60970
# Poissons Ratio (z) = 0.19024 0.21108
#
# Static dielectric constant tensor:
#      x y z
#    x 3.468850 -0.059830 -0.209260 
#    y -0.059830 3.101580 -0.164980 
#    z -0.209260 -0.164980 3.397360 
# 
# 
# High freq. dielectric constant tensor:
#      x y z
#    x 1.705810 -0.004160 -0.017610 
#    y -0.004160 1.671830 -0.007320 
#    z -0.017610 -0.007320 1.705410 
# 
# From -- ./inp_files/402711.got.cif
#   From: 2010.06.25/outbox.cif.g09.slc.cpg/sg2_202_cif.got.tgz:402711.got - 2010.06.27 13:26:56.
