data_PCOD8026267
_publ_section_title
;
Structure prediction by ZEFSAII (Michael W. Deem and Ramdas Pophale) SiO2 
 PCOD8026267
Probable space group: P -1
;
_chemical_formula_sum "Si O2"
_cell_formula_units_Z 14
_cell_length_a 11.832281
_cell_length_b 9.416541
_cell_length_c 9.075621
_cell_angle_alpha 59.627822
_cell_angle_beta 102.261987
_cell_angle_gamma 133.289844
_cell_volume 620.336081
_symmetry_space_group_name_H-M "P -1"
_symmetry_group_IT_number 2
_symmetry_cell_setting 'triclinic'
loop_
_space_group_symop_operation_xyz
x,y,z
-x,-y,-z
loop_
_atom_site_type_symbol
_atom_site_label
_atom_site_fract_x
_atom_site_fract_y
_atom_site_fract_z
Si Si1 0.916684 0.090306 0.890339
Si Si2 0.936519 0.446425 0.176842
Si Si3 0.502979 0.733282 0.271812
Si Si4 0.555181 0.721250 0.972756
Si Si5 0.948226 0.146621 0.536279
Si Si6 0.558551 0.082357 0.307579
Si Si7 0.752873 0.776997 0.458852
O O1 0.917812 0.162301 0.686948
O O2 0.997729 0.313907 0.884589
O O3 0.735231 0.885950 0.989231
O O4 0.000000 0.000000 0.000000
O O5 0.002060 0.356243 0.340882
O O6 0.747403 0.264031 0.241773
O O7 0.000000 0.500000 0.000000
O O8 0.683587 0.845684 0.291228
O O9 0.374664 0.490199 0.435977
O O10 0.479770 0.884148 0.268569
O O11 0.461465 0.690679 0.109554
O O12 0.517106 0.814919 0.789840
O O13 0.500000 0.500000 0.000000
O O14 0.081002 0.134486 0.592926
O O15 0.786279 0.906146 0.553778
O O16 0.500000 0.000000 0.500000
#
# Coordination Sequence:
#
# PCOD8026267 Si02
#       7
#     2   2   2   2   2   2   2
#     4  12  27  45  73 105 144 184 238 293 363 426
#     4  12  28  47  72 105 148 188 241 295 357 425
#     4  11  24  45  71 102 141 184 235 289 357 419
#     4  12  27  45  73 105 144 184 238 293 363 426
#     4  11  24  45  71 102 141 184 235 289 357 419
#     4  12  28  47  72 105 148 188 241 295 357 425
#     4  10  24  40  76 100 136 178 240 286 350 412
#
# _framework density 22.568414000000001
#
# number of rings (size 3 to 8) (size 9 to 14) (size 15 to 20)
#    0.000    0.571    1.429    5.143   14.000    0.000 
#    0.000    0.000    0.000    0.000    0.000    0.000 
#    0.000    0.000    0.000    0.000    0.000    0.000 
#
# Total GULP energy -173496.360140 kJ/mol
# GULP energy per Si atom -12392.597153 kJ/mol
# Density = 2.251705 g / cm^3
# Si number density = 22.568414 Si / 1000 Ang^3
#
#
#
# Elastic Constant Matrix: (Units=GPa)
#
#
# Indices 1 2 3 4 5 6 
#
# 1 93.8168 45.1805 40.8098 -4.4185 7.0480 -11.7819
# 2 45.1805 174.3167 51.2747 -3.0725 -7.9870 -35.2737
# 3 40.8098 51.2747 120.8615 15.1309 -0.4346 -24.9591
# 4 -4.4185 -3.0725 15.1309 39.2638 -9.0657 -2.9375
# 5 7.0480 -7.9870 -0.4346 -9.0657 48.6918 -1.8762
# 6 -11.7819 -35.2737 -24.9591 -2.9375 -1.8762 50.9036
#
#
#
# Elastic Compliance Matrix: (Units=1/GPa)
#
#
# Indices 1 2 3 4 5 6 
#
# 1 0.013832 -0.002556 -0.003988 0.002390 -0.002030 -0.000462
# 2 -0.002556 0.007923 -0.001862 0.001861 0.002160 0.004173
# 3 -0.003988 -0.001862 0.011694 -0.004958 -0.000423 0.003219
# 4 0.002390 0.001861 -0.004958 0.029135 0.005389 0.001292
# 5 -0.002030 0.002160 -0.000423 0.005389 0.022260 0.001951
# 6 -0.000462 0.004173 0.003219 0.001292 0.001951 0.024154
#
#
# Mechanical properties :
#
#
# Convention : Reuss Voigt Hill
#
# Bulk Modulus (GPa) = 60.10552 73.72500 66.91526
# Shear Modulus (GPa) = 38.06443 44.55382 41.30912
#
# Velocity S-wave (km/s) = 4.11131 4.44798 4.28295
# Velocity P-wave (km/s) = 7.01623 7.68880 7.36020
#
# Compressibility (1/GPa) = 0.01663741
#
# Stress axis : x y z
#
# Youngs Moduli (GPa) = 72.29652 126.21483 85.51271
#
# Poissons Ratio (x) = 0.32266 0.34101
# Poissons Ratio (y) = 0.18482 0.15918
# Poissons Ratio (z) = 0.28831 0.23495
#
# Static dielectric constant tensor:
#      x y z
#    x 4.262900 0.062030 0.178090 
#    y 0.062030 4.362020 0.173800 
#    z 0.178090 0.173800 4.161160 
# 
# 
# High freq. dielectric constant tensor:
#      x y z
#    x 1.897040 -0.005480 0.007330 
#    y -0.005480 1.908470 0.005210 
#    z 0.007330 0.005210 1.897170 
# 
# From -- ./inp_files/183957.got.cif
#   From: 2010.06.25/outbox.cif.g09.slc.cpg/sg2_92_cif.got.tgz:183957.got - 2010.06.27 13:26:56.
