data_PCOD8026853
_publ_section_title
;
Structure prediction by ZEFSAII (Michael W. Deem and Ramdas Pophale) SiO2 
 PCOD8026853
Probable space group: P -1
;
_chemical_formula_sum "Si O2"
_cell_formula_units_Z 16
_cell_length_a 11.952763
_cell_length_b 8.945995
_cell_length_c 15.573372
_cell_angle_alpha 77.854317
_cell_angle_beta 151.993228
_cell_angle_gamma 110.187773
_cell_volume 716.931656
_symmetry_space_group_name_H-M "P -1"
_symmetry_group_IT_number 2
_symmetry_cell_setting 'triclinic'
loop_
_space_group_symop_operation_xyz
x,y,z
-x,-y,-z
loop_
_atom_site_type_symbol
_atom_site_label
_atom_site_fract_x
_atom_site_fract_y
_atom_site_fract_z
Si Si1 0.878320 0.490837 0.509369
Si Si2 0.680263 0.665774 0.678621
Si Si3 0.622340 0.369731 0.071497
Si Si4 0.233491 0.722124 0.997346
Si Si5 0.436098 0.167694 0.269219
Si Si6 0.701945 0.931251 0.541611
Si Si7 0.574344 0.660097 0.366446
Si Si8 0.737751 0.923438 0.028660
O O1 0.713654 0.303609 0.434898
O O2 0.715435 0.609808 0.389008
O O3 0.000000 0.500000 0.500000
O O4 0.085673 0.557911 0.714489
O O5 0.741431 0.762682 0.800118
O O6 0.561953 0.780157 0.529566
O O7 0.486515 0.480787 0.583290
O O8 0.928883 0.656779 0.800700
O O9 0.465018 0.204287 0.033086
O O10 0.500000 0.500000 0.000000
O O11 0.636710 0.347129 0.982060
O O12 0.316136 0.670687 0.150897
O O13 0.332934 0.915797 0.029595
O O14 0.294303 0.129866 0.086416
O O15 0.496408 0.016977 0.371762
O O16 0.746893 0.837414 0.497953
O O17 0.973218 0.049465 0.748064
#
# Coordination Sequence:
#
# PCOD8026853 Si02
#       8
#     2   2   2   2   2   2   2   2
#     4  11  22  41  67  95 131 172 221 272 327 390
#     4  10  24  43  69  94 136 175 220 276 326 394
#     4  12  25  44  70  98 132 173 225 274 330 397
#     4  11  24  44  67 100 134 177 218 273 335 392
#     4  11  23  45  68 100 135 176 220 271 332 393
#     4  11  23  43  67 101 129 177 221 269 338 388
#     4  11  23  43  67  97 133 174 224 274 328 393
#     4  11  24  45  68  98 139 173 218 275 329 394
#
# _framework density 22.317328
#
# number of rings (size 3 to 8) (size 9 to 14) (size 15 to 20)
#    0.000    1.000    2.500    4.500    1.750    3.000 
#    2.250    1.875    0.000    0.000    0.000    0.000 
#    0.000    0.000    0.000    0.000    0.000    0.000 
#
# Total GULP energy -198316.078994 kJ/mol
# GULP energy per Si atom -12394.754937 kJ/mol
# Density = 2.226653 g / cm^3
# Si number density = 22.317328 Si / 1000 Ang^3
#
#
#
# Elastic Constant Matrix: (Units=GPa)
#
#
# Indices 1 2 3 4 5 6 
#
# 1 102.2512 30.7774 13.0171 -0.1435 6.1769 -9.0211
# 2 30.7774 101.2053 37.8318 6.3336 10.3964 -5.0098
# 3 13.0171 37.8318 102.3377 4.2118 -6.2084 6.4770
# 4 -0.1435 6.3336 4.2118 35.1934 -3.7839 -5.4328
# 5 6.1769 10.3964 -6.2084 -3.7839 29.3982 -3.5382
# 6 -9.0211 -5.0098 6.4770 -5.4328 -3.5382 35.3382
#
#
#
# Elastic Compliance Matrix: (Units=1/GPa)
#
#
# Indices 1 2 3 4 5 6 
#
# 1 0.011032 -0.002981 -0.000559 0.000938 -0.000955 0.002545
# 2 -0.002981 0.013338 -0.004852 -0.002220 -0.005262 0.001151
# 3 -0.000559 -0.004852 0.012074 -0.000568 0.003981 -0.002732
# 4 0.000938 -0.002220 -0.000568 0.030220 0.004980 0.005173
# 5 -0.000955 -0.005262 0.003981 0.004980 0.037901 0.002841
# 6 0.002545 0.001151 -0.002732 0.005173 0.002841 0.030691
#
#
# Mechanical properties :
#
#
# Convention : Reuss Voigt Hill
#
# Bulk Modulus (GPa) = 50.86458 52.11630 51.49044
# Shear Modulus (GPa) = 31.52734 34.93049 33.22891
#
# Velocity S-wave (km/s) = 3.76265 3.96052 3.86285
# Velocity P-wave (km/s) = 6.45892 6.65713 6.55877
#
# Compressibility (1/GPa) = 0.01966005
#
# Stress axis : x y z
#
# Youngs Moduli (GPa) = 90.64840 74.97585 82.82098
#
# Poissons Ratio (x) = 0.22347 0.04629
# Poissons Ratio (y) = 0.27018 0.40187
# Poissons Ratio (z) = 0.05067 0.36380
#
# Static dielectric constant tensor:
#      x y z
#    x 4.051140 -0.058470 -0.556990 
#    y -0.058470 4.229280 -0.109080 
#    z -0.556990 -0.109080 3.712060 
# 
# 
# High freq. dielectric constant tensor:
#      x y z
#    x 1.885080 -0.010900 -0.015580 
#    y -0.010900 1.891560 0.002160 
#    z -0.015580 0.002160 1.876100 
# 
# From -- ./inp_files/282947.got.cif
#   From: 2010.06.25/outbox.cif.g09.slc.cpg/sg2_142_cif.got.tgz:282947.got - 2010.06.27 13:26:56.
