data_PCOD8026734
_publ_section_title
;
Structure prediction by ZEFSAII (Michael W. Deem and Ramdas Pophale) SiO2 
 PCOD8026734
Probable space group: P -1
;
_chemical_formula_sum "Si O2"
_cell_formula_units_Z 16
_cell_length_a 5.340942
_cell_length_b 13.298097
_cell_length_c 14.399246
_cell_angle_alpha 63.796471
_cell_angle_beta 114.871385
_cell_angle_gamma 76.127341
_cell_volume 709.719423
_symmetry_space_group_name_H-M "P -1"
_symmetry_group_IT_number 2
_symmetry_cell_setting 'triclinic'
loop_
_space_group_symop_operation_xyz
x,y,z
-x,-y,-z
loop_
_atom_site_type_symbol
_atom_site_label
_atom_site_fract_x
_atom_site_fract_y
_atom_site_fract_z
Si Si1 0.119941 0.767102 0.745677
Si Si2 0.755952 0.735715 0.555130
Si Si3 0.217956 0.528778 0.374745
Si Si4 0.938184 0.282018 0.880460
Si Si5 0.602026 0.935029 0.288276
Si Si6 0.402687 0.214565 0.823549
Si Si7 0.152933 0.952421 0.442995
Si Si8 0.779459 0.762920 0.864975
O O1 0.479744 0.741440 0.816130
O O2 0.089046 0.710941 0.663051
O O3 0.035162 0.700755 0.844583
O O4 0.842791 0.922743 0.647656
O O5 0.793983 0.600225 0.589831
O O6 0.605463 0.834390 0.404691
O O7 0.496137 0.817514 0.563167
O O8 0.500000 0.500000 0.500000
O O9 0.276203 0.579642 0.264619
O O10 0.875436 0.642266 0.318610
O O11 0.737892 0.209738 0.890807
O O12 0.272082 0.190828 0.910855
O O13 0.025910 0.314046 0.981105
O O14 0.539430 0.898962 0.191635
O O15 0.950462 0.918920 0.354053
O O16 0.328467 0.085211 0.202716
O O17 0.000000 0.000000 0.500000
#
# Coordination Sequence:
#
# PCOD8026734 Si02
#       8
#     2   2   2   2   2   2   2   2
#     4  11  23  40  64  99 127 172 210 269 326 386
#     4  12  22  39  65  97 135 170 217 265 329 384
#     4  10  24  44  67  95 130 172 218 268 325 376
#     4  10  24  47  65  90 133 171 218 274 318 374
#     4  11  23  35  67  97 132 172 211 265 333 388
#     4  10  24  43  66  96 129 167 219 271 316 386
#     4  11  21  38  59  99 143 164 207 266 331 387
#     4  11  24  43  67  92 133 170 217 266 327 389
#
# _framework density 22.544121000000001
#
# number of rings (size 3 to 8) (size 9 to 14) (size 15 to 20)
#    0.750    0.500    2.500    4.125    1.750    4.000 
#    0.000    1.250    0.000    0.000    0.000    0.000 
#    0.000    0.000    0.000    0.000    0.000    0.000 
#
# Total GULP energy -198295.143922 kJ/mol
# GULP energy per Si atom -12393.446495 kJ/mol
# Density = 2.249281 g / cm^3
# Si number density = 22.544121 Si / 1000 Ang^3
#
#
#
# Elastic Constant Matrix: (Units=GPa)
#
#
# Indices 1 2 3 4 5 6 
#
# 1 113.4942 29.4007 26.4048 8.2328 -5.2496 16.1903
# 2 29.4007 86.2951 8.4956 12.6622 15.2340 29.7733
# 3 26.4048 8.4956 101.0970 19.8822 -2.6382 15.7861
# 4 8.2328 12.6622 19.8822 24.6817 6.4132 7.2881
# 5 -5.2496 15.2340 -2.6382 6.4132 29.9342 8.9329
# 6 16.1903 29.7733 15.7861 7.2881 8.9329 29.8620
#
#
#
# Elastic Compliance Matrix: (Units=1/GPa)
#
#
# Indices 1 2 3 4 5 6 
#
# 1 0.010709 -0.003151 -0.001829 -0.000778 0.004323 -0.002801
# 2 -0.003151 0.019712 0.002705 -0.005170 -0.004209 -0.016854
# 3 -0.001829 0.002705 0.013464 -0.010449 0.003953 -0.007455
# 4 -0.000778 -0.005170 -0.010449 0.054249 -0.010333 0.000952
# 5 0.004323 -0.004209 0.003953 -0.010333 0.041930 -0.010258
# 6 -0.002801 -0.016854 -0.007455 0.000952 -0.010258 0.058588
#
#
# Mechanical properties :
#
#
# Convention : Reuss Voigt Hill
#
# Bulk Modulus (GPa) = 25.42233 47.72097 36.57165
# Shear Modulus (GPa) = 23.11468 32.66792 27.89130
#
# Velocity S-wave (km/s) = 3.20552 3.81079 3.52118
# Velocity P-wave (km/s) = 5.00016 6.36998 5.72618
#
# Compressibility (1/GPa) = 0.03933549
#
# Stress axis : x y z
#
# Youngs Moduli (GPa) = 93.38146 50.73042 74.27139
#
# Poissons Ratio (x) = 0.15986 0.13584
# Poissons Ratio (y) = 0.29425 -0.20093
# Poissons Ratio (z) = 0.17079 -0.13724
#
# Static dielectric constant tensor:
#      x y z
#    x 4.062600 0.173570 0.040720 
#    y 0.173570 3.873950 0.134540 
#    z 0.040720 0.134540 4.284180 
# 
# 
# High freq. dielectric constant tensor:
#      x y z
#    x 1.889750 0.015600 -0.004100 
#    y 0.015600 1.874160 0.019780 
#    z -0.004100 0.019780 1.884680 
# 
# From -- ./inp_files/483888.got.cif
#   From: 2010.06.25/outbox.cif.g09.slc.cpg/sg2_242_cif.got.tgz:483888.got - 2010.06.27 13:26:56.
