data_PCOD8026372
_publ_section_title
;
Structure prediction by ZEFSAII (Michael W. Deem and Ramdas Pophale) SiO2 
 PCOD8026372
Probable space group: P -1
;
_chemical_formula_sum "Si O2"
_cell_formula_units_Z 14
_cell_length_a 8.311506
_cell_length_b 21.294189
_cell_length_c 14.307137
_cell_angle_alpha 147.297646
_cell_angle_beta 30.280973
_cell_angle_gamma 146.000677
_cell_volume 639.285684
_symmetry_space_group_name_H-M "P -1"
_symmetry_group_IT_number 2
_symmetry_cell_setting 'triclinic'
loop_
_space_group_symop_operation_xyz
x,y,z
-x,-y,-z
loop_
_atom_site_type_symbol
_atom_site_label
_atom_site_fract_x
_atom_site_fract_y
_atom_site_fract_z
Si Si1 0.875512 0.511749 0.855796
Si Si2 0.121578 0.746689 0.157629
Si Si3 0.037401 0.596867 0.684504
Si Si4 0.709056 0.955045 0.409969
Si Si5 0.602953 0.832453 0.619759
Si Si6 0.539432 0.296495 0.875997
Si Si7 0.627810 0.005003 0.185652
O O1 0.852093 0.384987 0.762954
O O2 0.084095 0.535583 0.683339
O O3 0.500000 0.500000 0.000000
O O4 0.055423 0.623590 0.977642
O O5 0.304017 0.743336 0.161027
O O6 0.766896 0.767326 0.379433
O O7 0.364704 0.863664 0.120371
O O8 0.373534 0.724024 0.668029
O O9 0.000000 0.500000 0.500000
O O10 0.691674 0.625097 0.883327
O O11 0.700754 0.821075 0.212286
O O12 0.516744 0.942690 0.588883
O O13 0.500000 0.000000 0.500000
O O14 0.096498 0.056053 0.339152
O O15 0.356170 0.897119 0.780979
O O16 0.000000 0.000000 0.000000
#
# Coordination Sequence:
#
# PCOD8026372 Si02
#       7
#     2   2   2   2   2   2   2
#     4  10  24  41  69  93 129 180 226 272 333 399
#     4  11  22  46  66 102 131 181 224 275 344 399
#     4  11  26  45  65 100 134 178 234 282 333 395
#     4  11  23  43  68 102 136 177 224 272 346 399
#     4  11  24  41  71  96 141 176 222 278 339 402
#     4  11  23  45  70  95 140 178 225 281 331 408
#     4  11  25  42  68 101 140 173 221 282 335 408
#
# _framework density 21.899442000000001
#
# number of rings (size 3 to 8) (size 9 to 14) (size 15 to 20)
#    0.000    1.143    2.857    4.714   10.000    1.714 
#    0.000    1.429    0.000    0.000    0.000    0.000 
#    0.000    0.000    0.000    0.000    0.000    0.000 
#
# Total GULP energy -173556.563539 kJ/mol
# GULP energy per Si atom -12396.897396 kJ/mol
# Density = 2.184960 g / cm^3
# Si number density = 21.899442 Si / 1000 Ang^3
#
#
#
# Elastic Constant Matrix: (Units=GPa)
#
#
# Indices 1 2 3 4 5 6 
#
# 1 86.6553 47.6101 38.5287 5.4929 13.1652 7.3577
# 2 47.6101 162.8238 50.4084 3.2528 25.2133 -11.0524
# 3 38.5287 50.4084 90.2689 12.2986 4.7544 8.2255
# 4 5.4929 3.2528 12.2986 40.1026 12.3728 3.1409
# 5 13.1652 25.2133 4.7544 12.3728 43.1189 7.5917
# 6 7.3577 -11.0524 8.2255 3.1409 7.5917 33.1996
#
#
#
# Elastic Compliance Matrix: (Units=1/GPa)
#
#
# Indices 1 2 3 4 5 6 
#
# 1 0.015872 -0.003040 -0.004757 0.000423 -0.002155 -0.002898
# 2 -0.003040 0.009837 -0.004786 0.002480 -0.006117 0.006298
# 3 -0.004757 -0.004786 0.016712 -0.005158 0.004820 -0.005294
# 4 0.000423 0.002480 -0.005158 0.029113 -0.009621 0.001455
# 5 -0.002155 -0.006117 0.004820 -0.009621 0.031238 -0.008986
# 6 -0.002898 0.006298 -0.005294 0.001455 -0.008986 0.036088
#
#
# Mechanical properties :
#
#
# Convention : Reuss Voigt Hill
#
# Bulk Modulus (GPa) = 57.94946 68.09362 63.02154
# Shear Modulus (GPa) = 29.45035 36.83093 33.14064
#
# Velocity S-wave (km/s) = 3.67113 4.10545 3.89435
# Velocity P-wave (km/s) = 6.66998 7.32354 7.00439
#
# Compressibility (1/GPa) = 0.01725642
#
# Stress axis : x y z
#
# Youngs Moduli (GPa) = 63.00481 101.65539 59.83693
#
# Poissons Ratio (x) = 0.30899 0.28465
# Poissons Ratio (y) = 0.19151 0.28635
# Poissons Ratio (z) = 0.29972 0.48648
#
# Static dielectric constant tensor:
#      x y z
#    x 3.800640 -0.381940 -0.061530 
#    y -0.381940 4.439160 -0.032990 
#    z -0.061530 -0.032990 3.792900 
# 
# 
# High freq. dielectric constant tensor:
#      x y z
#    x 1.860570 -0.006620 0.002180 
#    y -0.006620 1.882610 0.011410 
#    z 0.002180 0.011410 1.851130 
# 
# From -- ./inp_files/244966.got.cif
#   From: 2010.06.25/outbox.cif.g09.slc.cpg/sg2_123_cif.got.tgz:244966.got - 2010.06.27 13:26:56.
