data_PCOD8026907
_publ_section_title
;
Structure prediction by ZEFSAII (Michael W. Deem and Ramdas Pophale) SiO2 
 PCOD8026907
Probable space group: P -1
;
_chemical_formula_sum "Si O2"
_cell_formula_units_Z 12
_cell_length_a 5.541925
_cell_length_b 6.541162
_cell_length_c 14.666074
_cell_angle_alpha 101.286892
_cell_angle_beta 91.167686
_cell_angle_gamma 110.461189
_cell_volume 486.191484
_symmetry_space_group_name_H-M "P -1"
_symmetry_group_IT_number 2
_symmetry_cell_setting 'triclinic'
loop_
_space_group_symop_operation_xyz
x,y,z
-x,-y,-z
loop_
_atom_site_type_symbol
_atom_site_label
_atom_site_fract_x
_atom_site_fract_y
_atom_site_fract_z
Si Si1 0.679003 0.170054 0.608753
Si Si2 0.536516 0.711744 0.643669
Si Si3 0.609129 0.322858 0.946164
Si Si4 0.782698 0.546640 0.778025
Si Si5 0.795979 0.724783 0.472344
Si Si6 0.844494 0.119009 0.066405
O O1 0.834001 0.389585 0.687777
O O2 0.443229 0.191010 0.549536
O O3 0.908706 0.126578 0.545700
O O4 0.540850 0.963116 0.658053
O O5 0.581026 0.651452 0.743225
O O6 0.774838 0.701627 0.579892
O O7 0.268091 0.524451 0.590885
O O8 0.680893 0.388680 0.849506
O O9 0.420562 0.065548 0.920276
O O10 0.500000 0.500000 0.000000
O O11 0.832432 0.316467 0.016610
O O12 0.028002 0.760709 0.828285
O O13 0.000000 0.000000 0.000000
#
# Coordination Sequence:
#
# PCOD8026907 Si02
#       6
#     2   2   2   2   2   2
#     4  11  25  44  71 101 143 184 234 286 341 414
#     4  10  24  43  71 101 142 179 232 285 344 411
#     4  11  25  45  69  98 132 177 230 285 351 417
#     4  11  26  41  67 106 130 174 230 287 338 414
#     4  10  24  46  69 102 139 191 231 279 348 413
#     4  11  25  45  72  92 133 183 224 282 351 417
#
# _framework density 24.681635
#
# number of rings (size 3 to 8) (size 9 to 14) (size 15 to 20)
#    0.000    1.333    1.667    1.500    2.333   15.333 
#    0.000    0.000    0.000    0.000    0.000    0.000 
#    0.000    0.000    0.000    0.000    0.000    0.000 
#
# Total GULP energy -148689.444921 kJ/mol
# GULP energy per Si atom -12390.787077 kJ/mol
# Density = 2.462546 g / cm^3
# Si number density = 24.681635 Si / 1000 Ang^3
#
#
#
# Elastic Constant Matrix: (Units=GPa)
#
#
# Indices 1 2 3 4 5 6 
#
# 1 77.5749 30.0155 38.4607 15.7387 -4.5863 -6.9927
# 2 30.0155 122.3552 14.1619 -13.5149 14.1074 -10.1585
# 3 38.4607 14.1619 92.0806 -10.0594 24.9266 -6.3084
# 4 15.7387 -13.5149 -10.0594 41.5152 6.8123 -6.1574
# 5 -4.5863 14.1074 24.9266 6.8123 34.9463 5.1063
# 6 -6.9927 -10.1585 -6.3084 -6.1574 5.1063 44.6605
#
#
#
# Elastic Compliance Matrix: (Units=1/GPa)
#
#
# Indices 1 2 3 4 5 6 
#
# 1 0.052592 -0.021235 -0.040028 -0.047929 0.055592 -0.015214
# 2 -0.021235 0.018182 0.017109 0.024248 -0.028493 0.009828
# 3 -0.040028 0.017109 0.045935 0.043478 -0.055809 0.016488
# 4 -0.047929 0.024248 0.043478 0.074562 -0.064818 0.021843
# 5 0.055592 -0.028493 -0.055809 -0.064818 0.103722 -0.026455
# 6 -0.015214 0.009828 0.016488 0.021843 -0.026455 0.030610
#
#
# Mechanical properties :
#
#
# Convention : Reuss Voigt Hill
#
# Bulk Modulus (GPa) = 35.21220 50.80964 43.01092
# Shear Modulus (GPa) = 11.80976 38.18257 24.99616
#
# Velocity S-wave (km/s) = 2.18980 3.93746 3.18582
# Velocity P-wave (km/s) = 4.54875 6.42668 5.56747
#
# Compressibility (1/GPa) = 0.02839924
#
# Stress axis : x y z
#
# Youngs Moduli (GPa) = 19.01433 55.00090 21.76981
#
# Poissons Ratio (x) = 1.16796 0.87141
# Poissons Ratio (y) = 0.40378 -0.37246
# Poissons Ratio (z) = 0.76111 -0.94100
#
# Static dielectric constant tensor:
#      x y z
#    x 4.169180 0.098170 -0.151050 
#    y 0.098170 5.070730 -0.616650 
#    z -0.151050 -0.616650 2.347930 
# 
# 
# High freq. dielectric constant tensor:
#      x y z
#    x 1.960580 0.009370 0.016060 
#    y 0.009370 2.026560 0.004570 
#    z 0.016060 0.004570 1.978590 
# 
# From -- ./inp_files/478280.got.cif
#   From: 2010.06.25/outbox.cif.g09.slc.cpg/sg2_240_cif.got.tgz:478280.got - 2010.06.27 13:26:56.
