data_PCOD8026999
_publ_section_title
;
Structure prediction by ZEFSAII (Michael W. Deem and Ramdas Pophale) SiO2 
 PCOD8026999
Probable space group: P -1
;
_chemical_formula_sum "Si O2"
_cell_formula_units_Z 14
_cell_length_a 8.625380
_cell_length_b 9.175640
_cell_length_c 12.462675
_cell_angle_alpha 78.526151
_cell_angle_beta 124.461399
_cell_angle_gamma 122.433096
_cell_volume 678.601204
_symmetry_space_group_name_H-M "P -1"
_symmetry_group_IT_number 2
_symmetry_cell_setting 'triclinic'
loop_
_space_group_symop_operation_xyz
x,y,z
-x,-y,-z
loop_
_atom_site_type_symbol
_atom_site_label
_atom_site_fract_x
_atom_site_fract_y
_atom_site_fract_z
Si Si1 0.931931 0.203001 0.905049
Si Si2 0.919138 0.016231 0.310543
Si Si3 0.982607 0.240499 0.503246
Si Si4 0.814122 0.857874 0.809202
Si Si5 0.560652 0.159808 0.923326
Si Si6 0.679017 0.384429 0.345919
Si Si7 0.305185 0.535770 0.905541
O O1 0.744502 0.204032 0.900340
O O2 0.060591 0.367590 0.852169
O O3 0.812836 0.031326 0.810766
O O4 0.121367 0.209195 0.051583
O O5 0.657235 0.879775 0.220376
O O6 0.033903 0.907574 0.402327
O O7 0.977823 0.173745 0.391127
O O8 0.010340 0.107312 0.218877
O O9 0.781836 0.270647 0.442310
O O10 0.206666 0.425801 0.582780
O O11 0.571358 0.711401 0.697556
O O12 0.657324 0.327162 0.010036
O O13 0.500000 0.000000 0.000000
O O14 0.693259 0.392089 0.221723
O O15 0.500000 0.500000 0.000000
#
# Coordination Sequence:
#
# PCOD8026999 Si02
#       7
#     2   2   2   2   2   2   2
#     4  11  23  38  60 103 130 162 200 253 331 381
#     4  11  23  42  65  91 125 168 209 261 306 373
#     4  10  24  44  62  86 124 172 218 250 308 362
#     4  11  22  38  66  94 128 162 209 261 313 375
#     4  12  23  40  66  96 131 162 203 262 321 374
#     4  11  23  42  65  91 125 168 209 261 306 373
#     4  12  23  40  66  96 131 162 203 262 321 374
#
# _framework density 20.630671
#
# number of rings (size 3 to 8) (size 9 to 14) (size 15 to 20)
#    0.000    0.857    2.857    5.571    0.000    1.143 
#    0.000    5.714    0.000    0.000    0.000    0.000 
#    0.000    0.000    0.000    0.000    0.000    0.000 
#
# Total GULP energy -173663.559014 kJ/mol
# GULP energy per Si atom -12404.539930 kJ/mol
# Density = 2.058372 g / cm^3
# Si number density = 20.630671 Si / 1000 Ang^3
#
#
#
# Elastic Constant Matrix: (Units=GPa)
#
#
# Indices 1 2 3 4 5 6 
#
# 1 76.6351 33.9889 3.5606 -0.2168 10.8772 12.7316
# 2 33.9889 79.0484 18.4332 16.9254 4.6648 3.5151
# 3 3.5606 18.4332 71.7057 14.6311 7.6909 -0.7554
# 4 -0.2168 16.9254 14.6311 31.5798 2.7965 -0.3946
# 5 10.8772 4.6648 7.6909 2.7965 32.5925 9.1330
# 6 12.7316 3.5151 -0.7554 -0.3946 9.1330 37.7444
#
#
#
# Elastic Compliance Matrix: (Units=1/GPa)
#
#
# Indices 1 2 3 4 5 6 
#
# 1 0.018108 -0.008523 0.000747 0.004666 -0.004215 -0.004231
# 2 -0.008523 0.018757 -0.002710 -0.008971 0.001388 0.000644
# 3 0.000747 -0.002710 0.016156 -0.005704 -0.003495 0.001110
# 4 0.004666 -0.008971 -0.005704 0.039357 -0.002339 0.000125
# 5 -0.004215 0.001388 -0.003495 -0.002339 0.034949 -0.007259
# 6 -0.004231 0.000644 0.001110 0.000125 -0.007259 0.029641
#
#
# Mechanical properties :
#
#
# Convention : Reuss Voigt Hill
#
# Bulk Modulus (GPa) = 31.20158 37.70604 34.45381
# Shear Modulus (GPa) = 26.50770 31.81042 29.15906
#
# Velocity S-wave (km/s) = 3.58839 3.93096 3.76358
# Velocity P-wave (km/s) = 5.68555 6.23856 5.96846
#
# Compressibility (1/GPa) = 0.03204966
#
# Stress axis : x y z
#
# Youngs Moduli (GPa) = 55.22314 53.31273 61.89647
#
# Poissons Ratio (x) = 0.45436 -0.04624
# Poissons Ratio (y) = 0.47065 0.16776
# Poissons Ratio (z) = -0.04125 0.14450
#
# Static dielectric constant tensor:
#      x y z
#    x 3.644850 -0.020120 0.092570 
#    y -0.020120 3.694370 0.045180 
#    z 0.092570 0.045180 3.881890 
# 
# 
# High freq. dielectric constant tensor:
#      x y z
#    x 1.809130 -0.006670 0.002150 
#    y -0.006670 1.814150 0.009990 
#    z 0.002150 0.009990 1.813230 
# 
# From -- ./inp_files/158009.got.cif
#   From: 2010.06.25/outbox.cif.g09.slc.cpg/sg2_80_cif.got.tgz:158009.got - 2010.06.27 13:26:56.
