data_PCOD8026245
_publ_section_title
;
Structure prediction by ZEFSAII (Michael W. Deem and Ramdas Pophale) SiO2 
 PCOD8026245
Probable space group: P -1
;
_chemical_formula_sum "Si O2"
_cell_formula_units_Z 16
_cell_length_a 22.217747
_cell_length_b 7.915499
_cell_length_c 14.145498
_cell_angle_alpha 143.201638
_cell_angle_beta 150.133262
_cell_angle_gamma 53.322821
_cell_volume 701.651825
_symmetry_space_group_name_H-M "P -1"
_symmetry_group_IT_number 2
_symmetry_cell_setting 'triclinic'
loop_
_space_group_symop_operation_xyz
x,y,z
-x,-y,-z
loop_
_atom_site_type_symbol
_atom_site_label
_atom_site_fract_x
_atom_site_fract_y
_atom_site_fract_z
Si Si1 0.890366 0.715892 0.762918
Si Si2 0.807586 0.880281 0.386854
Si Si3 0.714637 0.227145 0.954267
Si Si4 0.232091 0.888189 0.758527
Si Si5 0.093593 0.010359 0.798717
Si Si6 0.469075 0.146039 0.318105
Si Si7 0.887075 0.351893 0.868263
Si Si8 0.278597 0.914519 0.306764
O O1 0.845516 0.464788 0.508294
O O2 0.761900 0.797114 0.650885
O O3 0.958172 0.599789 0.892155
O O4 0.000000 0.000000 0.000000
O O5 0.745960 0.992984 0.264906
O O6 0.815145 0.089057 0.581310
O O7 0.717753 0.547549 0.143941
O O8 0.942083 0.859622 0.524251
O O9 0.599671 0.952743 0.718066
O O10 0.701416 0.252033 0.835000
O O11 0.849117 0.184031 0.142778
O O12 0.150884 0.034933 0.781335
O O13 0.373716 0.956058 0.023491
O O14 0.130268 0.336578 0.042688
O O15 0.500000 0.500000 0.500000
O O16 0.592793 0.036463 0.434770
O O17 0.836402 0.284221 0.875331
#
# Coordination Sequence:
#
# PCOD8026245 Si02
#       8
#     2   2   2   2   2   2   2   2
#     4  10  24  40  69 103 144 175 228 277 345 404
#     4  12  24  40  66 105 146 174 227 281 343 410
#     4  11  25  41  72 104 129 175 238 279 339 412
#     4  11  25  43  70 102 138 186 234 276 339 408
#     4  11  23  40  69  99 144 183 224 275 349 405
#     4  11  25  49  73  96 133 178 238 287 331 409
#     4  11  24  43  67 104 144 182 220 280 346 411
#     4  11  24  44  72  94 138 182 228 277 348 385
#
# _framework density 22.803332999999999
#
# number of rings (size 3 to 8) (size 9 to 14) (size 15 to 20)
#    0.000    1.000    1.250    5.250   12.250    0.500 
#    0.000    0.625    0.000    0.000    0.000    0.000 
#    0.000    0.000    0.000    0.000    0.000    0.000 
#
# Total GULP energy -198311.996812 kJ/mol
# GULP energy per Si atom -12394.499801 kJ/mol
# Density = 2.275143 g / cm^3
# Si number density = 22.803333 Si / 1000 Ang^3
#
#
#
# Elastic Constant Matrix: (Units=GPa)
#
#
# Indices 1 2 3 4 5 6 
#
# 1 93.0545 26.4144 45.9760 9.1612 -8.8653 8.9944
# 2 26.4144 114.7232 62.0656 3.2182 -6.6462 -14.5030
# 3 45.9760 62.0656 145.4050 16.2347 -15.6168 -2.7856
# 4 9.1612 3.2182 16.2347 49.2086 -0.5102 3.3902
# 5 -8.8653 -6.6462 -15.6168 -0.5102 32.1708 -1.3042
# 6 8.9944 -14.5030 -2.7856 3.3902 -1.3042 34.2174
#
#
#
# Elastic Compliance Matrix: (Units=1/GPa)
#
#
# Indices 1 2 3 4 5 6 
#
# 1 0.013573 -0.001754 -0.003350 -0.000986 0.001556 -0.004427
# 2 -0.001754 0.012286 -0.004667 0.000703 0.000012 0.005219
# 3 -0.003350 -0.004667 0.010558 -0.002530 0.003203 0.000135
# 4 -0.000986 0.000703 -0.002530 0.021407 -0.001089 -0.001811
# 5 0.001556 0.000012 0.003203 -0.001089 0.033103 0.001226
# 6 -0.004427 0.005219 0.000135 -0.001811 0.001226 0.032838
#
#
# Mechanical properties :
#
#
# Convention : Reuss Voigt Hill
#
# Bulk Modulus (GPa) = 59.26370 69.12164 64.19267
# Shear Modulus (GPa) = 33.57210 37.70113 35.63662
#
# Velocity S-wave (km/s) = 3.84115 4.07051 3.95749
# Velocity P-wave (km/s) = 6.76151 7.24362 7.00671
#
# Compressibility (1/GPa) = 0.01687374
#
# Stress axis : x y z
#
# Youngs Moduli (GPa) = 73.67579 81.39262 94.71610
#
# Poissons Ratio (x) = 0.14279 0.31734
# Poissons Ratio (y) = 0.12925 0.44202
# Poissons Ratio (z) = 0.24685 0.37984
#
# Static dielectric constant tensor:
#      x y z
#    x 3.988550 0.097820 -0.021620 
#    y 0.097820 4.773100 -0.073320 
#    z -0.021620 -0.073320 4.130950 
# 
# 
# High freq. dielectric constant tensor:
#      x y z
#    x 1.887510 0.012270 -0.008630 
#    y 0.012270 1.915280 -0.000090 
#    z -0.008630 -0.000090 1.893480 
# 
# From -- ./inp_files/542698.got.cif
#   From: 2010.06.25/outbox.cif.g09.slc.cpg/sg2_272_cif.got.tgz:542698.got - 2010.06.27 13:26:56.
