data_PCOD8026231
_publ_section_title
;
Structure prediction by ZEFSAII (Michael W. Deem and Ramdas Pophale) SiO2 
 PCOD8026231
Probable space group: P -1
;
_chemical_formula_sum "Si O2"
_cell_formula_units_Z 14
_cell_length_a 6.486400
_cell_length_b 19.567399
_cell_length_c 20.479601
_cell_angle_alpha 20.210410
_cell_angle_beta 63.749527
_cell_angle_gamma 52.001664
_cell_volume 613.849310
_symmetry_space_group_name_H-M "P -1"
_symmetry_group_IT_number 2
_symmetry_cell_setting 'triclinic'
loop_
_space_group_symop_operation_xyz
x,y,z
-x,-y,-z
loop_
_atom_site_type_symbol
_atom_site_label
_atom_site_fract_x
_atom_site_fract_y
_atom_site_fract_z
Si Si1 0.906831 0.387129 0.212913
Si Si2 0.747207 0.498915 0.996577
Si Si3 0.712453 0.245814 0.550426
Si Si4 0.604302 0.573108 0.697650
Si Si5 0.291039 0.093117 0.543041
Si Si6 0.740748 0.940053 0.935845
Si Si7 0.658470 0.185707 0.859195
O O1 0.578818 0.521539 0.168138
O O2 0.993315 0.574952 0.025253
O O3 0.165503 0.146347 0.438190
O O4 0.900101 0.309891 0.207823
O O5 0.580257 0.793665 0.778464
O O6 0.500000 0.500000 0.000000
O O7 0.564919 0.247060 0.503323
O O8 0.491407 0.520013 0.371717
O O9 0.033901 0.168712 0.561794
O O10 0.760134 0.030097 0.782309
O O11 0.615607 0.733848 0.607945
O O12 0.932667 0.322265 0.854612
O O13 0.628359 0.154211 0.814929
O O14 0.511274 0.885454 0.010424
O O15 0.000000 0.000000 0.000000
#
# Coordination Sequence:
#
# PCOD8026231 Si02
#       7
#     2   2   2   2   2   2   2
#     4  10  24  40  67  93 128 167 215 268 321 387
#     4  11  24  43  65  97 129 171 219 264 329 388
#     4  11  24  42  66  99 128 178 220 265 332 387
#     4  11  23  43  63  97 131 171 222 271 324 388
#     4  11  24  42  65  93 133 169 217 269 325 388
#     4  11  24  42  68  91 137 172 216 277 324 385
#     4  11  23  44  66  97 131 171 224 270 325 390
#
# _framework density 22.806901
#
# number of rings (size 3 to 8) (size 9 to 14) (size 15 to 20)
#    0.000    1.143    2.857    2.571    0.000    8.571 
#    0.000    0.000    0.000    0.000    0.000    0.000 
#    0.000    0.000    0.000    0.000    0.000    0.000 
#
# Total GULP energy -173538.872806 kJ/mol
# GULP energy per Si atom -12395.633772 kJ/mol
# Density = 2.275499 g / cm^3
# Si number density = 22.806901 Si / 1000 Ang^3
#
#
#
# Elastic Constant Matrix: (Units=GPa)
#
#
# Indices 1 2 3 4 5 6 
#
# 1 155.2919 44.3050 27.6845 15.9482 0.3298 -20.3696
# 2 44.3050 86.4947 33.0504 19.2606 0.2770 -18.3627
# 3 27.6845 33.0504 62.8302 16.0415 6.2158 1.6906
# 4 15.9482 19.2606 16.0415 49.6051 5.5251 -2.9981
# 5 0.3298 0.2770 6.2158 5.5251 28.3865 1.3644
# 6 -20.3696 -18.3627 1.6906 -2.9981 1.3644 48.9982
#
#
#
# Elastic Compliance Matrix: (Units=1/GPa)
#
#
# Indices 1 2 3 4 5 6 
#
# 1 0.007933 -0.002626 -0.002018 -0.000784 0.000416 0.002324
# 2 -0.002626 0.017778 -0.007652 -0.003463 0.001939 0.005569
# 3 -0.002018 -0.007652 0.022207 -0.003406 -0.003882 -0.004573
# 4 -0.000784 -0.003463 -0.003406 0.023276 -0.003743 0.000022
# 5 0.000416 0.001939 -0.003882 -0.003743 0.036793 -0.000220
# 6 0.002324 0.005569 -0.004573 0.000022 -0.000220 0.023627
#
#
# Mechanical properties :
#
#
# Convention : Reuss Voigt Hill
#
# Bulk Modulus (GPa) = 42.87005 57.18851 50.02928
# Shear Modulus (GPa) = 30.49171 38.70310 34.59740
#
# Velocity S-wave (km/s) = 3.66040 4.12392 3.89906
# Velocity P-wave (km/s) = 6.05826 6.91413 6.50030
#
# Compressibility (1/GPa) = 0.02332631
#
# Stress axis : x y z
#
# Youngs Moduli (GPa) = 126.05903 56.25077 45.03175
#
# Poissons Ratio (x) = 0.14770 0.09086
# Poissons Ratio (y) = 0.33101 0.34458
# Poissons Ratio (z) = 0.25433 0.43043
#
# Static dielectric constant tensor:
#      x y z
#    x 4.326220 -0.199730 0.046360 
#    y -0.199730 4.287760 0.120480 
#    z 0.046360 0.120480 4.082460 
# 
# 
# High freq. dielectric constant tensor:
#      x y z
#    x 1.920340 -0.017540 0.014340 
#    y -0.017540 1.905410 0.012360 
#    z 0.014340 0.012360 1.885130 
# 
# From -- ./inp_files/10366.got.cif
#   From: 2010.06.25/outbox.cif.g09.slc.cpg/sg2_6_cif.got.tgz:10366.got - 2010.06.27 13:26:56.
