data_PCOD8026200
_publ_section_title
;
Structure prediction by ZEFSAII (Michael W. Deem and Ramdas Pophale) SiO2 
 PCOD8026200
Probable space group: P -1
;
_chemical_formula_sum "Si O2"
_cell_formula_units_Z 16
_cell_length_a 23.793943
_cell_length_b 11.674236
_cell_length_c 6.755648
_cell_angle_alpha 113.209686
_cell_angle_beta 124.701819
_cell_angle_gamma 31.016735
_cell_volume 775.234688
_symmetry_space_group_name_H-M "P -1"
_symmetry_group_IT_number 2
_symmetry_cell_setting 'triclinic'
loop_
_space_group_symop_operation_xyz
x,y,z
-x,-y,-z
loop_
_atom_site_type_symbol
_atom_site_label
_atom_site_fract_x
_atom_site_fract_y
_atom_site_fract_z
Si Si1 0.326112 0.621769 0.184041
Si Si2 0.089404 0.196658 0.586821
Si Si3 0.750548 0.008411 0.864946
Si Si4 0.830056 0.717596 0.484785
Si Si5 0.303723 0.507692 0.667409
Si Si6 0.383908 0.131211 0.729564
Si Si7 0.119129 0.885149 0.248827
Si Si8 0.484619 0.777075 0.421780
O O1 0.305175 0.801623 0.262680
O O2 0.219227 0.719772 0.163927
O O3 0.457385 0.388307 0.390220
O O4 0.321514 0.579752 0.924254
O O5 0.161638 0.197500 0.620184
O O6 0.947766 0.446570 0.525833
O O7 0.088536 0.074508 0.368915
O O8 0.160712 0.063559 0.844176
O O9 0.636181 0.114994 0.820077
O O10 0.829492 0.790187 0.743000
O O11 0.703421 0.828618 0.289249
O O12 0.299286 0.375455 0.654565
O O13 0.172986 0.731361 0.444624
O O14 0.421886 0.348120 0.655250
O O15 0.439937 0.979809 0.545530
O O16 0.500000 0.000000 0.000000
O O17 0.000000 0.000000 0.000000
#
# Coordination Sequence:
#
# PCOD8026200 Si02
#       8
#     2   2   2   2   2   2   2   2
#     4  11  22  42  63  95 132 165 214 266 323 391
#     4  11  23  45  67  93 130 173 216 268 326 383
#     4  11  22  41  67  95 129 167 219 264 322 389
#     4  10  25  43  64  96 130 172 218 269 320 380
#     4  11  24  43  64  97 128 174 216 259 335 386
#     4  11  23  43  68  94 135 172 217 270 321 390
#     4  11  26  44  67  97 131 168 218 272 324 386
#     4  10  24  40  64  96 130 170 212 270 323 384
#
# _framework density 20.638909000000002
#
# number of rings (size 3 to 8) (size 9 to 14) (size 15 to 20)
#    0.000    1.250    3.750    1.125    3.500    2.000 
#    9.000    0.000    0.000    0.000    0.000    0.000 
#    0.000    0.000    0.000    0.000    0.000    0.000 
#
# Total GULP energy -198450.204879 kJ/mol
# GULP energy per Si atom -12403.137805 kJ/mol
# Density = 2.059193 g / cm^3
# Si number density = 20.638909 Si / 1000 Ang^3
#
#
#
# Elastic Constant Matrix: (Units=GPa)
#
#
# Indices 1 2 3 4 5 6 
#
# 1 91.6706 41.3687 39.7423 -0.2203 7.5629 1.6817
# 2 41.3687 117.3343 38.5490 3.0961 7.2428 5.6950
# 3 39.7423 38.5490 100.6145 1.8540 14.6785 -6.1073
# 4 -0.2203 3.0961 1.8540 26.4511 -1.3417 -5.1949
# 5 7.5629 7.2428 14.6785 -1.3417 27.9378 -0.6153
# 6 1.6817 5.6950 -6.1073 -5.1949 -0.6153 38.3774
#
#
#
# Elastic Compliance Matrix: (Units=1/GPa)
#
#
# Indices 1 2 3 4 5 6 
#
# 1 0.014478 -0.003640 -0.004275 0.000674 -0.000713 -0.000695
# 2 -0.003640 0.010887 -0.002759 -0.001552 -0.000509 -0.002113
# 3 -0.004275 -0.002759 0.013616 -0.000418 -0.005244 0.002623
# 4 0.000674 -0.001552 -0.000418 0.039223 0.002444 0.005483
# 5 -0.000713 -0.000509 -0.005244 0.002444 0.038996 0.000228
# 6 -0.000695 -0.002113 0.002623 0.005483 0.000228 0.027564
#
#
# Mechanical properties :
#
#
# Convention : Reuss Voigt Hill
#
# Bulk Modulus (GPa) = 56.70842 60.99325 58.85084
# Shear Modulus (GPa) = 29.07142 31.21723 30.14432
#
# Velocity S-wave (km/s) = 3.75717 3.89336 3.82587
# Velocity P-wave (km/s) = 6.80866 7.05888 6.93490
#
# Compressibility (1/GPa) = 0.01763407
#
# Stress axis : x y z
#
# Youngs Moduli (GPa) = 69.07204 91.84907 73.44089
#
# Poissons Ratio (x) = 0.33434 0.31393
# Poissons Ratio (y) = 0.25143 0.20262
# Poissons Ratio (z) = 0.29525 0.25341
#
# Static dielectric constant tensor:
#      x y z
#    x 3.764660 0.101040 -0.078860 
#    y 0.101040 4.030660 -0.014950 
#    z -0.078860 -0.014950 3.593210 
# 
# 
# High freq. dielectric constant tensor:
#      x y z
#    x 1.807780 0.001780 -0.000610 
#    y 0.001780 1.826460 0.004590 
#    z -0.000610 0.004590 1.803760 
# 
# From -- ./inp_files/69180.got.cif
#   From: 2010.06.25/outbox.cif.g09.slc.cpg/sg2_35_cif.got.tgz:69180.got - 2010.06.27 13:26:56.
