data_PCOD8026918
_publ_section_title
;
Structure prediction by ZEFSAII (Michael W. Deem and Ramdas Pophale) SiO2 
 PCOD8026918
Probable space group: P -1
;
_chemical_formula_sum "Si O2"
_cell_formula_units_Z 12
_cell_length_a 5.689745
_cell_length_b 16.210210
_cell_length_c 15.394800
_cell_angle_alpha 23.138564
_cell_angle_beta 123.773141
_cell_angle_gamma 116.012553
_cell_volume 452.190663
_symmetry_space_group_name_H-M "P -1"
_symmetry_group_IT_number 2
_symmetry_cell_setting 'triclinic'
loop_
_space_group_symop_operation_xyz
x,y,z
-x,-y,-z
loop_
_atom_site_type_symbol
_atom_site_label
_atom_site_fract_x
_atom_site_fract_y
_atom_site_fract_z
Si Si1 0.380468 0.359591 0.390736
Si Si2 0.970077 0.744503 0.007181
Si Si3 0.598368 0.994002 0.126527
Si Si4 0.603536 0.239723 0.216919
Si Si5 0.162153 0.401950 0.711537
Si Si6 0.786792 0.755001 0.713900
O O1 0.685120 0.423431 0.383468
O O2 0.343530 0.222980 0.430787
O O3 0.127799 0.578566 0.127188
O O4 0.392350 0.232929 0.606737
O O5 0.061586 0.636358 0.224451
O O6 0.625270 0.783080 0.883290
O O7 0.082021 0.964469 0.826116
O O8 0.373767 0.177330 0.952018
O O9 0.500000 0.000000 0.000000
O O10 0.420202 0.347868 0.161188
O O11 0.858998 0.356704 0.115512
O O12 0.772428 0.996768 0.514102
O O13 0.000000 0.500000 0.500000
#
# Coordination Sequence:
#
# PCOD8026918 Si02
#       6
#     2   2   2   2   2   2
#     4  11  26  43  71 103 139 186 237 290 361 424
#     4  11  26  43  71 102 141 182 237 296 351 432
#     4  11  25  45  70 101 139 184 235 295 360 424
#     4  10  24  43  71 105 145 186 242 293 355 427
#     4  11  25  45  68 103 140 180 239 296 353 430
#     4  10  24  43  71 106 142 191 237 295 356 428
#
# _framework density 26.537479999999999
#
# number of rings (size 3 to 8) (size 9 to 14) (size 15 to 20)
#    0.000    1.333    0.000    3.000   14.000    9.333 
#    0.000    0.000    0.000    0.000    0.000    0.000 
#    0.000    0.000    0.000    0.000    0.000    0.000 
#
# Total GULP energy -148723.243715 kJ/mol
# GULP energy per Si atom -12393.603643 kJ/mol
# Density = 2.647708 g / cm^3
# Si number density = 26.537480 Si / 1000 Ang^3
#
#
#
# Elastic Constant Matrix: (Units=GPa)
#
#
# Indices 1 2 3 4 5 6 
#
# 1 161.6013 47.7716 34.7074 -7.1094 -7.0098 0.5100
# 2 47.7716 123.0957 8.1877 9.5938 13.1142 -12.5983
# 3 34.7074 8.1877 46.4931 3.2616 6.0552 0.0355
# 4 -7.1094 9.5938 3.2616 33.4538 1.7904 -2.9294
# 5 -7.0098 13.1142 6.0552 1.7904 40.5556 10.6219
# 6 0.5100 -12.5983 0.0355 -2.9294 10.6219 46.6551
#
#
#
# Elastic Compliance Matrix: (Units=1/GPa)
#
#
# Indices 1 2 3 4 5 6 
#
# 1 0.009220 -0.004037 -0.006969 0.003396 0.004301 -0.001952
# 2 -0.004037 0.010808 0.002056 -0.003523 -0.005383 0.003965
# 3 -0.006969 0.002056 0.027459 -0.004259 -0.006243 0.001764
# 4 0.003396 -0.003523 -0.004259 0.032076 0.000719 0.000865
# 5 0.004301 -0.005383 -0.006243 0.000719 0.030224 -0.008332
# 6 -0.001952 0.003965 0.001764 0.000865 -0.008332 0.024476
#
#
# Mechanical properties :
#
#
# Convention : Reuss Voigt Hill
#
# Bulk Modulus (GPa) = 33.79936 56.94704 45.37320
# Shear Modulus (GPa) = 30.85906 40.16780 35.51343
#
# Velocity S-wave (km/s) = 3.41376 3.89475 3.66216
# Velocity P-wave (km/s) = 5.32000 6.45997 5.91750
#
# Compressibility (1/GPa) = 0.02958636
#
# Stress axis : x y z
#
# Youngs Moduli (GPa) = 108.45486 92.52680 36.41730
#
# Poissons Ratio (x) = 0.37357 0.25379
# Poissons Ratio (y) = 0.43787 -0.07486
# Poissons Ratio (z) = 0.75582 -0.19021
#
# Static dielectric constant tensor:
#      x y z
#    x 5.297040 0.140430 0.038990 
#    y 0.140430 4.778740 -0.045630 
#    z 0.038990 -0.045630 4.832510 
# 
# 
# High freq. dielectric constant tensor:
#      x y z
#    x 2.084160 -0.006890 -0.004190 
#    y -0.006890 2.072280 -0.011870 
#    z -0.004190 -0.011870 2.071120 
# 
# From -- ./inp_files/334428.got.cif
#   From: 2010.06.25/outbox.cif.g09.slc.cpg/sg2_168_cif.got.tgz:334428.got - 2010.06.27 13:26:56.
