data_PCOD8026930
_publ_section_title
;
Structure prediction by ZEFSAII (Michael W. Deem and Ramdas Pophale) SiO2 
 PCOD8026930
Probable space group: P -1
;
_chemical_formula_sum "Si O2"
_cell_formula_units_Z 16
_cell_length_a 24.965044
_cell_length_b 5.355501
_cell_length_c 9.309014
_cell_angle_alpha 75.752170
_cell_angle_beta 130.654858
_cell_angle_gamma 128.503863
_cell_volume 711.758807
_symmetry_space_group_name_H-M "P -1"
_symmetry_group_IT_number 2
_symmetry_cell_setting 'triclinic'
loop_
_space_group_symop_operation_xyz
x,y,z
-x,-y,-z
loop_
_atom_site_type_symbol
_atom_site_label
_atom_site_fract_x
_atom_site_fract_y
_atom_site_fract_z
Si Si1 0.286970 0.556122 0.447693
Si Si2 0.904778 0.714464 0.802991
Si Si3 0.885015 0.290038 0.064848
Si Si4 0.400304 0.137882 0.080209
Si Si5 0.603299 0.287516 0.101094
Si Si6 0.433823 0.639601 0.502689
Si Si7 0.310428 0.040574 0.208723
Si Si8 0.983539 0.979881 0.304933
O O1 0.176830 0.268359 0.306636
O O2 0.329615 0.636186 0.666350
O O3 0.338823 0.492022 0.435590
O O4 0.301681 0.874273 0.367519
O O5 0.881927 0.385245 0.880949
O O6 0.921865 0.750787 0.654997
O O7 0.000000 0.000000 0.000000
O O8 0.937623 0.611895 0.216661
O O9 0.922337 0.088778 0.155793
O O10 0.782490 0.025513 0.981243
O O11 0.507512 0.381169 0.273706
O O12 0.336595 0.923586 0.135503
O O13 0.378368 0.372411 0.950719
O O14 0.371895 0.847507 0.964432
O O15 0.500000 0.000000 0.000000
O O16 0.400878 0.419691 0.333165
O O17 0.500000 0.000000 0.500000
O O18 0.000000 0.000000 0.500000
#
# Coordination Sequence:
#
# PCOD8026930 Si02
#       8
#     2   2   2   2   2   2   2   2
#     4  11  25  43  70 103 136 188 233 292 347 425
#     4   9  22  45  70 101 137 179 230 285 348 409
#     4  10  24  43  71  99 137 179 230 285 345 419
#     4  12  26  44  67  96 138 184 221 291 342 407
#     4  12  26  45  65  97 141 180 229 281 355 414
#     4  12  24  42  72 100 141 180 247 289 350 405
#     4  11  26  42  70 101 135 183 243 286 345 415
#     4  11  23  44  72 101 139 179 224 288 355 416
#
# _framework density 22.479523
#
# number of rings (size 3 to 8) (size 9 to 14) (size 15 to 20)
#    0.000    1.000    2.500    3.000    7.000    2.000 
#    2.250    0.000    0.000    0.000    0.000    0.000 
#    0.000    0.000    0.000    0.000    0.000    0.000 
#
# Total GULP energy -198225.158876 kJ/mol
# GULP energy per Si atom -12389.072430 kJ/mol
# Density = 2.242836 g / cm^3
# Si number density = 22.479523 Si / 1000 Ang^3
#
#
#
# Elastic Constant Matrix: (Units=GPa)
#
#
# Indices 1 2 3 4 5 6 
#
# 1 137.2810 32.5874 59.1067 -8.6987 6.0104 13.5946
# 2 32.5874 68.0484 32.9714 -1.5284 0.3462 -0.4069
# 3 59.1067 32.9714 116.6777 -9.2306 2.6020 22.0340
# 4 -8.6987 -1.5284 -9.2306 29.1776 2.6796 3.2739
# 5 6.0104 0.3462 2.6020 2.6796 49.6307 2.0591
# 6 13.5946 -0.4069 22.0340 3.2739 2.0591 40.8426
#
#
#
# Elastic Compliance Matrix: (Units=1/GPa)
#
#
# Indices 1 2 3 4 5 6 
#
# 1 0.009887 -0.002871 -0.003766 0.001855 -0.001023 -0.001385
# 2 -0.002871 0.018259 -0.004559 -0.001796 0.000402 0.003721
# 3 -0.003766 -0.004559 0.013220 0.003529 -0.000139 -0.006200
# 4 0.001855 -0.001796 0.003529 0.036648 -0.002153 -0.005368
# 5 -0.001023 0.000402 -0.000139 -0.002153 0.020412 -0.000437
# 6 -0.001385 0.003721 -0.006200 -0.005368 -0.000437 0.028779
#
#
# Mechanical properties :
#
#
# Convention : Reuss Voigt Hill
#
# Bulk Modulus (GPa) = 52.70583 63.48204 58.09394
# Shear Modulus (GPa) = 32.06733 37.08629 34.57681
#
# Velocity S-wave (km/s) = 3.78102 4.06616 3.92618
# Velocity P-wave (km/s) = 6.52369 7.09550 6.81559
#
# Compressibility (1/GPa) = 0.01897323
#
# Stress axis : x y z
#
# Youngs Moduli (GPa) = 101.14457 54.76668 75.64447
#
# Poissons Ratio (x) = 0.15725 0.28488
# Poissons Ratio (y) = 0.29042 0.34486
# Poissons Ratio (z) = 0.38091 0.24968
#
# Static dielectric constant tensor:
#      x y z
#    x 4.555470 0.268790 -0.032710 
#    y 0.268790 4.013660 -0.075370 
#    z -0.032710 -0.075370 4.376400 
# 
# 
# High freq. dielectric constant tensor:
#      x y z
#    x 1.904110 0.010410 0.004240 
#    y 0.010410 1.874800 -0.005960 
#    z 0.004240 -0.005960 1.888890 
# 
# From -- ./inp_files/98297.got.cif
#   From: 2010.06.25/outbox.cif.g09.slc.cpg/sg2_50_cif.got.tgz:98297.got - 2010.06.27 13:26:56.
