data_PCOD8026408
_publ_section_title
;
Structure prediction by ZEFSAII (Michael W. Deem and Ramdas Pophale) SiO2 
 PCOD8026408
Probable space group: P -1
;
_chemical_formula_sum "Si O2"
_cell_formula_units_Z 16
_cell_length_a 5.586698
_cell_length_b 9.342238
_cell_length_c 14.079349
_cell_angle_alpha 107.715004
_cell_angle_beta 81.527538
_cell_angle_gamma 104.441701
_cell_volume 675.834092
_symmetry_space_group_name_H-M "P -1"
_symmetry_group_IT_number 2
_symmetry_cell_setting 'triclinic'
loop_
_space_group_symop_operation_xyz
x,y,z
-x,-y,-z
loop_
_atom_site_type_symbol
_atom_site_label
_atom_site_fract_x
_atom_site_fract_y
_atom_site_fract_z
Si Si1 0.251890 0.300874 0.405186
Si Si2 0.400572 0.566457 0.111621
Si Si3 0.804020 0.071607 0.081064
Si Si4 0.964241 0.628257 0.764413
Si Si5 0.672181 0.145107 0.904801
Si Si6 0.700023 0.547361 0.381770
Si Si7 0.593094 0.777472 0.299109
Si Si8 0.847102 0.049884 0.697021
O O1 0.120209 0.351564 0.332519
O O2 0.540050 0.386952 0.399548
O O3 0.144869 0.358239 0.520724
O O4 0.228769 0.119145 0.375753
O O5 0.249655 0.429761 0.157733
O O6 0.235760 0.681086 0.103257
O O7 0.615214 0.675357 0.183274
O O8 0.500000 0.500000 0.000000
O O9 0.894228 0.203493 0.178487
O O10 0.614667 0.935830 0.119258
O O11 0.680151 0.148688 0.018440
O O12 0.000000 0.000000 0.000000
O O13 0.126159 0.498397 0.720633
O O14 0.830704 0.045368 0.813516
O O15 0.531564 0.655987 0.365553
O O16 0.356712 0.859080 0.316423
O O17 0.862983 0.883375 0.330441
#
# Coordination Sequence:
#
# PCOD8026408 Si02
#       8
#     2   2   2   2   2   2   2   2
#     4  11  26  46  75 105 140 197 246 312 374 440
#     4  11  25  43  69 102 144 193 237 294 367 440
#     4  11  24  40  68  99 143 188 244 297 361 445
#     4  12  25  44  72 107 145 193 246 309 366 439
#     4  10  24  42  62 101 138 189 238 291 362 435
#     4  11  25  48  73 103 148 189 252 307 378 438
#     4  11  26  49  72 108 151 191 247 307 368 442
#     4  11  26  46  75 106 148 193 244 307 368 443
#
# _framework density 23.674451000000001
#
# number of rings (size 3 to 8) (size 9 to 14) (size 15 to 20)
#    0.000    1.000    1.250    4.125   12.250    3.500 
#    0.000    0.000    0.000    0.000    0.000    0.000 
#    0.000    0.000    0.000    0.000    0.000    0.000 
#
# Total GULP energy -198225.899024 kJ/mol
# GULP energy per Si atom -12389.118689 kJ/mol
# Density = 2.362057 g / cm^3
# Si number density = 23.674451 Si / 1000 Ang^3
#
#
#
# Elastic Constant Matrix: (Units=GPa)
#
#
# Indices 1 2 3 4 5 6 
#
# 1 86.5814 32.7630 12.8955 10.4621 0.7652 5.0424
# 2 32.7630 113.7166 37.8435 14.2494 8.1288 6.7332
# 3 12.8955 37.8435 116.9058 23.5963 8.4964 5.0086
# 4 10.4621 14.2494 23.5963 43.5562 0.7421 5.4098
# 5 0.7652 8.1288 8.4964 0.7421 35.7887 -1.1782
# 6 5.0424 6.7332 5.0086 5.4098 -1.1782 28.3287
#
#
#
# Elastic Compliance Matrix: (Units=1/GPa)
#
#
# Indices 1 2 3 4 5 6 
#
# 1 0.013175 -0.003557 0.000098 -0.001922 0.000506 -0.001129
# 2 -0.003557 0.011092 -0.002794 -0.001058 -0.001803 -0.001382
# 3 0.000098 -0.002794 0.010552 -0.004748 -0.001787 -0.000387
# 4 -0.001922 -0.001058 -0.004748 0.026780 0.000733 -0.003650
# 5 0.000506 -0.001803 -0.001787 0.000733 0.028806 0.001713
# 6 -0.001129 -0.001382 -0.000387 -0.003650 0.001713 0.036666
#
#
# Mechanical properties :
#
#
# Convention : Reuss Voigt Hill
#
# Bulk Modulus (GPa) = 44.81868 53.80087 49.30978
# Shear Modulus (GPa) = 34.01026 37.11484 35.56255
#
# Velocity S-wave (km/s) = 3.79434 3.96374 3.87996
# Velocity P-wave (km/s) = 6.17805 6.61233 6.39888
#
# Compressibility (1/GPa) = 0.02231212
#
# Stress axis : x y z
#
# Youngs Moduli (GPa) = 75.90299 90.15690 94.76572
#
# Poissons Ratio (x) = 0.32066 -0.00926
# Poissons Ratio (y) = 0.26997 0.26481
# Poissons Ratio (z) = -0.00741 0.25193
#
# Static dielectric constant tensor:
#      x y z
#    x 5.098620 -0.758050 2.439300 
#    y -0.758050 5.196890 -2.137080 
#    z 2.439300 -2.137080 11.162540 
# 
# 
# High freq. dielectric constant tensor:
#      x y z
#    x 1.918000 0.002340 0.013240 
#    y 0.002340 1.952230 -0.000910 
#    z 0.013240 -0.000910 1.950120 
# 
# From -- ./inp_files/39190.got.cif
#   From: 2010.06.25/outbox.cif.g09.slc.cpg/sg2_20_cif.got.tgz:39190.got - 2010.06.27 13:26:56.
