data_PCOD8026471
_publ_section_title
;
Structure prediction by ZEFSAII (Michael W. Deem and Ramdas Pophale) SiO2 
 PCOD8026471
Probable space group: P -1
;
_chemical_formula_sum "Si O2"
_cell_formula_units_Z 14
_cell_length_a 8.718713
_cell_length_b 5.191187
_cell_length_c 18.390823
_cell_angle_alpha 105.044249
_cell_angle_beta 118.450167
_cell_angle_gamma 56.262734
_cell_volume 608.589193
_symmetry_space_group_name_H-M "P -1"
_symmetry_group_IT_number 2
_symmetry_cell_setting 'triclinic'
loop_
_space_group_symop_operation_xyz
x,y,z
-x,-y,-z
loop_
_atom_site_type_symbol
_atom_site_label
_atom_site_fract_x
_atom_site_fract_y
_atom_site_fract_z
Si Si1 0.399769 0.884105 0.766285
Si Si2 0.736982 0.986076 0.482019
Si Si3 0.050190 0.893426 0.921275
Si Si4 0.293613 0.164387 0.921482
Si Si5 0.031379 0.205857 0.615176
Si Si6 0.693981 0.800521 0.615170
Si Si7 0.640674 0.162087 0.765116
O O1 0.563510 0.522837 0.782403
O O2 0.335865 0.025941 0.841104
O O3 0.200647 0.927859 0.682213
O O4 0.483005 0.074053 0.755758
O O5 0.506413 0.226828 0.419997
O O6 0.853742 0.161844 0.540166
O O7 0.856538 0.744383 0.425372
O O8 0.719902 0.816469 0.535895
O O9 0.211926 0.529398 0.926849
O O10 0.133026 0.096914 0.918392
O O11 0.848165 0.960553 0.839873
O O12 0.000000 0.000000 0.000000
O O13 0.500000 0.000000 0.000000
O O14 0.909261 0.499585 0.663024
O O15 0.673572 0.080756 0.680430
#
# Coordination Sequence:
#
# PCOD8026471 Si02
#       7
#     2   2   2   2   2   2   2
#     4  12  27  46  70 103 144 185 236 292 353 419
#     4  10  24  42  66 100 136 180 242 294 362 424
#     4  12  25  46  75 107 144 186 234 287 353 418
#     4  12  25  46  75 107 144 186 234 287 353 418
#     4  11  24  42  69  97 139 183 240 293 363 417
#     4  11  24  42  69  97 139 183 240 293 363 417
#     4  12  27  46  70 103 144 185 236 292 353 419
#
# _framework density 23.004026
#
# number of rings (size 3 to 8) (size 9 to 14) (size 15 to 20)
#    0.000    0.571    1.429    6.000    6.000    4.571 
#    0.000    0.000    0.000    0.000    0.000    0.000 
#    0.000    0.000    0.000    0.000    0.000    0.000 
#
# Total GULP energy -173558.853080 kJ/mol
# GULP energy per Si atom -12397.060934 kJ/mol
# Density = 2.295167 g / cm^3
# Si number density = 23.004026 Si / 1000 Ang^3
#
#
#
# Elastic Constant Matrix: (Units=GPa)
#
#
# Indices 1 2 3 4 5 6 
#
# 1 111.3687 20.2392 38.1184 7.3560 4.0420 -17.5416
# 2 20.2392 108.1280 35.4700 5.8371 3.3287 -20.6033
# 3 38.1184 35.4700 145.5441 4.6023 1.8591 -26.7072
# 4 7.3560 5.8371 4.6023 42.0893 -13.8427 -0.0049
# 5 4.0420 3.3287 1.8591 -13.8427 18.4333 -1.2762
# 6 -17.5416 -20.6033 -26.7072 -0.0049 -1.2762 42.5946
#
#
#
# Elastic Compliance Matrix: (Units=1/GPa)
#
#
# Indices 1 2 3 4 5 6 
#
# 1 0.010514 -0.000523 -0.001988 -0.002851 -0.003964 0.002711
# 2 -0.000523 0.010856 -0.001685 -0.002247 -0.003094 0.003886
# 3 -0.001988 -0.001685 0.008493 -0.000400 -0.000162 0.003687
# 4 -0.002851 -0.002247 -0.000400 0.033101 0.025808 -0.001735
# 5 -0.003964 -0.003094 -0.000162 0.025808 0.075007 -0.000980
# 6 0.002711 0.003886 0.003687 -0.001735 -0.000980 0.028756
#
#
# Mechanical properties :
#
#
# Convention : Reuss Voigt Hill
#
# Bulk Modulus (GPa) = 46.57434 61.41069 53.99252
# Shear Modulus (GPa) = 27.43103 38.70433 33.06768
#
# Velocity S-wave (km/s) = 3.45693 4.10628 3.79552
# Velocity P-wave (km/s) = 6.01863 7.01681 6.53680
#
# Compressibility (1/GPa) = 0.02147105
#
# Stress axis : x y z
#
# Youngs Moduli (GPa) = 95.11249 92.11480 117.74046
#
# Poissons Ratio (x) = 0.04821 0.23404
# Poissons Ratio (y) = 0.04978 0.19838
# Poissons Ratio (z) = 0.18906 0.15521
#
# Static dielectric constant tensor:
#      x y z
#    x 4.786730 -0.327200 -0.208050 
#    y -0.327200 4.402520 -0.200620 
#    z -0.208050 -0.200620 4.553740 
# 
# 
# High freq. dielectric constant tensor:
#      x y z
#    x 1.921820 -0.026770 -0.001130 
#    y -0.026770 1.908560 -0.000240 
#    z -0.001130 -0.000240 1.925240 
# 
# From -- ./inp_files/553755.got.cif
#   From: 2010.06.25/outbox.cif.g09.slc.cpg/sg2_277_cif.got.tgz:553755.got - 2010.06.27 13:26:56.
