data_PCOD8026093
_publ_section_title
;
Structure prediction by ZEFSAII (Michael W. Deem and Ramdas Pophale) SiO2 
 PCOD8026093
Probable space group: P -1
;
_chemical_formula_sum "Si O2"
_cell_formula_units_Z 12
_cell_length_a 8.410669
_cell_length_b 15.871662
_cell_length_c 5.253294
_cell_angle_alpha 73.023384
_cell_angle_beta 120.272647
_cell_angle_gamma 110.952936
_cell_volume 560.141600
_symmetry_space_group_name_H-M "P -1"
_symmetry_group_IT_number 2
_symmetry_cell_setting 'triclinic'
loop_
_space_group_symop_operation_xyz
x,y,z
-x,-y,-z
loop_
_atom_site_type_symbol
_atom_site_label
_atom_site_fract_x
_atom_site_fract_y
_atom_site_fract_z
Si Si1 0.694275 0.820747 0.426198
Si Si2 0.870953 0.899617 0.012526
Si Si3 0.303782 0.694639 0.082887
Si Si4 0.013366 0.254814 0.521849
Si Si5 0.604948 0.480942 0.850093
Si Si6 0.974100 0.586868 0.256824
O O1 0.474600 0.766312 0.295399
O O2 0.735443 0.892363 0.159100
O O3 0.830834 0.751324 0.564194
O O4 0.738689 0.873486 0.681151
O O5 0.007157 0.830422 0.223916
O O6 0.000000 0.000000 0.000000
O O7 0.381389 0.623615 0.036882
O O8 0.171094 0.639304 0.244064
O O9 0.189867 0.749064 0.765197
O O10 0.095395 0.348260 0.656882
O O11 0.500000 0.500000 0.500000
O O12 0.500000 0.500000 0.000000
O O13 0.813539 0.551360 0.945181
O O14 0.000000 0.500000 0.500000
#
# Coordination Sequence:
#
# PCOD8026093 Si02
#       6
#     2   2   2   2   2   2
#     4  10  25  44  75 103 141 181 231 290 357 412
#     4  10  23  48  77 105 139 180 230 290 360 427
#     4  12  26  44  69 103 143 184 243 288 347 411
#     4  10  25  43  74 100 144 181 238 285 352 406
#     4  12  28  42  66  95 137 187 238 282 337 400
#     4  12  25  45  66 101 143 192 238 291 334 408
#
# _framework density 21.423154
#
# number of rings (size 3 to 8) (size 9 to 14) (size 15 to 20)
#    1.000    0.000    1.667    4.000    9.333    0.000 
#    0.000    1.667    0.000    0.000    0.000    0.000 
#    0.000    0.000    0.000    0.000    0.000    0.000 
#
# Total GULP energy -148794.331148 kJ/mol
# GULP energy per Si atom -12399.527596 kJ/mol
# Density = 2.137439 g / cm^3
# Si number density = 21.423154 Si / 1000 Ang^3
#
#
#
# Elastic Constant Matrix: (Units=GPa)
#
#
# Indices 1 2 3 4 5 6 
#
# 1 75.3725 32.6126 60.5304 5.2635 -4.5099 26.5241
# 2 32.6126 150.1695 87.5747 12.5101 6.9949 24.3068
# 3 60.5304 87.5747 190.5475 25.6516 0.5829 14.7999
# 4 5.2635 12.5101 25.6516 41.4872 4.9378 2.4477
# 5 -4.5099 6.9949 0.5829 4.9378 41.9424 1.9660
# 6 26.5241 24.3068 14.7999 2.4477 1.9660 34.3963
#
#
#
# Elastic Compliance Matrix: (Units=1/GPa)
#
#
# Indices 1 2 3 4 5 6 
#
# 1 0.024717 0.001458 -0.007419 0.001653 0.003129 -0.017195
# 2 0.001458 0.010094 -0.004636 0.000145 -0.001188 -0.006205
# 3 -0.007419 -0.004636 0.009895 -0.004085 0.000083 0.005025
# 4 0.001653 0.000145 -0.004085 0.026799 -0.002881 -0.001362
# 5 0.003129 -0.001188 0.000083 -0.002881 0.024847 -0.002824
# 6 -0.017195 -0.006205 0.005025 -0.001362 -0.002824 0.044814
#
#
# Mechanical properties :
#
#
# Convention : Reuss Voigt Hill
#
# Bulk Modulus (GPa) = 42.53070 86.39164 64.46117
# Shear Modulus (GPa) = 29.37777 39.25662 34.31720
#
# Velocity S-wave (km/s) = 3.70714 4.28534 4.00668
# Velocity P-wave (km/s) = 6.18220 8.05602 7.18049
#
# Compressibility (1/GPa) = 0.02351243
#
# Stress axis : x y z
#
# Youngs Moduli (GPa) = 40.45787 99.07060 101.06281
#
# Poissons Ratio (x) = -0.14446 0.74974
# Poissons Ratio (y) = -0.05900 0.46856
# Poissons Ratio (z) = 0.30014 0.45932
#
# Static dielectric constant tensor:
#      x y z
#    x 3.934990 0.040280 0.159620 
#    y 0.040280 3.837500 0.149110 
#    z 0.159620 0.149110 4.020220 
# 
# 
# High freq. dielectric constant tensor:
#      x y z
#    x 1.832260 0.000430 -0.004830 
#    y 0.000430 1.829520 0.007390 
#    z -0.004830 0.007390 1.856870 
# 
# From -- ./inp_files/47234.got.cif
#   From: 2010.06.25/outbox.cif.g09.slc.cpg/sg2_24_cif.got.tgz:47234.got - 2010.06.27 13:26:56.
