data_PCOD8026730
_publ_section_title
;
Structure prediction by ZEFSAII (Michael W. Deem and Ramdas Pophale) SiO2 
 PCOD8026730
Probable space group: P -1
;
_chemical_formula_sum "Si O2"
_cell_formula_units_Z 14
_cell_length_a 9.764067
_cell_length_b 8.819280
_cell_length_c 8.704143
_cell_angle_alpha 92.524042
_cell_angle_beta 121.397648
_cell_angle_gamma 89.327165
_cell_volume 639.103428
_symmetry_space_group_name_H-M "P -1"
_symmetry_group_IT_number 2
_symmetry_cell_setting 'triclinic'
loop_
_space_group_symop_operation_xyz
x,y,z
-x,-y,-z
loop_
_atom_site_type_symbol
_atom_site_label
_atom_site_fract_x
_atom_site_fract_y
_atom_site_fract_z
Si Si1 0.298691 0.309321 0.627984
Si Si2 0.399954 0.148836 0.981966
Si Si3 0.097405 0.654019 0.063156
Si Si4 0.932717 0.920178 0.107243
Si Si5 0.961301 0.211749 0.297807
Si Si6 0.333127 0.668928 0.689372
Si Si7 0.576242 0.344524 0.586907
O O1 0.308002 0.209888 0.781586
O O2 0.129194 0.284824 0.446636
O O3 0.319173 0.487490 0.683855
O O4 0.437714 0.249876 0.591043
O O5 0.259542 0.107463 0.019737
O O6 0.515726 0.281061 0.117393
O O7 0.500000 0.000000 0.000000
O O8 0.281015 0.623368 0.209091
O O9 0.021727 0.759109 0.158030
O O10 0.000000 0.500000 0.000000
O O11 0.092922 0.726264 0.895855
O O12 0.971918 0.027883 0.282114
O O13 0.000000 0.000000 0.000000
O O14 0.829537 0.254397 0.347520
O O15 0.361990 0.733905 0.536471
O O16 0.500000 0.500000 0.500000
#
# Coordination Sequence:
#
# PCOD8026730 Si02
#       7
#     2   2   2   2   2   2   2
#     4  11  26  43  72 103 141 180 235 286 342 409
#     4  12  26  46  70 102 140 185 228 290 349 407
#     4  11  24  42  75  99 136 181 231 284 344 405
#     4  10  26  44  69  98 140 181 234 274 351 411
#     4  11  24  47  68 100 142 182 229 284 345 412
#     4  11  24  44  71 102 141 176 235 285 344 409
#     4  10  24  43  66 106 136 174 226 285 343 401
#
# _framework density 21.905685999999999
#
# number of rings (size 3 to 8) (size 9 to 14) (size 15 to 20)
#    0.000    1.143    1.429    3.429   14.000    1.714 
#    0.000    1.429    0.000    0.000    0.000    0.000 
#    0.000    0.000    0.000    0.000    0.000    0.000 
#
# Total GULP energy -173601.359655 kJ/mol
# GULP energy per Si atom -12400.097118 kJ/mol
# Density = 2.185583 g / cm^3
# Si number density = 21.905686 Si / 1000 Ang^3
#
#
#
# Elastic Constant Matrix: (Units=GPa)
#
#
# Indices 1 2 3 4 5 6 
#
# 1 196.7456 52.3648 64.7041 9.3225 13.0970 -12.0778
# 2 52.3648 125.6857 43.3950 22.1248 5.0167 -11.3473
# 3 64.7041 43.3950 146.4620 0.2671 21.7972 -4.7049
# 4 9.3225 22.1248 0.2671 31.2126 0.0194 0.7627
# 5 13.0970 5.0167 21.7972 0.0194 47.2509 6.4194
# 6 -12.0778 -11.3473 -4.7049 0.7627 6.4194 32.3981
#
#
#
# Elastic Compliance Matrix: (Units=1/GPa)
#
#
# Indices 1 2 3 4 5 6 
#
# 1 0.006424 -0.001591 -0.002186 -0.000813 -0.000834 0.001704
# 2 -0.001591 0.011053 -0.002456 -0.007414 -0.000017 0.003099
# 3 -0.002186 -0.002456 0.009020 0.002313 -0.003328 0.000240
# 4 -0.000813 -0.007414 0.002313 0.037603 0.000410 -0.003530
# 5 -0.000834 -0.000017 -0.003328 0.000410 0.023679 -0.005502
# 6 0.001704 0.003099 0.000240 -0.003530 -0.005502 0.033795
#
#
# Mechanical properties :
#
#
# Convention : Reuss Voigt Hill
#
# Bulk Modulus (GPa) = 71.27715 87.75790 79.51752
# Shear Modulus (GPa) = 36.04439 42.73427 39.38933
#
# Velocity S-wave (km/s) = 4.06080 4.42161 4.24504
# Velocity P-wave (km/s) = 7.38888 8.13733 7.77212
#
# Compressibility (1/GPa) = 0.01402974
#
# Stress axis : x y z
#
# Youngs Moduli (GPa) = 155.66935 90.47259 110.86546
#
# Poissons Ratio (x) = 0.14397 0.24236
# Poissons Ratio (y) = 0.24772 0.27231
# Poissons Ratio (z) = 0.34030 0.22222
#
# Static dielectric constant tensor:
#      x y z
#    x 4.733080 -0.305270 -0.209280 
#    y -0.305270 4.056000 0.339730 
#    z -0.209280 0.339730 4.005190 
# 
# 
# High freq. dielectric constant tensor:
#      x y z
#    x 1.888210 -0.003710 0.002560 
#    y -0.003710 1.859570 0.006940 
#    z 0.002560 0.006940 1.858650 
# 
# From -- ./inp_files/156687.got.cif
#   From: 2010.06.25/outbox.cif.g09.slc.cpg/sg2_79_cif.got.tgz:156687.got - 2010.06.27 13:26:56.
