data_PCOD8026308
_publ_section_title
;
Structure prediction by ZEFSAII (Michael W. Deem and Ramdas Pophale) SiO2 
 PCOD8026308
Probable space group: P -1
;
_chemical_formula_sum "Si O2"
_cell_formula_units_Z 14
_cell_length_a 10.036924
_cell_length_b 9.859011
_cell_length_c 8.885758
_cell_angle_alpha 126.539112
_cell_angle_beta 78.404389
_cell_angle_gamma 129.334346
_cell_volume 523.950487
_symmetry_space_group_name_H-M "P -1"
_symmetry_group_IT_number 2
_symmetry_cell_setting 'triclinic'
loop_
_space_group_symop_operation_xyz
x,y,z
-x,-y,-z
loop_
_atom_site_type_symbol
_atom_site_label
_atom_site_fract_x
_atom_site_fract_y
_atom_site_fract_z
Si Si1 0.209181 0.548913 0.721264
Si Si2 0.353518 0.548375 0.399010
Si Si3 0.647209 0.863371 0.153266
Si Si4 0.794315 0.259444 0.587350
Si Si5 0.148378 0.054871 0.113501
Si Si6 0.338486 0.393455 0.802401
Si Si7 0.836282 0.241019 0.893197
O O1 0.360525 0.659259 0.628141
O O2 0.198545 0.372003 0.710836
O O3 0.007743 0.409223 0.607065
O O4 0.275838 0.760709 0.948523
O O5 0.252544 0.580876 0.318162
O O6 0.240166 0.296219 0.316110
O O7 0.539197 0.632969 0.345577
O O8 0.758064 0.807526 0.186270
O O9 0.668433 0.055536 0.364499
O O10 0.718284 0.944596 0.022759
O O11 0.445576 0.625216 0.025993
O O12 0.734350 0.147645 0.694392
O O13 0.095266 0.888028 0.153026
O O14 0.000000 0.000000 0.000000
O O15 0.000000 0.500000 0.000000
#
# Coordination Sequence:
#
# PCOD8026308 Si02
#       7
#     2   2   2   2   2   2   2
#     4  11  23  44  71  99 141 177 234 291 345 401
#     4  11  24  44  70 102 139 184 232 285 349 415
#     4  10  24  44  69  97 143 185 230 275 361 405
#     4  11  24  43  73 102 137 181 237 289 345 411
#     4  11  22  40  69 101 138 180 232 285 344 410
#     4  10  25  44  71 100 144 184 230 288 346 418
#     4  10  24  41  65 104 140 175 223 289 347 404
#
# _framework density 26.720078999999998
#
# number of rings (size 3 to 8) (size 9 to 14) (size 15 to 20)
#    0.000    1.429    0.000    4.286   12.000    1.143 
#    0.000    3.571    0.000    0.000    0.000    0.000 
#    0.000    0.000    0.000    0.000    0.000    0.000 
#
# Total GULP energy -173467.634891 kJ/mol
# GULP energy per Si atom -12390.545349 kJ/mol
# Density = 2.665926 g / cm^3
# Si number density = 26.720079 Si / 1000 Ang^3
#
#
#
# Elastic Constant Matrix: (Units=GPa)
#
#
# Indices 1 2 3 4 5 6 
#
# 1 81.3905 24.0282 14.7472 6.0969 -12.8255 -39.9956
# 2 24.0282 146.1435 16.5524 1.4444 -4.9677 -55.7935
# 3 14.7472 16.5524 145.1661 -10.2246 -20.0417 -2.0419
# 4 6.0969 1.4444 -10.2246 38.4448 -2.5039 0.3247
# 5 -12.8255 -4.9677 -20.0417 -2.5039 25.0701 -1.5662
# 6 -39.9956 -55.7935 -2.0419 0.3247 -1.5662 46.3286
#
#
#
# Elastic Compliance Matrix: (Units=1/GPa)
#
#
# Indices 1 2 3 4 5 6 
#
# 1 0.036305 0.013496 -0.001889 -0.005730 0.022183 0.048302
# 2 0.013496 0.018106 -0.001639 -0.002825 0.011009 0.033776
# 3 -0.001889 -0.001639 0.008165 0.002906 0.005334 -0.003085
# 4 -0.005730 -0.002825 0.002906 0.027941 0.001099 -0.008379
# 5 0.022183 0.011009 0.005334 0.001099 0.059957 0.034663
# 6 0.048302 0.033776 -0.003085 -0.008379 0.034663 0.105055
#
#
# Mechanical properties :
#
#
# Convention : Reuss Voigt Hill
#
# Bulk Modulus (GPa) = 12.11951 53.70620 32.91286
# Shear Modulus (GPa) = 19.00430 43.12687 31.06558
#
# Velocity S-wave (km/s) = 2.66980 4.02185 3.41344
# Velocity P-wave (km/s) = 3.74824 6.45835 5.28013
#
# Compressibility (1/GPa) = 0.08251157
#
# Stress axis : x y z
#
# Youngs Moduli (GPa) = 27.54449 55.22971 122.47155
#
# Poissons Ratio (x) = -0.74537 0.23130
# Poissons Ratio (y) = -0.37173 0.20079
# Poissons Ratio (z) = 0.05202 0.09055
#
# Static dielectric constant tensor:
#      x y z
#    x 4.536790 -0.291250 -0.340070 
#    y -0.291250 5.275280 -0.369530 
#    z -0.340070 -0.369530 5.320830 
# 
# 
# High freq. dielectric constant tensor:
#      x y z
#    x 2.049630 -0.028480 -0.019790 
#    y -0.028480 2.082950 -0.016960 
#    z -0.019790 -0.016960 2.075330 
# 
# From -- ./inp_files/236221.got.cif
#   From: 2010.06.25/outbox.cif.g09.slc.cpg/sg2_119_cif.got.tgz:236221.got - 2010.06.27 13:26:56.
