data_PCOD8026584
_publ_section_title
;
Structure prediction by ZEFSAII (Michael W. Deem and Ramdas Pophale) SiO2 
 PCOD8026584
Probable space group: P -1
;
_chemical_formula_sum "Si O2"
_cell_formula_units_Z 14
_cell_length_a 9.599815
_cell_length_b 9.111663
_cell_length_c 13.328820
_cell_angle_alpha 123.328201
_cell_angle_beta 130.693272
_cell_angle_gamma 48.454235
_cell_volume 647.376146
_symmetry_space_group_name_H-M "P -1"
_symmetry_group_IT_number 2
_symmetry_cell_setting 'triclinic'
loop_
_space_group_symop_operation_xyz
x,y,z
-x,-y,-z
loop_
_atom_site_type_symbol
_atom_site_label
_atom_site_fract_x
_atom_site_fract_y
_atom_site_fract_z
Si Si1 0.445766 0.627188 0.623793
Si Si2 0.035001 0.686296 0.568418
Si Si3 0.819345 0.942095 0.392843
Si Si4 0.707399 0.671207 0.138928
Si Si5 0.276736 0.015360 0.092657
Si Si6 0.246915 0.359134 0.076997
Si Si7 0.055748 0.768816 0.831849
O O1 0.500000 0.500000 0.500000
O O2 0.251401 0.622578 0.586144
O O3 0.645649 0.546507 0.762883
O O4 0.394917 0.854061 0.655045
O O5 0.032516 0.787843 0.709658
O O6 0.000000 0.500000 0.500000
O O7 0.830799 0.847495 0.472182
O O8 0.864350 0.765141 0.265677
O O9 0.000000 0.000000 0.500000
O O10 0.785677 0.457200 0.145464
O O11 0.500341 0.832987 0.161373
O O12 0.651680 0.665494 0.994518
O O13 0.293290 0.143096 0.056514
O O14 0.167045 0.161148 0.191170
O O15 0.134907 0.921972 0.955124
O O16 0.000000 0.500000 0.000000
#
# Coordination Sequence:
#
# PCOD8026584 Si02
#       7
#     2   2   2   2   2   2   2
#     4  11  27  47  71 107 142 185 247 291 355 440
#     4  11  24  45  72  99 143 192 230 295 365 423
#     4  10  24  42  69  99 134 189 229 291 355 419
#     4  12  23  45  71  98 143 183 240 293 356 423
#     4  11  25  43  68 100 137 186 232 301 349 426
#     4  12  26  43  74 104 141 194 242 295 359 421
#     4  11  25  45  66 101 144 181 237 292 364 421
#
# _framework density 21.62576
#
# number of rings (size 3 to 8) (size 9 to 14) (size 15 to 20)
#    0.000    0.857    4.286    1.714   10.000    0.000 
#    2.571    1.429    0.000    0.000    0.000    0.000 
#    0.000    0.000    0.000    0.000    0.000    0.000 
#
# Total GULP energy -173548.863293 kJ/mol
# GULP energy per Si atom -12396.347378 kJ/mol
# Density = 2.157654 g / cm^3
# Si number density = 21.625760 Si / 1000 Ang^3
#
#
#
# Elastic Constant Matrix: (Units=GPa)
#
#
# Indices 1 2 3 4 5 6 
#
# 1 82.8847 38.6565 41.0131 -9.3846 -15.1887 0.1605
# 2 38.6565 116.2406 43.6672 -15.4893 -14.7281 -0.0609
# 3 41.0131 43.6672 162.1654 -6.4955 -15.6075 3.1169
# 4 -9.3846 -15.4893 -6.4955 35.8914 -1.1733 4.2459
# 5 -15.1887 -14.7281 -15.6075 -1.1733 39.5711 1.0193
# 6 0.1605 -0.0609 3.1169 4.2459 1.0193 40.8075
#
#
#
# Elastic Compliance Matrix: (Units=1/GPa)
#
#
# Indices 1 2 3 4 5 6 
#
# 1 0.015980 -0.003530 -0.002622 0.002331 0.003860 -0.000207
# 2 -0.003530 0.011215 -0.001758 0.003705 0.002243 -0.000277
# 3 -0.002622 -0.001758 0.007439 0.000015 0.001289 -0.000594
# 4 0.002331 0.003705 0.000015 0.030566 0.003270 -0.003267
# 5 0.003860 0.002243 0.001289 0.003270 0.028223 -0.001155
# 6 -0.000207 -0.000277 -0.000594 -0.003267 -0.001155 0.024920
#
#
# Mechanical properties :
#
#
# Convention : Reuss Voigt Hill
#
# Bulk Modulus (GPa) = 53.14847 67.55159 60.35003
# Shear Modulus (GPa) = 35.60401 39.11760 37.36080
#
# Velocity S-wave (km/s) = 4.06195 4.25766 4.16096
# Velocity P-wave (km/s) = 6.82855 7.44813 7.14506
#
# Compressibility (1/GPa) = 0.01881522
#
# Stress axis : x y z
#
# Youngs Moduli (GPa) = 62.57643 89.16925 134.42506
#
# Poissons Ratio (x) = 0.31474 0.35250
# Poissons Ratio (y) = 0.22087 0.23626
# Poissons Ratio (z) = 0.16409 0.15672
#
# Static dielectric constant tensor:
#      x y z
#    x 3.775350 -0.126860 0.373790 
#    y -0.126860 4.386560 0.091200 
#    z 0.373790 0.091200 3.702950 
# 
# 
# High freq. dielectric constant tensor:
#      x y z
#    x 1.842980 0.010060 0.008930 
#    y 0.010060 1.858650 -0.000250 
#    z 0.008930 -0.000250 1.866140 
# 
# From -- ./inp_files/185547.got.cif
#   From: 2010.06.25/outbox.cif.g09.slc.cpg/sg2_93_cif.got.tgz:185547.got - 2010.06.27 13:26:56.
