data_PCOD8026317
_publ_section_title
;
Structure prediction by ZEFSAII (Michael W. Deem and Ramdas Pophale) SiO2 
 PCOD8026317
Probable space group: P -1
;
_chemical_formula_sum "Si O2"
_cell_formula_units_Z 16
_cell_length_a 21.315261
_cell_length_b 8.989630
_cell_length_c 7.623550
_cell_angle_alpha 117.976104
_cell_angle_beta 84.364055
_cell_angle_gamma 140.827567
_cell_volume 716.710309
_symmetry_space_group_name_H-M "P -1"
_symmetry_group_IT_number 2
_symmetry_cell_setting 'triclinic'
loop_
_space_group_symop_operation_xyz
x,y,z
-x,-y,-z
loop_
_atom_site_type_symbol
_atom_site_label
_atom_site_fract_x
_atom_site_fract_y
_atom_site_fract_z
Si Si1 0.634635 0.054574 0.165522
Si Si2 0.990056 0.613409 0.818405
Si Si3 0.553247 0.136808 0.750167
Si Si4 0.161798 0.320864 0.663394
Si Si5 0.768085 0.267461 0.580959
Si Si6 0.590995 0.846520 0.695497
Si Si7 0.808640 0.703678 0.966019
Si Si8 0.981156 0.685017 0.253348
O O1 0.710172 0.384296 0.274031
O O2 0.686950 0.069749 0.324767
O O3 0.512078 0.861104 0.128418
O O4 0.630068 0.916234 0.925984
O O5 0.882908 0.413767 0.611472
O O6 0.017914 0.478726 0.717663
O O7 0.947981 0.567250 0.999180
O O8 0.104775 0.963239 0.934510
O O9 0.681092 0.489760 0.898336
O O10 0.500000 0.000000 0.500000
O O11 0.544311 0.933404 0.731009
O O12 0.104535 0.374496 0.664469
O O13 0.105542 0.043777 0.419612
O O14 0.148692 0.268320 0.844406
O O15 0.808549 0.550665 0.742905
O O16 0.696780 0.051029 0.650954
O O17 0.500000 0.500000 0.500000
#
# Coordination Sequence:
#
# PCOD8026317 Si02
#       8
#     2   2   2   2   2   2   2   2
#     4  12  23  45  76  95 135 189 223 280 343 407
#     4  11  23  44  66 100 137 176 225 289 337 396
#     4  11  23  47  70 102 134 179 239 273 338 416
#     4  11  23  42  67  98 132 184 225 269 347 413
#     4  11  23  44  69 104 137 181 229 276 348 414
#     4  11  25  46  69 104 141 174 230 290 335 404
#     4  11  22  42  68  96 140 177 227 290 328 405
#     4  10  24  41  65  99 137 176 228 273 340 415
#
# _framework density 22.32422
#
# number of rings (size 3 to 8) (size 9 to 14) (size 15 to 20)
#    0.000    1.000    6.250    1.500    3.500    2.000 
#    4.500    0.000    0.000    0.000    0.000    0.000 
#    0.000    0.000    0.000    0.000    0.000    0.000 
#
# Total GULP energy -198417.565446 kJ/mol
# GULP energy per Si atom -12401.097840 kJ/mol
# Density = 2.227341 g / cm^3
# Si number density = 22.324220 Si / 1000 Ang^3
#
#
#
# Elastic Constant Matrix: (Units=GPa)
#
#
# Indices 1 2 3 4 5 6 
#
# 1 120.1514 70.0981 50.4043 15.9126 17.7067 -4.7162
# 2 70.0981 121.6958 39.0191 22.5371 -2.9746 4.8901
# 3 50.4043 39.0191 116.6995 1.6929 13.9120 -3.4093
# 4 15.9126 22.5371 1.6929 44.2670 -2.9437 4.6604
# 5 17.7067 -2.9746 13.9120 -2.9437 27.8620 5.3209
# 6 -4.7162 4.8901 -3.4093 4.6604 5.3209 24.5269
#
#
#
# Elastic Compliance Matrix: (Units=1/GPa)
#
#
# Indices 1 2 3 4 5 6 
#
# 1 0.017424 -0.009240 -0.002646 -0.003157 -0.012631 0.008165
# 2 -0.009240 0.015408 -0.002470 -0.003076 0.009707 -0.006713
# 3 -0.002646 -0.002470 0.011113 0.001252 -0.004429 0.002251
# 4 -0.003157 -0.003076 0.001252 0.026190 0.004941 -0.005868
# 5 -0.012631 0.009707 -0.004429 0.004941 0.050929 -0.016967
# 6 0.008165 -0.006713 0.002251 -0.005868 -0.016967 0.048789
#
#
# Mechanical properties :
#
#
# Convention : Reuss Voigt Hill
#
# Bulk Modulus (GPa) = 65.64359 75.28777 70.46568
# Shear Modulus (GPa) = 24.55296 32.59951 28.57624
#
# Velocity S-wave (km/s) = 3.31997 3.82550 3.58167
# Velocity P-wave (km/s) = 6.64566 7.30141 6.98124
#
# Compressibility (1/GPa) = 0.01523378
#
# Stress axis : x y z
#
# Youngs Moduli (GPa) = 57.39312 64.90089 89.98329
#
# Poissons Ratio (x) = 0.59968 0.23810
# Poissons Ratio (y) = 0.53031 0.22223
# Poissons Ratio (z) = 0.15186 0.16028
#
# Static dielectric constant tensor:
#      x y z
#    x 4.085390 0.098780 0.319010 
#    y 0.098780 4.071540 0.034720 
#    z 0.319010 0.034720 4.153220 
# 
# 
# High freq. dielectric constant tensor:
#      x y z
#    x 1.865340 0.005860 0.018280 
#    y 0.005860 1.881910 -0.005140 
#    z 0.018280 -0.005140 1.887410 
# 
# From -- ./inp_files/343770.got.cif
#   From: 2010.06.25/outbox.cif.g09.slc.cpg/sg2_172_cif.got.tgz:343770.got - 2010.06.27 13:26:56.
