data_PCOD8026069
_publ_section_title
;
Structure prediction by ZEFSAII (Michael W. Deem and Ramdas Pophale) SiO2 
 PCOD8026069
Probable space group: P -1
;
_chemical_formula_sum "Si O2"
_cell_formula_units_Z 14
_cell_length_a 8.240585
_cell_length_b 5.903037
_cell_length_c 12.489594
_cell_angle_alpha 78.626120
_cell_angle_beta 76.545211
_cell_angle_gamma 92.682482
_cell_volume 576.527155
_symmetry_space_group_name_H-M "P -1"
_symmetry_group_IT_number 2
_symmetry_cell_setting 'triclinic'
loop_
_space_group_symop_operation_xyz
x,y,z
-x,-y,-z
loop_
_atom_site_type_symbol
_atom_site_label
_atom_site_fract_x
_atom_site_fract_y
_atom_site_fract_z
Si Si1 0.180766 0.569851 0.513680
Si Si2 0.846349 0.845195 0.751741
Si Si3 0.149713 0.179493 0.712193
Si Si4 0.361972 0.861805 0.105166
Si Si5 0.038800 0.580452 0.106299
Si Si6 0.604823 0.523092 0.695131
Si Si7 0.367495 0.863720 0.612037
O O1 0.231950 0.363841 0.599147
O O2 0.324278 0.625157 0.397465
O O3 0.201667 0.790527 0.570236
O O4 0.000000 0.500000 0.500000
O O5 0.948732 0.654502 0.809648
O O6 0.756295 0.727399 0.672585
O O7 0.695995 0.929600 0.835667
O O8 0.977559 0.069257 0.691759
O O9 0.105994 0.281513 0.826646
O O10 0.297286 0.005903 0.710021
O O11 0.211401 0.746922 0.064869
O O12 0.432638 0.653752 0.183167
O O13 0.500000 0.000000 0.000000
O O14 0.000000 0.500000 0.000000
O O15 0.439145 0.639313 0.675906
O O16 0.500000 0.000000 0.500000
#
# Coordination Sequence:
#
# PCOD8026069 Si02
#       7
#     2   2   2   2   2   2   2
#     4  12  25  44  71 107 144 193 243 285 354 445
#     4  10  23  48  70 103 140 192 240 296 365 434
#     4  11  24  44  72 102 148 192 238 288 368 432
#     4  10  24  48  75 105 138 189 244 303 369 417
#     4  10  23  48  73 105 139 186 253 302 349 438
#     4  11  25  44  73 104 152 184 241 299 352 437
#     4  12  27  45  67 111 152 190 237 295 361 426
#
# _framework density 24.283331
#
# number of rings (size 3 to 8) (size 9 to 14) (size 15 to 20)
#    0.000    1.143    1.429    4.714    4.000    5.714 
#   15.429    0.000    0.000    0.000    0.000    0.000 
#    0.000    0.000    0.000    0.000    0.000    0.000 
#
# Total GULP energy -173482.759914 kJ/mol
# GULP energy per Si atom -12391.625708 kJ/mol
# Density = 2.422806 g / cm^3
# Si number density = 24.283331 Si / 1000 Ang^3
#
#
#
# Elastic Constant Matrix: (Units=GPa)
#
#
# Indices 1 2 3 4 5 6 
#
# 1 111.9980 45.5183 58.3488 11.8611 -0.7990 -17.0461
# 2 45.5183 111.5187 56.5134 16.1299 -1.9685 -11.8806
# 3 58.3488 56.5134 130.0699 8.7920 -13.2161 -3.6328
# 4 11.8611 16.1299 8.7920 44.0691 7.8403 -12.1046
# 5 -0.7990 -1.9685 -13.2161 7.8403 38.9945 10.6330
# 6 -17.0461 -11.8806 -3.6328 -12.1046 10.6330 51.4297
#
#
#
# Elastic Compliance Matrix: (Units=1/GPa)
#
#
# Indices 1 2 3 4 5 6 
#
# 1 0.013098 -0.002444 -0.004960 -0.000098 -0.002590 0.003939
# 2 -0.002444 0.012625 -0.004244 -0.002630 -0.000685 0.001329
# 3 -0.004960 -0.004244 0.012259 -0.001282 0.004937 -0.003081
# 4 -0.000098 -0.002630 -0.001282 0.027408 -0.008096 0.007394
# 5 -0.002590 -0.000685 0.004937 -0.008096 0.031326 -0.009050
# 6 0.003939 0.001329 -0.003081 0.007394 -0.009050 0.024450
#
#
# Mechanical properties :
#
#
# Convention : Reuss Voigt Hill
#
# Bulk Modulus (GPa) = 68.09207 74.92750 71.50978
# Shear Modulus (GPa) = 33.47679 39.77907 36.62793
#
# Velocity S-wave (km/s) = 3.71697 4.05176 3.88797
# Velocity P-wave (km/s) = 6.82075 7.26716 7.04749
#
# Compressibility (1/GPa) = 0.01468600
#
# Stress axis : x y z
#
# Youngs Moduli (GPa) = 76.34974 79.20672 81.57099
#
# Poissons Ratio (x) = 0.19361 0.40459
# Poissons Ratio (y) = 0.18663 0.34616
# Poissons Ratio (z) = 0.37870 0.33612
#
# Static dielectric constant tensor:
#      x y z
#    x 4.460680 0.055270 0.120080 
#    y 0.055270 4.858940 0.156700 
#    z 0.120080 0.156700 4.308210 
# 
# 
# High freq. dielectric constant tensor:
#      x y z
#    x 1.963530 0.005630 -0.010250 
#    y 0.005630 1.989500 0.007100 
#    z -0.010250 0.007100 1.946800 
# 
# From -- ./inp_files/372933.got.cif
#   From: 2010.06.25/outbox.cif.g09.slc.cpg/sg2_187_cif.got.tgz:372933.got - 2010.06.27 13:26:56.
