data_PCOD8026458
_publ_section_title
;
Structure prediction by ZEFSAII (Michael W. Deem and Ramdas Pophale) SiO2 
 PCOD8026458
Probable space group: P -1
;
_chemical_formula_sum "Si O2"
_cell_formula_units_Z 16
_cell_length_a 13.878783
_cell_length_b 14.662132
_cell_length_c 6.670842
_cell_angle_alpha 92.822108
_cell_angle_beta 67.377628
_cell_angle_gamma 140.643035
_cell_volume 719.648091
_symmetry_space_group_name_H-M "P -1"
_symmetry_group_IT_number 2
_symmetry_cell_setting 'triclinic'
loop_
_space_group_symop_operation_xyz
x,y,z
-x,-y,-z
loop_
_atom_site_type_symbol
_atom_site_label
_atom_site_fract_x
_atom_site_fract_y
_atom_site_fract_z
Si Si1 0.923919 0.085358 0.438550
Si Si2 0.769955 0.833557 0.794580
Si Si3 0.637612 0.969716 0.374872
Si Si4 0.038381 0.503388 0.246211
Si Si5 0.727336 0.226697 0.193535
Si Si6 0.488092 0.694030 0.302212
Si Si7 0.509105 0.419851 0.336090
Si Si8 0.201042 0.433626 0.191182
O O1 0.052189 0.093255 0.268747
O O2 0.045627 0.261251 0.399574
O O3 0.820938 0.974836 0.708048
O O4 0.779574 0.005405 0.374778
O O5 0.673735 0.716176 0.666014
O O6 0.640198 0.740917 0.079449
O O7 0.484260 0.896802 0.643148
O O8 0.541285 0.839020 0.268114
O O9 0.742761 0.129126 0.205976
O O10 0.116211 0.457623 0.142438
O O11 0.000000 0.500000 0.500000
O O12 0.845882 0.370687 0.271915
O O13 0.185431 0.684624 0.079607
O O14 0.468931 0.652099 0.545760
O O15 0.305455 0.549663 0.309557
O O16 0.500000 0.500000 0.500000
O O17 0.678177 0.540271 0.057248
#
# Coordination Sequence:
#
# PCOD8026458 Si02
#       8
#     2   2   2   2   2   2   2   2
#     4  11  22  44  63  94 136 170 212 273 328 374
#     4  10  24  42  65  96 136 171 219 275 313 398
#     4  11  22  45  68  93 132 177 211 276 331 385
#     4  11  23  43  69  98 131 170 217 277 327 385
#     4  10  24  44  67  96 132 166 224 271 325 391
#     4  11  23  42  66  95 128 176 221 261 333 388
#     4  11  22  42  67  95 132 177 218 267 326 389
#     4  11  24  42  67  97 132 171 221 271 320 397
#
# _framework density 22.233091000000002
#
# number of rings (size 3 to 8) (size 9 to 14) (size 15 to 20)
#    0.000    1.250    2.500    3.000    1.750    4.500 
#    6.750    1.875    0.000    0.000    0.000    0.000 
#    0.000    0.000    0.000    0.000    0.000    0.000 
#
# Total GULP energy -198378.212162 kJ/mol
# GULP energy per Si atom -12398.638260 kJ/mol
# Density = 2.218249 g / cm^3
# Si number density = 22.233091 Si / 1000 Ang^3
#
#
#
# Elastic Constant Matrix: (Units=GPa)
#
#
# Indices 1 2 3 4 5 6 
#
# 1 110.6589 33.3743 27.6809 -10.8537 8.9628 1.8238
# 2 33.3743 128.3225 46.8184 -16.7970 7.0327 -7.4421
# 3 27.6809 46.8184 92.7642 -3.2787 10.8673 1.6132
# 4 -10.8537 -16.7970 -3.2787 37.3499 -5.8034 2.1433
# 5 8.9628 7.0327 10.8673 -5.8034 26.7043 -6.6924
# 6 1.8238 -7.4421 1.6132 2.1433 -6.6924 35.5839
#
#
#
# Elastic Compliance Matrix: (Units=1/GPa)
#
#
# Indices 1 2 3 4 5 6 
#
# 1 0.010411 -0.001740 -0.001882 0.001811 -0.002212 -0.001337
# 2 -0.001740 0.010618 -0.004894 0.003890 0.001260 0.002534
# 3 -0.001882 -0.004894 0.014362 -0.002124 -0.004984 -0.002388
# 4 0.001811 0.003890 -0.002124 0.029746 0.005722 0.000102
# 5 -0.002212 0.001260 -0.004984 0.005722 0.043232 0.008389
# 6 -0.001337 0.002534 -0.002388 0.000102 0.008389 0.030381
#
#
# Mechanical properties :
#
#
# Convention : Reuss Voigt Hill
#
# Bulk Modulus (GPa) = 54.46996 60.83253 57.65124
# Shear Modulus (GPa) = 30.88272 34.85241 32.86756
#
# Velocity S-wave (km/s) = 3.73103 3.96358 3.84906
# Velocity P-wave (km/s) = 6.56608 6.95466 6.76316
#
# Compressibility (1/GPa) = 0.01835874
#
# Stress axis : x y z
#
# Youngs Moduli (GPa) = 96.05015 94.17790 69.62891
#
# Poissons Ratio (x) = 0.16392 0.13104
# Poissons Ratio (y) = 0.16718 0.34075
# Poissons Ratio (z) = 0.18076 0.46089
#
# Static dielectric constant tensor:
#      x y z
#    x 4.441550 -0.048430 0.216000 
#    y -0.048430 4.074030 -0.364480 
#    z 0.216000 -0.364480 3.934170 
# 
# 
# High freq. dielectric constant tensor:
#      x y z
#    x 1.883690 -0.000310 0.003480 
#    y -0.000310 1.880950 -0.023430 
#    z 0.003480 -0.023430 1.863680 
# 
# From -- ./inp_files/98047.got.cif
#   From: 2010.06.25/outbox.cif.g09.slc.cpg/sg2_50_cif.got.tgz:98047.got - 2010.06.27 13:26:56.
