data_PCOD8026638
_publ_section_title
;
Structure prediction by ZEFSAII (Michael W. Deem and Ramdas Pophale) SiO2 
 PCOD8026638
Probable space group: P -1
;
_chemical_formula_sum "Si O2"
_cell_formula_units_Z 14
_cell_length_a 17.595076
_cell_length_b 6.397192
_cell_length_c 11.827862
_cell_angle_alpha 122.321419
_cell_angle_beta 45.739543
_cell_angle_gamma 141.945113
_cell_volume 587.398034
_symmetry_space_group_name_H-M "P -1"
_symmetry_group_IT_number 2
_symmetry_cell_setting 'triclinic'
loop_
_space_group_symop_operation_xyz
x,y,z
-x,-y,-z
loop_
_atom_site_type_symbol
_atom_site_label
_atom_site_fract_x
_atom_site_fract_y
_atom_site_fract_z
Si Si1 0.139488 0.666535 0.690716
Si Si2 0.471616 0.602089 0.366381
Si Si3 0.904555 0.277515 0.643648
Si Si4 0.727939 0.538870 0.646843
Si Si5 0.704529 0.614433 0.164994
Si Si6 0.718663 0.377380 0.297171
Si Si7 0.329452 0.692693 0.110710
O O1 0.245860 0.695227 0.498126
O O2 0.129922 0.465661 0.753617
O O3 0.986814 0.473334 0.731929
O O4 0.190703 0.016173 0.781523
O O5 0.413563 0.553051 0.286080
O O6 0.533782 0.428168 0.279468
O O7 0.340689 0.451399 0.546695
O O8 0.611070 0.000330 0.351401
O O9 0.750388 0.170897 0.767753
O O10 0.000000 0.500000 0.500000
O O11 0.870028 0.930062 0.581447
O O12 0.698936 0.489688 0.795345
O O13 0.721033 0.397266 0.165104
O O14 0.746995 0.600724 0.990674
O O15 0.500000 0.000000 0.000000
#
# Coordination Sequence:
#
# PCOD8026638 Si02
#       7
#     2   2   2   2   2   2   2
#     4  10  24  42  72 104 129 187 240 293 343 414
#     4   9  19  35  62 100 130 185 226 285 343 406
#     4  12  27  47  76 102 136 192 246 286 351 421
#     4  11  24  45  74 101 143 181 247 295 340 417
#     4  11  23  40  66 102 148 179 226 287 356 422
#     4   9  19  36  62  97 142 175 228 281 348 410
#     4  12  28  46  72 110 147 187 229 289 363 423
#
# _framework density 23.833924
#
# number of rings (size 3 to 8) (size 9 to 14) (size 15 to 20)
#    0.000    1.429    1.429    3.429    4.000    6.286 
#    0.000    1.429    0.000    0.000    0.000    0.000 
#    0.000    0.000    0.000    0.000    0.000    0.000 
#
# Total GULP energy -173479.003558 kJ/mol
# GULP energy per Si atom -12391.357397 kJ/mol
# Density = 2.377968 g / cm^3
# Si number density = 23.833924 Si / 1000 Ang^3
#
#
#
# Elastic Constant Matrix: (Units=GPa)
#
#
# Indices 1 2 3 4 5 6 
#
# 1 182.8504 17.7924 45.1228 -13.1983 22.8131 2.9956
# 2 17.7924 80.7280 45.0224 5.1291 14.2905 1.1373
# 3 45.1228 45.0224 100.7300 2.4528 26.3121 -1.9250
# 4 -13.1983 5.1291 2.4528 28.0693 4.1450 7.7034
# 5 22.8131 14.2905 26.3121 4.1450 54.3525 -4.0066
# 6 2.9956 1.1373 -1.9250 7.7034 -4.0066 29.8473
#
#
#
# Elastic Compliance Matrix: (Units=1/GPa)
#
#
# Indices 1 2 3 4 5 6 
#
# 1 0.006719 0.000137 -0.002683 0.004284 -0.002049 -0.002233
# 2 0.000137 0.016699 -0.007274 -0.002036 -0.000823 -0.000704
# 3 -0.002683 -0.007274 0.015559 -0.000989 -0.004328 0.001224
# 4 0.004284 -0.002036 -0.000989 0.042094 -0.004874 -0.011935
# 5 -0.002049 -0.000823 -0.004328 -0.004874 0.022251 0.004203
# 6 -0.002233 -0.000704 0.001224 -0.011935 0.004203 0.037478
#
#
# Mechanical properties :
#
#
# Convention : Reuss Voigt Hill
#
# Bulk Modulus (GPa) = 51.71433 64.46482 58.08957
# Shear Modulus (GPa) = 29.96064 39.54520 34.75292
#
# Velocity S-wave (km/s) = 3.54935 4.07774 3.82269
# Velocity P-wave (km/s) = 6.20822 7.01975 6.62642
#
# Compressibility (1/GPa) = 0.01933700
#
# Stress axis : x y z
#
# Youngs Moduli (GPa) = 148.82833 59.88438 64.27306
#
# Poissons Ratio (x) = -0.00823 0.17246
# Poissons Ratio (y) = -0.02046 0.46753
# Poissons Ratio (z) = 0.39933 0.43560
#
# Static dielectric constant tensor:
#      x y z
#    x 4.888470 0.049640 0.057720 
#    y 0.049640 3.996390 0.284050 
#    z 0.057720 0.284050 4.056590 
# 
# 
# High freq. dielectric constant tensor:
#      x y z
#    x 1.983340 0.003000 0.011610 
#    y 0.003000 1.919210 0.023180 
#    z 0.011610 0.023180 1.913830 
# 
# From -- ./inp_files/459617.got.cif
#   From: 2010.06.25/outbox.cif.g09.slc.cpg/sg2_230_cif.got.tgz:459617.got - 2010.06.27 13:26:56.
