data_PCOD8026373
_publ_section_title
;
Structure prediction by ZEFSAII (Michael W. Deem and Ramdas Pophale) SiO2 
 PCOD8026373
Probable space group: P -1
;
_chemical_formula_sum "Si O2"
_cell_formula_units_Z 16
_cell_length_a 11.845625
_cell_length_b 9.244760
_cell_length_c 18.334058
_cell_angle_alpha 82.550262
_cell_angle_beta 54.403121
_cell_angle_gamma 38.098589
_cell_volume 761.536499
_symmetry_space_group_name_H-M "P -1"
_symmetry_group_IT_number 2
_symmetry_cell_setting 'triclinic'
loop_
_space_group_symop_operation_xyz
x,y,z
-x,-y,-z
loop_
_atom_site_type_symbol
_atom_site_label
_atom_site_fract_x
_atom_site_fract_y
_atom_site_fract_z
Si Si1 0.847316 0.655481 0.624235
Si Si2 0.212949 0.783550 0.638144
Si Si3 0.028521 0.676069 0.274037
Si Si4 0.601806 0.785314 0.033048
Si Si5 0.431296 0.725905 0.990398
Si Si6 0.210458 0.600240 0.789612
Si Si7 0.196875 0.281679 0.785827
Si Si8 0.728700 0.032195 0.728566
O O1 0.983479 0.413174 0.644459
O O2 0.000000 0.500000 0.500000
O O3 0.502486 0.942384 0.724998
O O4 0.906308 0.767333 0.621603
O O5 0.500000 0.500000 0.500000
O O6 0.283690 0.653755 0.698986
O O7 0.141420 0.019500 0.660302
O O8 0.940247 0.948916 0.694639
O O9 0.364791 0.401045 0.142771
O O10 0.869419 0.737705 0.264065
O O11 0.431034 0.946601 0.163413
O O12 0.508615 0.718223 0.040254
O O13 0.955789 0.467056 0.927065
O O14 0.500000 0.000000 0.000000
O O15 0.500000 0.500000 0.000000
O O16 0.091937 0.077112 0.075465
O O17 0.192302 0.460956 0.764465
O O18 0.471767 0.364362 0.765615
#
# Coordination Sequence:
#
# PCOD8026373 Si02
#       8
#     2   2   2   2   2   2   2   2
#     4  11  27  44  65  97 136 170 229 275 321 394
#     4  12  27  46  69  92 133 185 225 266 333 398
#     4  11  25  43  68  98 132 174 220 278 329 387
#     4  11  19  39  69  96 132 167 220 267 329 400
#     4  11  20  40  65  98 137 170 217 267 334 399
#     4  11  23  43  68  98 135 173 221 270 338 396
#     4  10  24  41  70 100 130 173 217 270 336 388
#     4  11  25  44  69  99 131 178 219 278 331 391
#
# _framework density 21.010154
#
# number of rings (size 3 to 8) (size 9 to 14) (size 15 to 20)
#    0.000    1.000    3.750    2.250    7.000    3.000 
#    0.000    1.250    0.000    0.000    0.000    0.000 
#    0.000    0.000    0.000    0.000    0.000    0.000 
#
# Total GULP energy -198364.007853 kJ/mol
# GULP energy per Si atom -12397.750491 kJ/mol
# Density = 2.096233 g / cm^3
# Si number density = 21.010154 Si / 1000 Ang^3
#
#
#
# Elastic Constant Matrix: (Units=GPa)
#
#
# Indices 1 2 3 4 5 6 
#
# 1 90.0833 50.5311 25.8146 2.4414 -1.3450 6.5784
# 2 50.5311 126.9557 29.6191 4.2730 -1.9306 3.2065
# 3 25.8146 29.6191 101.7004 11.2210 5.3047 -5.3023
# 4 2.4414 4.2730 11.2210 32.5057 0.0658 5.6704
# 5 -1.3450 -1.9306 5.3047 0.0658 31.6290 6.1582
# 6 6.5784 3.2065 -5.3023 5.6704 6.1582 33.9402
#
#
#
# Elastic Compliance Matrix: (Units=1/GPa)
#
#
# Indices 1 2 3 4 5 6 
#
# 1 0.015067 -0.005314 -0.002634 0.001041 0.001390 -0.003256
# 2 -0.005314 0.010420 -0.001704 -0.000331 0.000755 -0.000302
# 3 -0.002634 -0.001704 0.011822 -0.004311 -0.002924 0.003769
# 4 0.001041 -0.000331 -0.004311 0.033397 0.001999 -0.006786
# 5 0.001390 0.000755 -0.002924 0.001999 0.033616 -0.007231
# 6 -0.003256 -0.000302 0.003769 -0.006786 -0.007231 0.033158
#
#
# Mechanical properties :
#
#
# Convention : Reuss Voigt Hill
#
# Bulk Modulus (GPa) = 55.54257 58.96321 57.25289
# Shear Modulus (GPa) = 30.71520 33.79996 32.25758
#
# Velocity S-wave (km/s) = 3.82766 4.01527 3.92258
# Velocity P-wave (km/s) = 6.78440 7.04426 6.91555
#
# Compressibility (1/GPa) = 0.01800421
#
# Stress axis : x y z
#
# Youngs Moduli (GPa) = 66.37120 95.97109 84.58517
#
# Poissons Ratio (x) = 0.51000 0.22279
# Poissons Ratio (y) = 0.35270 0.14417
# Poissons Ratio (z) = 0.17481 0.16358
#
# Static dielectric constant tensor:
#      x y z
#    x 3.778020 0.113190 -0.011000 
#    y 0.113190 3.815500 0.261380 
#    z -0.011000 0.261380 3.854540 
# 
# 
# High freq. dielectric constant tensor:
#      x y z
#    x 1.826010 0.007030 0.002680 
#    y 0.007030 1.827890 0.007690 
#    z 0.002680 0.007690 1.829010 
# 
# From -- ./inp_files/282595.got.cif
#   From: 2010.06.25/outbox.cif.g09.slc.cpg/sg2_142_cif.got.tgz:282595.got - 2010.06.27 13:26:56.
