data_PCOD8026220
_publ_section_title
;
Structure prediction by ZEFSAII (Michael W. Deem and Ramdas Pophale) SiO2 
 PCOD8026220
Probable space group: P -1
;
_chemical_formula_sum "Si O2"
_cell_formula_units_Z 16
_cell_length_a 15.717044
_cell_length_b 9.062502
_cell_length_c 9.015838
_cell_angle_alpha 76.942318
_cell_angle_beta 47.784145
_cell_angle_gamma 103.371629
_cell_volume 785.104220
_symmetry_space_group_name_H-M "P -1"
_symmetry_group_IT_number 2
_symmetry_cell_setting 'triclinic'
loop_
_space_group_symop_operation_xyz
x,y,z
-x,-y,-z
loop_
_atom_site_type_symbol
_atom_site_label
_atom_site_fract_x
_atom_site_fract_y
_atom_site_fract_z
Si Si1 0.512708 0.765370 0.050842
Si Si2 0.535574 0.042784 0.196512
Si Si3 0.800098 0.816236 0.657906
Si Si4 0.292343 0.853941 0.745253
Si Si5 0.872691 0.513116 0.121088
Si Si6 0.072282 0.164047 0.210389
Si Si7 0.856219 0.949750 0.112705
Si Si8 0.732734 0.604000 0.501569
O O1 0.419632 0.555832 0.247551
O O2 0.521915 0.877453 0.159229
O O3 0.450550 0.810789 0.971492
O O4 0.658521 0.804113 0.826987
O O5 0.664299 0.122832 0.137860
O O6 0.409472 0.984386 0.465185
O O7 0.829372 0.738773 0.787844
O O8 0.809696 0.702661 0.539768
O O9 0.916139 0.025922 0.467027
O O10 0.239191 0.652569 0.806557
O O11 0.175046 0.897662 0.851538
O O12 0.810776 0.520204 0.349966
O O13 0.926200 0.692270 0.928820
O O14 0.000000 0.500000 0.000000
O O15 0.134485 0.063925 0.072049
O O16 0.735458 0.756560 0.360568
O O17 0.000000 0.000000 0.000000
#
# Coordination Sequence:
#
# PCOD8026220 Si02
#       8
#     2   2   2   2   2   2   2   2
#     4  11  23  43  63  95 125 172 208 258 319 378
#     4  10  24  40  66  89 134 167 205 259 320 380
#     4  11  23  41  67  88 130 165 211 262 319 371
#     4  11  22  43  64  96 127 165 212 258 317 373
#     4  11  25  41  67  93 128 164 210 261 311 381
#     4  10  24  42  63  96 124 162 216 265 312 374
#     4  11  21  41  69  92 124 168 210 260 316 373
#     4  11  23  41  65  95 121 163 219 253 311 381
#
# _framework density 20.379460000000002
#
# number of rings (size 3 to 8) (size 9 to 14) (size 15 to 20)
#    0.000    1.250    2.500    3.375    3.500    0.000 
#    2.250    2.500    0.000    0.000    0.000    0.000 
#    0.000    0.000    0.000    0.000    0.000    0.000 
#
# Total GULP energy -198391.032381 kJ/mol
# GULP energy per Si atom -12399.439524 kJ/mol
# Density = 2.033307 g / cm^3
# Si number density = 20.379460 Si / 1000 Ang^3
#
#
#
# Elastic Constant Matrix: (Units=GPa)
#
#
# Indices 1 2 3 4 5 6 
#
# 1 114.8173 52.7153 42.3548 17.6732 1.5429 14.0920
# 2 52.7153 106.0605 28.8297 15.2464 -0.1681 7.4442
# 3 42.3548 28.8297 89.2121 2.2204 5.6042 -0.1817
# 4 17.6732 15.2464 2.2204 39.4376 5.7715 1.7956
# 5 1.5429 -0.1681 5.6042 5.7715 27.4682 9.1980
# 6 14.0920 7.4442 -0.1817 1.7956 9.1980 33.9189
#
#
#
# Elastic Compliance Matrix: (Units=1/GPa)
#
#
# Indices 1 2 3 4 5 6 
#
# 1 0.014053 -0.004516 -0.005303 -0.004448 0.003028 -0.005462
# 2 -0.004516 0.012742 -0.002015 -0.002994 0.001793 -0.001259
# 3 -0.005303 -0.002015 0.014602 0.002828 -0.004564 0.003812
# 4 -0.004448 -0.002994 0.002828 0.029310 -0.007510 0.003005
# 5 0.003028 0.001793 -0.004564 -0.007510 0.043098 -0.012966
# 6 -0.005462 -0.001259 0.003812 0.003005 -0.012966 0.035405
#
#
# Mechanical properties :
#
#
# Convention : Reuss Voigt Hill
#
# Bulk Modulus (GPa) = 56.40026 61.98772 59.19399
# Shear Modulus (GPa) = 27.96600 32.57762 30.27181
#
# Velocity S-wave (km/s) = 3.70843 4.00253 3.85828
# Velocity P-wave (km/s) = 6.78761 7.20021 6.99696
#
# Compressibility (1/GPa) = 0.01773041
#
# Stress axis : x y z
#
# Youngs Moduli (GPa) = 71.15670 78.47865 68.48269
#
# Poissons Ratio (x) = 0.35440 0.36319
# Poissons Ratio (y) = 0.32133 0.13796
# Poissons Ratio (z) = 0.37737 0.15810
#
# Static dielectric constant tensor:
#      x y z
#    x 3.640550 0.271450 0.175570 
#    y 0.271450 4.179630 0.128620 
#    z 0.175570 0.128620 3.936860 
# 
# 
# High freq. dielectric constant tensor:
#      x y z
#    x 1.787200 0.014000 0.006350 
#    y 0.014000 1.805560 0.008630 
#    z 0.006350 0.008630 1.807740 
# 
# From -- ./inp_files/209263.got.cif
#   From: 2010.06.25/outbox.cif.g09.slc.cpg/sg2_105_cif.got.tgz:209263.got - 2010.06.27 13:26:56.
