data_PCOD8026091
_publ_section_title
;
Structure prediction by ZEFSAII (Michael W. Deem and Ramdas Pophale) SiO2 
 PCOD8026091
Probable space group: P -1
;
_chemical_formula_sum "Si O2"
_cell_formula_units_Z 14
_cell_length_a 9.033081
_cell_length_b 5.345676
_cell_length_c 17.990695
_cell_angle_alpha 60.037711
_cell_angle_beta 136.347124
_cell_angle_gamma 105.451212
_cell_volume 512.943505
_symmetry_space_group_name_H-M "P -1"
_symmetry_group_IT_number 2
_symmetry_cell_setting 'triclinic'
loop_
_space_group_symop_operation_xyz
x,y,z
-x,-y,-z
loop_
_atom_site_type_symbol
_atom_site_label
_atom_site_fract_x
_atom_site_fract_y
_atom_site_fract_z
Si Si1 0.284731 0.908983 0.530643
Si Si2 0.270093 0.904359 0.362723
Si Si3 0.171989 0.567443 0.239477
Si Si4 0.496542 0.705832 0.085513
Si Si5 0.150016 0.342191 0.015020
Si Si6 0.507987 0.181214 0.763843
Si Si7 0.815362 0.217524 0.331489
O O1 0.275051 0.757270 0.468598
O O2 0.073243 0.156886 0.430992
O O3 0.486473 0.088758 0.579834
O O4 0.276268 0.683930 0.631530
O O5 0.136719 0.230883 0.278136
O O6 0.147007 0.717451 0.289284
O O7 0.422298 0.555535 0.300323
O O8 0.994889 0.749059 0.092488
O O9 0.307869 0.550429 0.004952
O O10 0.439517 0.786347 0.136729
O O11 0.725575 0.479027 0.202826
O O12 0.500000 0.000000 0.000000
O O13 0.301322 0.083856 0.151858
O O14 0.000000 0.500000 0.000000
O O15 0.275843 0.085083 0.676120
#
# Coordination Sequence:
#
# PCOD8026091 Si02
#       7
#     2   2   2   2   2   2   2
#     4  10  23  48  76 108 149 208 257 320 382 459
#     4  11  26  46  76 115 152 195 265 328 378 452
#     4  12  24  45  76 113 154 198 255 324 388 458
#     4  11  26  46  75 112 154 197 254 322 387 471
#     4  11  24  43  75 109 150 203 256 314 393 469
#     4  11  23  43  71 107 152 200 256 313 388 468
#     4  10  23  50  73 108 153 206 254 310 397 467
#
# _framework density 27.293451000000001
#
# number of rings (size 3 to 8) (size 9 to 14) (size 15 to 20)
#    0.000    1.143    2.857    2.143    2.000    6.857 
#    7.714    2.143    0.000    0.000    0.000    0.000 
#    0.000    0.000    0.000    0.000    0.000    0.000 
#
# Total GULP energy -173587.621371 kJ/mol
# GULP energy per Si atom -12399.115812 kJ/mol
# Density = 2.723133 g / cm^3
# Si number density = 27.293451 Si / 1000 Ang^3
#
#
#
# Elastic Constant Matrix: (Units=GPa)
#
#
# Indices 1 2 3 4 5 6 
#
# 1 76.0047 11.4904 36.3240 0.0542 -9.6824 -1.8675
# 2 11.4904 89.5220 25.3012 22.3255 -20.4784 -0.1861
# 3 36.3240 25.3012 138.3253 14.7102 -15.6038 1.9857
# 4 0.0542 22.3255 14.7102 47.8507 -1.0057 -14.3821
# 5 -9.6824 -20.4784 -15.6038 -1.0057 49.5124 1.2951
# 6 -1.8675 -0.1861 1.9857 -14.3821 1.2951 39.3132
#
#
#
# Elastic Compliance Matrix: (Units=1/GPa)
#
#
# Indices 1 2 3 4 5 6 
#
# 1 0.015428 -0.001124 -0.003965 0.002268 0.001304 0.001715
# 2 -0.001124 0.014636 -0.000956 -0.007251 0.005458 -0.002768
# 3 -0.003965 -0.000956 0.008951 -0.002783 0.001639 -0.001717
# 4 0.002268 -0.007251 -0.002783 0.028272 -0.003137 0.010660
# 5 0.001304 0.005458 0.001639 -0.003137 0.023212 -0.001907
# 6 0.001715 -0.002768 -0.001717 0.010660 -0.001907 0.029555
#
#
# Mechanical properties :
#
#
# Convention : Reuss Voigt Hill
#
# Bulk Modulus (GPa) = 37.13717 50.00924 43.57321
# Shear Modulus (GPa) = 35.43169 42.71771 39.07470
#
# Velocity S-wave (km/s) = 3.60693 3.96046 3.78782
# Velocity P-wave (km/s) = 5.56621 6.26708 5.92701
#
# Compressibility (1/GPa) = 0.02692720
#
# Stress axis : x y z
#
# Youngs Moduli (GPa) = 64.81564 68.32647 111.72333
#
# Poissons Ratio (x) = 0.07677 0.44295
# Poissons Ratio (y) = 0.07282 0.10675
# Poissons Ratio (z) = 0.25697 0.06529
#
# Static dielectric constant tensor:
#      x y z
#    x 5.004410 0.033600 -0.103940 
#    y 0.033600 4.992550 -0.160580 
#    z -0.103940 -0.160580 5.717940 
# 
# 
# High freq. dielectric constant tensor:
#      x y z
#    x 2.099210 -0.007200 0.002730 
#    y -0.007200 2.092800 -0.004690 
#    z 0.002730 -0.004690 2.115180 
# 
# From -- ./inp_files/552492.got.cif
#   From: 2010.06.25/outbox.cif.g09.slc.cpg/sg2_277_cif.got.tgz:552492.got - 2010.06.27 13:26:56.
