data_PCOD8026160
_publ_section_title
;
Structure prediction by ZEFSAII (Michael W. Deem and Ramdas Pophale) SiO2 
 PCOD8026160
Probable space group: P -1
;
_chemical_formula_sum "Si O2"
_cell_formula_units_Z 16
_cell_length_a 20.506093
_cell_length_b 11.860741
_cell_length_c 17.368576
_cell_angle_alpha 139.555387
_cell_angle_beta 20.434933
_cell_angle_gamma 149.182308
_cell_volume 732.681349
_symmetry_space_group_name_H-M "P -1"
_symmetry_group_IT_number 2
_symmetry_cell_setting 'triclinic'
loop_
_space_group_symop_operation_xyz
x,y,z
-x,-y,-z
loop_
_atom_site_type_symbol
_atom_site_label
_atom_site_fract_x
_atom_site_fract_y
_atom_site_fract_z
Si Si1 0.673096 0.766142 0.461843
Si Si2 0.672185 0.720846 0.871734
Si Si3 0.842459 0.414490 0.243964
Si Si4 0.879617 0.160086 0.943711
Si Si5 0.066950 0.321615 0.076586
Si Si6 0.762607 0.034728 0.645275
Si Si7 0.318822 0.124269 0.651303
Si Si8 0.542919 0.267031 0.034717
O O1 0.500000 0.500000 0.500000
O O2 0.636578 0.879448 0.491210
O O3 0.947433 0.861540 0.209628
O O4 0.614683 0.830838 0.639903
O O5 0.557844 0.666879 0.885518
O O6 0.946071 0.806993 0.606482
O O7 0.671140 0.913254 0.010280
O O8 0.500000 0.500000 0.000000
O O9 0.569857 0.302263 0.514362
O O10 0.977396 0.666587 0.195709
O O11 0.006882 0.433244 0.138682
O O12 0.780533 0.245523 0.155091
O O13 0.162268 0.206173 0.870291
O O14 0.260999 0.507301 0.017954
O O15 0.818197 0.125358 0.294045
O O16 0.684288 0.923938 0.759176
O O17 0.679524 0.183210 0.803336
#
# Coordination Sequence:
#
# PCOD8026160 Si02
#       8
#     2   2   2   2   2   2   2   2
#     4  11  20  41  69  97 130 175 222 280 337 393
#     4  11  27  46  69  99 138 182 227 285 343 401
#     4  11  23  41  67 102 131 172 221 279 341 397
#     4  10  24  39  67  98 132 166 226 279 329 407
#     4  11  26  42  66 100 139 175 226 273 346 405
#     4  10  26  44  70  99 135 179 234 278 334 412
#     4  11  24  41  67  99 139 177 217 285 341 402
#     4  11  26  45  70  98 135 187 225 279 335 412
#
# _framework density 21.837596000000001
#
# number of rings (size 3 to 8) (size 9 to 14) (size 15 to 20)
#    0.000    1.250    2.500    1.500   10.500    2.500 
#    0.000    0.000    0.000    0.000    0.000    0.000 
#    0.000    0.000    0.000    0.000    0.000    0.000 
#
# Total GULP energy -198412.162587 kJ/mol
# GULP energy per Si atom -12400.760162 kJ/mol
# Density = 2.178789 g / cm^3
# Si number density = 21.837596 Si / 1000 Ang^3
#
#
#
# Elastic Constant Matrix: (Units=GPa)
#
#
# Indices 1 2 3 4 5 6 
#
# 1 124.4938 49.6121 46.8163 -13.0303 -9.2178 7.6198
# 2 49.6121 117.8698 37.6697 -21.8361 6.5585 -0.9755
# 3 46.8163 37.6697 86.0238 -13.5104 0.5169 -5.4021
# 4 -13.0303 -21.8361 -13.5104 34.9471 0.8109 0.5122
# 5 -9.2178 6.5585 0.5169 0.8109 30.9756 -1.3499
# 6 7.6198 -0.9755 -5.4021 0.5122 -1.3499 29.0448
#
#
#
# Elastic Compliance Matrix: (Units=1/GPa)
#
#
# Indices 1 2 3 4 5 6 
#
# 1 0.012017 -0.003636 -0.005203 0.000158 0.004252 -0.004048
# 2 -0.003636 0.011959 -0.002366 0.005278 -0.003684 0.000651
# 3 -0.005203 -0.002366 0.016205 0.002813 -0.001209 0.004194
# 4 0.000158 0.005278 0.002813 0.033105 -0.001985 -0.000017
# 5 0.004252 -0.003684 -0.001209 -0.001985 0.034408 0.000170
# 6 -0.004048 0.000651 0.004194 -0.000017 0.000170 0.036302
#
#
# Mechanical properties :
#
#
# Convention : Reuss Voigt Hill
#
# Bulk Modulus (GPa) = 56.27175 66.28706 61.27940
# Shear Modulus (GPa) = 29.01432 31.94613 30.48022
#
# Velocity S-wave (km/s) = 3.64901 3.82893 3.74005
# Velocity P-wave (km/s) = 6.60136 7.06881 6.83908
#
# Compressibility (1/GPa) = 0.01777091
#
# Stress axis : x y z
#
# Youngs Moduli (GPa) = 83.21385 83.62129 61.71116
#
# Poissons Ratio (x) = 0.30407 0.32106
# Poissons Ratio (y) = 0.30259 0.14600
# Poissons Ratio (z) = 0.43294 0.19783
#
# Static dielectric constant tensor:
#      x y z
#    x 4.352550 0.102240 0.100100 
#    y 0.102240 3.986990 0.042630 
#    z 0.100100 0.042630 4.007880 
# 
# 
# High freq. dielectric constant tensor:
#      x y z
#    x 1.866570 0.000400 -0.008510 
#    y 0.000400 1.854450 -0.000950 
#    z -0.008510 -0.000950 1.860580 
# 
# From -- ./inp_files/577977.got.cif
#   From: 2010.06.25/outbox.cif.g09.slc.cpg/sg2_289_cif.got.tgz:577977.got - 2010.06.27 13:26:56.
