data_PCOD8027228
_publ_section_title
;
Structure prediction by ZEFSAII (Michael W. Deem and Ramdas Pophale) SiO2 
 PCOD8027228
Probable space group: P -1
;
_chemical_formula_sum "Si O2"
_cell_formula_units_Z 14
_cell_length_a 17.791468
_cell_length_b 14.593324
_cell_length_c 11.287133
_cell_angle_alpha 28.280826
_cell_angle_beta 30.778644
_cell_angle_gamma 28.617261
_cell_volume 615.300123
_symmetry_space_group_name_H-M "P -1"
_symmetry_group_IT_number 2
_symmetry_cell_setting 'triclinic'
loop_
_space_group_symop_operation_xyz
x,y,z
-x,-y,-z
loop_
_atom_site_type_symbol
_atom_site_label
_atom_site_fract_x
_atom_site_fract_y
_atom_site_fract_z
Si Si1 0.184750 0.453920 0.407274
Si Si2 0.064528 0.674132 0.704697
Si Si3 0.517524 0.084930 0.006652
Si Si4 0.263711 0.768548 0.799715
Si Si5 0.367853 0.352481 0.511904
Si Si6 0.203891 0.830195 0.542461
Si Si7 0.812940 0.747967 0.601594
O O1 0.328772 0.351001 0.428181
O O2 0.231567 0.262297 0.464179
O O3 0.998012 0.536839 0.622099
O O4 0.171673 0.670269 0.115300
O O5 0.223097 0.576638 0.512845
O O6 0.119684 0.714064 0.713742
O O7 0.919199 0.903326 0.584908
O O8 0.000000 0.500000 0.000000
O O9 0.330892 0.254692 0.117556
O O10 0.618666 0.870708 0.197757
O O11 0.621624 0.215435 0.705336
O O12 0.500000 0.000000 0.000000
O O13 0.461221 0.640081 0.711780
O O14 0.241317 0.726682 0.740258
O O15 0.180135 0.028526 0.643004
#
# Coordination Sequence:
#
# PCOD8027228 Si02
#       7
#     2   2   2   2   2   2   2
#     4  11  25  45  65 100 131 186 232 265 335 395
#     4  11  25  43  67 103 137 174 224 284 337 409
#     4  11  22  44  70 100 139 174 223 281 343 405
#     4  11  24  44  68  98 136 176 223 283 330 410
#     4  11  24  41  68  98 138 176 224 283 330 395
#     4  11  24  44  68 102 135 181 221 274 359 392
#     4  10  24  44  70  96 136 183 221 279 329 400
#
# _framework density 22.753125000000001
#
# number of rings (size 3 to 8) (size 9 to 14) (size 15 to 20)
#    0.000    1.143    4.286    1.714    2.000    7.429 
#    2.571    0.000    0.000    0.000    0.000    0.000 
#    0.000    0.000    0.000    0.000    0.000    0.000 
#
# Total GULP energy -173670.740680 kJ/mol
# GULP energy per Si atom -12405.052906 kJ/mol
# Density = 2.270134 g / cm^3
# Si number density = 22.753125 Si / 1000 Ang^3
#
#
#
# Elastic Constant Matrix: (Units=GPa)
#
#
# Indices 1 2 3 4 5 6 
#
# 1 176.6907 40.5736 46.5967 2.2832 5.1325 -9.5881
# 2 40.5736 92.2947 35.1468 31.1316 -1.1021 10.8023
# 3 46.5967 35.1468 82.0779 8.5225 -2.5405 -0.9018
# 4 2.2832 31.1316 8.5225 37.8695 4.2972 -5.6793
# 5 5.1325 -1.1021 -2.5405 4.2972 37.4542 -2.5601
# 6 -9.5881 10.8023 -0.9018 -5.6793 -2.5601 33.3118
#
#
#
# Elastic Compliance Matrix: (Units=1/GPa)
#
#
# Indices 1 2 3 4 5 6 
#
# 1 0.007634 -0.004238 -0.002991 0.004499 -0.001607 0.004134
# 2 -0.004238 0.022594 -0.005341 -0.019141 0.002274 -0.011780
# 3 -0.002991 -0.005341 0.016120 0.001029 0.001336 0.001586
# 4 0.004499 -0.019141 0.001029 0.044435 -0.005203 0.014706
# 5 -0.001607 0.002274 0.001336 -0.005203 0.027679 0.000076
# 6 0.004134 -0.011780 0.001586 0.014706 0.000076 0.037585
#
#
# Mechanical properties :
#
#
# Convention : Reuss Voigt Hill
#
# Bulk Modulus (GPa) = 47.14775 66.18861 56.66818
# Shear Modulus (GPa) = 26.55948 36.97685 31.76817
#
# Velocity S-wave (km/s) = 3.42027 4.03567 3.74064
# Velocity P-wave (km/s) = 6.03026 7.13222 6.60426
#
# Compressibility (1/GPa) = 0.02120992
#
# Stress axis : x y z
#
# Youngs Moduli (GPa) = 130.98625 44.25978 62.03297
#
# Poissons Ratio (x) = 0.18756 0.18554
# Poissons Ratio (y) = 0.55509 0.33130
# Poissons Ratio (z) = 0.39178 0.23638
#
# Static dielectric constant tensor:
#      x y z
#    x 4.180750 -0.006200 -0.102520 
#    y -0.006200 4.245800 0.232210 
#    z -0.102520 0.232210 4.090130 
# 
# 
# High freq. dielectric constant tensor:
#      x y z
#    x 1.909470 0.002080 -0.009410 
#    y 0.002080 1.903500 0.011490 
#    z -0.009410 0.011490 1.893650 
# 
# From -- ./inp_files/345726.got.cif
#   From: 2010.06.25/outbox.cif.g09.slc.cpg/sg2_173_cif.got.tgz:345726.got - 2010.06.27 13:26:56.
