data_PCOD8027789
_publ_section_title
;
Structure prediction by ZEFSAII (Michael W. Deem and Ramdas Pophale) SiO2 
 PCOD8027789
Probable space group: P -1
;
_chemical_formula_sum "Si O2"
_cell_formula_units_Z 16
_cell_length_a 11.150977
_cell_length_b 8.075186
_cell_length_c 14.622835
_cell_angle_alpha 67.851313
_cell_angle_beta 129.804137
_cell_angle_gamma 138.854843
_cell_volume 651.040967
_symmetry_space_group_name_H-M "P -1"
_symmetry_group_IT_number 2
_symmetry_cell_setting 'triclinic'
loop_
_space_group_symop_operation_xyz
x,y,z
-x,-y,-z
loop_
_atom_site_type_symbol
_atom_site_label
_atom_site_fract_x
_atom_site_fract_y
_atom_site_fract_z
Si Si1 0.907976 0.428412 0.732969
Si Si2 0.208713 0.806886 0.962578
Si Si3 0.441497 0.212268 0.561317
Si Si4 0.711311 0.661507 0.393880
Si Si5 0.465000 0.227942 0.860459
Si Si6 0.104368 0.220977 0.074284
Si Si7 0.090178 0.705158 0.578380
Si Si8 0.698473 0.891011 0.686341
O O1 0.707954 0.408617 0.638105
O O2 0.061862 0.571485 0.867659
O O3 0.067110 0.593629 0.688830
O O4 0.798820 0.142369 0.736711
O O5 0.054199 0.741660 0.985541
O O6 0.316232 0.069335 0.910739
O O7 0.412174 0.855843 0.093097
O O8 0.393059 0.365200 0.552721
O O9 0.301217 0.072265 0.428783
O O10 0.347627 0.973558 0.629599
O O11 0.696965 0.821351 0.285971
O O12 0.555725 0.363654 0.349856
O O13 0.963200 0.794939 0.494607
O O14 0.666379 0.531099 0.915130
O O15 0.152907 0.160932 0.206496
O O16 0.000000 0.000000 0.000000
O O17 0.000000 0.500000 0.500000
#
# Coordination Sequence:
#
# PCOD8027789 Si02
#       8
#     2   2   2   2   2   2   2   2
#     4  12  24  44  69 100 138 180 229 277 338 402
#     4  11  25  45  75  96 133 182 227 282 338 403
#     4  12  24  42  67  99 138 181 227 275 343 407
#     4  11  24  42  68  99 138 180 225 282 337 404
#     4  10  24  47  68 102 134 176 234 273 337 404
#     4  11  25  44  71 103 135 176 226 284 338 398
#     4  12  25  41  66 100 139 178 222 276 337 401
#     4  11  23  41  66  98 140 177 221 279 339 406
#
# _framework density 24.576025999999999
#
# number of rings (size 3 to 8) (size 9 to 14) (size 15 to 20)
#    0.000    0.750    2.500    5.250    3.500    1.500 
#    0.000    5.000    0.000    0.000    0.000    0.000 
#    0.000    0.000    0.000    0.000    0.000    0.000 
#
# Total GULP energy -198419.894137 kJ/mol
# GULP energy per Si atom -12401.243384 kJ/mol
# Density = 2.452009 g / cm^3
# Si number density = 24.576026 Si / 1000 Ang^3
#
#
#
# Elastic Constant Matrix: (Units=GPa)
#
#
# Indices 1 2 3 4 5 6 
#
# 1 70.9135 10.5735 20.0876 5.7140 -9.6036 -6.1992
# 2 10.5735 102.6716 24.1264 -1.4948 -11.6435 4.8268
# 3 20.0876 24.1264 89.7346 -8.5914 -0.3627 0.6129
# 4 5.7140 -1.4948 -8.5914 35.5546 -4.7215 1.0871
# 5 -9.6036 -11.6435 -0.3627 -4.7215 32.8374 -0.1910
# 6 -6.1992 4.8268 0.6129 1.0871 -0.1910 41.9832
#
#
#
# Elastic Compliance Matrix: (Units=1/GPa)
#
#
# Indices 1 2 3 4 5 6 
#
# 1 0.016290 -0.000482 -0.003814 -0.003093 0.004122 0.002615
# 2 -0.000482 0.010932 -0.002769 0.000406 0.003756 -0.001281
# 3 -0.003814 -0.002769 0.013073 0.003479 -0.001456 -0.000532
# 4 -0.003093 0.000406 0.003479 0.029996 0.003583 -0.001314
# 5 0.004122 0.003756 -0.001456 0.003583 0.033491 0.000258
# 6 0.002615 -0.001281 -0.000532 -0.001314 0.000258 0.024395
#
#
# Mechanical properties :
#
#
# Convention : Reuss Voigt Hill
#
# Bulk Modulus (GPa) = 38.21819 41.43274 39.82547
# Shear Modulus (GPa) = 33.10615 35.97717 34.54166
#
# Velocity S-wave (km/s) = 3.67426 3.83026 3.75307
# Velocity P-wave (km/s) = 5.79525 6.03795 5.91785
#
# Compressibility (1/GPa) = 0.02616555
#
# Stress axis : x y z
#
# Youngs Moduli (GPa) = 61.38715 91.47427 76.49352
#
# Poissons Ratio (x) = 0.04408 0.29177
# Poissons Ratio (y) = 0.02958 0.21178
# Poissons Ratio (z) = 0.23415 0.25325
#
# Static dielectric constant tensor:
#      x y z
#    x 4.211330 0.055180 0.153010 
#    y 0.055180 4.675550 -0.076160 
#    z 0.153010 -0.076160 4.525820 
# 
# 
# High freq. dielectric constant tensor:
#      x y z
#    x 1.954420 0.002580 0.004990 
#    y 0.002580 2.008770 -0.005800 
#    z 0.004990 -0.005800 1.975750 
# 
# From -- ./inp_files/427996.got.cif
#   From: 2010.06.25/outbox.cif.g09.slc.cpg/sg2_214_cif.got.tgz:427996.got - 2010.06.27 13:26:56.
