data_PCOD8027746
_publ_section_title
;
Structure prediction by ZEFSAII (Michael W. Deem and Ramdas Pophale) SiO2 
 PCOD8027746
Probable space group: P -1
;
_chemical_formula_sum "Si O2"
_cell_formula_units_Z 16
_cell_length_a 5.612990
_cell_length_b 11.443901
_cell_length_c 11.700529
_cell_angle_alpha 108.467988
_cell_angle_beta 75.341920
_cell_angle_gamma 113.471341
_cell_volume 646.897522
_symmetry_space_group_name_H-M "P -1"
_symmetry_group_IT_number 2
_symmetry_cell_setting 'triclinic'
loop_
_space_group_symop_operation_xyz
x,y,z
-x,-y,-z
loop_
_atom_site_type_symbol
_atom_site_label
_atom_site_fract_x
_atom_site_fract_y
_atom_site_fract_z
Si Si1 0.789845 0.006298 0.429267
Si Si2 0.609934 0.741149 0.971708
Si Si3 0.918908 0.383926 0.885918
Si Si4 0.797389 0.217931 0.330626
Si Si5 0.679100 0.434026 0.523315
Si Si6 0.578451 0.935343 0.860968
Si Si7 0.778090 0.542245 0.771215
Si Si8 0.903926 0.844317 0.184693
O O1 0.725065 0.883186 0.311293
O O2 0.500000 0.000000 0.500000
O O3 0.917888 0.143695 0.385968
O O4 0.000000 0.000000 0.500000
O O5 0.348208 0.723553 0.068918
O O6 0.830596 0.837213 0.057245
O O7 0.632719 0.808328 0.865282
O O8 0.622928 0.595964 0.901454
O O9 0.911092 0.447790 0.784593
O O10 0.113666 0.302730 0.824664
O O11 0.000000 0.500000 0.000000
O O12 0.609983 0.284658 0.440449
O O13 0.643198 0.110742 0.222760
O O14 0.015786 0.329490 0.270107
O O15 0.500000 0.500000 0.500000
O O16 0.594640 0.447688 0.668416
O O17 0.000000 0.500000 0.500000
O O18 0.819122 0.039342 0.799422
O O19 0.500000 0.000000 0.000000
#
# Coordination Sequence:
#
# PCOD8027746 Si02
#       8
#     2   2   2   2   2   2   2   2
#     4  12  30  52  79 110 153 208 264 326 391 458
#     4  12  24  44  74 110 152 196 253 320 385 470
#     4  12  26  47  70 113 154 198 252 315 393 470
#     4  11  25  50  76 111 155 196 267 322 381 469
#     4  10  24  46  73 108 146 197 256 313 379 452
#     4  12  22  43  78 110 154 202 258 316 390 459
#     4  11  24  45  75 110 149 203 251 316 393 463
#     4  12  27  47  76 110 156 199 264 316 395 464
#
# _framework density 24.733439000000001
#
# number of rings (size 3 to 8) (size 9 to 14) (size 15 to 20)
#    0.000    0.500    2.500    5.250    3.500    4.000 
#    2.250    0.000    0.000    0.000    0.000    0.000 
#    0.000    0.000    0.000    0.000    0.000    0.000 
#
# Total GULP energy -198274.157400 kJ/mol
# GULP energy per Si atom -12392.134837 kJ/mol
# Density = 2.467715 g / cm^3
# Si number density = 24.733439 Si / 1000 Ang^3
#
#
#
# Elastic Constant Matrix: (Units=GPa)
#
#
# Indices 1 2 3 4 5 6 
#
# 1 112.1094 39.3693 49.6275 -2.6710 12.4588 -29.0167
# 2 39.3693 126.2932 41.3758 -7.6407 5.5084 -31.0367
# 3 49.6275 41.3758 172.6784 26.1215 10.6921 -21.5735
# 4 -2.6710 -7.6407 26.1215 52.7713 -15.6158 -0.4868
# 5 12.4588 5.5084 10.6921 -15.6158 49.7721 -3.7340
# 6 -29.0167 -31.0367 -21.5735 -0.4868 -3.7340 45.5137
#
#
#
# Elastic Compliance Matrix: (Units=1/GPa)
#
#
# Indices 1 2 3 4 5 6 
#
# 1 0.012180 -0.001479 -0.002565 0.001270 -0.001528 0.005429
# 2 -0.001479 0.010436 -0.001857 0.002657 0.000852 0.005392
# 3 -0.002565 -0.001857 0.007963 -0.005044 -0.002399 0.000622
# 4 0.001270 0.002657 -0.005044 0.024331 0.008192 0.001163
# 5 -0.001528 0.000852 -0.002399 0.008192 0.023502 0.000485
# 6 0.005429 0.005392 0.000622 0.001163 0.000485 0.029457
#
#
# Mechanical properties :
#
#
# Convention : Reuss Voigt Hill
#
# Bulk Modulus (GPa) = 53.25660 74.64734 63.95197
# Shear Modulus (GPa) = 39.70510 48.32532 44.01521
#
# Velocity S-wave (km/s) = 4.01099 4.42503 4.22309
# Velocity P-wave (km/s) = 6.55970 7.50694 7.04925
#
# Compressibility (1/GPa) = 0.01877701
#
# Stress axis : x y z
#
# Youngs Moduli (GPa) = 82.10136 95.82207 125.58766
#
# Poissons Ratio (x) = 0.14169 0.32219
# Poissons Ratio (y) = 0.12140 0.23318
# Poissons Ratio (z) = 0.21063 0.17791
#
# Static dielectric constant tensor:
#      x y z
#    x 4.572890 -0.371750 -0.059970 
#    y -0.371750 4.816120 0.222150 
#    z -0.059970 0.222150 5.175530 
# 
# 
# High freq. dielectric constant tensor:
#      x y z
#    x 1.974010 -0.019100 -0.000980 
#    y -0.019100 1.991880 0.012150 
#    z -0.000980 0.012150 2.006560 
# 
# From -- ./inp_files/365001.got.cif
#   From: 2010.06.25/outbox.cif.g09.slc.cpg/sg2_183_cif.got.tgz:365001.got - 2010.06.27 13:26:56.
