data_PCOD8027599
_publ_section_title
;
Structure prediction by ZEFSAII (Michael W. Deem and Ramdas Pophale) SiO2 
 PCOD8027599
Probable space group: P -1
;
_chemical_formula_sum "Si O2"
_cell_formula_units_Z 12
_cell_length_a 5.918535
_cell_length_b 17.234324
_cell_length_c 13.485210
_cell_angle_alpha 155.003704
_cell_angle_beta 96.254558
_cell_angle_gamma 75.174563
_cell_volume 535.828039
_symmetry_space_group_name_H-M "P -1"
_symmetry_group_IT_number 2
_symmetry_cell_setting 'triclinic'
loop_
_space_group_symop_operation_xyz
x,y,z
-x,-y,-z
loop_
_atom_site_type_symbol
_atom_site_label
_atom_site_fract_x
_atom_site_fract_y
_atom_site_fract_z
Si Si1 0.041626 0.974561 0.856612
Si Si2 0.041627 0.592536 0.710477
Si Si3 0.300616 0.316139 0.023051
Si Si4 0.499984 0.363404 0.590034
Si Si5 0.699245 0.890788 0.597739
Si Si6 0.805655 0.895074 0.395089
O O1 0.312192 0.822236 0.673985
O O2 0.857483 0.884830 0.695603
O O3 0.000000 0.000000 0.000000
O O4 0.000188 0.179657 0.039069
O O5 0.312306 0.470672 0.618880
O O6 0.000000 0.500000 0.500000
O O7 0.857746 0.573892 0.763184
O O8 0.410789 0.472182 0.167745
O O9 0.132484 0.280417 0.885988
O O10 0.499786 0.109338 0.828124
O O11 0.410605 0.276791 0.581188
O O12 0.867450 0.825267 0.430899
O O13 0.500000 0.000000 0.500000
O O14 0.000000 0.000000 0.500000
#
# Coordination Sequence:
#
# PCOD8027599 Si02
#       6
#     2   2   2   2   2   2
#     4  12  26  45  72 105 148 195 248 313 375 451
#     4  12  26  45  72 105 148 195 248 313 375 451
#     4  11  24  46  74 105 148 194 250 311 376 451
#     4  12  26  45  72 108 146 193 252 306 382 448
#     4  11  24  46  74 105 148 194 250 311 376 451
#     4  10  24  45  79 111 149 203 254 314 381 447
#
# _framework density 22.395247000000001
#
# number of rings (size 3 to 8) (size 9 to 14) (size 15 to 20)
#    0.000    0.667    3.333    4.000    7.000    3.333 
#    0.000    3.333    0.000    0.000    0.000    0.000 
#    0.000    0.000    0.000    0.000    0.000    0.000 
#
# Total GULP energy -148724.411213 kJ/mol
# GULP energy per Si atom -12393.700934 kJ/mol
# Density = 2.234427 g / cm^3
# Si number density = 22.395247 Si / 1000 Ang^3
#
#
#
# Elastic Constant Matrix: (Units=GPa)
#
#
# Indices 1 2 3 4 5 6 
#
# 1 140.1307 72.5356 68.4230 -1.4922 19.1814 19.1985
# 2 72.5356 136.7936 89.0269 -16.2306 20.6691 8.5564
# 3 68.4230 89.0269 128.4405 -2.4000 11.0278 13.2766
# 4 -1.4922 -16.2306 -2.4000 68.1949 -2.9734 0.9194
# 5 19.1814 20.6691 11.0278 -2.9734 37.0413 20.7823
# 6 19.1985 8.5564 13.2766 0.9194 20.7823 32.0081
#
#
#
# Elastic Compliance Matrix: (Units=1/GPa)
#
#
# Indices 1 2 3 4 5 6 
#
# 1 0.011113 -0.003797 -0.002831 -0.000729 -0.000554 -0.004096
# 2 -0.003797 0.016667 -0.009491 0.003099 -0.008174 0.006977
# 3 -0.002831 -0.009491 0.015995 -0.001462 0.005042 -0.005631
# 4 -0.000729 0.003099 -0.001462 0.015374 0.000699 -0.000680
# 5 -0.000554 -0.008174 0.005042 0.000699 0.047462 -0.030410
# 6 -0.004096 0.006977 -0.005631 -0.000680 -0.030410 0.053934
#
#
# Mechanical properties :
#
#
# Convention : Reuss Voigt Hill
#
# Bulk Modulus (GPa) = 86.68539 96.14839 91.41689
# Shear Modulus (GPa) = 25.42870 39.14080 32.28475
#
# Velocity S-wave (km/s) = 3.37330 4.18512 3.80095
# Velocity P-wave (km/s) = 7.34597 8.14735 7.75702
#
# Compressibility (1/GPa) = 0.01153597
#
# Stress axis : x y z
#
# Youngs Moduli (GPa) = 89.98340 59.99835 62.52140
#
# Poissons Ratio (x) = 0.22781 0.17701
# Poissons Ratio (y) = 0.34166 0.59341
# Poissons Ratio (z) = 0.25475 0.56947
#
# Static dielectric constant tensor:
#      x y z
#    x 4.341260 0.062090 0.073370 
#    y 0.062090 4.292530 -0.077350 
#    z 0.073370 -0.077350 4.259320 
# 
# 
# High freq. dielectric constant tensor:
#      x y z
#    x 1.889960 0.005640 0.006910 
#    y 0.005640 1.893340 -0.001800 
#    z 0.006910 -0.001800 1.891870 
# 
# From -- ./inp_files/33096.got.cif
#   From: 2010.06.25/outbox.cif.g09.slc.cpg/sg2_17_cif.got.tgz:33096.got - 2010.06.27 13:26:56.
