data_PCOD8027930
_publ_section_title
;
Structure prediction by ZEFSAII (Michael W. Deem and Ramdas Pophale) SiO2 
 PCOD8027930
Probable space group: P -1
;
_chemical_formula_sum "Si O2"
_cell_formula_units_Z 14
_cell_length_a 14.282883
_cell_length_b 11.505877
_cell_length_c 13.733234
_cell_angle_alpha 33.130449
_cell_angle_beta 145.037182
_cell_angle_gamma 150.444172
_cell_volume 572.683246
_symmetry_space_group_name_H-M "P -1"
_symmetry_group_IT_number 2
_symmetry_cell_setting 'triclinic'
loop_
_space_group_symop_operation_xyz
x,y,z
-x,-y,-z
loop_
_atom_site_type_symbol
_atom_site_label
_atom_site_fract_x
_atom_site_fract_y
_atom_site_fract_z
Si Si1 0.174289 0.295221 0.699416
Si Si2 0.184275 0.600284 0.217575
Si Si3 0.091824 0.263027 0.201790
Si Si4 0.440644 0.956148 0.669716
Si Si5 0.981234 0.524872 0.295619
Si Si6 0.237748 0.117787 0.081225
Si Si7 0.389891 0.345585 0.249196
O O1 0.106584 0.491305 0.509425
O O2 0.376287 0.414779 0.725363
O O3 0.197965 0.235133 0.872070
O O4 0.995745 0.041179 0.666524
O O5 0.170407 0.376419 0.297586
O O6 0.058264 0.475688 0.295906
O O7 0.418716 0.830605 0.276745
O O8 0.093227 0.727007 0.991261
O O9 0.279764 0.424450 0.173720
O O10 0.257716 0.688303 0.750506
O O11 0.570535 0.887582 0.767219
O O12 0.359797 0.078469 0.444106
O O13 0.039105 0.820355 0.141684
O O14 0.287261 0.299089 0.089292
#
# Coordination Sequence:
#
# PCOD8027930 Si02
#       7
#     2   2   2   2   2   2   2
#     4  12  24  46  69 107 138 181 235 278 341 419
#     4  10  24  49  70  99 142 176 233 294 337 411
#     4  11  25  46  72 102 135 185 233 281 352 406
#     4  11  23  45  70 103 137 184 227 280 349 404
#     4  11  24  46  72 101 142 183 228 284 346 405
#     4  11  26  47  69 102 148 180 228 286 337 415
#     4  12  26  45  70 106 141 181 233 283 343 412
#
# _framework density 24.446324000000001
#
# number of rings (size 3 to 8) (size 9 to 14) (size 15 to 20)
#    0.000    0.857    7.143    0.857    2.000    4.571 
#    0.000    2.857    0.000    0.000    0.000    0.000 
#    0.000    0.000    0.000    0.000    0.000    0.000 
#
# Total GULP energy -173659.255694 kJ/mol
# GULP energy per Si atom -12404.232550 kJ/mol
# Density = 2.439068 g / cm^3
# Si number density = 24.446324 Si / 1000 Ang^3
#
#
#
# Elastic Constant Matrix: (Units=GPa)
#
#
# Indices 1 2 3 4 5 6 
#
# 1 69.8946 32.5982 -27.3192 6.8542 -10.6736 7.9372
# 2 32.5982 114.6590 -0.8048 7.5414 -12.7590 39.4581
# 3 -27.3192 -0.8048 78.8620 -7.6174 -9.2540 -0.3524
# 4 6.8542 7.5414 -7.6174 30.8372 10.9492 -3.1662
# 5 -10.6736 -12.7590 -9.2540 10.9492 22.4251 2.7742
# 6 7.9372 39.4581 -0.3524 -3.1662 2.7742 49.8981
#
#
#
# Elastic Compliance Matrix: (Units=1/GPa)
#
#
# Indices 1 2 3 4 5 6 
#
# 1 0.023208 -0.003037 0.009235 -0.008711 0.017724 -0.002763
# 2 -0.003037 0.016818 -0.000194 -0.010205 0.014793 -0.014287
# 3 0.009235 -0.000194 0.017130 -0.002551 0.012856 -0.002071
# 4 -0.008711 -0.010205 -0.002551 0.051178 -0.037823 0.014788
# 5 0.017724 0.014793 0.012856 -0.037823 0.087904 -0.021714
# 6 -0.002763 -0.014287 -0.002071 0.014788 -0.021714 0.033909
#
#
# Mechanical properties :
#
#
# Convention : Reuss Voigt Hill
#
# Bulk Modulus (GPa) = 14.45874 30.26266 22.36070
# Shear Modulus (GPa) = 20.73010 37.89485 29.31247
#
# Velocity S-wave (km/s) = 2.91518 3.94143 3.46649
# Velocity P-wave (km/s) = 4.15431 5.75494 5.01885
#
# Compressibility (1/GPa) = 0.06916234
#
# Stress axis : x y z
#
# Youngs Moduli (GPa) = 43.08863 59.46087 58.37595
#
# Poissons Ratio (x) = 0.18060 -0.53908
# Poissons Ratio (y) = 0.13087 0.01134
# Poissons Ratio (z) = -0.39791 0.01155
#
# Static dielectric constant tensor:
#      x y z
#    x 4.623310 0.079620 0.052400 
#    y 0.079620 4.578900 0.030810 
#    z 0.052400 0.030810 4.543650 
# 
# 
# High freq. dielectric constant tensor:
#      x y z
#    x 1.972280 0.018620 0.010270 
#    y 0.018620 1.971530 0.007300 
#    z 0.010270 0.007300 1.987390 
# 
# From -- ./inp_files/531654.got.cif
#   From: 2010.06.25/outbox.cif.g09.slc.cpg/sg2_266_cif.got.tgz:531654.got - 2010.06.27 13:26:56.
