data_PCOD8027978
_publ_section_title
;
Structure prediction by ZEFSAII (Michael W. Deem and Ramdas Pophale) SiO2 
 PCOD8027978
Probable space group: P -1
;
_chemical_formula_sum "Si O2"
_cell_formula_units_Z 16
_cell_length_a 10.444847
_cell_length_b 10.328439
_cell_length_c 9.566441
_cell_angle_alpha 60.634915
_cell_angle_beta 92.004978
_cell_angle_gamma 59.128853
_cell_volume 713.081278
_symmetry_space_group_name_H-M "P -1"
_symmetry_group_IT_number 2
_symmetry_cell_setting 'triclinic'
loop_
_space_group_symop_operation_xyz
x,y,z
-x,-y,-z
loop_
_atom_site_type_symbol
_atom_site_label
_atom_site_fract_x
_atom_site_fract_y
_atom_site_fract_z
Si Si1 0.644356 0.174686 0.513486
Si Si2 0.207561 0.612125 0.539428
Si Si3 0.106258 0.034728 0.579543
Si Si4 0.916515 0.409375 0.003330
Si Si5 0.665786 0.656334 0.075327
Si Si6 0.301623 0.832167 0.967937
Si Si7 0.703558 0.484473 0.723134
Si Si8 0.233635 0.074610 0.096981
O O1 0.709276 0.295518 0.457967
O O2 0.461979 0.308779 0.384068
O O3 0.749564 0.006933 0.492869
O O4 0.644845 0.099238 0.705693
O O5 0.297679 0.413593 0.726292
O O6 0.231414 0.576519 0.396502
O O7 0.014851 0.748154 0.492407
O O8 0.186710 0.903745 0.789683
O O9 0.000000 0.000000 0.500000
O O10 0.830461 0.494904 0.806311
O O11 0.781299 0.467732 0.084578
O O12 0.000000 0.500000 0.000000
O O13 0.056608 0.186936 0.104793
O O14 0.481170 0.757816 0.971885
O O15 0.705067 0.801096 0.981250
O O16 0.310658 0.664914 0.125327
O O17 0.226236 0.002588 0.984101
#
# Coordination Sequence:
#
# PCOD8027978 Si02
#       8
#     2   2   2   2   2   2   2   2
#     4  11  22  42  65 102 133 165 223 271 327 384
#     4  11  22  42  65 102 133 165 223 271 327 384
#     4  10  25  40  63 100 131 168 214 284 319 383
#     4  10  25  45  64  96 131 181 216 264 335 389
#     4  11  24  45  69  97 136 176 212 271 333 395
#     4  12  24  42  68 102 131 171 225 267 333 384
#     4  12  24  40  71  99 132 174 218 278 322 389
#     4  11  24  45  69  97 136 176 212 271 333 395
#
# _framework density 22.437835
#
# number of rings (size 3 to 8) (size 9 to 14) (size 15 to 20)
#    0.000    1.000    2.500    3.750    7.000    2.000 
#    0.000   16.250    0.000    0.000    0.000    0.000 
#    0.000    0.000    0.000    0.000    0.000    0.000 
#
# Total GULP energy -198380.414355 kJ/mol
# GULP energy per Si atom -12398.775897 kJ/mol
# Density = 2.238677 g / cm^3
# Si number density = 22.437835 Si / 1000 Ang^3
#
#
#
# Elastic Constant Matrix: (Units=GPa)
#
#
# Indices 1 2 3 4 5 6 
#
# 1 78.9516 49.8368 44.8508 -5.4642 17.5966 -4.8418
# 2 49.8368 105.2757 30.6970 -1.6525 15.7063 -28.9531
# 3 44.8508 30.6970 150.2021 -0.7056 16.8730 -1.6040
# 4 -5.4642 -1.6525 -0.7056 32.6936 -3.3205 -0.2945
# 5 17.5966 15.7063 16.8730 -3.3205 40.5505 -4.8312
# 6 -4.8418 -28.9531 -1.6040 -0.2945 -4.8312 20.8863
#
#
#
# Elastic Compliance Matrix: (Units=1/GPa)
#
#
# Indices 1 2 3 4 5 6 
#
# 1 0.023628 -0.013145 -0.003947 0.002564 -0.004998 -0.014167
# 2 -0.013145 0.024332 -0.000744 -0.000688 0.000186 0.030658
# 3 -0.003947 -0.000744 0.008152 -0.000705 -0.001653 -0.001713
# 4 0.002564 -0.000688 -0.000705 0.031179 0.002060 0.000503
# 5 -0.004998 0.000186 -0.001653 0.002060 0.028274 0.005541
# 6 -0.014167 0.030658 -0.001713 0.000503 0.005541 0.088250
#
#
# Mechanical properties :
#
#
# Convention : Reuss Voigt Hill
#
# Bulk Modulus (GPa) = 48.92365 65.02208 56.97286
# Shear Modulus (GPa) = 20.30034 32.76242 26.53138
#
# Velocity S-wave (km/s) = 3.01115 3.82533 3.44239
# Velocity P-wave (km/s) = 5.82587 6.96796 6.42235
#
# Compressibility (1/GPa) = 0.02044001
#
# Stress axis : x y z
#
# Youngs Moduli (GPa) = 42.32237 41.09853 122.66279
#
# Poissons Ratio (x) = 0.54024 0.48413
# Poissons Ratio (y) = 0.55633 0.09130
# Poissons Ratio (z) = 0.16704 0.03059
#
# Static dielectric constant tensor:
#      x y z
#    x 3.962470 -0.475160 0.257870 
#    y -0.475160 4.766100 0.031540 
#    z 0.257870 0.031540 4.155020 
# 
# 
# High freq. dielectric constant tensor:
#      x y z
#    x 1.867130 -0.022770 0.013700 
#    y -0.022770 1.900130 0.005120 
#    z 0.013700 0.005120 1.895290 
# 
# From -- ./inp_files/262067.got.cif
#   From: 2010.06.25/outbox.cif.g09.slc.cpg/sg2_132_cif.got.tgz:262067.got - 2010.06.27 13:26:56.
