data_PCOD8027294
_publ_section_title
;
Structure prediction by ZEFSAII (Michael W. Deem and Ramdas Pophale) SiO2 
 PCOD8027294
Probable space group: P -1
;
_chemical_formula_sum "Si O2"
_cell_formula_units_Z 14
_cell_length_a 13.572891
_cell_length_b 12.797199
_cell_length_c 7.669662
_cell_angle_alpha 144.955672
_cell_angle_beta 135.561308
_cell_angle_gamma 50.637291
_cell_volume 531.474695
_symmetry_space_group_name_H-M "P -1"
_symmetry_group_IT_number 2
_symmetry_cell_setting 'triclinic'
loop_
_space_group_symop_operation_xyz
x,y,z
-x,-y,-z
loop_
_atom_site_type_symbol
_atom_site_label
_atom_site_fract_x
_atom_site_fract_y
_atom_site_fract_z
Si Si1 0.666033 0.780010 0.690620
Si Si2 0.983628 0.360513 0.633952
Si Si3 0.344416 0.622254 0.807419
Si Si4 0.116823 0.038843 0.564361
Si Si5 0.750653 0.654114 0.258271
Si Si6 0.493472 0.835684 0.995448
Si Si7 0.651163 0.274756 0.670581
O O1 0.595514 0.595917 0.410083
O O2 0.752819 0.744608 0.573240
O O3 0.775339 0.831797 0.042648
O O4 0.542896 0.947271 0.725634
O O5 0.031885 0.149223 0.453347
O O6 0.087523 0.406167 0.672747
O O7 0.823946 0.378466 0.392115
O O8 0.000000 0.500000 0.000000
O O9 0.393562 0.720753 0.831228
O O10 0.392493 0.728791 0.183688
O O11 0.199399 0.850221 0.340545
O O12 0.000000 0.000000 0.500000
O O13 0.660191 0.789922 0.190304
O O14 0.665058 0.480972 0.916796
O O15 0.468191 0.795940 0.704435
#
# Coordination Sequence:
#
# PCOD8027294 Si02
#       7
#     2   2   2   2   2   2   2
#     4  10  24  44  72 105 140 189 244 292 354 434
#     4  12  24  43  72 101 141 186 234 297 363 415
#     4  11  25  46  74 104 144 194 238 292 364 426
#     4  11  23  42  67 101 144 184 235 295 358 428
#     4  11  25  45  72 103 143 189 233 300 358 425
#     4  11  24  51  71 103 153 185 240 302 354 423
#     4  10  25  42  69 105 135 190 240 290 353 429
#
# _framework density 26.341799999999999
#
# number of rings (size 3 to 8) (size 9 to 14) (size 15 to 20)
#    0.000    1.143    1.429    4.286    4.000    4.000 
#    5.143    1.429    0.000    0.000    0.000    0.000 
#    0.000    0.000    0.000    0.000    0.000    0.000 
#
# Total GULP energy -173653.800714 kJ/mol
# GULP energy per Si atom -12403.842908 kJ/mol
# Density = 2.628185 g / cm^3
# Si number density = 26.341800 Si / 1000 Ang^3
#
#
#
# Elastic Constant Matrix: (Units=GPa)
#
#
# Indices 1 2 3 4 5 6 
#
# 1 126.0048 14.9353 42.0030 2.3307 -7.0863 -5.1181
# 2 14.9353 128.5198 38.9248 7.5899 -9.5788 -4.0210
# 3 42.0030 38.9248 117.8955 12.6439 -10.3617 2.5408
# 4 2.3307 7.5899 12.6439 44.5395 -13.6213 2.7991
# 5 -7.0863 -9.5788 -10.3617 -13.6213 46.4009 -0.4276
# 6 -5.1181 -4.0210 2.5408 2.7991 -0.4276 45.6879
#
#
#
# Elastic Compliance Matrix: (Units=1/GPa)
#
#
# Indices 1 2 3 4 5 6 
#
# 1 0.009108 -0.000008 -0.003261 0.000640 0.000860 0.001170
# 2 -0.000008 0.008756 -0.002768 -0.000440 0.001068 0.000961
# 3 -0.003261 -0.002768 0.010875 -0.002159 0.000716 -0.001075
# 4 0.000640 -0.000440 -0.002159 0.025313 0.006944 -0.001333
# 5 0.000860 0.001068 0.000716 0.006944 0.024101 -0.000049
# 6 0.001170 0.000961 -0.001075 -0.001333 -0.000049 0.022244
#
#
# Mechanical properties :
#
#
# Convention : Reuss Voigt Hill
#
# Bulk Modulus (GPa) = 60.00102 62.68292 61.34197
# Shear Modulus (GPa) = 42.36383 45.76279 44.06331
#
# Velocity S-wave (km/s) = 4.01463 4.17258 4.09437
# Velocity P-wave (km/s) = 6.65710 6.86014 6.75938
#
# Compressibility (1/GPa) = 0.01666638
#
# Stress axis : x y z
#
# Youngs Moduli (GPa) = 109.79256 114.21147 91.95345
#
# Poissons Ratio (x) = 0.00092 0.29982
# Poissons Ratio (y) = 0.00088 0.25449
# Poissons Ratio (z) = 0.35799 0.31609
#
# Static dielectric constant tensor:
#      x y z
#    x 6.498500 -0.987080 0.075550 
#    y -0.987080 5.698330 0.062880 
#    z 0.075550 0.062880 4.828860 
# 
# 
# High freq. dielectric constant tensor:
#      x y z
#    x 2.079140 -0.011650 -0.002820 
#    y -0.011650 2.081600 0.008810 
#    z -0.002820 0.008810 2.063650 
# 
# From -- ./inp_files/168637.got.cif
#   From: 2010.06.25/outbox.cif.g09.slc.cpg/sg2_85_cif.got.tgz:168637.got - 2010.06.27 13:26:56.
