data_PCOD8027919
_publ_section_title
;
Structure prediction by ZEFSAII (Michael W. Deem and Ramdas Pophale) SiO2 
 PCOD8027919
Probable space group: P -1
;
_chemical_formula_sum "Si O2"
_cell_formula_units_Z 14
_cell_length_a 11.955961
_cell_length_b 7.013987
_cell_length_c 12.061254
_cell_angle_alpha 135.510343
_cell_angle_beta 111.701409
_cell_angle_gamma 60.822381
_cell_volume 618.462866
_symmetry_space_group_name_H-M "P -1"
_symmetry_group_IT_number 2
_symmetry_cell_setting 'triclinic'
loop_
_space_group_symop_operation_xyz
x,y,z
-x,-y,-z
loop_
_atom_site_type_symbol
_atom_site_label
_atom_site_fract_x
_atom_site_fract_y
_atom_site_fract_z
Si Si1 0.081848 0.723474 0.486201
Si Si2 0.312143 0.305484 0.685740
Si Si3 0.362713 0.233913 0.917392
Si Si4 0.517788 0.394836 0.220302
Si Si5 0.105013 0.644690 0.082668
Si Si6 0.734554 0.270868 0.617741
Si Si7 0.949780 0.259623 0.260027
O O1 0.225147 0.645781 0.454411
O O2 0.078038 0.789529 0.641663
O O3 0.034050 0.455193 0.342897
O O4 0.000000 0.000000 0.500000
O O5 0.391542 0.201121 0.784053
O O6 0.406866 0.379316 0.664670
O O7 0.189389 0.593580 0.785180
O O8 0.264494 0.058723 0.513517
O O9 0.383058 0.918022 0.842478
O O10 0.456571 0.375648 0.069791
O O11 0.215688 0.432362 0.960266
O O12 0.406498 0.503560 0.316406
O O13 0.162459 0.707812 0.245812
O O14 0.033170 0.943026 0.113193
O O15 0.000000 0.500000 0.000000
#
# Coordination Sequence:
#
# PCOD8027919 Si02
#       7
#     2   2   2   2   2   2   2
#     4  11  21  44  67  99 140 169 217 281 335 394
#     4  12  24  42  71 100 134 174 224 279 331 396
#     4  10  25  47  67  96 135 181 221 276 331 392
#     4  10  24  49  67  96 135 178 226 273 332 397
#     4  11  24  44  67  99 140 177 221 273 331 410
#     4  11  24  43  72  98 134 175 223 282 330 390
#     4  11  24  40  69 102 134 175 217 273 341 397
#
# _framework density 22.636766000000001
#
# number of rings (size 3 to 8) (size 9 to 14) (size 15 to 20)
#    0.000    1.143    2.857    2.571    6.000    1.143 
#   15.429    0.000    0.000    0.000    0.000    0.000 
#    0.000    0.000    0.000    0.000    0.000    0.000 
#
# Total GULP energy -173598.462309 kJ/mol
# GULP energy per Si atom -12399.890165 kJ/mol
# Density = 2.258524 g / cm^3
# Si number density = 22.636766 Si / 1000 Ang^3
#
#
#
# Elastic Constant Matrix: (Units=GPa)
#
#
# Indices 1 2 3 4 5 6 
#
# 1 139.6758 50.6906 57.2432 12.1479 6.4382 14.4943
# 2 50.6906 104.1685 49.6299 12.1973 5.3754 2.2074
# 3 57.2432 49.6299 78.9895 24.0692 1.3064 4.9163
# 4 12.1479 12.1973 24.0692 33.2632 3.3393 -4.0236
# 5 6.4382 5.3754 1.3064 3.3393 33.1175 10.4150
# 6 14.4943 2.2074 4.9163 -4.0236 10.4150 42.3003
#
#
#
# Elastic Compliance Matrix: (Units=1/GPa)
#
#
# Indices 1 2 3 4 5 6 
#
# 1 0.010909 -0.002112 -0.006888 0.001567 -0.000891 -0.002459
# 2 -0.002112 0.014363 -0.008108 0.001803 -0.002303 0.001655
# 3 -0.006888 -0.008108 0.027466 -0.015128 0.003987 -0.002829
# 4 0.001567 0.001803 -0.015128 0.041197 -0.006223 0.006578
# 5 -0.000891 -0.002303 0.003987 -0.006223 0.034047 -0.009013
# 6 -0.002459 0.001655 -0.002829 0.006578 -0.009013 0.027570
#
#
# Mechanical properties :
#
#
# Convention : Reuss Voigt Hill
#
# Bulk Modulus (GPa) = 53.99225 70.88454 62.43840
# Shear Modulus (GPa) = 25.51743 32.75420 29.13581
#
# Velocity S-wave (km/s) = 3.36111 3.80800 3.59151
# Velocity P-wave (km/s) = 6.24228 7.12154 6.69636
#
# Compressibility (1/GPa) = 0.01852118
#
# Stress axis : x y z
#
# Youngs Moduli (GPa) = 91.66847 69.62124 36.40816
#
# Poissons Ratio (x) = 0.14704 0.25079
# Poissons Ratio (y) = 0.19361 0.29521
# Poissons Ratio (z) = 0.63143 0.56452
#
# Static dielectric constant tensor:
#      x y z
#    x 4.308680 0.051150 -0.148960 
#    y 0.051150 4.316220 0.106510 
#    z -0.148960 0.106510 4.091540 
# 
# 
# High freq. dielectric constant tensor:
#      x y z
#    x 1.901580 -0.001500 0.001360 
#    y -0.001500 1.895860 0.009050 
#    z 0.001360 0.009050 1.886980 
# 
# From -- ./inp_files/364236.got.cif
#   From: 2010.06.25/outbox.cif.g09.slc.cpg/sg2_183_cif.got.tgz:364236.got - 2010.06.27 13:26:56.
