data_PCOD8027218
_publ_section_title
;
Structure prediction by ZEFSAII (Michael W. Deem and Ramdas Pophale) SiO2 
 PCOD8027218
Probable space group: P -1
;
_chemical_formula_sum "Si O2"
_cell_formula_units_Z 14
_cell_length_a 9.055786
_cell_length_b 13.647102
_cell_length_c 9.440875
_cell_angle_alpha 127.896738
_cell_angle_beta 73.962326
_cell_angle_gamma 68.216415
_cell_volume 620.377655
_symmetry_space_group_name_H-M "P -1"
_symmetry_group_IT_number 2
_symmetry_cell_setting 'triclinic'
loop_
_space_group_symop_operation_xyz
x,y,z
-x,-y,-z
loop_
_atom_site_type_symbol
_atom_site_label
_atom_site_fract_x
_atom_site_fract_y
_atom_site_fract_z
Si Si1 0.442180 0.389967 0.918825
Si Si2 0.782630 0.491949 0.424585
Si Si3 0.007600 0.888878 0.014134
Si Si4 0.493093 0.788802 0.548913
Si Si5 0.096737 0.517464 0.324288
Si Si6 0.812973 0.084756 0.741166
Si Si7 0.308835 0.107070 0.263700
O O1 0.466055 0.310678 0.692474
O O2 0.584947 0.244473 0.871482
O O3 0.500000 0.500000 0.000000
O O4 0.195106 0.511242 0.145724
O O5 0.560994 0.652759 0.536646
O O6 0.734667 0.572620 0.667454
O O7 0.996111 0.438688 0.254537
O O8 0.845330 0.311397 0.253194
O O9 0.127014 0.858358 0.098498
O O10 0.750125 0.013754 0.215052
O O11 0.000000 0.000000 0.000000
O O12 0.639393 0.828236 0.562803
O O13 0.902249 0.719977 0.608633
O O14 0.773146 0.972570 0.716963
O O15 0.000000 0.000000 0.500000
O O16 0.500000 0.000000 0.000000
#
# Coordination Sequence:
#
# PCOD8027218 Si02
#       7
#     2   2   2   2   2   2   2
#     4  12  27  45  69 103 148 190 235 293 365 436
#     4  10  24  44  70 103 137 184 241 293 357 421
#     4  12  26  44  71 107 144 186 245 305 356 432
#     4  11  26  46  72 105 141 189 245 291 361 428
#     4  10  24  44  71 101 144 183 236 298 358 420
#     4  12  26  46  70 104 148 190 233 300 371 420
#     4  11  25  47  77 108 143 186 247 302 357 439
#
# _framework density 22.566901000000001
#
# number of rings (size 3 to 8) (size 9 to 14) (size 15 to 20)
#    0.000    0.857    1.429    4.286   12.000    4.571 
#    0.000    0.000    0.000    0.000    0.000    0.000 
#    0.000    0.000    0.000    0.000    0.000    0.000 
#
# Total GULP energy -173452.760136 kJ/mol
# GULP energy per Si atom -12389.482867 kJ/mol
# Density = 2.251554 g / cm^3
# Si number density = 22.566901 Si / 1000 Ang^3
#
#
#
# Elastic Constant Matrix: (Units=GPa)
#
#
# Indices 1 2 3 4 5 6 
#
# 1 89.9628 23.2307 5.7802 -4.4558 17.5590 2.6103
# 2 23.2307 86.7614 4.2461 5.5301 5.1878 0.2837
# 3 5.7802 4.2461 56.0530 -1.5059 -4.5088 4.0419
# 4 -4.4558 5.5301 -1.5059 42.3771 4.5515 -2.7001
# 5 17.5590 5.1878 -4.5088 4.5515 36.8063 -7.7447
# 6 2.6103 0.2837 4.0419 -2.7001 -7.7447 63.0254
#
#
#
# Elastic Compliance Matrix: (Units=1/GPa)
#
#
# Indices 1 2 3 4 5 6 
#
# 1 0.013535 -0.003299 -0.001537 0.002447 -0.006729 -0.001169
# 2 -0.003299 0.012571 -0.000671 -0.002006 -0.000025 0.000034
# 3 -0.001537 -0.000671 0.018342 0.000220 0.002891 -0.000745
# 4 0.002447 -0.002006 0.000220 0.024563 -0.003794 0.000480
# 5 -0.006729 -0.000025 0.002891 -0.003794 0.032020 0.003865
# 6 -0.001169 0.000034 -0.000745 0.000480 0.003865 0.016458
#
#
# Mechanical properties :
#
#
# Convention : Reuss Voigt Hill
#
# Bulk Modulus (GPa) = 29.90847 33.25458 31.58153
# Shear Modulus (GPa) = 35.80495 41.74311 38.77403
#
# Velocity S-wave (km/s) = 3.98755 4.30554 4.14959
# Velocity P-wave (km/s) = 5.87221 6.28370 6.08143
#
# Compressibility (1/GPa) = 0.03343534
#
# Stress axis : x y z
#
# Youngs Moduli (GPa) = 73.88399 79.54723 54.52055
#
# Poissons Ratio (x) = 0.26239 0.08380
# Poissons Ratio (y) = 0.24371 0.03656
# Poissons Ratio (z) = 0.11356 0.05334
#
# Static dielectric constant tensor:
#      x y z
#    x 4.654310 -0.106420 -0.246880 
#    y -0.106420 3.995230 0.075260 
#    z -0.246880 0.075260 4.190410 
# 
# 
# High freq. dielectric constant tensor:
#      x y z
#    x 1.907460 -0.007170 -0.000620 
#    y -0.007170 1.902800 0.006430 
#    z -0.000620 0.006430 1.885900 
# 
# From -- ./inp_files/189863.got.cif
#   From: 2010.06.25/outbox.cif.g09.slc.cpg/sg2_95_cif.got.tgz:189863.got - 2010.06.27 13:26:56.
