data_PCOD8027321
_publ_section_title
;
Structure prediction by ZEFSAII (Michael W. Deem and Ramdas Pophale) SiO2 
 PCOD8027321
Probable space group: P -1
;
_chemical_formula_sum "Si O2"
_cell_formula_units_Z 12
_cell_length_a 8.630888
_cell_length_b 9.480782
_cell_length_c 9.442695
_cell_angle_alpha 96.354145
_cell_angle_beta 133.116578
_cell_angle_gamma 74.779142
_cell_volume 541.638196
_symmetry_space_group_name_H-M "P -1"
_symmetry_group_IT_number 2
_symmetry_cell_setting 'triclinic'
loop_
_space_group_symop_operation_xyz
x,y,z
-x,-y,-z
loop_
_atom_site_type_symbol
_atom_site_label
_atom_site_fract_x
_atom_site_fract_y
_atom_site_fract_z
Si Si1 0.389377 0.404950 0.522046
Si Si2 0.593003 0.410156 0.193046
Si Si3 0.033143 0.890816 0.637745
Si Si4 0.547533 0.894544 0.385892
Si Si5 0.845185 0.950468 0.006919
Si Si6 0.191583 0.358803 0.117445
O O1 0.500000 0.500000 0.500000
O O2 0.295943 0.495285 0.617044
O O3 0.543308 0.249870 0.657283
O O4 0.225577 0.347486 0.308309
O O5 0.773539 0.258850 0.260549
O O6 0.395304 0.374200 0.152085
O O7 0.500000 0.500000 0.000000
O O8 0.807086 0.844964 0.513234
O O9 0.000000 0.000000 0.500000
O O10 0.092953 0.998941 0.799648
O O11 0.500000 0.000000 0.500000
O O12 0.412946 0.978450 0.178109
O O13 0.890998 0.775618 0.009804
O O14 0.000000 0.000000 0.000000
O O15 0.000000 0.500000 0.000000
#
# Coordination Sequence:
#
# PCOD8027321 Si02
#       6
#     2   2   2   2   2   2
#     4  10  24  44  73  97 141 183 237 289 350 422
#     4  11  27  47  70 107 149 182 238 301 363 420
#     4  12  29  46  73 108 149 188 235 303 366 416
#     4  12  24  46  75 106 139 188 247 285 358 431
#     4  12  26  46  77 105 143 188 245 297 349 432
#     4  11  26  44  75 103 136 190 243 284 355 430
#
# _framework density 22.155010000000001
#
# number of rings (size 3 to 8) (size 9 to 14) (size 15 to 20)
#    0.000    0.667    3.333    2.000   14.000    4.667 
#    0.000    0.000    0.000    0.000    0.000    0.000 
#    0.000    0.000    0.000    0.000    0.000    0.000 
#
# Total GULP energy -148658.190876 kJ/mol
# GULP energy per Si atom -12388.182573 kJ/mol
# Density = 2.210458 g / cm^3
# Si number density = 22.155010 Si / 1000 Ang^3
#
#
#
# Elastic Constant Matrix: (Units=GPa)
#
#
# Indices 1 2 3 4 5 6 
#
# 1 114.9887 61.3546 54.1252 -6.9292 1.2249 -8.6021
# 2 61.3546 211.2271 71.3853 -2.0118 -7.2134 -6.1814
# 3 54.1252 71.3853 155.7476 7.3559 -23.5107 -13.2106
# 4 -6.9292 -2.0118 7.3559 54.6071 -7.8979 -1.0320
# 5 1.2249 -7.2134 -23.5107 -7.8979 46.9461 -3.2171
# 6 -8.6021 -6.1814 -13.2106 -1.0320 -3.2171 36.1566
#
#
#
# Elastic Compliance Matrix: (Units=1/GPa)
#
#
# Indices 1 2 3 4 5 6 
#
# 1 0.011662 -0.002300 -0.003280 0.001573 -0.001964 0.001053
# 2 -0.002300 0.006079 -0.002016 0.000199 0.000001 -0.000239
# 3 -0.003280 -0.002016 0.009444 -0.001059 0.004512 0.002697
# 4 0.001573 0.000199 -0.001059 0.019071 0.002723 0.000808
# 5 -0.001964 0.000001 0.004512 0.002723 0.024305 0.003422
# 6 0.001053 -0.000239 0.002697 0.000808 0.003422 0.029180
#
#
# Mechanical properties :
#
#
# Convention : Reuss Voigt Hill
#
# Bulk Modulus (GPa) = 83.38397 95.07707 89.23052
# Shear Modulus (GPa) = 42.04083 47.21516 44.62799
#
# Velocity S-wave (km/s) = 4.36084 4.62142 4.49302
# Velocity P-wave (km/s) = 7.94193 8.45484 8.20240
#
# Compressibility (1/GPa) = 0.01199271
#
# Stress axis : x y z
#
# Youngs Moduli (GPa) = 85.74720 164.50775 105.88198
#
# Poissons Ratio (x) = 0.37842 0.34728
# Poissons Ratio (y) = 0.19724 0.21348
# Poissons Ratio (z) = 0.28124 0.33168
#
# Static dielectric constant tensor:
#      x y z
#    x 3.968500 1.079060 -0.988680 
#    y 1.079060 -0.320660 3.561720 
#    z -0.988680 3.561720 1.922520 
# 
# 
# High freq. dielectric constant tensor:
#      x y z
#    x 1.860000 0.006210 -0.011320 
#    y 0.006210 1.902550 0.002080 
#    z -0.011320 0.002080 1.891580 
# 
# From -- ./inp_files/151129.got.cif
#   From: 2010.06.25/outbox.cif.g09.slc.cpg/sg2_76_cif.got.tgz:151129.got - 2010.06.27 13:26:56.
