data_PCOD8027002
_publ_section_title
;
Structure prediction by ZEFSAII (Michael W. Deem and Ramdas Pophale) SiO2 
 PCOD8027002
Probable space group: P -1
;
_chemical_formula_sum "Si O2"
_cell_formula_units_Z 16
_cell_length_a 15.099163
_cell_length_b 11.947792
_cell_length_c 8.542341
_cell_angle_alpha 105.441946
_cell_angle_beta 130.238953
_cell_angle_gamma 40.449019
_cell_volume 679.636355
_symmetry_space_group_name_H-M "P -1"
_symmetry_group_IT_number 2
_symmetry_cell_setting 'triclinic'
loop_
_space_group_symop_operation_xyz
x,y,z
-x,-y,-z
loop_
_atom_site_type_symbol
_atom_site_label
_atom_site_fract_x
_atom_site_fract_y
_atom_site_fract_z
Si Si1 0.165449 0.682179 0.295174
Si Si2 0.143973 0.234019 0.295163
Si Si3 0.174716 0.676426 0.961557
Si Si4 0.395151 0.886616 0.233060
Si Si5 0.423958 0.600093 0.781839
Si Si6 0.767438 0.631603 0.762836
Si Si7 0.839589 0.100241 0.180936
Si Si8 0.517275 0.982022 0.827720
O O1 0.362011 0.549662 0.568105
O O2 0.127299 0.576607 0.169771
O O3 0.168425 0.740892 0.150528
O O4 0.991338 0.874134 0.269380
O O5 0.094531 0.385273 0.179470
O O6 0.951310 0.341134 0.201892
O O7 0.225047 0.063840 0.220655
O O8 0.302644 0.139470 0.570231
O O9 0.093408 0.833677 0.800117
O O10 0.401868 0.462141 0.113223
O O11 0.600576 0.734327 0.488969
O O12 0.393907 0.967453 0.107037
O O13 0.349676 0.791121 0.094128
O O14 0.226315 0.830109 0.685865
O O15 0.500000 0.500000 0.000000
O O16 0.665405 0.763431 0.852251
O O17 0.500000 0.000000 0.000000
#
# Coordination Sequence:
#
# PCOD8027002 Si02
#       8
#     2   2   2   2   2   2   2   2
#     4  12  23  41  69  98 122 177 223 266 317 392
#     4   9  19  40  66  95 125 170 213 264 321 380
#     4  11  23  42  66  96 129 169 223 271 316 384
#     4   9  18  39  66  90 125 174 209 259 321 383
#     4  10  24  44  63  91 135 172 214 269 332 376
#     4   9  20  38  66  94 129 167 220 260 322 389
#     4  11  23  43  67  94 133 170 218 270 328 384
#     4   9  19  39  66  99 129 168 213 267 325 382
#
# _framework density 23.542002
#
# number of rings (size 3 to 8) (size 9 to 14) (size 15 to 20)
#    0.000    2.000    1.250    4.125    0.000    1.500 
#    9.000    1.250    0.000    5.250    0.000    0.000 
#    0.000    0.000    0.000    0.000    0.000    0.000 
#
# Total GULP energy -198273.846683 kJ/mol
# GULP energy per Si atom -12392.115418 kJ/mol
# Density = 2.348842 g / cm^3
# Si number density = 23.542002 Si / 1000 Ang^3
#
#
#
# Elastic Constant Matrix: (Units=GPa)
#
#
# Indices 1 2 3 4 5 6 
#
# 1 141.9971 52.4308 59.4671 6.0243 25.6363 -13.1807
# 2 52.4308 107.4685 19.7739 1.8467 6.6311 -7.5435
# 3 59.4671 19.7739 89.1462 22.3098 2.2164 -4.5554
# 4 6.0243 1.8467 22.3098 29.6246 -3.2608 -1.1436
# 5 25.6363 6.6311 2.2164 -3.2608 41.7988 -0.0789
# 6 -13.1807 -7.5435 -4.5554 -1.1436 -0.0789 35.8654
#
#
#
# Elastic Compliance Matrix: (Units=1/GPa)
#
#
# Indices 1 2 3 4 5 6 
#
# 1 0.013756 -0.004522 -0.008686 0.003376 -0.006989 0.003093
# 2 -0.004522 0.011417 0.000514 -0.000045 0.000933 0.000805
# 3 -0.008686 0.000514 0.020034 -0.013042 0.003164 -0.000948
# 4 0.003376 -0.000045 -0.013042 0.043150 0.001996 0.000955
# 5 -0.006989 0.000933 0.003164 0.001996 0.028047 -0.001845
# 6 0.003093 0.000805 -0.000948 0.000955 -0.001845 0.029094
#
#
# Mechanical properties :
#
#
# Convention : Reuss Voigt Hill
#
# Bulk Modulus (GPa) = 50.46112 66.88393 58.67252
# Shear Modulus (GPa) = 28.17012 35.25376 31.71194
#
# Velocity S-wave (km/s) = 3.46293 3.87393 3.67418
# Velocity P-wave (km/s) = 6.12129 6.96290 6.55561
#
# Compressibility (1/GPa) = 0.01981724
#
# Stress axis : x y z
#
# Youngs Moduli (GPa) = 72.69779 87.59178 49.91410
#
# Poissons Ratio (x) = 0.39613 0.43355
# Poissons Ratio (y) = 0.32877 -0.02564
# Poissons Ratio (z) = 0.63144 -0.04499
#
# Static dielectric constant tensor:
#      x y z
#    x 4.359040 -0.208970 0.143640 
#    y -0.208970 4.855010 -0.102700 
#    z 0.143640 -0.102700 4.561960 
# 
# 
# High freq. dielectric constant tensor:
#      x y z
#    x 1.920870 -0.007530 0.013690 
#    y -0.007530 1.922300 -0.006440 
#    z 0.013690 -0.006440 1.959370 
# 
# From -- ./inp_files/181793.got.cif
#   From: 2010.06.25/outbox.cif.g09.slc.cpg/sg2_91_cif.got.tgz:181793.got - 2010.06.27 13:26:56.
