data_PCOD8027305
_publ_section_title
;
Structure prediction by ZEFSAII (Michael W. Deem and Ramdas Pophale) SiO2 
 PCOD8027305
Probable space group: P -1
;
_chemical_formula_sum "Si O2"
_cell_formula_units_Z 16
_cell_length_a 6.674184
_cell_length_b 11.665013
_cell_length_c 11.479028
_cell_angle_alpha 80.670342
_cell_angle_beta 78.356764
_cell_angle_gamma 53.514484
_cell_volume 702.743766
_symmetry_space_group_name_H-M "P -1"
_symmetry_group_IT_number 2
_symmetry_cell_setting 'triclinic'
loop_
_space_group_symop_operation_xyz
x,y,z
-x,-y,-z
loop_
_atom_site_type_symbol
_atom_site_label
_atom_site_fract_x
_atom_site_fract_y
_atom_site_fract_z
Si Si1 0.986393 0.903791 0.422697
Si Si2 0.261516 0.825850 0.707556
Si Si3 0.359973 0.861207 0.089283
Si Si4 0.124987 0.342198 0.054237
Si Si5 0.110460 0.624783 0.683595
Si Si6 0.269598 0.243120 0.481710
Si Si7 0.054039 0.829940 0.962423
Si Si8 0.522622 0.698058 0.332498
O O1 0.761403 0.886220 0.474462
O O2 0.252856 0.750582 0.407434
O O3 0.936022 0.000610 0.298751
O O4 0.000000 0.000000 0.500000
O O5 0.181631 0.738163 0.655998
O O6 0.510164 0.798296 0.626753
O O7 0.271262 0.787674 0.847946
O O8 0.475672 0.799511 0.212873
O O9 0.581176 0.768687 0.985714
O O10 0.139096 0.845225 0.076954
O O11 0.224592 0.031396 0.066790
O O12 0.086742 0.336056 0.197210
O O13 0.970370 0.299195 0.004796
O O14 0.000000 0.500000 0.000000
O O15 0.353369 0.462860 0.697717
O O16 0.985767 0.631976 0.573285
O O17 0.305525 0.292429 0.594274
#
# Coordination Sequence:
#
# PCOD8027305 Si02
#       8
#     2   2   2   2   2   2   2   2
#     4  12  24  46  67 100 135 173 224 278 329 393
#     4  11  23  45  70  98 134 176 223 277 332 392
#     4  11  23  46  66 100 134 174 225 274 331 393
#     4  11  23  45  71 100 133 174 225 274 332 396
#     4  11  25  46  66  98 140 175 222 276 328 399
#     4  12  25  42  73  97 134 179 226 264 339 397
#     4  10  24  44  72  98 132 177 221 277 334 389
#     4  12  26  43  68  99 140 176 220 278 327 395
#
# _framework density 22.767900999999998
#
# number of rings (size 3 to 8) (size 9 to 14) (size 15 to 20)
#    0.000    0.750    5.000    1.875    0.000    4.500 
#    4.500    0.000    0.000    0.000    0.000    0.000 
#    0.000    0.000    0.000    0.000    0.000    0.000 
#
# Total GULP energy -198287.405170 kJ/mol
# GULP energy per Si atom -12392.962823 kJ/mol
# Density = 2.271608 g / cm^3
# Si number density = 22.767901 Si / 1000 Ang^3
#
#
#
# Elastic Constant Matrix: (Units=GPa)
#
#
# Indices 1 2 3 4 5 6 
#
# 1 112.3324 53.5171 52.2369 -5.0770 -4.1438 12.6827
# 2 53.5171 126.9483 45.4424 1.0633 -16.3182 10.7238
# 3 52.2369 45.4424 84.5763 0.2713 7.3096 -1.1063
# 4 -5.0770 1.0633 0.2713 35.8665 -1.5185 -8.2619
# 5 -4.1438 -16.3182 7.3096 -1.5185 43.2833 1.9215
# 6 12.6827 10.7238 -1.1063 -8.2619 1.9215 34.4908
#
#
#
# Elastic Compliance Matrix: (Units=1/GPa)
#
#
# Indices 1 2 3 4 5 6 
#
# 1 0.014387 -0.002711 -0.007656 0.001217 0.001891 -0.004507
# 2 -0.002711 0.011842 -0.005177 -0.001269 0.005188 -0.003444
# 3 -0.007656 -0.005177 0.019949 -0.000106 -0.006297 0.005390
# 4 0.001217 -0.001269 -0.000106 0.029731 0.000386 0.007044
# 5 0.001891 0.005188 -0.006297 0.000386 0.026490 -0.003893
# 6 -0.004507 -0.003444 0.005390 0.007044 -0.003893 0.033798
#
#
# Mechanical properties :
#
#
# Convention : Reuss Voigt Hill
#
# Bulk Modulus (GPa) = 66.27071 69.58331 67.92701
# Shear Modulus (GPa) = 29.01644 34.23880 31.62762
#
# Velocity S-wave (km/s) = 3.57381 3.88212 3.73115
# Velocity P-wave (km/s) = 6.79704 7.12200 6.96141
#
# Compressibility (1/GPa) = 0.01508962
#
# Stress axis : x y z
#
# Youngs Moduli (GPa) = 69.50483 84.44604 50.12824
#
# Poissons Ratio (x) = 0.22896 0.38377
# Poissons Ratio (y) = 0.18845 0.25953
# Poissons Ratio (z) = 0.53211 0.43721
#
# Static dielectric constant tensor:
#      x y z
#    x 4.057650 -0.097720 -0.016980 
#    y -0.097720 4.379740 -0.182700 
#    z -0.016980 -0.182700 4.283380 
# 
# 
# High freq. dielectric constant tensor:
#      x y z
#    x 1.894480 -0.000870 -0.002920 
#    y -0.000870 1.901340 -0.000400 
#    z -0.002920 -0.000400 1.907660 
# 
# From -- ./inp_files/364265.got.cif
#   From: 2010.06.25/outbox.cif.g09.slc.cpg/sg2_183_cif.got.tgz:364265.got - 2010.06.27 13:26:56.
