data_PCOD8027818
_publ_section_title
;
Structure prediction by ZEFSAII (Michael W. Deem and Ramdas Pophale) SiO2 
 PCOD8027818
Probable space group: P -1
;
_chemical_formula_sum "Si O2"
_cell_formula_units_Z 16
_cell_length_a 23.240658
_cell_length_b 8.548044
_cell_length_c 9.813183
_cell_angle_alpha 42.943041
_cell_angle_beta 38.502755
_cell_angle_gamma 38.591024
_cell_volume 719.757956
_symmetry_space_group_name_H-M "P -1"
_symmetry_group_IT_number 2
_symmetry_cell_setting 'triclinic'
loop_
_space_group_symop_operation_xyz
x,y,z
-x,-y,-z
loop_
_atom_site_type_symbol
_atom_site_label
_atom_site_fract_x
_atom_site_fract_y
_atom_site_fract_z
Si Si1 0.110432 0.234181 0.825107
Si Si2 0.608198 0.470420 0.116888
Si Si3 0.249557 0.683941 0.787231
Si Si4 0.366276 0.859949 0.280945
Si Si5 0.056244 0.182551 0.261524
Si Si6 0.754489 0.813825 0.958340
Si Si7 0.697860 0.728482 0.625826
Si Si8 0.393156 0.040011 0.619005
O O1 0.197429 0.328981 0.613850
O O2 0.011528 0.502447 0.781772
O O3 0.150457 0.976397 0.818155
O O4 0.092087 0.143981 0.063241
O O5 0.655102 0.412459 0.218232
O O6 0.492741 0.729554 0.152530
O O7 0.593526 0.243595 0.229337
O O8 0.696271 0.475288 0.850353
O O9 0.311204 0.682710 0.534237
O O10 0.203656 0.480581 0.994770
O O11 0.332340 0.967899 0.121485
O O12 0.315745 0.096338 0.330054
O O13 0.154328 0.105736 0.232993
O O14 0.000000 0.000000 0.500000
O O15 0.703993 0.790208 0.208547
O O16 0.609017 0.852931 0.596190
O O17 0.500000 0.000000 0.500000
#
# Coordination Sequence:
#
# PCOD8027818 Si02
#       8
#     2   2   2   2   2   2   2   2
#     4  10  24  47  71 104 128 187 232 282 365 419
#     4  12  23  41  71  99 143 199 227 278 350 414
#     4  11  24  43  72  98 147 183 231 293 343 413
#     4  11  24  40  68 106 141 188 236 279 346 419
#     4  11  26  48  77  99 140 182 230 297 363 416
#     4  12  26  45  67 111 139 178 241 293 345 415
#     4  11  23  42  70  96 140 184 234 283 346 425
#     4  12  26  42  65 104 146 186 234 285 344 419
#
# _framework density 22.229693000000001
#
# number of rings (size 3 to 8) (size 9 to 14) (size 15 to 20)
#    0.000    0.750    5.000    2.250    5.250    5.500 
#    0.000    4.375    0.000    0.000    0.000    0.000 
#    0.000    0.000    0.000    0.000    0.000    0.000 
#
# Total GULP energy -198211.231804 kJ/mol
# GULP energy per Si atom -12388.201988 kJ/mol
# Density = 2.217910 g / cm^3
# Si number density = 22.229693 Si / 1000 Ang^3
#
#
#
# Elastic Constant Matrix: (Units=GPa)
#
#
# Indices 1 2 3 4 5 6 
#
# 1 99.0057 38.8377 27.2244 -4.7784 -13.3723 9.0130
# 2 38.8377 71.1819 19.0456 -4.8630 5.6878 -3.3862
# 3 27.2244 19.0456 151.6626 -8.6796 -35.9066 5.3159
# 4 -4.7784 -4.8630 -8.6796 31.0525 1.7500 -4.0042
# 5 -13.3723 5.6878 -35.9066 1.7500 88.6961 1.9310
# 6 9.0130 -3.3862 5.3159 -4.0042 1.9310 27.3447
#
#
#
# Elastic Compliance Matrix: (Units=1/GPa)
#
#
# Indices 1 2 3 4 5 6 
#
# 1 0.014350 -0.008109 -0.000772 -0.000164 0.002500 -0.005785
# 2 -0.008109 0.019704 -0.001915 0.002278 -0.003438 0.006062
# 3 -0.000772 -0.001915 0.007863 0.001402 0.003195 -0.001532
# 4 -0.000164 0.002278 0.001402 0.033594 -0.000375 0.005010
# 5 0.002500 -0.003438 0.003195 -0.000375 0.013235 -0.002861
# 6 -0.005785 0.006062 -0.001532 0.005010 -0.002861 0.040461
#
#
# Mechanical properties :
#
#
# Convention : Reuss Voigt Hill
#
# Bulk Modulus (GPa) = 49.20171 54.67394 51.93782
# Shear Modulus (GPa) = 31.73100 45.20149 38.46625
#
# Velocity S-wave (km/s) = 3.78221 4.51420 4.16432
# Velocity P-wave (km/s) = 6.42300 7.19854 6.82180
#
# Compressibility (1/GPa) = 0.02032450
#
# Stress axis : x y z
#
# Youngs Moduli (GPa) = 69.68546 50.75098 127.17686
#
# Poissons Ratio (x) = 0.41155 0.09823
# Poissons Ratio (y) = 0.56509 0.24353
# Poissons Ratio (z) = 0.05382 0.09718
#
# Static dielectric constant tensor:
#      x y z
#    x 4.001250 -0.008530 -0.005060 
#    y -0.008530 4.069450 0.085570 
#    z -0.005060 0.085570 4.811120 
# 
# 
# High freq. dielectric constant tensor:
#      x y z
#    x 1.870420 0.004520 -0.002520 
#    y 0.004520 1.869640 -0.007900 
#    z -0.002520 -0.007900 1.892980 
# 
# From -- ./inp_files/351990.got.cif
#   From: 2010.06.25/outbox.cif.g09.slc.cpg/sg2_176_cif.got.tgz:351990.got - 2010.06.27 13:26:56.
