data_PCOD8027377
_publ_section_title
;
Structure prediction by ZEFSAII (Michael W. Deem and Ramdas Pophale) SiO2 
 PCOD8027377
Probable space group: P -1
;
_chemical_formula_sum "Si O2"
_cell_formula_units_Z 14
_cell_length_a 11.506826
_cell_length_b 10.366328
_cell_length_c 12.982610
_cell_angle_alpha 145.665683
_cell_angle_beta 43.766697
_cell_angle_gamma 124.608748
_cell_volume 602.586473
_symmetry_space_group_name_H-M "P -1"
_symmetry_group_IT_number 2
_symmetry_cell_setting 'triclinic'
loop_
_space_group_symop_operation_xyz
x,y,z
-x,-y,-z
loop_
_atom_site_type_symbol
_atom_site_label
_atom_site_fract_x
_atom_site_fract_y
_atom_site_fract_z
Si Si1 0.067648 0.656146 0.918623
Si Si2 0.175253 0.900110 0.586482
Si Si3 0.170116 0.843782 0.773646
Si Si4 0.381093 0.645486 0.847652
Si Si5 0.368069 0.094129 0.270008
Si Si6 0.462141 0.129527 0.459087
Si Si7 0.992859 0.777438 0.426033
O O1 0.172261 0.669185 0.752156
O O2 0.194589 0.609026 0.900892
O O3 0.959215 0.437471 0.822493
O O4 0.945670 0.872276 0.168434
O O5 0.366225 0.977444 0.502621
O O6 0.167494 0.742948 0.591198
O O7 0.116646 0.760016 0.433418
O O8 0.344909 0.973954 0.751074
O O9 0.000000 0.000000 0.000000
O O10 0.476812 0.768163 0.775521
O O11 0.466245 0.398822 0.665771
O O12 0.383655 0.821374 0.057195
O O13 0.352719 0.117465 0.417582
O O14 0.199995 0.215130 0.405120
O O15 0.000000 0.000000 0.500000
#
# Coordination Sequence:
#
# PCOD8027377 Si02
#       7
#     2   2   2   2   2   2   2
#     4  11  22  41  64  91 132 166 210 252 312 375
#     4  11  25  40  63  93 131 168 208 256 307 374
#     4  10  24  45  66  87 122 176 216 253 305 374
#     4  11  22  36  65  97 124 164 204 260 319 369
#     4  11  22  36  61  98 127 158 202 258 313 377
#     4  12  22  41  67  92 128 160 210 262 317 364
#     4  12  23  37  63  96 130 161 203 260 320 369
#
# _framework density 23.233180999999998
#
# number of rings (size 3 to 8) (size 9 to 14) (size 15 to 20)
#    0.000    0.857    5.714    1.714    2.000    1.714 
#    0.000    2.857    0.000    6.000    0.000    0.000 
#    0.000    0.000    0.000    0.000    0.000    0.000 
#
# Total GULP energy -173502.881654 kJ/mol
# GULP energy per Si atom -12393.062975 kJ/mol
# Density = 2.318030 g / cm^3
# Si number density = 23.233181 Si / 1000 Ang^3
#
#
#
# Elastic Constant Matrix: (Units=GPa)
#
#
# Indices 1 2 3 4 5 6 
#
# 1 79.3447 9.0923 7.3363 -6.8980 0.5799 22.1565
# 2 9.0923 51.9147 12.7785 -1.9732 4.4312 15.1106
# 3 7.3363 12.7785 79.6780 5.7135 1.1190 21.9857
# 4 -6.8980 -1.9732 5.7135 31.3746 12.9181 2.6877
# 5 0.5799 4.4312 1.1190 12.9181 37.8955 -4.9653
# 6 22.1565 15.1106 21.9857 2.6877 -4.9653 36.7734
#
#
#
# Elastic Compliance Matrix: (Units=1/GPa)
#
#
# Indices 1 2 3 4 5 6 
#
# 1 0.016268 0.000879 0.001268 0.006077 -0.004021 -0.011908
# 2 0.000879 0.023148 -0.001186 0.005160 -0.005819 -0.010495
# 3 0.001268 -0.001186 0.015360 -0.001311 -0.001135 -0.009517
# 4 0.006077 0.005160 -0.001311 0.041255 -0.016055 -0.010181
# 5 -0.004021 -0.005819 -0.001135 -0.016055 0.034114 0.011272
# 6 -0.011908 -0.010495 -0.009517 -0.010181 0.011272 0.046637
#
#
# Mechanical properties :
#
#
# Convention : Reuss Voigt Hill
#
# Bulk Modulus (GPa) = 17.63722 29.92794 23.78258
# Shear Modulus (GPa) = 25.80519 33.32403 29.56461
#
# Velocity S-wave (km/s) = 3.33634 3.79136 3.57111
# Velocity P-wave (km/s) = 4.73808 5.66352 5.22134
#
# Compressibility (1/GPa) = 0.05669829
#
# Stress axis : x y z
#
# Youngs Moduli (GPa) = 61.46954 43.20031 65.10429
#
# Poissons Ratio (x) = -0.03797 -0.08253
# Poissons Ratio (y) = -0.05403 0.07719
# Poissons Ratio (z) = -0.07792 0.05122
#
# Static dielectric constant tensor:
#      x y z
#    x 4.442270 0.059050 0.057230 
#    y 0.059050 4.442510 -0.324570 
#    z 0.057230 -0.324570 4.164600 
# 
# 
# High freq. dielectric constant tensor:
#      x y z
#    x 1.922060 0.007850 0.005130 
#    y 0.007850 1.918990 -0.023550 
#    z 0.005130 -0.023550 1.906190 
# 
# From -- ./inp_files/189646.got.cif
#   From: 2010.06.25/outbox.cif.g09.slc.cpg/sg2_95_cif.got.tgz:189646.got - 2010.06.27 13:26:56.
