data_PCOD8027952
_publ_section_title
;
Structure prediction by ZEFSAII (Michael W. Deem and Ramdas Pophale) SiO2 
 PCOD8027952
Probable space group: P -1
;
_chemical_formula_sum "Si O2"
_cell_formula_units_Z 16
_cell_length_a 8.974387
_cell_length_b 14.099554
_cell_length_c 8.350597
_cell_angle_alpha 112.152389
_cell_angle_beta 135.646646
_cell_angle_gamma 73.767175
_cell_volume 684.072103
_symmetry_space_group_name_H-M "P -1"
_symmetry_group_IT_number 2
_symmetry_cell_setting 'triclinic'
loop_
_space_group_symop_operation_xyz
x,y,z
-x,-y,-z
loop_
_atom_site_type_symbol
_atom_site_label
_atom_site_fract_x
_atom_site_fract_y
_atom_site_fract_z
Si Si1 0.743498 0.500216 0.987683
Si Si2 0.824062 0.225186 0.333801
Si Si3 0.434123 0.641323 0.004658
Si Si4 0.748611 0.754561 0.498499
Si Si5 0.963827 0.813935 0.034548
Si Si6 0.115338 0.636104 0.255614
Si Si7 0.386072 0.907623 0.273133
Si Si8 0.724760 0.007971 0.092777
O O1 0.540383 0.576216 0.900384
O O2 0.960292 0.562954 0.188880
O O3 0.756825 0.422277 0.100823
O O4 0.720217 0.433747 0.764562
O O5 0.754514 0.294040 0.476068
O O6 0.833173 0.106176 0.322960
O O7 0.056884 0.255559 0.478396
O O8 0.663436 0.252685 0.079231
O O9 0.607838 0.653154 0.292208
O O10 0.584883 0.834680 0.345431
O O11 0.816044 0.785178 0.749597
O O12 0.978660 0.710080 0.080191
O O13 0.199197 0.852952 0.195889
O O14 0.852213 0.900190 0.118716
O O15 0.500000 0.000000 0.500000
O O16 0.275332 0.953739 0.063164
O O17 0.500000 0.000000 0.000000
#
# Coordination Sequence:
#
# PCOD8027952 Si02
#       8
#     2   2   2   2   2   2   2   2
#     4  10  24  50  69 106 140 182 243 294 359 424
#     4  12  26  45  74 107 146 184 240 292 357 423
#     4  11  24  47  77 103 137 187 244 290 358 426
#     4  12  22  45  76 102 141 191 237 291 341 429
#     4  12  27  49  72 106 149 193 237 284 357 428
#     4  11  26  47  71 104 148 183 232 302 359 413
#     4  12  24  45  72 102 143 193 242 280 346 425
#     4  12  28  44  71 110 146 185 234 291 354 417
#
# _framework density 23.38935
#
# number of rings (size 3 to 8) (size 9 to 14) (size 15 to 20)
#    0.000    0.500    5.000    2.625    5.250    2.500 
#    9.000    0.000    0.000    0.000    0.000    0.000 
#    0.000    0.000    0.000    0.000    0.000    0.000 
#
# Total GULP energy -198224.476915 kJ/mol
# GULP energy per Si atom -12389.029807 kJ/mol
# Density = 2.333611 g / cm^3
# Si number density = 23.389350 Si / 1000 Ang^3
#
#
#
# Elastic Constant Matrix: (Units=GPa)
#
#
# Indices 1 2 3 4 5 6 
#
# 1 123.9379 44.0451 30.2717 14.7489 5.1668 -11.2269
# 2 44.0451 110.4529 36.1172 22.1522 3.5251 -9.4381
# 3 30.2717 36.1172 112.3128 19.0296 -2.4803 -7.3084
# 4 14.7489 22.1522 19.0296 35.4922 -8.5127 -4.2550
# 5 5.1668 3.5251 -2.4803 -8.5127 22.6207 3.8551
# 6 -11.2269 -9.4381 -7.3084 -4.2550 3.8551 40.4114
#
#
#
# Elastic Compliance Matrix: (Units=1/GPa)
#
#
# Indices 1 2 3 4 5 6 
#
# 1 0.009969 -0.002833 -0.001352 -0.002168 -0.003129 0.001934
# 2 -0.002833 0.012391 -0.002166 -0.006206 -0.004104 0.001453
# 3 -0.001352 -0.002166 0.010627 -0.003628 0.000339 0.000626
# 4 -0.002168 -0.006206 -0.003628 0.038626 0.015623 -0.000131
# 5 -0.003129 -0.004104 0.000339 0.015623 0.052350 -0.005116
# 6 0.001934 0.001453 0.000626 -0.000131 -0.005116 0.026210
#
#
# Mechanical properties :
#
#
# Convention : Reuss Voigt Hill
#
# Bulk Modulus (GPa) = 49.29427 63.06352 56.17889
# Shear Modulus (GPa) = 29.47452 35.45615 32.46534
#
# Velocity S-wave (km/s) = 3.55374 3.89769 3.72968
# Velocity P-wave (km/s) = 6.16117 6.87583 6.52829
#
# Compressibility (1/GPa) = 0.02028633
#
# Stress axis : x y z
#
# Youngs Moduli (GPa) = 100.30772 80.70068 94.09581
#
# Poissons Ratio (x) = 0.22866 0.12719
# Poissons Ratio (y) = 0.28422 0.20379
# Poissons Ratio (z) = 0.13559 0.17478
#
# Static dielectric constant tensor:
#      x y z
#    x 4.227290 -0.110200 -0.018230 
#    y -0.110200 4.628190 0.233290 
#    z -0.018230 0.233290 3.943260 
# 
# 
# High freq. dielectric constant tensor:
#      x y z
#    x 1.930950 -0.012430 -0.002780 
#    y -0.012430 1.947390 0.025700 
#    z -0.002780 0.025700 1.911250 
# 
# From -- ./inp_files/208572.got.cif
#   From: 2010.06.25/outbox.cif.g09.slc.cpg/sg2_105_cif.got.tgz:208572.got - 2010.06.27 13:26:56.
