data_PCOD8027073
_publ_section_title
;
Structure prediction by ZEFSAII (Michael W. Deem and Ramdas Pophale) SiO2 
 PCOD8027073
Probable space group: P -1
;
_chemical_formula_sum "Si O2"
_cell_formula_units_Z 16
_cell_length_a 20.712254
_cell_length_b 8.416014
_cell_length_c 12.179724
_cell_angle_alpha 149.596993
_cell_angle_beta 39.208309
_cell_angle_gamma 128.880999
_cell_volume 673.719249
_symmetry_space_group_name_H-M "P -1"
_symmetry_group_IT_number 2
_symmetry_cell_setting 'triclinic'
loop_
_space_group_symop_operation_xyz
x,y,z
-x,-y,-z
loop_
_atom_site_type_symbol
_atom_site_label
_atom_site_fract_x
_atom_site_fract_y
_atom_site_fract_z
Si Si1 0.565253 0.229664 0.818851
Si Si2 0.984229 0.902903 0.588334
Si Si3 0.229371 0.843371 0.907008
Si Si4 0.275873 0.797132 0.580277
Si Si5 0.296174 0.731491 0.144023
Si Si6 0.130900 0.257441 0.733697
Si Si7 0.357830 0.063154 0.050167
Si Si8 0.139542 0.338460 0.017875
O O1 0.647966 0.056621 0.520019
O O2 0.617381 0.380182 0.945375
O O3 0.500000 0.500000 0.000000
O O4 0.481589 0.010139 0.839893
O O5 0.045208 0.556120 0.331356
O O6 0.025716 0.185614 0.771836
O O7 0.000000 0.000000 0.500000
O O8 0.866213 0.894438 0.774876
O O9 0.287009 0.920068 0.764038
O O10 0.187134 0.510199 0.742119
O O11 0.312796 0.825654 0.883249
O O12 0.298697 0.416973 0.315264
O O13 0.158364 0.961170 0.798845
O O14 0.249224 0.450082 0.975737
O O15 0.205392 0.931472 0.450500
O O16 0.339739 0.962797 0.137500
O O17 0.111796 0.401082 0.965064
#
# Coordination Sequence:
#
# PCOD8027073 Si02
#       8
#     2   2   2   2   2   2   2   2
#     4  10  24  44  66  99 138 177 216 283 338 390
#     4  11  24  40  72 104 132 171 228 279 327 393
#     4  12  24  42  70 100 134 179 225 275 328 399
#     4  11  26  43  65  96 142 176 214 276 343 393
#     4  11  21  44  70  97 133 172 234 277 321 398
#     4  11  21  42  71 100 132 175 227 270 334 397
#     4  11  24  44  68 100 132 175 233 277 323 392
#     4  11  24  42  69 100 132 183 216 275 342 392
#
# _framework density 23.748764000000001
#
# number of rings (size 3 to 8) (size 9 to 14) (size 15 to 20)
#    0.000    1.000    5.000    1.500    3.500    1.000 
#    2.250    2.500    0.000    0.000    0.000    0.000 
#    0.000    0.000    0.000    0.000    0.000    0.000 
#
# Total GULP energy -198234.457856 kJ/mol
# GULP energy per Si atom -12389.653616 kJ/mol
# Density = 2.369471 g / cm^3
# Si number density = 23.748764 Si / 1000 Ang^3
#
#
#
# Elastic Constant Matrix: (Units=GPa)
#
#
# Indices 1 2 3 4 5 6 
#
# 1 163.7620 35.1477 32.1529 -15.3388 24.0152 8.0634
# 2 35.1477 49.4135 17.4202 -11.1107 14.7688 -1.1804
# 3 32.1529 17.4202 94.5570 -8.2032 15.7274 -8.2831
# 4 -15.3388 -11.1107 -8.2032 31.0857 -12.9745 -2.6508
# 5 24.0152 14.7688 15.7274 -12.9745 31.2491 4.4344
# 6 8.0634 -1.1804 -8.2831 -2.6508 4.4344 37.2933
#
#
#
# Elastic Compliance Matrix: (Units=1/GPa)
#
#
# Indices 1 2 3 4 5 6 
#
# 1 0.007850 -0.004095 -0.001550 0.000689 -0.002777 -0.001792
# 2 -0.004095 0.026983 -0.001773 0.004336 -0.007271 0.002519
# 3 -0.001550 -0.001773 0.012553 0.000265 -0.004696 0.003644
# 4 0.000689 0.004336 0.000265 0.039953 0.013698 0.001258
# 5 -0.002777 -0.007271 -0.004696 0.013698 0.046361 -0.005212
# 6 -0.001792 0.002519 0.003644 0.001258 -0.005212 0.028800
#
#
# Mechanical properties :
#
#
# Convention : Reuss Voigt Hill
#
# Bulk Modulus (GPa) = 30.72194 53.01936 41.87065
# Shear Modulus (GPa) = 26.56957 34.79308 30.68132
#
# Velocity S-wave (km/s) = 3.34844 3.83175 3.59822
# Velocity P-wave (km/s) = 5.28334 6.47688 5.91032
#
# Compressibility (1/GPa) = 0.03255003
#
# Stress axis : x y z
#
# Youngs Moduli (GPa) = 127.39490 37.06013 79.66520
#
# Poissons Ratio (x) = 0.15176 0.12349
# Poissons Ratio (y) = 0.52168 0.14121
# Poissons Ratio (z) = 0.19748 0.06569
#
# Static dielectric constant tensor:
#      x y z
#    x 4.371180 0.143150 -0.197100 
#    y 0.143150 4.418760 -0.425370 
#    z -0.197100 -0.425370 4.712000 
# 
# 
# High freq. dielectric constant tensor:
#      x y z
#    x 1.947050 -0.011560 0.000070 
#    y -0.011560 1.914250 -0.005620 
#    z 0.000070 -0.005620 1.953540 
# 
# From -- ./inp_files/56536.got.cif
#   From: 2010.06.25/outbox.cif.g09.slc.cpg/sg2_29_cif.got.tgz:56536.got - 2010.06.27 13:26:56.
