data_PCOD8027611
_publ_section_title
;
Structure prediction by ZEFSAII (Michael W. Deem and Ramdas Pophale) SiO2 
 PCOD8027611
Probable space group: P -1
;
_chemical_formula_sum "Si O2"
_cell_formula_units_Z 14
_cell_length_a 21.707004
_cell_length_b 14.696347
_cell_length_c 8.294628
_cell_angle_alpha 127.512316
_cell_angle_beta 34.041786
_cell_angle_gamma 151.359517
_cell_volume 637.248985
_symmetry_space_group_name_H-M "P -1"
_symmetry_group_IT_number 2
_symmetry_cell_setting 'triclinic'
loop_
_space_group_symop_operation_xyz
x,y,z
-x,-y,-z
loop_
_atom_site_type_symbol
_atom_site_label
_atom_site_fract_x
_atom_site_fract_y
_atom_site_fract_z
Si Si1 0.771239 0.805369 0.227728
Si Si2 0.540355 0.341067 0.765016
Si Si3 0.725700 0.333260 0.578534
Si Si4 0.372038 0.063492 0.290175
Si Si5 0.458479 0.062832 0.450904
Si Si6 0.881293 0.350407 0.751124
Si Si7 0.525554 0.509073 0.716177
O O1 0.688100 0.858554 0.491124
O O2 0.660591 0.618010 0.382070
O O3 0.710763 0.715357 0.076127
O O4 0.000000 0.000000 0.000000
O O5 0.718441 0.430344 0.569314
O O6 0.397311 0.114620 0.758377
O O7 0.609871 0.481451 0.617249
O O8 0.432972 0.332676 0.115647
O O9 0.960789 0.522674 0.309171
O O10 0.630133 0.132740 0.493142
O O11 0.597902 0.251180 0.928683
O O12 0.357367 0.992475 0.420069
O O13 0.213151 0.857235 0.300756
O O14 0.702132 0.276725 0.123532
O O15 0.000000 0.500000 0.500000
#
# Coordination Sequence:
#
# PCOD8027611 Si02
#       7
#     2   2   2   2   2   2   2
#     4  11  24  43  71  96 115 164 227 263 309 364
#     4  11  23  42  66  88 137 172 197 258 329 378
#     4  11  22  41  64  91 130 169 205 257 317 373
#     4  11  21  39  65  92 125 162 212 267 307 368
#     4  11  22  40  62  96 126 169 208 253 317 380
#     4  11  21  36  65  95 123 159 218 259 301 364
#     4  10  24  46  65  93 125 167 214 263 316 371
#
# _framework density 21.969432999999999
#
# number of rings (size 3 to 8) (size 9 to 14) (size 15 to 20)
#    0.000    1.143    5.714    1.286    2.000    1.714 
#    0.000    7.143    0.000    0.000    0.000    0.000 
#    0.000    0.000    0.000    0.000    0.000    0.000 
#
# Total GULP energy -173487.182387 kJ/mol
# GULP energy per Si atom -12391.941599 kJ/mol
# Density = 2.191943 g / cm^3
# Si number density = 21.969433 Si / 1000 Ang^3
#
#
#
# Elastic Constant Matrix: (Units=GPa)
#
#
# Indices 1 2 3 4 5 6 
#
# 1 136.5691 44.0085 22.8223 -3.0009 -20.7573 -2.8945
# 2 44.0085 123.0172 57.9362 17.7346 -11.8377 13.0087
# 3 22.8223 57.9362 49.9295 1.5326 -14.2702 3.8955
# 4 -3.0009 17.7346 1.5326 47.7166 4.2432 -6.0902
# 5 -20.7573 -11.8377 -14.2702 4.2432 28.3432 4.6265
# 6 -2.8945 13.0087 3.8955 -6.0902 4.6265 38.9099
#
#
#
# Elastic Compliance Matrix: (Units=1/GPa)
#
#
# Indices 1 2 3 4 5 6 
#
# 1 0.009224 -0.004085 0.001934 0.001733 0.005523 0.001473
# 2 -0.004085 0.022901 -0.025017 -0.008442 -0.003725 -0.006334
# 3 0.001934 -0.025017 0.052335 0.006630 0.015931 0.002412
# 4 0.001733 -0.008442 0.006630 0.025179 -0.003778 0.006678
# 5 0.005523 -0.003725 0.015931 -0.003778 0.047364 -0.006162
# 6 0.001473 -0.006334 0.002412 0.006678 -0.006162 0.029464
#
#
# Mechanical properties :
#
#
# Convention : Reuss Voigt Hill
#
# Bulk Modulus (GPa) = 33.19652 62.11666 47.65659
# Shear Modulus (GPa) = 19.93271 35.31053 27.62162
#
# Velocity S-wave (km/s) = 3.01540 4.01341 3.54965
# Velocity P-wave (km/s) = 5.22175 7.05777 6.20801
#
# Compressibility (1/GPa) = 0.03012364
#
# Stress axis : x y z
#
# Youngs Moduli (GPa) = 108.41063 43.66645 19.10772
#
# Poissons Ratio (x) = 0.17837 -0.03696
# Poissons Ratio (y) = 0.44284 0.47803
# Poissons Ratio (z) = -0.20968 1.09242
#
# Static dielectric constant tensor:
#      x y z
#    x 4.355710 0.280300 0.026400 
#    y 0.280300 3.948320 -0.113530 
#    z 0.026400 -0.113530 3.351470 
# 
# 
# High freq. dielectric constant tensor:
#      x y z
#    x 1.888470 0.006710 -0.007430 
#    y 0.006710 1.870730 0.023650 
#    z -0.007430 0.023650 1.825700 
# 
# From -- ./inp_files/28316.got.cif
#   From: 2010.06.25/outbox.cif.g09.slc.cpg/sg2_15_cif.got.tgz:28316.got - 2010.06.27 13:26:56.
