data_PCOD8027395
_publ_section_title
;
Structure prediction by ZEFSAII (Michael W. Deem and Ramdas Pophale) SiO2 
 PCOD8027395
Probable space group: P -1
;
_chemical_formula_sum "Si O2"
_cell_formula_units_Z 14
_cell_length_a 24.307643
_cell_length_b 9.557812
_cell_length_c 8.990177
_cell_angle_alpha 129.044968
_cell_angle_beta 29.753879
_cell_angle_gamma 140.493078
_cell_volume 654.138988
_symmetry_space_group_name_H-M "P -1"
_symmetry_group_IT_number 2
_symmetry_cell_setting 'triclinic'
loop_
_space_group_symop_operation_xyz
x,y,z
-x,-y,-z
loop_
_atom_site_type_symbol
_atom_site_label
_atom_site_fract_x
_atom_site_fract_y
_atom_site_fract_z
Si Si1 0.207551 0.025694 0.102253
Si Si2 0.650438 0.585587 0.176550
Si Si3 0.356134 0.833902 0.146893
Si Si4 0.101457 0.747642 0.872033
Si Si5 0.199734 0.337916 0.834099
Si Si6 0.645916 0.135813 0.167921
Si Si7 0.940651 0.933464 0.276079
O O1 0.091964 0.033017 0.459380
O O2 0.152704 0.870113 0.987840
O O3 0.269287 0.947377 0.022437
O O4 0.315703 0.269290 0.951142
O O5 0.500000 0.500000 0.500000
O O6 0.732323 0.709012 0.219897
O O7 0.675240 0.405289 0.953164
O O8 0.230119 0.801296 0.509101
O O9 0.371365 0.925825 0.006369
O O10 0.500000 0.000000 0.000000
O O11 0.000000 0.500000 0.000000
O O12 0.021023 0.820273 0.015656
O O13 0.270303 0.599105 0.826067
O O14 0.198840 0.230349 0.605026
O O15 0.036225 0.182672 0.148793
O O16 0.500000 0.000000 0.500000
#
# Coordination Sequence:
#
# PCOD8027395 Si02
#       7
#     2   2   2   2   2   2   2
#     4  12  25  41  68 101 135 175 235 282 347 406
#     4  11  23  45  72  98 136 179 228 288 338 419
#     4  11  26  45  72  98 140 187 230 282 357 414
#     4  12  25  43  68 103 142 179 232 289 347 417
#     4  10  24  45  67  95 139 175 232 273 361 403
#     4  11  25  45  68 100 139 179 231 290 348 421
#     4  11  25  42  70  98 139 181 230 288 343 418
#
# _framework density 21.402180000000001
#
# number of rings (size 3 to 8) (size 9 to 14) (size 15 to 20)
#    0.000    0.857    1.429    5.571    8.000    1.714 
#    0.000    2.143    0.000    0.000    0.000    0.000 
#    0.000    0.000    0.000    0.000    0.000    0.000 
#
# Total GULP energy -173492.360951 kJ/mol
# GULP energy per Si atom -12392.311496 kJ/mol
# Density = 2.135347 g / cm^3
# Si number density = 21.402180 Si / 1000 Ang^3
#
#
#
# Elastic Constant Matrix: (Units=GPa)
#
#
# Indices 1 2 3 4 5 6 
#
# 1 142.9843 49.8100 42.0837 -4.6354 23.8235 8.0503
# 2 49.8100 111.3383 50.7483 -19.9532 13.2074 -6.0343
# 3 42.0837 50.7483 151.8112 -7.2114 28.1773 7.3699
# 4 -4.6354 -19.9532 -7.2114 32.2051 1.3121 7.5625
# 5 23.8235 13.2074 28.1773 1.3121 36.1334 -1.0047
# 6 8.0503 -6.0343 7.3699 7.5625 -1.0047 43.4771
#
#
#
# Elastic Compliance Matrix: (Units=1/GPa)
#
#
# Indices 1 2 3 4 5 6 
#
# 1 0.009226 -0.003563 -0.000441 -0.000283 -0.004487 -0.002183
# 2 -0.003563 0.013353 -0.003216 0.006601 -0.000210 0.001905
# 3 -0.000441 -0.003216 0.008960 0.000679 -0.005605 -0.002131
# 4 -0.000283 0.006601 0.000679 0.036749 -0.004247 -0.005637
# 5 -0.004487 -0.000210 -0.005605 -0.004247 0.035328 0.003307
# 6 -0.002183 0.001905 -0.002131 -0.005637 0.003307 0.025087
#
#
# Mechanical properties :
#
#
# Convention : Reuss Voigt Hill
#
# Bulk Modulus (GPa) = 58.48228 76.82419 67.65324
# Shear Modulus (GPa) = 33.59236 39.92924 36.76080
#
# Velocity S-wave (km/s) = 3.96609 4.32402 4.14891
# Velocity P-wave (km/s) = 6.95398 7.80403 7.39124
#
# Compressibility (1/GPa) = 0.01709920
#
# Stress axis : x y z
#
# Youngs Moduli (GPa) = 108.38668 74.89123 111.60106
#
# Poissons Ratio (x) = 0.26686 0.04923
# Poissons Ratio (y) = 0.38621 0.35887
# Poissons Ratio (z) = 0.04781 0.24083
#
# Static dielectric constant tensor:
#      x y z
#    x 5.590800 2.061650 1.069150 
#    y 2.061650 6.251270 1.137550 
#    z 1.069150 1.137550 4.557490 
# 
# 
# High freq. dielectric constant tensor:
#      x y z
#    x 1.865390 -0.001120 0.011510 
#    y -0.001120 1.854920 -0.006520 
#    z 0.011510 -0.006520 1.836570 
# 
# From -- ./inp_files/174386.got.cif
#   From: 2010.06.25/outbox.cif.g09.slc.cpg/sg2_88_cif.got.tgz:174386.got - 2010.06.27 13:26:56.
