data_PCOD8027737
_publ_section_title
;
Structure prediction by ZEFSAII (Michael W. Deem and Ramdas Pophale) SiO2 
 PCOD8027737
Probable space group: P -1
;
_chemical_formula_sum "Si O2"
_cell_formula_units_Z 16
_cell_length_a 8.305815
_cell_length_b 22.984523
_cell_length_c 8.990161
_cell_angle_alpha 132.357631
_cell_angle_beta 33.950429
_cell_angle_gamma 133.824974
_cell_volume 670.162657
_symmetry_space_group_name_H-M "P -1"
_symmetry_group_IT_number 2
_symmetry_cell_setting 'triclinic'
loop_
_space_group_symop_operation_xyz
x,y,z
-x,-y,-z
loop_
_atom_site_type_symbol
_atom_site_label
_atom_site_fract_x
_atom_site_fract_y
_atom_site_fract_z
Si Si1 0.822739 0.195741 0.006437
Si Si2 0.347427 0.520243 0.291995
Si Si3 0.730142 0.906470 0.954649
Si Si4 0.278844 0.683835 0.234835
Si Si5 0.529068 0.698994 0.391126
Si Si6 0.708266 0.054644 0.061832
Si Si7 0.391506 0.416220 0.347164
Si Si8 0.649714 0.127608 0.529619
O O1 0.546970 0.150766 0.030362
O O2 0.720259 0.261245 0.293248
O O3 0.915157 0.135082 0.950432
O O4 0.124981 0.238876 0.753050
O O5 0.501962 0.618893 0.379102
O O6 0.373806 0.451199 0.261627
O O7 0.000000 0.500000 0.500000
O O8 0.500000 0.500000 0.000000
O O9 0.000194 0.867951 0.701625
O O10 0.584753 0.922522 0.250396
O O11 0.876892 0.996924 0.916946
O O12 0.449625 0.672120 0.234665
O O13 0.367515 0.780060 0.292246
O O14 0.918882 0.645440 0.458313
O O15 0.378006 0.637176 0.939080
O O16 0.537320 0.087021 0.382727
O O17 0.500000 0.000000 0.000000
O O18 0.500000 0.500000 0.500000
#
# Coordination Sequence:
#
# PCOD8027737 Si02
#       8
#     2   2   2   2   2   2   2   2
#     4  11  25  43  70 103 135 183 233 292 341 410
#     4  12  23  42  68  97 129 176 225 280 337 410
#     4  11  26  46  68 105 144 181 237 287 353 413
#     4  12  25  44  73 101 140 186 233 286 349 420
#     4  12  23  42  73 100 137 176 240 286 343 405
#     4  10  24  46  73 104 142 188 237 289 345 414
#     4  12  26  46  70 105 142 180 231 288 354 417
#     4  12  25  45  73 101 145 187 233 287 354 414
#
# _framework density 23.8748
#
# number of rings (size 3 to 8) (size 9 to 14) (size 15 to 20)
#    0.000    0.500    3.750    4.125    1.750    4.000 
#    0.000    5.625    0.000    0.000    0.000    0.000 
#    0.000    0.000    0.000    0.000    0.000    0.000 
#
# Total GULP energy -198275.239681 kJ/mol
# GULP energy per Si atom -12392.202480 kJ/mol
# Density = 2.382046 g / cm^3
# Si number density = 23.874800 Si / 1000 Ang^3
#
#
#
# Elastic Constant Matrix: (Units=GPa)
#
#
# Indices 1 2 3 4 5 6 
#
# 1 65.5716 22.1628 43.8331 1.6111 9.3524 0.7868
# 2 22.1628 122.1425 46.3860 11.5121 -8.1471 -5.4104
# 3 43.8331 46.3860 152.1009 5.6460 -3.9547 -1.7287
# 4 1.6111 11.5121 5.6460 49.3875 7.9430 -1.5084
# 5 9.3524 -8.1471 -3.9547 7.9430 34.6867 8.1823
# 6 0.7868 -5.4104 -1.7287 -1.5084 8.1823 28.6658
#
#
#
# Elastic Compliance Matrix: (Units=1/GPa)
#
#
# Indices 1 2 3 4 5 6 
#
# 1 0.020700 -0.002272 -0.005516 0.001690 -0.007332 0.000852
# 2 -0.002272 0.009900 -0.002185 -0.002452 0.003062 0.000796
# 3 -0.005516 -0.002185 0.008910 -0.000703 0.002246 -0.000402
# 4 0.001690 -0.002452 -0.000703 0.022008 -0.006749 0.002533
# 5 -0.007332 0.003062 0.002246 -0.006749 0.035592 -0.009600
# 6 0.000852 0.000796 -0.000402 0.002533 -0.009600 0.037861
#
#
# Mechanical properties :
#
#
# Convention : Reuss Voigt Hill
#
# Bulk Modulus (GPa) = 51.11271 62.73098 56.92184
# Shear Modulus (GPa) = 30.97191 37.71021 34.34106
#
# Velocity S-wave (km/s) = 3.60566 3.97860 3.79671
# Velocity P-wave (km/s) = 6.22812 6.88750 6.56610
#
# Compressibility (1/GPa) = 0.01956461
#
# Stress axis : x y z
#
# Youngs Moduli (GPa) = 48.30967 101.01347 112.22744
#
# Poissons Ratio (x) = 0.22947 0.61907
# Poissons Ratio (y) = 0.10974 0.24519
# Poissons Ratio (z) = 0.26649 0.22069
#
# Static dielectric constant tensor:
#      x y z
#    x 4.382860 -0.140720 0.151710 
#    y -0.140720 4.878100 0.139100 
#    z 0.151710 0.139100 4.387760 
# 
# 
# High freq. dielectric constant tensor:
#      x y z
#    x 1.938840 -0.007690 0.007050 
#    y -0.007690 1.972610 0.008480 
#    z 0.007050 0.008480 1.954890 
# 
# From -- ./inp_files/226410.got.cif
#   From: 2010.06.25/outbox.cif.g09.slc.cpg/sg2_114_cif.got.tgz:226410.got - 2010.06.27 13:26:56.
