data_PCOD8027422
_publ_section_title
;
Structure prediction by ZEFSAII (Michael W. Deem and Ramdas Pophale) SiO2 
 PCOD8027422
Probable space group: P -1
;
_chemical_formula_sum "Si O2"
_cell_formula_units_Z 16
_cell_length_a 8.622484
_cell_length_b 9.002386
_cell_length_c 22.087731
_cell_angle_alpha 50.339995
_cell_angle_beta 146.594141
_cell_angle_gamma 130.412273
_cell_volume 699.199634
_symmetry_space_group_name_H-M "P -1"
_symmetry_group_IT_number 2
_symmetry_cell_setting 'triclinic'
loop_
_space_group_symop_operation_xyz
x,y,z
-x,-y,-z
loop_
_atom_site_type_symbol
_atom_site_label
_atom_site_fract_x
_atom_site_fract_y
_atom_site_fract_z
Si Si1 0.842106 0.960637 0.680416
Si Si2 0.108377 0.361304 0.720142
Si Si3 0.214689 0.675490 0.253455
Si Si4 0.191935 0.665625 0.871075
Si Si5 0.248128 0.031480 0.490596
Si Si6 0.787881 0.681210 0.493292
Si Si7 0.714373 0.533630 0.928036
Si Si8 0.705144 0.920098 0.887895
O O1 0.792323 0.914892 0.605398
O O2 0.070486 0.175943 0.710394
O O3 0.536625 0.955127 0.614739
O O4 0.975476 0.788484 0.795719
O O5 0.452523 0.458200 0.815030
O O6 0.968087 0.287102 0.758281
O O7 0.958960 0.515618 0.599651
O O8 0.479738 0.585067 0.384126
O O9 0.997225 0.526488 0.176440
O O10 0.364219 0.890446 0.215981
O O11 0.432363 0.811438 0.869283
O O12 0.353082 0.587767 0.998906
O O13 0.970382 0.860900 0.465382
O O14 0.278399 0.235625 0.484725
O O15 0.753714 0.767704 0.892183
O O16 0.000000 0.500000 0.000000
O O17 0.000000 0.000000 0.000000
#
# Coordination Sequence:
#
# PCOD8027422 Si02
#       8
#     2   2   2   2   2   2   2   2
#     4  11  26  44  70 103 150 187 236 306 363 420
#     4  12  27  45  72 107 151 191 245 301 365 430
#     4  12  25  47  79 109 144 195 245 296 361 443
#     4  12  27  51  75 107 147 194 246 300 362 437
#     4  10  24  45  68 107 143 193 239 295 360 436
#     4  11  25  44  75 105 144 195 243 291 364 440
#     4  12  30  48  75 110 148 189 245 309 364 428
#     4  12  26  50  79 107 142 196 250 295 367 436
#
# _framework density 22.883306999999999
#
# number of rings (size 3 to 8) (size 9 to 14) (size 15 to 20)
#    0.000    0.500    3.750    3.000   12.250    2.000 
#    0.000    0.000    0.000    0.000    0.000    0.000 
#    0.000    0.000    0.000    0.000    0.000    0.000 
#
# Total GULP energy -198504.973158 kJ/mol
# GULP energy per Si atom -12406.560822 kJ/mol
# Density = 2.283122 g / cm^3
# Si number density = 22.883307 Si / 1000 Ang^3
#
#
#
# Elastic Constant Matrix: (Units=GPa)
#
#
# Indices 1 2 3 4 5 6 
#
# 1 54.7199 16.8535 19.8405 3.7791 12.4004 4.8025
# 2 16.8535 99.9875 57.3592 0.4711 5.8530 -0.9848
# 3 19.8405 57.3592 132.0201 5.3878 13.9694 -1.6080
# 4 3.7791 0.4711 5.3878 45.6859 4.0653 1.5820
# 5 12.4004 5.8530 13.9694 4.0653 31.5125 -0.5937
# 6 4.8025 -0.9848 -1.6080 1.5820 -0.5937 37.5915
#
#
#
# Elastic Compliance Matrix: (Units=1/GPa)
#
#
# Indices 1 2 3 4 5 6 
#
# 1 0.021509 -0.002412 -0.001410 -0.000833 -0.007339 -0.002952
# 2 -0.002412 0.013606 -0.005661 0.000636 0.000857 0.000409
# 3 -0.001410 -0.005661 0.010600 -0.000827 -0.002977 0.000473
# 4 -0.000833 0.000636 -0.000827 0.022285 -0.002316 -0.000887
# 5 -0.007339 0.000857 -0.002977 -0.002316 0.036109 0.001500
# 6 -0.002952 0.000409 0.000473 -0.000887 0.001500 0.027071
#
#
# Mechanical properties :
#
#
# Convention : Reuss Voigt Hill
#
# Bulk Modulus (GPa) = 37.38325 52.75932 45.07129
# Shear Modulus (GPa) = 31.43423 35.80292 33.61858
#
# Velocity S-wave (km/s) = 3.71033 3.95978 3.83708
# Velocity P-wave (km/s) = 5.89299 6.63418 6.27454
#
# Compressibility (1/GPa) = 0.02674995
#
# Stress axis : x y z
#
# Youngs Moduli (GPa) = 46.49266 73.49707 94.33611
#
# Poissons Ratio (x) = 0.17729 0.13299
# Poissons Ratio (y) = 0.11215 0.53400
# Poissons Ratio (z) = 0.06554 0.41604
#
# Static dielectric constant tensor:
#      x y z
#    x 4.090680 -0.151720 0.004370 
#    y -0.151720 4.121430 -0.044110 
#    z 0.004370 -0.044110 4.337830 
# 
# 
# High freq. dielectric constant tensor:
#      x y z
#    x 1.899820 -0.000170 0.004540 
#    y -0.000170 1.913830 0.003840 
#    z 0.004540 0.003840 1.922280 
# 
# From -- ./inp_files/273766.got.cif
#   From: 2010.06.25/outbox.cif.g09.slc.cpg/sg2_137_cif.got.tgz:273766.got - 2010.06.27 13:26:56.
