data_PCOD8027724
_publ_section_title
;
Structure prediction by ZEFSAII (Michael W. Deem and Ramdas Pophale) SiO2 
 PCOD8027724
Probable space group: P -1
;
_chemical_formula_sum "Si O2"
_cell_formula_units_Z 14
_cell_length_a 17.068079
_cell_length_b 10.514863
_cell_length_c 9.195977
_cell_angle_alpha 40.666694
_cell_angle_beta 139.880744
_cell_angle_gamma 142.574202
_cell_volume 596.174752
_symmetry_space_group_name_H-M "P -1"
_symmetry_group_IT_number 2
_symmetry_cell_setting 'triclinic'
loop_
_space_group_symop_operation_xyz
x,y,z
-x,-y,-z
loop_
_atom_site_type_symbol
_atom_site_label
_atom_site_fract_x
_atom_site_fract_y
_atom_site_fract_z
Si Si1 0.982163 0.196589 0.872339
Si Si2 0.462813 0.192158 0.760012
Si Si3 0.288259 0.522482 0.953165
Si Si4 0.360013 0.276643 0.041046
Si Si5 0.322870 0.952046 0.494400
Si Si6 0.216742 0.150802 0.646431
Si Si7 0.006114 0.278224 0.166184
O O1 0.847312 0.178760 0.615785
O O2 0.128033 0.438055 0.848552
O O3 0.946406 0.173981 0.012795
O O4 0.000000 0.000000 0.000000
O O5 0.608163 0.427330 0.802078
O O6 0.342262 0.165587 0.719662
O O7 0.404611 0.165585 0.536736
O O8 0.500000 0.000000 0.000000
O O9 0.282591 0.322861 0.023508
O O10 0.356800 0.753259 0.751532
O O11 0.377119 0.068492 0.310131
O O12 0.500000 0.500000 0.000000
O O13 0.258746 0.203858 0.825876
O O14 0.165454 0.320040 0.367135
O O15 0.085338 0.893405 0.684635
O O16 0.000000 0.500000 0.000000
#
# Coordination Sequence:
#
# PCOD8027724 Si02
#       7
#     2   2   2   2   2   2   2
#     4  12  23  46  73 106 143 187 246 301 362 433
#     4  10  24  46  72 106 142 194 242 296 359 442
#     4  11  25  44  71 103 143 185 240 294 361 433
#     4  12  25  45  69 104 137 185 234 294 365 430
#     4  11  25  45  71 101 140 184 240 294 354 426
#     4  11  24  48  70 101 154 182 238 305 363 431
#     4  11  27  44  74 108 142 193 243 301 370 430
#
# _framework density 23.483046999999999
#
# number of rings (size 3 to 8) (size 9 to 14) (size 15 to 20)
#    0.000    0.857    4.286    1.286    6.000    3.429 
#    2.571    0.000    0.000    0.000    0.000    0.000 
#    0.000    0.000    0.000    0.000    0.000    0.000 
#
# Total GULP energy -173494.930249 kJ/mol
# GULP energy per Si atom -12392.495018 kJ/mol
# Density = 2.342960 g / cm^3
# Si number density = 23.483047 Si / 1000 Ang^3
#
#
#
# Elastic Constant Matrix: (Units=GPa)
#
#
# Indices 1 2 3 4 5 6 
#
# 1 76.7892 26.0972 31.0126 0.5266 20.3080 -6.3440
# 2 26.0972 78.5145 41.5557 7.4707 5.2411 4.3936
# 3 31.0126 41.5557 114.9172 19.2320 5.1338 -9.6493
# 4 0.5266 7.4707 19.2320 49.2485 -2.1454 -4.7633
# 5 20.3080 5.2411 5.1338 -2.1454 34.4682 4.3184
# 6 -6.3440 4.3936 -9.6493 -4.7633 4.3184 56.8249
#
#
#
# Elastic Compliance Matrix: (Units=1/GPa)
#
#
# Indices 1 2 3 4 5 6 
#
# 1 0.018568 -0.004169 -0.003064 0.001457 -0.010105 0.002765
# 2 -0.004169 0.017032 -0.005186 -0.000743 0.000943 -0.002797
# 3 -0.003064 -0.005186 0.012166 -0.003745 0.000325 0.001786
# 4 0.001457 -0.000743 -0.003745 0.022040 0.001014 0.001355
# 5 -0.010105 0.000943 0.000325 0.001014 0.035306 -0.003744
# 6 0.002765 -0.002797 0.001786 0.001355 -0.003744 0.018824
#
#
# Mechanical properties :
#
#
# Convention : Reuss Voigt Hill
#
# Bulk Modulus (GPa) = 43.61557 51.95022 47.78290
# Shear Modulus (GPa) = 31.96588 39.54533 35.75561
#
# Velocity S-wave (km/s) = 3.69349 4.10810 3.90630
# Velocity P-wave (km/s) = 6.06652 6.68375 6.38260
#
# Compressibility (1/GPa) = 0.02292759
#
# Stress axis : x y z
#
# Youngs Moduli (GPa) = 53.85689 58.71462 82.19403
#
# Poissons Ratio (x) = 0.24479 0.25181
# Poissons Ratio (y) = 0.22453 0.42629
# Poissons Ratio (z) = 0.16499 0.30452
#
# Static dielectric constant tensor:
#      x y z
#    x 4.144110 0.037870 -0.071260 
#    y 0.037870 4.380050 0.239660 
#    z -0.071260 0.239660 4.564130 
# 
# 
# High freq. dielectric constant tensor:
#      x y z
#    x 1.917250 0.003610 0.001580 
#    y 0.003610 1.942710 0.011340 
#    z 0.001580 0.011340 1.941440 
# 
# From -- ./inp_files/332779.got.cif
#   From: 2010.06.25/outbox.cif.g09.slc.cpg/sg2_167_cif.got.tgz:332779.got - 2010.06.27 13:26:56.
