data_PCOD8027300
_publ_section_title
;
Structure prediction by ZEFSAII (Michael W. Deem and Ramdas Pophale) SiO2 
 PCOD8027300
Probable space group: P -1
;
_chemical_formula_sum "Si O2"
_cell_formula_units_Z 14
_cell_length_a 9.964879
_cell_length_b 8.506463
_cell_length_c 17.498337
_cell_angle_alpha 146.020743
_cell_angle_beta 129.855885
_cell_angle_gamma 61.297452
_cell_volume 631.835991
_symmetry_space_group_name_H-M "P -1"
_symmetry_group_IT_number 2
_symmetry_cell_setting 'triclinic'
loop_
_space_group_symop_operation_xyz
x,y,z
-x,-y,-z
loop_
_atom_site_type_symbol
_atom_site_label
_atom_site_fract_x
_atom_site_fract_y
_atom_site_fract_z
Si Si1 0.761600 0.761901 0.162672
Si Si2 0.125359 0.781183 0.741001
Si Si3 0.234607 0.283184 0.492064
Si Si4 0.852108 0.307096 0.703312
Si Si5 0.429410 0.850450 0.160301
Si Si6 0.167358 0.066710 0.034422
Si Si7 0.475715 0.719785 0.516088
O O1 0.636000 0.892277 0.229593
O O2 0.943431 0.707485 0.248579
O O3 0.800277 0.961693 0.183811
O O4 0.655653 0.464882 0.980029
O O5 0.220920 0.501247 0.645361
O O6 0.918103 0.686809 0.613849
O O7 0.158052 0.871719 0.877049
O O8 0.427240 0.362166 0.558468
O O9 0.220844 0.956278 0.377806
O O10 0.825499 0.603940 0.855179
O O11 0.733190 0.282133 0.573747
O O12 0.334421 0.006768 0.121377
O O13 0.425599 0.986203 0.297388
O O14 0.000000 0.000000 0.000000
O O15 0.500000 0.500000 0.500000
#
# Coordination Sequence:
#
# PCOD8027300 Si02
#       7
#     2   2   2   2   2   2   2
#     4  10  24  45  66 103 136 182 229 276 344 406
#     4  10  24  44  72  95 143 180 226 279 343 408
#     4  10  24  45  66 105 135 183 226 278 344 407
#     4  11  25  44  70 100 137 178 233 275 345 404
#     4  11  24  43  68 102 141 177 230 281 340 403
#     4  12  24  44  70 105 132 180 231 285 338 405
#     4  12  24  42  69  98 141 176 224 287 336 404
#
# _framework density 22.157647000000001
#
# number of rings (size 3 to 8) (size 9 to 14) (size 15 to 20)
#    0.000    1.143    2.857    2.143    2.000    4.571 
#    0.000    0.000    0.000    0.000    0.000    0.000 
#    0.000    0.000    0.000    0.000    0.000    0.000 
#
# Total GULP energy -173551.957217 kJ/mol
# GULP energy per Si atom -12396.568373 kJ/mol
# Density = 2.210722 g / cm^3
# Si number density = 22.157647 Si / 1000 Ang^3
#
#
#
# Elastic Constant Matrix: (Units=GPa)
#
#
# Indices 1 2 3 4 5 6 
#
# 1 130.0789 42.8897 60.7790 -6.5991 0.9439 -10.7222
# 2 42.8897 65.4951 46.1954 -2.9797 -11.8683 -14.9502
# 3 60.7790 46.1954 132.8705 -5.0013 -22.1264 -3.5128
# 4 -6.5991 -2.9797 -5.0013 48.8711 -1.6049 6.3303
# 5 0.9439 -11.8683 -22.1264 -1.6049 39.5088 -1.6351
# 6 -10.7222 -14.9502 -3.5128 6.3303 -1.6351 31.8639
#
#
#
# Elastic Compliance Matrix: (Units=1/GPa)
#
#
# Indices 1 2 3 4 5 6 
#
# 1 0.011395 -0.005165 -0.004051 0.000594 -0.004042 0.000639
# 2 -0.005165 0.025741 -0.005489 -0.000837 0.005169 0.010166
# 3 -0.004051 -0.005489 0.012113 0.000852 0.005162 -0.002507
# 4 0.000594 -0.000837 0.000852 0.021159 0.000895 -0.004257
# 5 -0.004042 0.005169 0.005162 0.000895 0.030012 0.002996
# 6 0.000639 0.010166 -0.002507 -0.004257 0.002996 0.037091
#
#
# Mechanical properties :
#
#
# Convention : Reuss Voigt Hill
#
# Bulk Modulus (GPa) = 50.40209 69.79695 60.09952
# Shear Modulus (GPa) = 28.81289 35.95412 32.38351
#
# Velocity S-wave (km/s) = 3.60996 4.03258 3.82711
# Velocity P-wave (km/s) = 6.33815 7.29732 6.83458
#
# Compressibility (1/GPa) = 0.01984045
#
# Stress axis : x y z
#
# Youngs Moduli (GPa) = 87.75462 38.84864 82.55643
#
# Poissons Ratio (x) = 0.20064 0.33442
# Poissons Ratio (y) = 0.45322 0.45315
# Poissons Ratio (z) = 0.35548 0.21324
#
# Static dielectric constant tensor:
#      x y z
#    x 4.234180 -0.588730 0.271360 
#    y -0.588730 4.017500 0.422220 
#    z 0.271360 0.422220 3.838590 
# 
# 
# High freq. dielectric constant tensor:
#      x y z
#    x 1.869400 -0.017920 0.010590 
#    y -0.017920 1.872530 0.015700 
#    z 0.010590 0.015700 1.886710 
# 
# From -- ./inp_files/159769.got.cif
#   From: 2010.06.25/outbox.cif.g09.slc.cpg/sg2_80_cif.got.tgz:159769.got - 2010.06.27 13:26:56.
