data_PCOD8027331
_publ_section_title
;
Structure prediction by ZEFSAII (Michael W. Deem and Ramdas Pophale) SiO2 
 PCOD8027331
Probable space group: P -1
;
_chemical_formula_sum "Si O2"
_cell_formula_units_Z 10
_cell_length_a 5.178330
_cell_length_b 12.781474
_cell_length_c 8.618432
_cell_angle_alpha 56.756612
_cell_angle_beta 54.492008
_cell_angle_gamma 85.794433
_cell_volume 362.323273
_symmetry_space_group_name_H-M "P -1"
_symmetry_group_IT_number 2
_symmetry_cell_setting 'triclinic'
loop_
_space_group_symop_operation_xyz
x,y,z
-x,-y,-z
loop_
_atom_site_type_symbol
_atom_site_label
_atom_site_fract_x
_atom_site_fract_y
_atom_site_fract_z
Si Si1 0.632282 0.397144 0.122662
Si Si2 0.153955 0.223238 0.657205
Si Si3 0.753812 0.619632 0.218030
Si Si4 0.329374 0.191026 0.147632
Si Si5 0.680203 0.093214 0.646762
O O1 0.460445 0.358869 0.381293
O O2 0.523069 0.256120 0.183222
O O3 0.500000 0.500000 0.000000
O O4 0.045483 0.442334 0.926396
O O5 0.012487 0.273244 0.821448
O O6 0.326324 0.114943 0.725938
O O7 0.858291 0.169714 0.678131
O O8 0.500000 0.500000 0.500000
O O9 0.570695 0.698838 0.114540
O O10 0.426892 0.065715 0.160514
O O11 0.924022 0.140777 0.372188
#
# Coordination Sequence:
#
# PCOD8027331 Si02
#       5
#     2   2   2   2   2
#     4  11  26  47  73 101 148 196 241 299 358 429
#     4  11  26  46  76 107 147 184 245 293 376 417
#     4  12  28  44  73 107 145 190 249 296 358 433
#     4  10  24  44  75 103 144 187 246 288 369 428
#     4  10  24  47  76 108 142 192 231 307 358 440
#
# _framework density 27.599665000000002
#
# number of rings (size 3 to 8) (size 9 to 14) (size 15 to 20)
#    0.000    1.200    2.000    1.200   11.200    7.200 
#    0.000    0.000    0.000    0.000    0.000    0.000 
#    0.000    0.000    0.000    0.000    0.000    0.000 
#
# Total GULP energy -124024.047278 kJ/mol
# GULP energy per Si atom -12402.404728 kJ/mol
# Density = 2.753685 g / cm^3
# Si number density = 27.599665 Si / 1000 Ang^3
#
#
#
# Elastic Constant Matrix: (Units=GPa)
#
#
# Indices 1 2 3 4 5 6 
#
# 1 70.3001 -1.7365 5.7293 -8.0604 25.1426 -19.2269
# 2 -1.7365 122.3254 40.3149 17.1151 14.4264 -17.3161
# 3 5.7293 40.3149 112.9849 -4.8094 23.4729 -16.6775
# 4 -8.0604 17.1151 -4.8094 48.8859 -0.6559 3.9473
# 5 25.1426 14.4264 23.4729 -0.6559 39.1031 -1.8801
# 6 -19.2269 -17.3161 -16.6775 3.9473 -1.8801 58.3372
#
#
#
# Elastic Compliance Matrix: (Units=1/GPa)
#
#
# Indices 1 2 3 4 5 6 
#
# 1 0.022445 0.002161 0.002820 0.002342 -0.016490 0.008155
# 2 0.002161 0.010555 -0.002849 -0.003923 -0.003486 0.003184
# 3 0.002820 -0.002849 0.011876 0.002279 -0.007705 0.003077
# 4 0.002342 -0.003923 0.002279 0.022530 -0.001111 -0.001301
# 5 -0.016490 -0.003486 -0.007705 -0.001111 0.041721 -0.007253
# 6 0.008155 0.003184 0.003077 -0.001301 -0.007253 0.021508
#
#
# Mechanical properties :
#
#
# Convention : Reuss Voigt Hill
#
# Bulk Modulus (GPa) = 20.34964 43.80288 32.07626
# Shear Modulus (GPa) = 35.02609 46.68542 40.85575
#
# Velocity S-wave (km/s) = 3.56627 4.11727 3.85164
# Velocity P-wave (km/s) = 4.93426 6.20547 5.60601
#
# Compressibility (1/GPa) = 0.04914092
#
# Stress axis : x y z
#
# Youngs Moduli (GPa) = 44.55342 94.74030 84.20287
#
# Poissons Ratio (x) = -0.20470 -0.23747
# Poissons Ratio (y) = -0.09627 0.23986
# Poissons Ratio (z) = -0.12565 0.26988
#
# Static dielectric constant tensor:
#      x y z
#    x 4.703380 0.318540 -0.046270 
#    y 0.318540 5.496280 0.307180 
#    z -0.046270 0.307180 5.543000 
# 
# 
# High freq. dielectric constant tensor:
#      x y z
#    x 2.102780 0.014980 -0.005440 
#    y 0.014980 2.148370 0.008780 
#    z -0.005440 0.008780 2.133100 
# 
# From -- ./inp_files/36436.got.cif
#   From: 2010.06.25/outbox.cif.g09.slc.cpg/sg2_19_cif.got.tgz:36436.got - 2010.06.27 13:26:56.
