data_PCOD8027299
_publ_section_title
;
Structure prediction by ZEFSAII (Michael W. Deem and Ramdas Pophale) SiO2 
 PCOD8027299
Probable space group: P -1
;
_chemical_formula_sum "Si O2"
_cell_formula_units_Z 16
_cell_length_a 9.313793
_cell_length_b 14.687536
_cell_length_c 9.194361
_cell_angle_alpha 115.731983
_cell_angle_beta 66.770397
_cell_angle_gamma 138.617654
_cell_volume 744.031027
_symmetry_space_group_name_H-M "P -1"
_symmetry_group_IT_number 2
_symmetry_cell_setting 'triclinic'
loop_
_space_group_symop_operation_xyz
x,y,z
-x,-y,-z
loop_
_atom_site_type_symbol
_atom_site_label
_atom_site_fract_x
_atom_site_fract_y
_atom_site_fract_z
Si Si1 0.766581 0.447413 0.689875
Si Si2 0.604824 0.946961 0.854781
Si Si3 0.745078 0.892322 0.038984
Si Si4 0.541167 0.419492 0.020705
Si Si5 0.015785 0.887866 0.404351
Si Si6 0.281376 0.948006 0.615596
Si Si7 0.434114 0.433170 0.639102
Si Si8 0.235583 0.729540 0.631965
O O1 0.643014 0.473761 0.657158
O O2 0.700317 0.305921 0.561666
O O3 0.025324 0.581443 0.680956
O O4 0.711976 0.428325 0.869515
O O5 0.437987 0.816675 0.721984
O O6 0.831086 0.074517 0.767555
O O7 0.644657 0.886637 0.925581
O O8 0.500000 0.000000 0.000000
O O9 0.671979 0.928914 0.228636
O O10 0.674904 0.745411 0.991074
O O11 0.000000 0.000000 0.000000
O O12 0.627198 0.492870 0.195118
O O13 0.500000 0.500000 0.000000
O O14 0.111767 0.888465 0.514563
O O15 0.772458 0.734189 0.382355
O O16 0.000000 0.000000 0.500000
O O17 0.178901 0.819301 0.676948
O O18 0.500000 0.000000 0.500000
O O19 0.500000 0.500000 0.500000
#
# Coordination Sequence:
#
# PCOD8027299 Si02
#       8
#     2   2   2   2   2   2   2   2
#     4  10  24  44  72  95 142 189 236 288 358 434
#     4  12  26  45  72 108 149 183 241 304 361 427
#     4  12  28  44  75 105 143 187 243 297 359 423
#     4  10  26  44  68 100 140 183 236 291 358 425
#     4  12  27  44  76 106 142 188 242 302 355 426
#     4  12  24  45  72 100 142 184 241 285 358 424
#     4  11  26  44  70 104 146 181 240 296 365 421
#     4  11  23  44  73  99 142 191 238 290 362 432
#
# _framework density 21.504479
#
# number of rings (size 3 to 8) (size 9 to 14) (size 15 to 20)
#    0.000    0.750    2.500    3.000   17.500    0.000 
#    0.000    0.625    0.000    0.000    0.000    0.000 
#    0.000    0.000    0.000    0.000    0.000    0.000 
#
# Total GULP energy -198405.829468 kJ/mol
# GULP energy per Si atom -12400.364342 kJ/mol
# Density = 2.145553 g / cm^3
# Si number density = 21.504479 Si / 1000 Ang^3
#
#
#
# Elastic Constant Matrix: (Units=GPa)
#
#
# Indices 1 2 3 4 5 6 
#
# 1 89.1233 36.2394 31.2028 -0.9774 -4.0541 -1.9170
# 2 36.2394 151.8861 65.0955 7.8639 -13.8500 -2.5028
# 3 31.2028 65.0955 163.3113 3.1706 -14.6058 1.0759
# 4 -0.9774 7.8639 3.1706 37.2985 -5.6476 -3.9090
# 5 -4.0541 -13.8500 -14.6058 -5.6476 33.0797 -1.8259
# 6 -1.9170 -2.5028 1.0759 -3.9090 -1.8259 36.4556
#
#
#
# Elastic Compliance Matrix: (Units=1/GPa)
#
#
# Indices 1 2 3 4 5 6 
#
# 1 0.012764 -0.002446 -0.001479 0.001062 0.000105 0.000666
# 2 -0.002446 0.008603 -0.002771 -0.001305 0.001883 0.000498
# 3 -0.001479 -0.002771 0.007694 0.000165 0.002063 -0.000374
# 4 0.001062 -0.001305 0.000165 0.028138 0.004638 0.003211
# 5 0.000105 0.001883 0.002063 0.004638 0.032856 0.002217
# 6 0.000666 0.000498 -0.000374 0.003211 0.002217 0.027966
#
#
# Mechanical properties :
#
#
# Convention : Reuss Voigt Hill
#
# Bulk Modulus (GPa) = 63.82490 74.37735 69.10112
# Shear Modulus (GPa) = 36.59335 39.48563 38.03949
#
# Velocity S-wave (km/s) = 4.12960 4.28969 4.21040
# Velocity P-wave (km/s) = 7.24447 7.69398 7.47260
#
# Compressibility (1/GPa) = 0.01566787
#
# Stress axis : x y z
#
# Youngs Moduli (GPa) = 78.34788 116.24402 129.96593
#
# Poissons Ratio (x) = 0.28430 0.19227
# Poissons Ratio (y) = 0.19162 0.36016
# Poissons Ratio (z) = 0.11591 0.32214
#
# Static dielectric constant tensor:
#      x y z
#    x 4.090180 -0.300000 -0.203570 
#    y -0.300000 4.122610 0.107830 
#    z -0.203570 0.107830 4.504530 
# 
# 
# High freq. dielectric constant tensor:
#      x y z
#    x 1.838350 -0.003240 -0.006630 
#    y -0.003240 1.854360 0.001590 
#    z -0.006630 0.001590 1.867480 
# 
# From -- ./inp_files/208254.got.cif
#   From: 2010.06.25/outbox.cif.g09.slc.cpg/sg2_105_cif.got.tgz:208254.got - 2010.06.27 13:26:56.
