data_PCOD8027898
_publ_section_title
;
Structure prediction by ZEFSAII (Michael W. Deem and Ramdas Pophale) SiO2 
 PCOD8027898
Probable space group: P -1
;
_chemical_formula_sum "Si O2"
_cell_formula_units_Z 16
_cell_length_a 13.700953
_cell_length_b 8.479297
_cell_length_c 6.578228
_cell_angle_alpha 107.682025
_cell_angle_beta 77.051428
_cell_angle_gamma 100.453481
_cell_volume 704.293091
_symmetry_space_group_name_H-M "P -1"
_symmetry_group_IT_number 2
_symmetry_cell_setting 'triclinic'
loop_
_space_group_symop_operation_xyz
x,y,z
-x,-y,-z
loop_
_atom_site_type_symbol
_atom_site_label
_atom_site_fract_x
_atom_site_fract_y
_atom_site_fract_z
Si Si1 0.933585 0.334026 0.902941
Si Si2 0.887807 0.151310 0.258289
Si Si3 0.345431 0.416876 0.980809
Si Si4 0.516471 0.260769 0.052286
Si Si5 0.563930 0.967413 0.652150
Si Si6 0.764900 0.845721 0.363559
Si Si7 0.187586 0.567774 0.347107
Si Si8 0.926885 0.748058 0.534651
O O1 0.837682 0.390226 0.855971
O O2 0.000058 0.236834 0.685928
O O3 0.892360 0.208167 0.047377
O O4 0.000000 0.500000 0.000000
O O5 0.813574 0.265059 0.455483
O O6 0.003480 0.154608 0.286101
O O7 0.834608 0.963002 0.221711
O O8 0.412404 0.565410 0.889516
O O9 0.268408 0.324042 0.814161
O O10 0.415380 0.284642 0.983137
O O11 0.292114 0.489096 0.233953
O O12 0.488859 0.193685 0.264645
O O13 0.576125 0.128853 0.854452
O O14 0.672852 0.936212 0.515593
O O15 0.500000 0.000000 0.500000
O O16 0.825667 0.819040 0.534251
O O17 0.102320 0.438375 0.442196
#
# Coordination Sequence:
#
# PCOD8027898 Si02
#       8
#     2   2   2   2   2   2   2   2
#     4  11  19  40  66  93 129 176 226 268 318 386
#     4  11  24  43  67  93 136 184 217 271 329 381
#     4  11  24  45  67 103 131 172 222 273 328 397
#     4  10  24  48  73  92 136 174 211 276 341 389
#     4  11  23  48  72 100 133 170 218 272 335 403
#     4  12  26  43  66 103 134 171 224 273 328 393
#     4  11  22  41  68  94 131 174 225 269 323 391
#     4  11  23  42  65  95 136 177 222 273 324 381
#
# _framework density 22.717815000000002
#
# number of rings (size 3 to 8) (size 9 to 14) (size 15 to 20)
#    0.000    1.000    3.750    3.375    0.000    2.000 
#   11.250    0.000    0.000    0.000    0.000    0.000 
#    0.000    0.000    0.000    0.000    0.000    0.000 
#
# Total GULP energy -198376.635067 kJ/mol
# GULP energy per Si atom -12398.539692 kJ/mol
# Density = 2.266611 g / cm^3
# Si number density = 22.717815 Si / 1000 Ang^3
#
#
#
# Elastic Constant Matrix: (Units=GPa)
#
#
# Indices 1 2 3 4 5 6 
#
# 1 99.9497 47.3535 35.3372 -4.8429 -5.0680 -12.6807
# 2 47.3535 128.3045 40.9922 -31.5358 15.4587 9.7026
# 3 35.3372 40.9922 84.3346 -33.8754 10.2363 -5.5488
# 4 -4.8429 -31.5358 -33.8754 40.1832 -8.2457 -0.7463
# 5 -5.0680 15.4587 10.2363 -8.2457 27.4954 3.4843
# 6 -12.6807 9.7026 -5.5488 -0.7463 3.4843 38.8735
#
#
#
# Elastic Compliance Matrix: (Units=1/GPa)
#
#
# Indices 1 2 3 4 5 6 
#
# 1 0.016470 -0.006958 -0.007225 -0.008128 0.006523 0.005337
# 2 -0.006958 0.013484 0.000207 0.008653 -0.005722 -0.004927
# 3 -0.007225 0.000207 0.022379 0.017198 -0.004818 0.001548
# 4 -0.008128 0.008653 0.017198 0.045380 0.001044 -0.001579
# 5 0.006523 -0.005722 -0.004818 0.001044 0.043018 -0.000968
# 6 0.005337 -0.004927 0.001548 -0.001579 -0.000968 0.028972
#
#
# Mechanical properties :
#
#
# Convention : Reuss Voigt Hill
#
# Bulk Modulus (GPa) = 41.01350 62.21719 51.61534
# Shear Modulus (GPa) = 24.29757 33.90415 29.10086
#
# Velocity S-wave (km/s) = 3.27393 3.86736 3.58295
# Velocity P-wave (km/s) = 5.69070 6.88392 6.31555
#
# Compressibility (1/GPa) = 0.02438221
#
# Stress axis : x y z
#
# Youngs Moduli (GPa) = 60.71742 74.15960 44.68530
#
# Poissons Ratio (x) = 0.51598 0.32284
# Poissons Ratio (y) = 0.42245 -0.00925
# Poissons Ratio (z) = 0.43867 -0.01536
#
# Static dielectric constant tensor:
#      x y z
#    x 4.220360 -0.193140 -0.093300 
#    y -0.193140 4.136550 -0.120450 
#    z -0.093300 -0.120450 4.156070 
# 
# 
# High freq. dielectric constant tensor:
#      x y z
#    x 1.895730 -0.009570 -0.008390 
#    y -0.009570 1.906750 -0.010800 
#    z -0.008390 -0.010800 1.894860 
# 
# From -- ./inp_files/90685.got.cif
#   From: 2010.06.25/outbox.cif.g09.slc.cpg/sg2_46_cif.got.tgz:90685.got - 2010.06.27 13:26:56.
