data_PCOD8027645
_publ_section_title
;
Structure prediction by ZEFSAII (Michael W. Deem and Ramdas Pophale) SiO2 
 PCOD8027645
Probable space group: P -1
;
_chemical_formula_sum "Si O2"
_cell_formula_units_Z 14
_cell_length_a 11.114606
_cell_length_b 6.614030
_cell_length_c 14.289095
_cell_angle_alpha 87.358650
_cell_angle_beta 115.914921
_cell_angle_gamma 134.765922
_cell_volume 611.891407
_symmetry_space_group_name_H-M "P -1"
_symmetry_group_IT_number 2
_symmetry_cell_setting 'triclinic'
loop_
_space_group_symop_operation_xyz
x,y,z
-x,-y,-z
loop_
_atom_site_type_symbol
_atom_site_label
_atom_site_fract_x
_atom_site_fract_y
_atom_site_fract_z
Si Si1 0.307866 0.880157 0.757855
Si Si2 0.632134 0.670620 0.703052
Si Si3 0.113347 0.758209 0.351996
Si Si4 0.660762 0.866793 0.056258
Si Si5 0.875483 0.559452 0.781495
Si Si6 0.817793 0.957630 0.443002
Si Si7 0.675892 0.048564 0.855318
O O1 0.133273 0.520700 0.740819
O O2 0.418553 0.096453 0.883264
O O3 0.203752 0.944655 0.663317
O O4 0.475649 0.946447 0.755899
O O5 0.697844 0.515735 0.741598
O O6 0.392384 0.406187 0.598587
O O7 0.774084 0.926135 0.665393
O O8 0.667146 0.817573 0.811323
O O9 0.185561 0.628393 0.332164
O O10 0.150921 0.829452 0.473729
O O11 0.500000 0.500000 0.000000
O O12 0.898965 0.075044 0.153878
O O13 0.670707 0.018896 0.965100
O O14 0.871513 0.395741 0.871231
O O15 0.000000 0.000000 0.500000
#
# Coordination Sequence:
#
# PCOD8027645 Si02
#       7
#     2   2   2   2   2   2   2
#     4  11  24  47  66 101 140 174 224 284 333 404
#     4  11  24  45  69 102 135 179 224 281 326 407
#     4  10  25  42  69  99 136 178 220 279 333 397
#     4  11  25  42  72 102 132 181 226 277 335 399
#     4  10  24  46  68  97 142 173 228 274 337 399
#     4  12  25  44  72 101 134 180 228 274 339 398
#     4  11  23  46  69  98 138 181 221 275 341 395
#
# _framework density 22.879878000000001
#
# number of rings (size 3 to 8) (size 9 to 14) (size 15 to 20)
#    0.000    1.143    1.429    3.429    6.000    1.143 
#    2.571    0.000    0.000    0.000    0.000    0.000 
#    0.000    0.000    0.000    0.000    0.000    0.000 
#
# Total GULP energy -173532.270973 kJ/mol
# GULP energy per Si atom -12395.162212 kJ/mol
# Density = 2.282780 g / cm^3
# Si number density = 22.879878 Si / 1000 Ang^3
#
#
#
# Elastic Constant Matrix: (Units=GPa)
#
#
# Indices 1 2 3 4 5 6 
#
# 1 122.0227 50.7795 48.0990 -7.8825 -7.5051 -11.6995
# 2 50.7795 132.8335 53.8244 24.5795 -5.7626 14.2323
# 3 48.0990 53.8244 113.2513 2.9991 -25.0994 -8.0984
# 4 -7.8825 24.5795 2.9991 37.1862 3.4942 2.3157
# 5 -7.5051 -5.7626 -25.0994 3.4942 44.5697 2.4189
# 6 -11.6995 14.2323 -8.0984 2.3157 2.4189 34.6134
#
#
#
# Elastic Compliance Matrix: (Units=1/GPa)
#
#
# Indices 1 2 3 4 5 6 
#
# 1 0.012353 -0.005408 -0.002647 0.006152 -0.000887 0.005430
# 2 -0.005408 0.014207 -0.004930 -0.009571 -0.000658 -0.008137
# 3 -0.002647 -0.004930 0.014006 0.000710 0.006537 0.003905
# 4 0.006152 -0.009571 0.000710 0.034468 -0.002725 0.004065
# 5 -0.000887 -0.000658 0.006537 -0.002725 0.026105 -0.000142
# 6 0.005430 -0.008137 0.003905 0.004065 -0.000142 0.034723
#
#
# Mechanical properties :
#
#
# Convention : Reuss Voigt Hill
#
# Bulk Modulus (GPa) = 68.50954 74.83481 71.67218
# Shear Modulus (GPa) = 29.99441 37.63417 33.81429
#
# Velocity S-wave (km/s) = 3.62463 4.06009 3.84852
# Velocity P-wave (km/s) = 6.89387 7.39985 7.15134
#
# Compressibility (1/GPa) = 0.01459651
#
# Stress axis : x y z
#
# Youngs Moduli (GPa) = 80.95352 70.38549 71.39673
#
# Poissons Ratio (x) = 0.38066 0.18900
# Poissons Ratio (y) = 0.43781 0.35196
# Poissons Ratio (z) = 0.21430 0.34697
#
# Static dielectric constant tensor:
#      x y z
#    x 4.214970 0.259960 -0.177720 
#    y 0.259960 4.124410 0.207460 
#    z -0.177720 0.207460 3.993900 
# 
# 
# High freq. dielectric constant tensor:
#      x y z
#    x 1.910380 0.019290 -0.016580 
#    y 0.019290 1.915330 0.012890 
#    z -0.016580 0.012890 1.891040 
# 
# From -- ./inp_files/38807.got.cif
#   From: 2010.06.25/outbox.cif.g09.slc.cpg/sg2_20_cif.got.tgz:38807.got - 2010.06.27 13:26:56.
