data_PCOD8027796
_publ_section_title
;
Structure prediction by ZEFSAII (Michael W. Deem and Ramdas Pophale) SiO2 
 PCOD8027796
Probable space group: P -1
;
_chemical_formula_sum "Si O2"
_cell_formula_units_Z 14
_cell_length_a 9.092738
_cell_length_b 12.764595
_cell_length_c 14.797319
_cell_angle_alpha 29.567195
_cell_angle_beta 60.532612
_cell_angle_gamma 49.656476
_cell_volume 634.258954
_symmetry_space_group_name_H-M "P -1"
_symmetry_group_IT_number 2
_symmetry_cell_setting 'triclinic'
loop_
_space_group_symop_operation_xyz
x,y,z
-x,-y,-z
loop_
_atom_site_type_symbol
_atom_site_label
_atom_site_fract_x
_atom_site_fract_y
_atom_site_fract_z
Si Si1 0.646700 0.859132 0.164192
Si Si2 0.287474 0.688052 0.880243
Si Si3 0.998171 0.457774 0.835781
Si Si4 0.830602 0.280983 0.315510
Si Si5 0.224983 0.416644 0.491372
Si Si6 0.470030 0.649434 0.249866
Si Si7 0.295521 0.144528 0.502314
O O1 0.676687 0.802926 0.302224
O O2 0.505731 0.756900 0.251057
O O3 0.839422 0.737613 0.134451
O O4 0.553386 0.153253 0.967442
O O5 0.263676 0.676281 0.787851
O O6 0.244596 0.961674 0.708149
O O7 0.500000 0.500000 0.000000
O O8 0.124863 0.659386 0.002731
O O9 0.868901 0.708611 0.632066
O O10 0.084336 0.534715 0.836489
O O11 0.651445 0.379085 0.368925
O O12 0.000000 0.000000 0.500000
O O13 0.274892 0.630991 0.337046
O O14 0.309206 0.324111 0.435631
O O15 0.000000 0.500000 0.500000
O O16 0.500000 0.000000 0.500000
#
# Coordination Sequence:
#
# PCOD8027796 Si02
#       7
#     2   2   2   2   2   2   2
#     4  10  24  47  68  97 134 182 236 291 337 415
#     4  12  26  42  71 100 140 185 230 286 356 414
#     4  11  24  44  68  99 140 180 239 286 349 417
#     4  11  24  47  72 102 139 186 229 294 352 418
#     4  12  26  42  72 102 139 186 228 284 361 413
#     4  10  25  46  70  98 137 177 238 292 340 415
#     4  12  25  44  66 103 145 182 230 293 350 419
#
# _framework density 22.073004000000001
#
# number of rings (size 3 to 8) (size 9 to 14) (size 15 to 20)
#    0.000    0.857    4.286    1.714    4.000    0.571 
#    7.714    0.000    0.000    0.000    0.000    0.000 
#    0.000    0.000    0.000    0.000    0.000    0.000 
#
# Total GULP energy -173543.124105 kJ/mol
# GULP energy per Si atom -12395.937436 kJ/mol
# Density = 2.202276 g / cm^3
# Si number density = 22.073004 Si / 1000 Ang^3
#
#
#
# Elastic Constant Matrix: (Units=GPa)
#
#
# Indices 1 2 3 4 5 6 
#
# 1 144.0621 38.8778 54.2092 10.4298 -4.0108 -7.7115
# 2 38.8778 84.2106 22.7600 -2.8905 -5.3347 -4.7758
# 3 54.2092 22.7600 102.3976 -2.1072 -1.9579 -6.4652
# 4 10.4298 -2.8905 -2.1072 31.4186 -3.7932 5.7934
# 5 -4.0108 -5.3347 -1.9579 -3.7932 54.1344 15.4019
# 6 -7.7115 -4.7758 -6.4652 5.7934 15.4019 34.2443
#
#
#
# Elastic Compliance Matrix: (Units=1/GPa)
#
#
# Indices 1 2 3 4 5 6 
#
# 1 0.009967 -0.003469 -0.004485 -0.004359 -0.000620 0.001930
# 2 -0.003469 0.013963 -0.001195 0.002519 0.001268 -0.000056
# 3 -0.004485 -0.001195 0.012502 0.002041 -0.000107 0.000887
# 4 -0.004359 0.002519 0.002041 0.035811 0.004933 -0.008522
# 5 -0.000620 0.001268 -0.000107 0.004933 0.021933 -0.010682
# 6 0.001930 -0.000056 0.000887 -0.008522 -0.010682 0.036043
#
#
# Mechanical properties :
#
#
# Convention : Reuss Voigt Hill
#
# Bulk Modulus (GPa) = 55.14336 62.48492 58.81414
# Shear Modulus (GPa) = 32.34993 38.28101 35.31547
#
# Velocity S-wave (km/s) = 3.83245 4.16900 4.00426
# Velocity P-wave (km/s) = 6.67983 7.17940 6.93412
#
# Compressibility (1/GPa) = 0.01813455
#
# Stress axis : x y z
#
# Youngs Moduli (GPa) = 100.33146 71.61821 79.98860
#
# Poissons Ratio (x) = 0.24842 0.35876
# Poissons Ratio (y) = 0.34802 0.09556
# Poissons Ratio (z) = 0.45001 0.08556
#
# Static dielectric constant tensor:
#      x y z
#    x 4.246460 -0.074690 0.072160 
#    y -0.074690 3.706080 -0.050180 
#    z 0.072160 -0.050180 4.111840 
# 
# 
# High freq. dielectric constant tensor:
#      x y z
#    x 1.893240 0.001750 -0.001810 
#    y 0.001750 1.857580 -0.003080 
#    z -0.001810 -0.003080 1.872310 
# 
# From -- ./inp_files/368176.got.cif
#   From: 2010.06.25/outbox.cif.g09.slc.cpg/sg2_185_cif.got.tgz:368176.got - 2010.06.27 13:26:56.
