data_PCOD8027326
_publ_section_title
;
Structure prediction by ZEFSAII (Michael W. Deem and Ramdas Pophale) SiO2 
 PCOD8027326
Probable space group: P -1
;
_chemical_formula_sum "Si O2"
_cell_formula_units_Z 16
_cell_length_a 9.275884
_cell_length_b 14.833392
_cell_length_c 8.622974
_cell_angle_alpha 105.265722
_cell_angle_beta 82.272682
_cell_angle_gamma 142.769777
_cell_volume 686.733410
_symmetry_space_group_name_H-M "P -1"
_symmetry_group_IT_number 2
_symmetry_cell_setting 'triclinic'
loop_
_space_group_symop_operation_xyz
x,y,z
-x,-y,-z
loop_
_atom_site_type_symbol
_atom_site_label
_atom_site_fract_x
_atom_site_fract_y
_atom_site_fract_z
Si Si1 0.967909 0.555622 0.668783
Si Si2 0.511273 0.726030 0.212721
Si Si3 0.468469 0.536979 0.686052
Si Si4 0.903331 0.767765 0.210662
Si Si5 0.603997 0.297259 0.137956
Si Si6 0.976931 0.771320 0.718862
Si Si7 0.294200 0.969863 0.019607
Si Si8 0.130078 0.975126 0.529899
O O1 0.698519 0.419275 0.712703
O O2 0.000000 0.500000 0.500000
O O3 0.144491 0.622077 0.816401
O O4 0.029206 0.688242 0.647361
O O5 0.727241 0.762197 0.185804
O O6 0.618529 0.873053 0.351939
O O7 0.406927 0.692841 0.041657
O O8 0.500000 0.500000 0.500000
O O9 0.250577 0.391051 0.757639
O O10 0.425256 0.625798 0.716626
O O11 0.720943 0.651382 0.790833
O O12 0.050193 0.804240 0.058932
O O13 0.139046 0.917908 0.346716
O O14 0.387183 0.116739 0.135791
O O15 0.952858 0.819296 0.587420
O O16 0.201182 0.936083 0.843322
O O17 0.500000 0.000000 0.000000
O O18 0.000000 0.000000 0.500000
#
# Coordination Sequence:
#
# PCOD8027326 Si02
#       8
#     2   2   2   2   2   2   2   2
#     4  12  28  47  76 111 155 204 249 311 383 449
#     4  11  25  48  73 111 149 196 256 311 371 458
#     4  12  26  46  77 112 150 193 256 317 375 451
#     4  11  26  45  76 106 147 200 251 309 380 438
#     4  12  28  46  76 107 154 202 248 313 384 443
#     4  12  24  49  77 104 153 197 251 312 373 449
#     4  12  28  49  72 110 152 198 251 312 378 451
#     4  10  24  44  74 110 146 187 251 312 368 443
#
# _framework density 23.298705999999999
#
# number of rings (size 3 to 8) (size 9 to 14) (size 15 to 20)
#    0.000    0.500    5.000    1.875    7.000    3.000 
#    0.000    1.250    0.000    0.000    0.000    0.000 
#    0.000    0.000    0.000    0.000    0.000    0.000 
#
# Total GULP energy -198235.897346 kJ/mol
# GULP energy per Si atom -12389.743584 kJ/mol
# Density = 2.324568 g / cm^3
# Si number density = 23.298706 Si / 1000 Ang^3
#
#
#
# Elastic Constant Matrix: (Units=GPa)
#
#
# Indices 1 2 3 4 5 6 
#
# 1 130.0734 67.1535 42.6751 -2.2200 3.9740 -6.8688
# 2 67.1535 138.0255 48.9507 0.3385 3.5421 -7.4641
# 3 42.6751 48.9507 80.5295 2.6770 17.6462 -0.1200
# 4 -2.2200 0.3385 2.6770 42.0667 1.7478 -1.4930
# 5 3.9740 3.5421 17.6462 1.7478 31.7267 2.5438
# 6 -6.8688 -7.4641 -0.1200 -1.4930 2.5438 46.3901
#
#
#
# Elastic Compliance Matrix: (Units=1/GPa)
#
#
# Indices 1 2 3 4 5 6 
#
# 1 0.010994 -0.004047 -0.003602 0.000836 0.000957 0.000942
# 2 -0.004047 0.010977 -0.004954 -0.000031 0.001954 0.001046
# 3 -0.003602 -0.004954 0.019501 -0.001015 -0.009724 -0.000779
# 4 0.000836 -0.000031 -0.001015 0.023953 -0.000932 0.000938
# 5 0.000957 0.001954 -0.009724 -0.000932 0.036770 -0.001615
# 6 0.000942 0.001046 -0.000779 0.000938 -0.001615 0.021981
#
#
# Mechanical properties :
#
#
# Convention : Reuss Voigt Hill
#
# Bulk Modulus (GPa) = 61.47472 74.02079 67.74775
# Shear Modulus (GPa) = 32.29893 36.69332 34.49613
#
# Velocity S-wave (km/s) = 3.72734 3.97282 3.85203
# Velocity P-wave (km/s) = 6.70573 7.27212 6.99466
#
# Compressibility (1/GPa) = 0.01626685
#
# Stress axis : x y z
#
# Youngs Moduli (GPa) = 90.95974 91.09631 51.27931
#
# Poissons Ratio (x) = 0.36868 0.18470
# Poissons Ratio (y) = 0.36812 0.25402
# Poissons Ratio (z) = 0.32763 0.45127
#
# Static dielectric constant tensor:
#      x y z
#    x 4.037310 -0.078400 0.192290 
#    y -0.078400 4.489690 0.461910 
#    z 0.192290 0.461910 4.533720 
# 
# 
# High freq. dielectric constant tensor:
#      x y z
#    x 1.908730 -0.007530 0.014320 
#    y -0.007530 1.936590 0.018120 
#    z 0.014320 0.018120 1.934600 
# 
# From -- ./inp_files/207817.got.cif
#   From: 2010.06.25/outbox.cif.g09.slc.cpg/sg2_104_cif.got.tgz:207817.got - 2010.06.27 13:26:56.
