data_PCOD8027846
_publ_section_title
;
Structure prediction by ZEFSAII (Michael W. Deem and Ramdas Pophale) SiO2 
 PCOD8027846
Probable space group: P -1
;
_chemical_formula_sum "Si O2"
_cell_formula_units_Z 16
_cell_length_a 12.019884
_cell_length_b 17.529669
_cell_length_c 8.832968
_cell_angle_alpha 139.890458
_cell_angle_beta 142.134323
_cell_angle_gamma 38.724001
_cell_volume 658.721484
_symmetry_space_group_name_H-M "P -1"
_symmetry_group_IT_number 2
_symmetry_cell_setting 'triclinic'
loop_
_space_group_symop_operation_xyz
x,y,z
-x,-y,-z
loop_
_atom_site_type_symbol
_atom_site_label
_atom_site_fract_x
_atom_site_fract_y
_atom_site_fract_z
Si Si1 0.223231 0.380420 0.566234
Si Si2 0.992215 0.262563 0.977353
Si Si3 0.477043 0.653093 0.928965
Si Si4 0.557894 0.384318 0.722997
Si Si5 0.037528 0.828519 0.730147
Si Si6 0.487039 0.771739 0.822178
Si Si7 0.053118 0.346111 0.849607
Si Si8 0.876836 0.982757 0.080866
O O1 0.317203 0.342512 0.778038
O O2 0.404551 0.405479 0.726850
O O3 0.000000 0.500000 0.500000
O O4 0.191219 0.265903 0.271006
O O5 0.947427 0.318763 0.842770
O O6 0.025003 0.112013 0.811432
O O7 0.781797 0.357582 0.983129
O O8 0.461128 0.517745 0.726372
O O9 0.486184 0.664906 0.777514
O O10 0.270906 0.774085 0.955845
O O11 0.592942 0.256937 0.465661
O O12 0.011023 0.704682 0.447314
O O13 0.885756 0.892370 0.805711
O O14 0.999955 0.935612 0.716731
O O15 0.350939 0.918831 0.963379
O O16 0.714218 0.749149 0.009409
O O17 0.000000 0.500000 0.000000
#
# Coordination Sequence:
#
# PCOD8027846 Si02
#       8
#     2   2   2   2   2   2   2   2
#     4  12  27  44  67 113 147 183 241 302 372 437
#     4  12  26  46  73 106 148 198 238 301 362 436
#     4  11  23  43  73 103 143 188 242 302 371 432
#     4  12  24  46  72 103 146 188 243 299 371 429
#     4  10  24  47  75 103 144 196 246 302 358 438
#     4  11  25  45  69 107 140 192 248 297 358 433
#     4  12  26  46  75 113 147 187 247 311 372 428
#     4  10  25  48  69 105 142 201 249 288 366 429
#
# _framework density 24.289474999999999
#
# number of rings (size 3 to 8) (size 9 to 14) (size 15 to 20)
#    0.000    0.750    2.500    4.500    3.500    3.000 
#    6.750    0.000    0.000    0.000    0.000    0.000 
#    0.000    0.000    0.000    0.000    0.000    0.000 
#
# Total GULP energy -198279.924442 kJ/mol
# GULP energy per Si atom -12392.495278 kJ/mol
# Density = 2.423419 g / cm^3
# Si number density = 24.289475 Si / 1000 Ang^3
#
#
#
# Elastic Constant Matrix: (Units=GPa)
#
#
# Indices 1 2 3 4 5 6 
#
# 1 104.7609 56.8476 13.4732 3.9613 7.3275 -11.8267
# 2 56.8476 135.1997 28.9570 10.2609 2.3881 3.2963
# 3 13.4732 28.9570 100.5668 4.2575 -8.8946 -14.4056
# 4 3.9613 10.2609 4.2575 35.2616 -7.2557 3.2438
# 5 7.3275 2.3881 -8.8946 -7.2557 35.7905 3.0243
# 6 -11.8267 3.2963 -14.4056 3.2438 3.0243 45.6956
#
#
#
# Elastic Compliance Matrix: (Units=1/GPa)
#
#
# Indices 1 2 3 4 5 6 
#
# 1 0.013258 -0.005610 0.000221 -0.000843 -0.002807 0.004151
# 2 -0.005610 0.010545 -0.002649 -0.001927 -0.000360 -0.002887
# 3 0.000221 -0.002649 0.011456 -0.000450 0.002573 0.003722
# 4 -0.000843 -0.001927 -0.000450 0.030700 0.006653 -0.002841
# 5 -0.002807 -0.000360 0.002573 0.006653 0.030730 -0.002395
# 6 0.004151 -0.002887 0.003722 -0.002841 -0.002395 0.024700
#
#
# Mechanical properties :
#
#
# Convention : Reuss Voigt Hill
#
# Bulk Modulus (GPa) = 52.12283 59.89811 56.01047
# Shear Modulus (GPa) = 34.75633 39.43285 37.09459
#
# Velocity S-wave (km/s) = 3.78686 4.03358 3.91216
# Velocity P-wave (km/s) = 6.37385 6.81225 6.59669
#
# Compressibility (1/GPa) = 0.01918545
#
# Stress axis : x y z
#
# Youngs Moduli (GPa) = 75.42639 94.82763 87.28744
#
# Poissons Ratio (x) = 0.53194 -0.01930
# Poissons Ratio (y) = 0.42311 0.23120
# Poissons Ratio (z) = -0.01668 0.25117
#
# Static dielectric constant tensor:
#      x y z
#    x 4.599270 -0.083370 0.140530 
#    y -0.083370 4.433910 -0.008020 
#    z 0.140530 -0.008020 4.390630 
# 
# 
# High freq. dielectric constant tensor:
#      x y z
#    x 1.977290 -0.006150 -0.001450 
#    y -0.006150 1.965940 0.002140 
#    z -0.001450 0.002140 1.949040 
# 
# From -- ./inp_files/280197.got.cif
#   From: 2010.06.25/outbox.cif.g09.slc.cpg/sg2_141_cif.got.tgz:280197.got - 2010.06.27 13:26:56.
