data_PCOD8027390
_publ_section_title
;
Structure prediction by ZEFSAII (Michael W. Deem and Ramdas Pophale) SiO2 
 PCOD8027390
Probable space group: P -1
;
_chemical_formula_sum "Si O2"
_cell_formula_units_Z 16
_cell_length_a 11.421740
_cell_length_b 13.271092
_cell_length_c 9.613736
_cell_angle_alpha 101.953244
_cell_angle_beta 68.336911
_cell_angle_gamma 146.835342
_cell_volume 725.840509
_symmetry_space_group_name_H-M "P -1"
_symmetry_group_IT_number 2
_symmetry_cell_setting 'triclinic'
loop_
_space_group_symop_operation_xyz
x,y,z
-x,-y,-z
loop_
_atom_site_type_symbol
_atom_site_label
_atom_site_fract_x
_atom_site_fract_y
_atom_site_fract_z
Si Si1 0.204182 0.681477 0.560081
Si Si2 0.753512 0.744138 0.671723
Si Si3 0.762003 0.624540 0.197456
Si Si4 0.614072 0.070371 0.821816
Si Si5 0.062753 0.151012 0.081515
Si Si6 0.335111 0.981501 0.682168
Si Si7 0.105160 0.934287 0.356126
Si Si8 0.939933 0.524835 0.167848
O O1 0.199272 0.803964 0.596439
O O2 0.204799 0.640068 0.705720
O O3 0.000000 0.500000 0.500000
O O4 0.453589 0.818661 0.431793
O O5 0.499055 0.527723 0.687326
O O6 0.774480 0.755121 0.831369
O O7 0.951347 0.811376 0.528194
O O8 0.772565 0.872279 0.640692
O O9 0.933072 0.811191 0.265860
O O10 0.806860 0.534562 0.176464
O O11 0.806395 0.683448 0.034166
O O12 0.690332 0.007699 0.728491
O O13 0.835503 0.294243 0.789808
O O14 0.426049 0.980943 0.773307
O O15 0.500000 0.000000 0.000000
O O16 0.825864 0.037968 0.203108
O O17 0.000000 0.000000 0.000000
O O18 0.000000 0.500000 0.000000
#
# Coordination Sequence:
#
# PCOD8027390 Si02
#       8
#     2   2   2   2   2   2   2   2
#     4  11  24  47  70 109 140 180 228 284 359 423
#     4  11  25  43  74  94 141 185 230 289 344 406
#     4  11  24  46  68 100 136 181 237 283 343 416
#     4  11  23  42  71 101 145 179 223 290 353 416
#     4  12  26  49  67 100 143 188 239 285 346 420
#     4  11  26  44  73 100 146 182 228 292 352 413
#     4  10  24  45  67 107 134 173 240 281 348 420
#     4  11  24  42  69 106 140 175 233 284 342 428
#
# _framework density 22.043409
#
# number of rings (size 3 to 8) (size 9 to 14) (size 15 to 20)
#    0.000    1.000    2.500    3.750    7.000    1.000 
#    9.000    0.000    0.000    0.000    0.000    0.000 
#    0.000    0.000    0.000    0.000    0.000    0.000 
#
# Total GULP energy -198433.808855 kJ/mol
# GULP energy per Si atom -12402.113053 kJ/mol
# Density = 2.199324 g / cm^3
# Si number density = 22.043409 Si / 1000 Ang^3
#
#
#
# Elastic Constant Matrix: (Units=GPa)
#
#
# Indices 1 2 3 4 5 6 
#
# 1 81.1343 26.8981 32.7285 -6.1354 -13.9617 -4.2567
# 2 26.8981 89.5555 24.0816 -10.9383 -6.4184 0.2038
# 3 32.7285 24.0816 132.6959 -18.6488 -3.0723 -10.0605
# 4 -6.1354 -10.9383 -18.6488 43.4578 -1.3448 4.5700
# 5 -13.9617 -6.4184 -3.0723 -1.3448 51.7822 0.5640
# 6 -4.2567 0.2038 -10.0605 4.5700 0.5640 25.7396
#
#
#
# Elastic Compliance Matrix: (Units=1/GPa)
#
#
# Indices 1 2 3 4 5 6 
#
# 1 0.015380 -0.003577 -0.002966 -0.000034 0.003512 0.001342
# 2 -0.003577 0.012916 -0.001231 0.002407 0.000643 -0.001616
# 3 -0.002966 -0.001231 0.009083 0.002888 -0.000366 0.002565
# 4 -0.000034 0.002407 0.002888 0.025245 0.001153 -0.003403
# 5 0.003512 0.000643 -0.000366 0.001153 0.020349 -0.000218
# 6 0.001342 -0.001616 0.002565 -0.003403 -0.000218 0.040697
#
#
# Mechanical properties :
#
#
# Convention : Reuss Voigt Hill
#
# Bulk Modulus (GPa) = 45.80888 52.31134 49.06011
# Shear Modulus (GPa) = 34.13125 38.84110 36.48617
#
# Velocity S-wave (km/s) = 3.93920 4.20221 4.07282
# Velocity P-wave (km/s) = 6.44329 6.87948 6.66496
#
# Compressibility (1/GPa) = 0.02182983
#
# Stress axis : x y z
#
# Youngs Moduli (GPa) = 65.02066 77.42605 110.09866
#
# Poissons Ratio (x) = 0.27698 0.32654
# Poissons Ratio (y) = 0.23260 0.13552
# Poissons Ratio (z) = 0.19284 0.09530
#
# Static dielectric constant tensor:
#      x y z
#    x 3.855430 -0.042980 0.084310 
#    y -0.042980 4.147660 -0.093900 
#    z 0.084310 -0.093900 4.231820 
# 
# 
# High freq. dielectric constant tensor:
#      x y z
#    x 1.860320 0.001480 0.005940 
#    y 0.001480 1.875830 -0.003240 
#    z 0.005940 -0.003240 1.887880 
# 
# From -- ./inp_files/273345.got.cif
#   From: 2010.06.25/outbox.cif.g09.slc.cpg/sg2_137_cif.got.tgz:273345.got - 2010.06.27 13:26:56.
