data_PCOD8027683
_publ_section_title
;
Structure prediction by ZEFSAII (Michael W. Deem and Ramdas Pophale) SiO2 
 PCOD8027683
Probable space group: P -1
;
_chemical_formula_sum "Si O2"
_cell_formula_units_Z 14
_cell_length_a 9.341881
_cell_length_b 8.821185
_cell_length_c 11.332839
_cell_angle_alpha 107.249088
_cell_angle_beta 113.177972
_cell_angle_gamma 42.040455
_cell_volume 574.899572
_symmetry_space_group_name_H-M "P -1"
_symmetry_group_IT_number 2
_symmetry_cell_setting 'triclinic'
loop_
_space_group_symop_operation_xyz
x,y,z
-x,-y,-z
loop_
_atom_site_type_symbol
_atom_site_label
_atom_site_fract_x
_atom_site_fract_y
_atom_site_fract_z
Si Si1 0.598225 0.569920 0.123197
Si Si2 0.864767 0.894395 0.200983
Si Si3 0.015833 0.723513 0.642818
Si Si4 0.143567 0.505225 0.390828
Si Si5 0.738439 0.198012 0.743685
Si Si6 0.254458 0.310116 0.002729
Si Si7 0.487238 0.328677 0.290151
O O1 0.792457 0.363385 0.223781
O O2 0.387122 0.786264 0.180980
O O3 0.697218 0.634007 0.090001
O O4 0.500000 0.500000 0.000000
O O5 0.699559 0.912094 0.064779
O O6 0.991667 0.675716 0.273686
O O7 0.041443 0.858133 0.166670
O O8 0.748170 0.106563 0.300704
O O9 0.117598 0.637432 0.525647
O O10 0.911830 0.633088 0.627045
O O11 0.816083 0.997124 0.639289
O O12 0.400031 0.329073 0.388540
O O13 0.566514 0.445043 0.683077
O O14 0.386602 0.290688 0.146938
O O15 0.000000 0.500000 0.000000
#
# Coordination Sequence:
#
# PCOD8027683 Si02
#       7
#     2   2   2   2   2   2   2
#     4  12  24  44  69 105 138 176 225 284 350 403
#     4  11  23  44  68  99 142 182 226 281 335 414
#     4  11  25  46  70 100 140 179 227 294 334 410
#     4  10  24  46  71 100 134 183 236 275 347 403
#     4  11  25  43  67 101 140 174 228 280 347 396
#     4  12  21  44  69 101 141 177 234 274 336 414
#     4  11  23  43  68 101 136 185 225 280 338 409
#
# _framework density 24.352080000000001
#
# number of rings (size 3 to 8) (size 9 to 14) (size 15 to 20)
#    0.000    0.857    5.714    1.286    2.000    4.000 
#    2.571    7.143    0.000    0.000    0.000    0.000 
#    0.000    0.000    0.000    0.000    0.000    0.000 
#
# Total GULP energy -173509.537852 kJ/mol
# GULP energy per Si atom -12393.538418 kJ/mol
# Density = 2.429665 g / cm^3
# Si number density = 24.352080 Si / 1000 Ang^3
#
#
#
# Elastic Constant Matrix: (Units=GPa)
#
#
# Indices 1 2 3 4 5 6 
#
# 1 152.6453 42.1324 35.7959 18.6708 -39.6048 -14.7376
# 2 42.1324 118.4023 27.6890 44.8710 -8.5220 -2.1817
# 3 35.7959 27.6890 91.5080 21.9905 -14.1830 4.2531
# 4 18.6708 44.8710 21.9905 37.7840 -8.1416 -4.2794
# 5 -39.6048 -8.5220 -14.1830 -8.1416 45.7967 13.3067
# 6 -14.7376 -2.1817 4.2531 -4.2794 13.3067 31.4776
#
#
#
# Elastic Compliance Matrix: (Units=1/GPa)
#
#
# Indices 1 2 3 4 5 6 
#
# 1 0.009692 -0.003124 -0.002360 0.001997 0.006837 0.002021
# 2 -0.003124 0.016432 0.000564 -0.019015 -0.002260 -0.002030
# 3 -0.002360 0.000564 0.014188 -0.007789 0.002562 -0.005125
# 4 0.001997 -0.019015 -0.007789 0.054087 0.003489 0.006548
# 5 0.006837 -0.002260 0.002562 0.003489 0.031715 -0.010235
# 6 0.002021 -0.002030 -0.005125 0.006548 -0.010235 0.038483
#
#
# Mechanical properties :
#
#
# Convention : Reuss Voigt Hill
#
# Bulk Modulus (GPa) = 32.81911 63.75448 48.28679
# Shear Modulus (GPa) = 27.08640 40.14086 33.61363
#
# Velocity S-wave (km/s) = 3.33871 4.06440 3.71929
# Velocity P-wave (km/s) = 5.32624 6.94715 6.18998
#
# Compressibility (1/GPa) = 0.03047005
#
# Stress axis : x y z
#
# Youngs Moduli (GPa) = 103.18194 60.85813 70.48365
#
# Poissons Ratio (x) = 0.19013 0.16634
# Poissons Ratio (y) = 0.32235 -0.03973
# Poissons Ratio (z) = 0.24350 -0.03430
#
# Static dielectric constant tensor:
#      x y z
#    x 5.042160 -0.343530 -0.258830 
#    y -0.343530 4.848290 0.411250 
#    z -0.258830 0.411250 4.404580 
# 
# 
# High freq. dielectric constant tensor:
#      x y z
#    x 1.995890 -0.013280 -0.002790 
#    y -0.013280 1.962710 0.029220 
#    z -0.002790 0.029220 1.954900 
# 
# From -- ./inp_files/380046.got.cif
#   From: 2010.06.25/outbox.cif.g09.slc.cpg/sg2_191_cif.got.tgz:380046.got - 2010.06.27 13:26:56.
