data_PCOD8027442
_publ_section_title
;
Structure prediction by ZEFSAII (Michael W. Deem and Ramdas Pophale) SiO2 
 PCOD8027442
Probable space group: P -1
;
_chemical_formula_sum "Si O2"
_cell_formula_units_Z 16
_cell_length_a 12.017184
_cell_length_b 9.710702
_cell_length_c 9.289662
_cell_angle_alpha 78.117263
_cell_angle_beta 47.445682
_cell_angle_gamma 82.813956
_cell_volume 781.294983
_symmetry_space_group_name_H-M "P -1"
_symmetry_group_IT_number 2
_symmetry_cell_setting 'triclinic'
loop_
_space_group_symop_operation_xyz
x,y,z
-x,-y,-z
loop_
_atom_site_type_symbol
_atom_site_label
_atom_site_fract_x
_atom_site_fract_y
_atom_site_fract_z
Si Si1 0.820845 0.482281 0.495224
Si Si2 0.141993 0.791559 0.047325
Si Si3 0.185170 0.246747 0.740790
Si Si4 0.827451 0.511114 0.815221
Si Si5 0.328599 0.965005 0.625766
Si Si6 0.345941 0.804124 0.354671
Si Si7 0.857446 0.030717 0.715846
Si Si8 0.303779 0.238033 0.956500
O O1 0.771266 0.618321 0.421361
O O2 0.784873 0.512629 0.685363
O O3 0.721616 0.352572 0.553348
O O4 0.996570 0.448528 0.324781
O O5 0.213478 0.641049 0.049657
O O6 0.092008 0.861313 0.226420
O O7 0.995223 0.771053 0.079330
O O8 0.264197 0.889869 0.840898
O O9 0.262951 0.266860 0.821563
O O10 0.244270 0.109383 0.637468
O O11 0.721997 0.621062 0.962057
O O12 0.305607 0.864820 0.532159
O O13 0.500000 0.000000 0.500000
O O14 0.275736 0.900474 0.272725
O O15 0.523666 0.804719 0.171588
O O16 0.000000 0.000000 0.500000
O O17 0.801908 0.885015 0.863137
#
# Coordination Sequence:
#
# PCOD8027442 Si02
#       8
#     2   2   2   2   2   2   2   2
#     4  10  24  45  70  97 132 178 232 274 332 398
#     4  11  24  45  71  98 133 177 230 281 332 396
#     4  11  25  43  67 102 134 175 226 279 332 401
#     4  10  24  45  68  99 135 175 229 283 325 395
#     4  12  25  45  67 100 140 177 216 282 339 402
#     4  12  26  45  69  99 138 182 220 275 340 403
#     4  12  25  45  73 100 131 177 233 282 329 395
#     4  12  27  43  65 103 139 176 223 273 342 405
#
# _framework density 20.478822000000001
#
# number of rings (size 3 to 8) (size 9 to 14) (size 15 to 20)
#    0.000    0.750    3.750    2.250   10.500    3.000 
#    0.000    0.000    0.000    0.000    0.000    0.000 
#    0.000    0.000    0.000    0.000    0.000    0.000 
#
# Total GULP energy -198521.749939 kJ/mol
# GULP energy per Si atom -12407.609371 kJ/mol
# Density = 2.043221 g / cm^3
# Si number density = 20.478822 Si / 1000 Ang^3
#
#
#
# Elastic Constant Matrix: (Units=GPa)
#
#
# Indices 1 2 3 4 5 6 
#
# 1 118.6339 46.7394 44.2994 -2.3083 10.5703 -9.3760
# 2 46.7394 134.7081 44.5792 4.2269 13.4036 -8.7049
# 3 44.2994 44.5792 74.4964 14.6681 3.2868 -9.8877
# 4 -2.3083 4.2269 14.6681 43.4184 5.0253 5.0172
# 5 10.5703 13.4036 3.2868 5.0253 22.6757 0.5022
# 6 -9.3760 -8.7049 -9.8877 5.0172 0.5022 40.5571
#
#
#
# Elastic Compliance Matrix: (Units=1/GPa)
#
#
# Indices 1 2 3 4 5 6 
#
# 1 0.012045 -0.001622 -0.006625 0.003504 -0.004482 0.000443
# 2 -0.001622 0.010124 -0.005040 0.001125 -0.004758 0.000489
# 3 -0.006625 -0.005040 0.022332 -0.008379 0.004603 0.003811
# 4 0.003504 0.001125 -0.008379 0.027246 -0.007028 -0.004275
# 5 -0.004482 -0.004758 0.004603 -0.007028 0.049907 -0.000684
# 6 0.000443 0.000489 0.003811 -0.004275 -0.000684 0.026330
#
#
# Mechanical properties :
#
#
# Convention : Reuss Voigt Hill
#
# Bulk Modulus (GPa) = 55.78712 66.56382 61.17547
# Shear Modulus (GPa) = 27.69547 34.14493 30.92020
#
# Velocity S-wave (km/s) = 3.68148 4.08772 3.88991
# Velocity P-wave (km/s) = 6.73584 7.40632 7.07903
#
# Compressibility (1/GPa) = 0.01792529
#
# Stress axis : x y z
#
# Youngs Moduli (GPa) = 83.02320 98.77534 44.77905
#
# Poissons Ratio (x) = 0.16022 0.29667
# Poissons Ratio (y) = 0.13467 0.22571
# Poissons Ratio (z) = 0.55005 0.49787
#
# Static dielectric constant tensor:
#      x y z
#    x 3.809450 0.006630 0.151330 
#    y 0.006630 4.028330 0.026680 
#    z 0.151330 0.026680 3.564370 
# 
# 
# High freq. dielectric constant tensor:
#      x y z
#    x 1.809740 0.000470 0.007000 
#    y 0.000470 1.821230 -0.001750 
#    z 0.007000 -0.001750 1.802530 
# 
# From -- ./inp_files/182543.got.cif
#   From: 2010.06.25/outbox.cif.g09.slc.cpg/sg2_92_cif.got.tgz:182543.got - 2010.06.27 13:26:56.
