data_PCOD8027843
_publ_section_title
;
Structure prediction by ZEFSAII (Michael W. Deem and Ramdas Pophale) SiO2 
 PCOD8027843
Probable space group: P -1
;
_chemical_formula_sum "Si O2"
_cell_formula_units_Z 16
_cell_length_a 20.067495
_cell_length_b 8.592784
_cell_length_c 5.304451
_cell_angle_alpha 118.519588
_cell_angle_beta 62.725301
_cell_angle_gamma 128.967330
_cell_volume 607.927676
_symmetry_space_group_name_H-M "P -1"
_symmetry_group_IT_number 2
_symmetry_cell_setting 'triclinic'
loop_
_space_group_symop_operation_xyz
x,y,z
-x,-y,-z
loop_
_atom_site_type_symbol
_atom_site_label
_atom_site_fract_x
_atom_site_fract_y
_atom_site_fract_z
Si Si1 0.127089 0.656108 0.401798
Si Si2 0.347315 0.591162 0.083500
Si Si3 0.786364 0.715446 0.271219
Si Si4 0.910299 0.609199 0.237562
Si Si5 0.322222 0.199913 0.116035
Si Si6 0.695088 0.092731 0.473787
Si Si7 0.531967 0.721312 0.733725
Si Si8 0.939332 0.079083 0.063539
O O1 0.107542 0.491510 0.535151
O O2 0.230330 0.834508 0.384257
O O3 0.065834 0.753831 0.616806
O O4 0.107267 0.551647 0.082532
O O5 0.335927 0.387643 0.068044
O O6 0.319269 0.716203 0.414658
O O7 0.282423 0.513778 0.893597
O O8 0.448037 0.744423 0.939632
O O9 0.846879 0.699386 0.367895
O O10 0.736140 0.821168 0.558177
O O11 0.842605 0.868932 0.056045
O O12 0.013889 0.799412 0.184908
O O13 0.419487 0.256466 0.069614
O O14 0.274204 0.979050 0.880797
O O15 0.601227 0.901373 0.571495
O O16 0.500000 0.500000 0.500000
O O17 0.000000 0.000000 0.000000
#
# Coordination Sequence:
#
# PCOD8027843 Si02
#       8
#     2   2   2   2   2   2   2   2
#     4  12  25  49  76 112 153 195 257 311 385 452
#     4  12  25  48  72 107 150 193 256 312 379 455
#     4  11  24  48  73 105 150 198 250 313 377 458
#     4  11  26  49  77 111 152 198 252 322 373 460
#     4  12  25  45  73 104 146 200 246 319 378 454
#     4  12  28  45  76 109 145 199 253 311 385 454
#     4  12  25  47  71 104 150 193 250 316 382 454
#     4  10  24  47  74 111 148 200 247 309 387 449
#
# _framework density 26.318918
#
# number of rings (size 3 to 8) (size 9 to 14) (size 15 to 20)
#    0.000    0.500    3.750    3.750    3.500    1.500 
#    2.250    2.500    0.000    0.000    0.000    0.000 
#    0.000    0.000    0.000    0.000    0.000    0.000 
#
# Total GULP energy -198320.462260 kJ/mol
# GULP energy per Si atom -12395.028891 kJ/mol
# Density = 2.625902 g / cm^3
# Si number density = 26.318918 Si / 1000 Ang^3
#
#
#
# Elastic Constant Matrix: (Units=GPa)
#
#
# Indices 1 2 3 4 5 6 
#
# 1 69.0496 33.6818 25.4765 3.6114 -16.1575 9.4661
# 2 33.6818 106.7434 53.0111 -3.9704 -18.9215 11.8563
# 3 25.4765 53.0111 104.3241 29.1867 -12.9389 0.8491
# 4 3.6114 -3.9704 29.1867 43.0522 -5.4697 -17.1498
# 5 -16.1575 -18.9215 -12.9389 -5.4697 36.5744 -5.0653
# 6 9.4661 11.8563 0.8491 -17.1498 -5.0653 42.2409
#
#
#
# Elastic Compliance Matrix: (Units=1/GPa)
#
#
# Indices 1 2 3 4 5 6 
#
# 1 0.018632 -0.003990 -0.001450 -0.001525 0.005004 -0.003045
# 2 -0.003990 0.016343 -0.009260 0.009035 0.004871 0.000746
# 3 -0.001450 -0.009260 0.018709 -0.015127 -0.001599 -0.003785
# 4 -0.001525 0.009035 -0.015127 0.041668 0.007079 0.015876
# 5 0.005004 0.004871 -0.001599 0.007079 0.033174 0.004396
# 6 -0.003045 0.000746 -0.003785 0.015876 0.004396 0.031196
#
#
# Mechanical properties :
#
#
# Convention : Reuss Voigt Hill
#
# Bulk Modulus (GPa) = 41.18005 56.05065 48.61535
# Shear Modulus (GPa) = 25.35291 35.57000 30.46146
#
# Velocity S-wave (km/s) = 3.10707 3.68026 3.40575
# Velocity P-wave (km/s) = 5.34344 6.27711 5.82900
#
# Compressibility (1/GPa) = 0.02428360
#
# Stress axis : x y z
#
# Youngs Moduli (GPa) = 53.67087 61.19012 53.44886
#
# Poissons Ratio (x) = 0.24417 0.07752
# Poissons Ratio (y) = 0.21417 0.49491
# Poissons Ratio (z) = 0.07784 0.56659
#
# Static dielectric constant tensor:
#      x y z
#    x 5.013370 0.405790 -0.589920 
#    y 0.405790 5.367450 -0.120810 
#    z -0.589920 -0.120810 5.021310 
# 
# 
# High freq. dielectric constant tensor:
#      x y z
#    x 2.056670 0.006630 -0.029250 
#    y 0.006630 2.073990 0.003540 
#    z -0.029250 0.003540 2.047410 
# 
# From -- ./inp_files/117319.got.cif
#   From: 2010.06.25/outbox.cif.g09.slc.cpg/sg2_59_cif.got.tgz:117319.got - 2010.06.27 13:26:56.
