data_PCOD8027262
_publ_section_title
;
Structure prediction by ZEFSAII (Michael W. Deem and Ramdas Pophale) SiO2 
 PCOD8027262
Probable space group: P -1
;
_chemical_formula_sum "Si O2"
_cell_formula_units_Z 14
_cell_length_a 12.185093
_cell_length_b 7.882084
_cell_length_c 9.520949
_cell_angle_alpha 101.773753
_cell_angle_beta 38.606874
_cell_angle_gamma 102.392614
_cell_volume 556.293264
_symmetry_space_group_name_H-M "P -1"
_symmetry_group_IT_number 2
_symmetry_cell_setting 'triclinic'
loop_
_space_group_symop_operation_xyz
x,y,z
-x,-y,-z
loop_
_atom_site_type_symbol
_atom_site_label
_atom_site_fract_x
_atom_site_fract_y
_atom_site_fract_z
Si Si1 0.371842 0.287353 0.777795
Si Si2 0.899156 0.434889 0.916385
Si Si3 0.748754 0.360347 0.770461
Si Si4 0.754119 0.352964 0.330124
Si Si5 0.357347 0.295155 0.120754
Si Si6 0.177182 0.013008 0.738657
Si Si7 0.835377 0.995581 0.562163
O O1 0.551987 0.398878 0.563028
O O2 0.334294 0.122123 0.684399
O O3 0.202225 0.392115 0.943857
O O4 0.381237 0.237707 0.924648
O O5 0.865025 0.337251 0.788043
O O6 0.109504 0.486689 0.726900
O O7 0.815146 0.311098 0.103247
O O8 0.786134 0.555616 0.695967
O O9 0.781263 0.192048 0.618128
O O10 0.542910 0.369241 0.016530
O O11 0.762237 0.177878 0.380630
O O12 0.312001 0.123837 0.228308
O O13 0.138505 0.086564 0.632748
O O14 0.000000 0.000000 0.000000
O O15 0.000000 0.000000 0.500000
#
# Coordination Sequence:
#
# PCOD8027262 Si02
#       7
#     2   2   2   2   2   2   2
#     4  11  23  46  75 104 143 187 242 295 361 432
#     4  10  24  44  71 107 145 188 236 307 346 444
#     4  10  24  47  73 104 147 185 242 300 362 429
#     4  11  24  42  71 107 144 189 240 291 368 420
#     4  10  24  50  74 105 145 189 243 304 358 437
#     4  12  26  47  70 102 146 186 241 299 358 431
#     4  12  28  45  74 109 142 195 238 299 370 436
#
# _framework density 25.166582999999999
#
# number of rings (size 3 to 8) (size 9 to 14) (size 15 to 20)
#    0.000    1.143    1.429    3.000    8.000    0.571 
#   12.857    0.000    0.000    0.000    0.000    0.000 
#    0.000    0.000    0.000    0.000    0.000    0.000 
#
# Total GULP energy -173494.294633 kJ/mol
# GULP energy per Si atom -12392.449617 kJ/mol
# Density = 2.510930 g / cm^3
# Si number density = 25.166583 Si / 1000 Ang^3
#
#
#
# Elastic Constant Matrix: (Units=GPa)
#
#
# Indices 1 2 3 4 5 6 
#
# 1 117.2815 27.1242 56.1273 -21.8980 23.2759 7.9950
# 2 27.1242 91.7004 38.8812 -1.3457 15.3362 2.7709
# 3 56.1273 38.8812 118.4435 -21.7608 14.7185 14.4267
# 4 -21.8980 -1.3457 -21.7608 32.6258 -3.1076 -7.8895
# 5 23.2759 15.3362 14.7185 -3.1076 43.1538 0.2032
# 6 7.9950 2.7709 14.4267 -7.8895 0.2032 23.5400
#
#
#
# Elastic Compliance Matrix: (Units=1/GPa)
#
#
# Indices 1 2 3 4 5 6 
#
# 1 0.012650 -0.001164 -0.004079 0.005320 -0.004636 0.000163
# 2 -0.001164 0.013433 -0.004108 -0.003180 -0.002975 0.000292
# 3 -0.004079 -0.004108 0.013221 0.004743 -0.000486 -0.004640
# 4 0.005320 -0.003180 0.004743 0.039340 -0.000566 0.008851
# 5 -0.004636 -0.002975 -0.000486 -0.000566 0.026847 0.001801
# 6 0.000163 0.000292 -0.004640 0.008851 0.001801 0.048185
#
#
# Mechanical properties :
#
#
# Convention : Reuss Voigt Hill
#
# Bulk Modulus (GPa) = 48.53758 63.52119 56.02939
# Shear Modulus (GPa) = 27.89456 33.55012 30.72234
#
# Velocity S-wave (km/s) = 3.33287 3.65516 3.49773
# Velocity P-wave (km/s) = 5.84287 6.56572 6.21481
#
# Compressibility (1/GPa) = 0.02060259
#
# Stress axis : x y z
#
# Youngs Moduli (GPa) = 79.05247 74.44133 75.63587
#
# Poissons Ratio (x) = 0.08664 0.30850
# Poissons Ratio (y) = 0.09200 0.31073
# Poissons Ratio (z) = 0.32244 0.30583
#
# Static dielectric constant tensor:
#      x y z
#    x 4.911010 0.211270 -0.028760 
#    y 0.211270 7.170920 -0.149740 
#    z -0.028760 -0.149740 4.396950 
# 
# 
# High freq. dielectric constant tensor:
#      x y z
#    x 2.021900 -0.000460 0.002600 
#    y -0.000460 1.997070 -0.001870 
#    z 0.002600 -0.001870 1.997720 
# 
# From -- ./inp_files/244323.got.cif
#   From: 2010.06.25/outbox.cif.g09.slc.cpg/sg2_123_cif.got.tgz:244323.got - 2010.06.27 13:26:56.
