data_PCOD8027312
_publ_section_title
;
Structure prediction by ZEFSAII (Michael W. Deem and Ramdas Pophale) SiO2 
 PCOD8027312
Probable space group: P -1
;
_chemical_formula_sum "Si O2"
_cell_formula_units_Z 16
_cell_length_a 7.131124
_cell_length_b 11.580931
_cell_length_c 9.863172
_cell_angle_alpha 81.106028
_cell_angle_beta 90.858782
_cell_angle_gamma 118.319501
_cell_volume 706.843580
_symmetry_space_group_name_H-M "P -1"
_symmetry_group_IT_number 2
_symmetry_cell_setting 'triclinic'
loop_
_space_group_symop_operation_xyz
x,y,z
-x,-y,-z
loop_
_atom_site_type_symbol
_atom_site_label
_atom_site_fract_x
_atom_site_fract_y
_atom_site_fract_z
Si Si1 0.350763 0.227934 0.741352
Si Si2 0.415060 0.930235 0.151797
Si Si3 0.983182 0.751464 0.758607
Si Si4 0.037455 0.264773 0.919281
Si Si5 0.327454 0.522748 0.176963
Si Si6 0.337664 0.567636 0.877475
Si Si7 0.792265 0.861021 0.529430
Si Si8 0.435263 0.839370 0.694265
O O1 0.421156 0.115107 0.776338
O O2 0.558011 0.374661 0.718943
O O3 0.233471 0.214152 0.599348
O O4 0.196707 0.216179 0.866006
O O5 0.182449 0.804241 0.153832
O O6 0.407097 0.042016 0.226885
O O7 0.500000 0.000000 0.000000
O O8 0.906652 0.593730 0.762049
O O9 0.814499 0.783323 0.673533
O O10 0.212857 0.843641 0.673072
O O11 0.994446 0.779687 0.915237
O O12 0.133680 0.423437 0.868948
O O13 0.446422 0.439002 0.146917
O O14 0.320950 0.602776 0.028830
O O15 0.345804 0.689403 0.774123
O O16 0.569712 0.865187 0.552367
O O17 0.000000 0.000000 0.500000
#
# Coordination Sequence:
#
# PCOD8027312 Si02
#       8
#     2   2   2   2   2   2   2   2
#     4  11  26  45  69  99 137 183 224 283 335 400
#     4  12  25  40  67 108 135 172 223 285 338 392
#     4  11  24  42  73 103 130 184 221 281 346 398
#     4  10  24  44  73 105 136 171 230 288 340 395
#     4   9  19  40  70 100 135 169 228 282 339 396
#     4   9  19  40  70 103 133 176 218 287 344 392
#     4  12  28  48  66  93 141 193 222 272 340 412
#     4  12  25  43  69 102 139 178 230 274 341 416
#
# _framework density 22.635843999999999
#
# number of rings (size 3 to 8) (size 9 to 14) (size 15 to 20)
#    0.000    1.250    2.500    3.000    3.500    5.000 
#    0.000    0.625    0.000    0.000    0.000    0.000 
#    0.000    0.000    0.000    0.000    0.000    0.000 
#
# Total GULP energy -198356.144985 kJ/mol
# GULP energy per Si atom -12397.259062 kJ/mol
# Density = 2.258432 g / cm^3
# Si number density = 22.635844 Si / 1000 Ang^3
#
#
#
# Elastic Constant Matrix: (Units=GPa)
#
#
# Indices 1 2 3 4 5 6 
#
# 1 85.7842 33.1331 32.6820 2.7307 -14.7029 16.3097
# 2 33.1331 133.1902 51.1821 14.9033 -6.0428 21.7048
# 3 32.6820 51.1821 97.9020 13.2695 -4.1380 3.7771
# 4 2.7307 14.9033 13.2695 31.5912 1.7279 4.0169
# 5 -14.7029 -6.0428 -4.1380 1.7279 29.7901 -3.3970
# 6 16.3097 21.7048 3.7771 4.0169 -3.3970 41.3999
#
#
#
# Elastic Compliance Matrix: (Units=1/GPa)
#
#
# Indices 1 2 3 4 5 6 
#
# 1 0.015744 -0.001372 -0.004272 0.001336 0.006285 -0.004707
# 2 -0.001372 0.010605 -0.004568 -0.002442 0.000488 -0.004326
# 3 -0.004272 -0.004568 0.014418 -0.003902 -0.000452 0.003104
# 4 0.001336 -0.002442 -0.003902 0.034793 -0.002680 -0.002485
# 5 0.006285 0.000488 -0.000452 -0.002680 0.036930 0.000600
# 6 -0.004707 -0.004326 0.003104 -0.002485 0.000600 0.028284
#
#
# Mechanical properties :
#
#
# Convention : Reuss Voigt Hill
#
# Bulk Modulus (GPa) = 49.15508 61.20785 55.18147
# Shear Modulus (GPa) = 29.76547 33.88151 31.82349
#
# Velocity S-wave (km/s) = 3.63019 3.87306 3.75359
# Velocity P-wave (km/s) = 6.27166 6.86292 6.57394
#
# Compressibility (1/GPa) = 0.02034378
#
# Stress axis : x y z
#
# Youngs Moduli (GPa) = 63.51463 94.29567 69.35582
#
# Poissons Ratio (x) = 0.12938 0.29631
# Poissons Ratio (y) = 0.08715 0.31679
# Poissons Ratio (z) = 0.27136 0.43070
#
# Static dielectric constant tensor:
#      x y z
#    x 4.354840 0.292980 0.124040 
#    y 0.292980 5.015970 0.097890 
#    z 0.124040 0.097890 4.029820 
# 
# 
# High freq. dielectric constant tensor:
#      x y z
#    x 1.897460 0.015560 -0.000570 
#    y 0.015560 1.909170 0.000650 
#    z -0.000570 0.000650 1.867140 
# 
# From -- ./inp_files/186833.got.cif
#   From: 2010.06.25/outbox.cif.g09.slc.cpg/sg2_94_cif.got.tgz:186833.got - 2010.06.27 13:26:56.
