data_PCOD8027446
_publ_section_title
;
Structure prediction by ZEFSAII (Michael W. Deem and Ramdas Pophale) SiO2 
 PCOD8027446
Probable space group: P -1
;
_chemical_formula_sum "Si O2"
_cell_formula_units_Z 12
_cell_length_a 14.599304
_cell_length_b 6.975180
_cell_length_c 18.291356
_cell_angle_alpha 118.567955
_cell_angle_beta 159.333551
_cell_angle_gamma 51.017251
_cell_volume 467.801099
_symmetry_space_group_name_H-M "P -1"
_symmetry_group_IT_number 2
_symmetry_cell_setting 'triclinic'
loop_
_space_group_symop_operation_xyz
x,y,z
-x,-y,-z
loop_
_atom_site_type_symbol
_atom_site_label
_atom_site_fract_x
_atom_site_fract_y
_atom_site_fract_z
Si Si1 0.699075 0.883906 0.462421
Si Si2 0.606831 0.744301 0.958597
Si Si3 0.297034 0.620766 0.443464
Si Si4 0.258786 0.897390 0.238753
Si Si5 0.340798 0.302917 0.843936
Si Si6 0.339196 0.746969 0.068398
O O1 0.496450 0.974069 0.403759
O O2 0.487095 0.893446 0.238987
O O3 0.990543 0.571901 0.626316
O O4 0.793599 0.084280 0.552071
O O5 0.520072 0.764953 0.983370
O O6 0.970889 0.644075 0.198095
O O7 0.559702 0.516480 0.855722
O O8 0.359511 0.033198 0.787086
O O9 0.500000 0.500000 0.500000
O O10 0.521653 0.422872 0.641110
O O11 0.000000 0.000000 0.000000
O O12 0.051481 0.053711 0.185452
O O13 0.573050 0.320380 0.964412
#
# Coordination Sequence:
#
# PCOD8027446 Si02
#       6
#     2   2   2   2   2   2
#     4  11  26  45  72 100 142 180 232 286 347 414
#     4  11  26  42  70 100 140 180 231 285 344 411
#     4  12  26  44  74 107 137 186 236 288 348 415
#     4  10  24  45  69 100 141 182 229 288 343 410
#     4  11  25  44  68 103 140 181 229 283 346 415
#     4  11  25  44  70 100 137 185 225 285 345 414
#
# _framework density 25.651926
#
# number of rings (size 3 to 8) (size 9 to 14) (size 15 to 20)
#    0.000    1.000    1.667    3.000    9.333    7.333 
#    0.000    0.000    0.000    0.000    0.000    0.000 
#    0.000    0.000    0.000    0.000    0.000    0.000 
#
# Total GULP energy -148689.389526 kJ/mol
# GULP energy per Si atom -12390.782460 kJ/mol
# Density = 2.559354 g / cm^3
# Si number density = 25.651926 Si / 1000 Ang^3
#
#
#
# Elastic Constant Matrix: (Units=GPa)
#
#
# Indices 1 2 3 4 5 6 
#
# 1 115.9160 7.4371 40.6648 0.3668 46.6794 13.3845
# 2 7.4371 150.1888 25.9460 -7.5966 3.5649 26.7672
# 3 40.6648 25.9460 71.3730 -14.5767 13.6363 4.3110
# 4 0.3668 -7.5966 -14.5767 52.6388 1.1063 0.0381
# 5 46.6794 3.5649 13.6363 1.1063 47.5103 -5.6172
# 6 13.3845 26.7672 4.3110 0.0381 -5.6172 35.0592
#
#
#
# Elastic Compliance Matrix: (Units=1/GPa)
#
#
# Indices 1 2 3 4 5 6 
#
# 1 0.020877 0.003082 -0.008874 -0.001737 -0.019619 -0.012374
# 2 0.003082 0.008649 -0.003684 0.000287 -0.003560 -0.007898
# 3 -0.008874 -0.003684 0.020536 0.005141 0.003482 0.004228
# 4 -0.001737 0.000287 0.005141 0.020481 -0.000298 -0.000258
# 5 -0.019619 -0.003560 0.003482 -0.000298 0.041542 0.016436
# 6 -0.012374 -0.007898 0.004228 -0.000258 0.016436 0.041391
#
#
# Mechanical properties :
#
#
# Convention : Reuss Voigt Hill
#
# Bulk Modulus (GPa) = 32.14496 53.95262 43.04879
# Shear Modulus (GPa) = 27.35266 44.60366 35.97816
#
# Velocity S-wave (km/s) = 3.26897 4.17442 3.74913
# Velocity P-wave (km/s) = 5.17751 6.65677 5.96319
#
# Compressibility (1/GPa) = 0.03110908
#
# Stress axis : x y z
#
# Youngs Moduli (GPa) = 47.89914 115.62397 48.69556
#
# Poissons Ratio (x) = -0.35641 0.43214
# Poissons Ratio (y) = -0.14765 0.17941
# Poissons Ratio (z) = 0.42507 0.42601
#
# Static dielectric constant tensor:
#      x y z
#    x 5.113590 0.111490 0.567440 
#    y 0.111490 5.339850 -0.405700 
#    z 0.567440 -0.405700 4.552630 
# 
# 
# High freq. dielectric constant tensor:
#      x y z
#    x 2.033290 0.012940 0.027820 
#    y 0.012940 2.042450 -0.014900 
#    z 0.027820 -0.014900 2.013610 
# 
# From -- ./inp_files/39397.got.cif
#   From: 2010.06.25/outbox.cif.g09.slc.cpg/sg2_20_cif.got.tgz:39397.got - 2010.06.27 13:26:56.
