data_PCOD8027511
_publ_section_title
;
Structure prediction by ZEFSAII (Michael W. Deem and Ramdas Pophale) SiO2 
 PCOD8027511
Probable space group: P -1
;
_chemical_formula_sum "Si O2"
_cell_formula_units_Z 12
_cell_length_a 15.471825
_cell_length_b 9.322749
_cell_length_c 5.251762
_cell_angle_alpha 80.407655
_cell_angle_beta 109.999911
_cell_angle_gamma 49.261009
_cell_volume 451.316306
_symmetry_space_group_name_H-M "P -1"
_symmetry_group_IT_number 2
_symmetry_cell_setting 'triclinic'
loop_
_space_group_symop_operation_xyz
x,y,z
-x,-y,-z
loop_
_atom_site_type_symbol
_atom_site_label
_atom_site_fract_x
_atom_site_fract_y
_atom_site_fract_z
Si Si1 0.267838 0.690749 0.217458
Si Si2 0.202193 0.487296 0.513126
Si Si3 0.121306 0.133460 0.772669
Si Si4 0.473505 0.121245 0.184642
Si Si5 0.159981 0.255797 0.269590
Si Si6 0.449512 0.672960 0.694251
O O1 0.193817 0.645235 0.293585
O O2 0.305214 0.780418 0.412666
O O3 0.420313 0.453589 0.332022
O O4 0.158268 0.913712 0.862902
O O5 0.248877 0.295992 0.428330
O O6 0.048488 0.641808 0.432596
O O7 0.309908 0.377169 0.896664
O O8 0.169552 0.129788 0.547756
O O9 0.204077 0.128555 0.078920
O O10 0.584897 0.123756 0.292188
O O11 0.500000 0.000000 0.500000
O O12 0.500000 0.000000 0.000000
O O13 0.000000 0.500000 0.000000
O O14 0.500000 0.500000 0.000000
#
# Coordination Sequence:
#
# PCOD8027511 Si02
#       6
#     2   2   2   2   2   2
#     4  11  26  47  75 105 151 194 241 302 369 440
#     4  11  24  49  72 109 150 186 246 305 363 437
#     4  11  26  46  77 111 144 195 240 301 372 435
#     4  12  29  46  75 106 141 195 246 299 357 431
#     4  10  24  45  70 106 151 190 235 298 360 432
#     4  11  26  50  70 104 150 194 247 303 361 431
#
# _framework density 26.588889000000002
#
# number of rings (size 3 to 8) (size 9 to 14) (size 15 to 20)
#    0.000    1.000    1.667    3.500    9.333    6.667 
#    0.000    5.000    0.000    0.000    0.000    0.000 
#    0.000    0.000    0.000    0.000    0.000    0.000 
#
# Total GULP energy -148724.744927 kJ/mol
# GULP energy per Si atom -12393.728744 kJ/mol
# Density = 2.652837 g / cm^3
# Si number density = 26.588889 Si / 1000 Ang^3
#
#
#
# Elastic Constant Matrix: (Units=GPa)
#
#
# Indices 1 2 3 4 5 6 
#
# 1 136.6118 36.3927 58.8438 9.3265 -9.7387 33.9253
# 2 36.3927 102.0067 28.1785 -4.5726 -24.4364 28.8532
# 3 58.8438 28.1785 145.7779 5.6020 -37.4877 21.4546
# 4 9.3265 -4.5726 5.6020 44.7338 10.5931 -7.9202
# 5 -9.7387 -24.4364 -37.4877 10.5931 48.9005 -5.7471
# 6 33.9253 28.8532 21.4546 -7.9202 -5.7471 52.5704
#
#
#
# Elastic Compliance Matrix: (Units=1/GPa)
#
#
# Indices 1 2 3 4 5 6 
#
# 1 0.010615 -0.001917 -0.003500 -0.002469 -0.001570 -0.004913
# 2 -0.001917 0.013438 0.000712 -0.000864 0.006378 -0.005862
# 3 -0.003500 0.000712 0.010647 -0.002827 0.008198 -0.002007
# 4 -0.002469 -0.000864 -0.002827 0.026146 -0.008016 0.006284
# 5 -0.001570 0.006378 0.008198 -0.008016 0.030915 -0.003661
# 6 -0.004913 -0.005862 -0.002007 0.006284 -0.003661 0.026776
#
#
# Mechanical properties :
#
#
# Convention : Reuss Voigt Hill
#
# Bulk Modulus (GPa) = 39.54149 70.13626 54.83887
# Shear Modulus (GPa) = 36.66352 46.63971 41.65161
#
# Velocity S-wave (km/s) = 3.71739 4.19275 3.96220
# Velocity P-wave (km/s) = 5.77313 7.06216 6.44993
#
# Compressibility (1/GPa) = 0.02528989
#
# Stress axis : x y z
#
# Youngs Moduli (GPa) = 94.20583 74.41827 93.92367
#
# Poissons Ratio (x) = 0.14268 0.32872
# Poissons Ratio (y) = 0.18062 -0.06691
# Poissons Ratio (z) = 0.32971 -0.05301
#
# Static dielectric constant tensor:
#      x y z
#    x 4.478510 1.096490 0.372200 
#    y 1.096490 3.801740 0.654240 
#    z 0.372200 0.654240 5.537260 
# 
# 
# High freq. dielectric constant tensor:
#      x y z
#    x 2.064650 0.011340 0.009050 
#    y 0.011340 2.088730 -0.021060 
#    z 0.009050 -0.021060 2.092210 
# 
# From -- ./inp_files/89957.got.cif
#   From: 2010.06.25/outbox.cif.g09.slc.cpg/sg2_45_cif.got.tgz:89957.got - 2010.06.27 13:26:56.
