data_PCOD8027380
_publ_section_title
;
Structure prediction by ZEFSAII (Michael W. Deem and Ramdas Pophale) SiO2 
 PCOD8027380
Probable space group: P -1
;
_chemical_formula_sum "Si O2"
_cell_formula_units_Z 16
_cell_length_a 12.672910
_cell_length_b 8.392995
_cell_length_c 12.989353
_cell_angle_alpha 35.229462
_cell_angle_beta 92.448082
_cell_angle_gamma 104.758480
_cell_volume 736.036055
_symmetry_space_group_name_H-M "P -1"
_symmetry_group_IT_number 2
_symmetry_cell_setting 'triclinic'
loop_
_space_group_symop_operation_xyz
x,y,z
-x,-y,-z
loop_
_atom_site_type_symbol
_atom_site_label
_atom_site_fract_x
_atom_site_fract_y
_atom_site_fract_z
Si Si1 0.384581 0.476583 0.822352
Si Si2 0.158239 0.972548 0.453966
Si Si3 0.743415 0.436320 0.432250
Si Si4 0.147507 0.917886 0.830815
Si Si5 0.401328 0.900924 0.202724
Si Si6 0.013069 0.319364 0.233214
Si Si7 0.376458 0.905305 0.771241
Si Si8 0.609948 0.647334 0.629372
O O1 0.322638 0.520224 0.693961
O O2 0.350650 0.634262 0.833206
O O3 0.520887 0.628316 0.726944
O O4 0.346471 0.128731 0.035934
O O5 0.191309 0.783581 0.469605
O O6 0.042976 0.743746 0.623594
O O7 0.121570 0.226314 0.268573
O O8 0.264273 0.133224 0.448940
O O9 0.662911 0.296139 0.599256
O O10 0.835134 0.758710 0.296228
O O11 0.265459 0.868583 0.852281
O O12 0.090213 0.879167 0.738168
O O13 0.058779 0.673135 0.030868
O O14 0.398486 0.684569 0.221972
O O15 0.530145 0.095731 0.140981
O O16 0.422358 0.217284 0.546529
#
# Coordination Sequence:
#
# PCOD8027380 Si02
#       8
#     2   2   2   2   2   2   2   2
#     4  12  26  40  66 102 134 172 217 255 319 399
#     4  11  24  43  69  93 128 171 214 273 325 379
#     4  12  24  45  66 100 132 171 210 270 326 380
#     4  11  24  43  69  93 128 171 214 273 325 379
#     4  12  26  40  66 102 134 172 217 255 319 399
#     4  10  24  45  66  94 122 169 224 268 326 382
#     4  12  22  44  65  94 136 175 208 265 324 381
#     4  12  22  44  65  94 136 175 208 265 324 381
#
# _framework density 21.738066
#
# number of rings (size 3 to 8) (size 9 to 14) (size 15 to 20)
#    0.000    0.500    5.000    3.000    5.250    1.000 
#    0.000    0.000    0.000    0.000    0.000    0.000 
#    0.000    0.000    0.000    0.000    0.000    0.000 
#
# Total GULP energy -198443.523526 kJ/mol
# GULP energy per Si atom -12402.720220 kJ/mol
# Density = 2.168859 g / cm^3
# Si number density = 21.738066 Si / 1000 Ang^3
#
#
#
# Elastic Constant Matrix: (Units=GPa)
#
#
# Indices 1 2 3 4 5 6 
#
# 1 61.2536 12.2450 5.0086 -5.3260 1.3994 5.7887
# 2 12.2450 53.3416 12.6337 -16.6844 -13.4429 -5.7698
# 3 5.0086 12.6337 69.2197 -11.4993 3.8515 9.0347
# 4 -5.3260 -16.6844 -11.4993 27.5752 0.5292 3.0310
# 5 1.3994 -13.4429 3.8515 0.5292 28.1447 -5.7908
# 6 5.7887 -5.7698 9.0347 3.0310 -5.7908 20.7942
#
#
#
# Elastic Compliance Matrix: (Units=1/GPa)
#
#
# Indices 1 2 3 4 5 6 
#
# 1 0.018817 -0.007111 0.001844 0.001335 -0.006681 -0.010068
# 2 -0.007111 0.033419 -0.006821 0.013627 0.020695 0.017993
# 3 0.001844 -0.006821 0.018829 0.005780 -0.008896 -0.013907
# 4 0.001335 0.013627 0.005780 0.047657 0.003724 -0.005012
# 5 -0.006681 0.020695 -0.008896 0.003724 0.052130 0.025442
# 6 -0.010068 0.017993 -0.013907 -0.005012 0.025442 0.069744
#
#
# Mechanical properties :
#
#
# Convention : Reuss Voigt Hill
#
# Bulk Modulus (GPa) = 21.32748 27.06551 24.19650
# Shear Modulus (GPa) = 17.83159 25.56467 21.69813
#
# Velocity S-wave (km/s) = 2.86718 3.43305 3.16280
# Velocity P-wave (km/s) = 4.55998 5.30964 4.94902
#
# Compressibility (1/GPa) = 0.04688787
#
# Stress axis : x y z
#
# Youngs Moduli (GPa) = 53.14459 29.92289 53.11045
#
# Poissons Ratio (x) = 0.21279 -0.09794
# Poissons Ratio (y) = 0.37793 0.36227
# Poissons Ratio (z) = -0.09800 0.20411
#
# Static dielectric constant tensor:
#      x y z
#    x 3.949460 -0.066810 0.129300 
#    y -0.066810 3.808140 -0.045050 
#    z 0.129300 -0.045050 3.987350 
# 
# 
# High freq. dielectric constant tensor:
#      x y z
#    x 1.852960 -0.004700 0.003880 
#    y -0.004700 1.848300 -0.001370 
#    z 0.003880 -0.001370 1.866690 
# 
# From -- ./inp_files/317998.got.cif
#   From: 2010.06.25/outbox.cif.g09.slc.cpg/sg2_159_cif.got.tgz:317998.got - 2010.06.27 13:26:56.
