data_PCOD8027011
_publ_section_title
;
Structure prediction by ZEFSAII (Michael W. Deem and Ramdas Pophale) SiO2 
 PCOD8027011
Probable space group: P -1
;
_chemical_formula_sum "Si O2"
_cell_formula_units_Z 16
_cell_length_a 9.966807
_cell_length_b 11.129466
_cell_length_c 14.699698
_cell_angle_alpha 29.384527
_cell_angle_beta 111.915261
_cell_angle_gamma 102.080486
_cell_volume 717.777941
_symmetry_space_group_name_H-M "P -1"
_symmetry_group_IT_number 2
_symmetry_cell_setting 'triclinic'
loop_
_space_group_symop_operation_xyz
x,y,z
-x,-y,-z
loop_
_atom_site_type_symbol
_atom_site_label
_atom_site_fract_x
_atom_site_fract_y
_atom_site_fract_z
Si Si1 0.323739 0.602292 0.789974
Si Si2 0.903393 0.410246 0.813245
Si Si3 0.655743 0.585666 0.882881
Si Si4 0.160048 0.331108 0.632121
Si Si5 0.787852 0.794464 0.074595
Si Si6 0.127937 0.869911 0.835547
Si Si7 0.139149 0.146111 0.351760
Si Si8 0.325905 0.632450 0.364724
O O1 0.478292 0.679680 0.762950
O O2 0.303957 0.413481 0.830075
O O3 0.194454 0.860148 0.588513
O O4 0.310723 0.447366 0.980079
O O5 0.895421 0.677418 0.684256
O O6 0.749982 0.433346 0.703892
O O7 0.041635 0.321192 0.838115
O O8 0.928601 0.193461 0.038676
O O9 0.738091 0.784759 0.729459
O O10 0.712021 0.316888 0.023866
O O11 0.220322 0.163274 0.846829
O O12 0.262740 0.516812 0.512002
O O13 0.000000 0.500000 0.500000
O O14 0.150595 0.152062 0.660827
O O15 0.709513 0.063941 0.831380
O O16 0.013134 0.828569 0.757853
O O17 0.500000 0.500000 0.500000
#
# Coordination Sequence:
#
# PCOD8027011 Si02
#       8
#     2   2   2   2   2   2   2   2
#     4  11  25  41  71  99 136 184 224 280 349 415
#     4  11  23  47  72  99 143 180 227 294 345 411
#     4  10  24  44  63  99 142 176 220 287 344 408
#     4  12  25  43  73 102 137 185 236 283 340 417
#     4  12  25  47  70 101 142 182 237 284 345 416
#     4  11  23  43  71  99 137 177 232 283 344 407
#     4  11  24  43  71 105 133 177 229 284 344 412
#     4  12  29  46  70 103 141 187 233 291 350 407
#
# _framework density 22.291015000000002
#
# number of rings (size 3 to 8) (size 9 to 14) (size 15 to 20)
#    0.000    0.750    2.500    5.250    3.500    5.500 
#    0.000    0.000    0.000    0.000    0.000    0.000 
#    0.000    0.000    0.000    0.000    0.000    0.000 
#
# Total GULP energy -198447.291188 kJ/mol
# GULP energy per Si atom -12402.955699 kJ/mol
# Density = 2.224028 g / cm^3
# Si number density = 22.291015 Si / 1000 Ang^3
#
#
#
# Elastic Constant Matrix: (Units=GPa)
#
#
# Indices 1 2 3 4 5 6 
#
# 1 101.0179 21.1010 50.1426 7.2455 -0.7350 -1.5887
# 2 21.1010 120.0071 52.3892 -9.9679 6.1389 4.7343
# 3 50.1426 52.3892 112.1487 -14.7588 19.4441 12.4780
# 4 7.2455 -9.9679 -14.7588 43.3732 5.4647 -0.7194
# 5 -0.7350 6.1389 19.4441 5.4647 21.7577 -1.3101
# 6 -1.5887 4.7343 12.4780 -0.7194 -1.3101 25.9366
#
#
#
# Elastic Compliance Matrix: (Units=1/GPa)
#
#
# Indices 1 2 3 4 5 6 
#
# 1 0.016442 0.000631 -0.011840 -0.008208 0.013444 0.007040
# 2 0.000631 0.010564 -0.005675 0.000138 0.002134 0.000952
# 3 -0.011840 -0.005675 0.023839 0.011577 -0.023736 -0.012036
# 4 -0.008208 0.000138 0.011577 0.030655 -0.018734 -0.006193
# 5 0.013444 0.002134 -0.023736 -0.018734 0.072633 0.015002
# 6 0.007040 0.000952 -0.012036 -0.006193 0.015002 0.045190
#
#
# Mechanical properties :
#
#
# Convention : Reuss Voigt Hill
#
# Bulk Modulus (GPa) = 58.55873 64.49326 61.52599
# Shear Modulus (GPa) = 20.93942 32.18289 26.56116
#
# Velocity S-wave (km/s) = 3.06823 3.80381 3.45565
# Velocity P-wave (km/s) = 6.23532 6.94890 6.60176
#
# Compressibility (1/GPa) = 0.01707687
#
# Stress axis : x y z
#
# Youngs Moduli (GPa) = 60.82017 94.66154 41.94743
#
# Poissons Ratio (x) = -0.05970 0.49667
# Poissons Ratio (y) = -0.03836 0.23804
# Poissons Ratio (z) = 0.72012 0.53717
#
# Static dielectric constant tensor:
#      x y z
#    x 4.347950 -0.600030 -0.436740 
#    y -0.600030 4.991340 0.575620 
#    z -0.436740 0.575620 4.398270 
# 
# 
# High freq. dielectric constant tensor:
#      x y z
#    x 1.877690 -0.000180 -0.006940 
#    y -0.000180 1.883980 -0.000200 
#    z -0.006940 -0.000200 1.889160 
# 
# From -- ./inp_files/499770.got.cif
#   From: 2010.06.25/outbox.cif.g09.slc.cpg/sg2_250_cif.got.tgz:499770.got - 2010.06.27 13:26:56.
