data_PCOD8027071
_publ_section_title
;
Structure prediction by ZEFSAII (Michael W. Deem and Ramdas Pophale) SiO2 
 PCOD8027071
Probable space group: P -1
;
_chemical_formula_sum "Si O2"
_cell_formula_units_Z 14
_cell_length_a 8.632644
_cell_length_b 8.030955
_cell_length_c 19.463202
_cell_angle_alpha 121.131641
_cell_angle_beta 145.605614
_cell_angle_gamma 55.763037
_cell_volume 626.116188
_symmetry_space_group_name_H-M "P -1"
_symmetry_group_IT_number 2
_symmetry_cell_setting 'triclinic'
loop_
_space_group_symop_operation_xyz
x,y,z
-x,-y,-z
loop_
_atom_site_type_symbol
_atom_site_label
_atom_site_fract_x
_atom_site_fract_y
_atom_site_fract_z
Si Si1 0.172805 0.468864 0.701580
Si Si2 0.469492 0.954180 0.315974
Si Si3 0.696576 0.630437 0.129278
Si Si4 0.695621 0.974060 0.875644
Si Si5 0.307701 0.401789 0.126626
Si Si6 0.809111 0.282144 0.742539
Si Si7 0.550075 0.686548 0.516828
O O1 0.267305 0.248104 0.649853
O O2 0.087900 0.478041 0.754071
O O3 0.432647 0.572487 0.818786
O O4 0.879935 0.618057 0.595139
O O5 0.212503 0.884297 0.243814
O O6 0.351454 0.087001 0.233081
O O7 0.554107 0.109662 0.431875
O O8 0.861569 0.719571 0.150215
O O9 0.506852 0.805955 0.142902
O O10 0.500000 0.500000 0.000000
O O11 0.642971 0.831798 0.886743
O O12 0.000000 0.000000 0.000000
O O13 0.334959 0.498746 0.231284
O O14 0.000000 0.500000 0.000000
O O15 0.648830 0.252082 0.608984
O O16 0.500000 0.500000 0.500000
#
# Coordination Sequence:
#
# PCOD8027071 Si02
#       7
#     2   2   2   2   2   2   2
#     4  10  24  44  66  99 134 179 222 275 341 395
#     4  10  25  44  65  98 139 171 227 274 335 401
#     4  11  23  41  67  98 134 172 226 279 334 401
#     4  11  23  41  66  97 132 179 220 274 343 401
#     4  11  23  45  68  97 137 171 221 282 339 402
#     4  11  23  44  65  98 134 175 221 283 330 396
#     4  12  24  43  70  98 136 177 230 276 334 400
#
# _framework density 22.360067000000001
#
# number of rings (size 3 to 8) (size 9 to 14) (size 15 to 20)
#    0.000    1.143    1.429    5.571    4.000    2.857 
#    2.571    2.143    0.000    0.000    0.000    0.000 
#    0.000    0.000    0.000    0.000    0.000    0.000 
#
# Total GULP energy -173450.348414 kJ/mol
# GULP energy per Si atom -12389.310601 kJ/mol
# Density = 2.230917 g / cm^3
# Si number density = 22.360067 Si / 1000 Ang^3
#
#
#
# Elastic Constant Matrix: (Units=GPa)
#
#
# Indices 1 2 3 4 5 6 
#
# 1 104.1143 29.6816 28.6140 3.2413 4.8038 5.5984
# 2 29.6816 80.6180 39.7047 15.0407 -5.9484 3.7577
# 3 28.6140 39.7047 106.8505 5.6135 -3.8182 -4.8727
# 4 3.2413 15.0407 5.6135 36.2154 -5.2888 -3.5222
# 5 4.8038 -5.9484 -3.8182 -5.2888 46.3872 4.6735
# 6 5.5984 3.7577 -4.8727 -3.5222 4.6735 35.0315
#
#
#
# Elastic Compliance Matrix: (Units=1/GPa)
#
#
# Indices 1 2 3 4 5 6 
#
# 1 0.011210 -0.003281 -0.001920 0.000287 -0.001559 -0.001470
# 2 -0.003281 0.017738 -0.005458 -0.006263 0.001753 -0.003001
# 3 -0.001920 -0.005458 0.011985 0.000881 0.000324 0.002605
# 4 0.000287 -0.006263 0.000881 0.030743 0.002390 0.003521
# 5 -0.001559 0.001753 0.000324 0.002390 0.022511 -0.002657
# 6 -0.001470 -0.003001 0.002605 0.003521 -0.002657 0.030173
#
#
# Mechanical properties :
#
#
# Convention : Reuss Voigt Hill
#
# Bulk Modulus (GPa) = 50.98356 54.17596 52.57976
# Shear Modulus (GPa) = 32.84773 36.43233 34.64003
#
# Velocity S-wave (km/s) = 3.83696 4.04090 3.94025
# Velocity P-wave (km/s) = 6.51769 6.78626 6.65333
#
# Compressibility (1/GPa) = 0.01961417
#
# Stress axis : x y z
#
# Youngs Moduli (GPa) = 89.20460 56.37623 83.43600
#
# Poissons Ratio (x) = 0.18500 0.16024
# Poissons Ratio (y) = 0.29272 0.45537
# Poissons Ratio (z) = 0.17131 0.30768
#
# Static dielectric constant tensor:
#      x y z
#    x 4.310490 -0.022900 0.003800 
#    y -0.022900 4.055000 0.142520 
#    z 0.003800 0.142520 4.036470 
# 
# 
# High freq. dielectric constant tensor:
#      x y z
#    x 1.897000 0.002070 -0.003710 
#    y 0.002070 1.871680 0.011300 
#    z -0.003710 0.011300 1.882580 
# 
# From -- ./inp_files/205840.got.cif
#   From: 2010.06.25/outbox.cif.g09.slc.cpg/sg2_103_cif.got.tgz:205840.got - 2010.06.27 13:26:56.
