data_PCOD8027653
_publ_section_title
;
Structure prediction by ZEFSAII (Michael W. Deem and Ramdas Pophale) SiO2 
 PCOD8027653
Probable space group: P -1
;
_chemical_formula_sum "Si O2"
_cell_formula_units_Z 14
_cell_length_a 11.842614
_cell_length_b 6.268991
_cell_length_c 8.359643
_cell_angle_alpha 91.113621
_cell_angle_beta 89.556057
_cell_angle_gamma 103.012319
_cell_volume 604.575685
_symmetry_space_group_name_H-M "P -1"
_symmetry_group_IT_number 2
_symmetry_cell_setting 'triclinic'
loop_
_space_group_symop_operation_xyz
x,y,z
-x,-y,-z
loop_
_atom_site_type_symbol
_atom_site_label
_atom_site_fract_x
_atom_site_fract_y
_atom_site_fract_z
Si Si1 0.266040 0.475912 0.562756
Si Si2 0.889681 0.228071 0.867769
Si Si3 0.433668 0.396707 0.804087
Si Si4 0.923104 0.855333 0.631061
Si Si5 0.088497 0.613722 0.796638
Si Si6 0.337163 0.758134 0.277954
Si Si7 0.559990 0.840694 0.902653
O O1 0.354559 0.347182 0.646464
O O2 0.192292 0.291483 0.446676
O O3 0.197947 0.572638 0.700666
O O4 0.328925 0.691359 0.463996
O O5 0.790054 0.341641 0.797797
O O6 0.018365 0.378116 0.854954
O O7 0.887693 0.996685 0.779030
O O8 0.866648 0.210475 0.059223
O O9 0.559502 0.340160 0.792923
O O10 0.458862 0.658890 0.821532
O O11 0.372002 0.274665 0.964384
O O12 0.002641 0.697590 0.682714
O O13 0.000000 0.000000 0.500000
O O14 0.360570 0.019589 0.236706
O O15 0.500000 0.000000 0.000000
#
# Coordination Sequence:
#
# PCOD8027653 Si02
#       7
#     2   2   2   2   2   2   2
#     4  12  25  45  73 105 149 181 230 299 359 412
#     4  11  25  45  73 101 137 189 237 286 347 423
#     4  10  24  46  69 102 143 186 233 288 352 427
#     4  12  24  46  68 103 140 185 233 290 352 414
#     4  11  25  47  69 102 141 183 239 289 348 421
#     4  11  24  45  70 103 142 183 230 294 353 419
#     4   9  22  44  68  98 139 184 238 284 342 421
#
# _framework density 23.156735999999999
#
# number of rings (size 3 to 8) (size 9 to 14) (size 15 to 20)
#    0.000    1.143    2.857    2.143    8.000    1.714 
#   10.286    0.000    0.000    0.000    0.000    0.000 
#    0.000    0.000    0.000    0.000    0.000    0.000 
#
# Total GULP energy -173458.740575 kJ/mol
# GULP energy per Si atom -12389.910041 kJ/mol
# Density = 2.310403 g / cm^3
# Si number density = 23.156736 Si / 1000 Ang^3
#
#
#
# Elastic Constant Matrix: (Units=GPa)
#
#
# Indices 1 2 3 4 5 6 
#
# 1 92.5376 23.0439 32.7277 -4.9297 4.0562 -6.1864
# 2 23.0439 110.8332 60.9315 -8.2064 -10.8344 11.6924
# 3 32.7277 60.9315 133.3059 -9.7795 3.0781 13.9494
# 4 -4.9297 -8.2064 -9.7795 51.8590 -6.1150 -7.5949
# 5 4.0562 -10.8344 3.0781 -6.1150 44.2246 -2.9796
# 6 -6.1864 11.6924 13.9494 -7.5949 -2.9796 22.6634
#
#
#
# Elastic Compliance Matrix: (Units=1/GPa)
#
#
# Indices 1 2 3 4 5 6 
#
# 1 0.012807 -0.001723 -0.002927 0.001253 -0.000782 0.006504
# 2 -0.001723 0.012995 -0.005201 0.000867 0.003607 -0.003209
# 3 -0.002927 -0.005201 0.011200 -0.000018 -0.002145 -0.005297
# 4 0.001253 0.000867 -0.000018 0.021036 0.003507 0.007416
# 5 -0.000782 0.003607 -0.002145 0.003507 0.024446 0.003635
# 6 0.006504 -0.003209 -0.005297 0.007416 0.003635 0.053778
#
#
# Mechanical properties :
#
#
# Convention : Reuss Voigt Hill
#
# Bulk Modulus (GPa) = 57.80435 63.34254 60.57345
# Shear Modulus (GPa) = 30.91557 38.41433 34.66495
#
# Velocity S-wave (km/s) = 3.65781 4.07736 3.87327
# Velocity P-wave (km/s) = 6.54644 7.04128 6.79836
#
# Compressibility (1/GPa) = 0.01729974
#
# Stress axis : x y z
#
# Youngs Moduli (GPa) = 78.08515 76.95037 89.28692
#
# Poissons Ratio (x) = 0.13260 0.26135
# Poissons Ratio (y) = 0.13456 0.46436
# Poissons Ratio (z) = 0.22856 0.40020
#
# Static dielectric constant tensor:
#      x y z
#    x 4.082240 0.152610 -0.035900 
#    y 0.152610 4.608550 -0.501320 
#    z -0.035900 -0.501320 4.604050 
# 
# 
# High freq. dielectric constant tensor:
#      x y z
#    x 1.912270 -0.000850 0.000620 
#    y -0.000850 1.911270 -0.013190 
#    z 0.000620 -0.013190 1.926710 
# 
# From -- ./inp_files/229757.got.cif
#   From: 2010.06.25/outbox.cif.g09.slc.cpg/sg2_115_cif.got.tgz:229757.got - 2010.06.27 13:26:56.
