data_PCOD8027360
_publ_section_title
;
Structure prediction by ZEFSAII (Michael W. Deem and Ramdas Pophale) SiO2 
 PCOD8027360
Probable space group: P -1
;
_chemical_formula_sum "Si O2"
_cell_formula_units_Z 16
_cell_length_a 5.115355
_cell_length_b 30.028188
_cell_length_c 9.132284
_cell_angle_alpha 36.662327
_cell_angle_beta 56.900172
_cell_angle_gamma 70.550011
_cell_volume 686.006043
_symmetry_space_group_name_H-M "P -1"
_symmetry_group_IT_number 2
_symmetry_cell_setting 'triclinic'
loop_
_space_group_symop_operation_xyz
x,y,z
-x,-y,-z
loop_
_atom_site_type_symbol
_atom_site_label
_atom_site_fract_x
_atom_site_fract_y
_atom_site_fract_z
Si Si1 0.937058 0.154449 0.598934
Si Si2 0.627534 0.495124 0.632334
Si Si3 0.661711 0.785826 0.936705
Si Si4 0.032916 0.797150 0.222923
Si Si5 0.207500 0.366473 0.275962
Si Si6 0.522512 0.627212 0.521134
Si Si7 0.965635 0.085461 0.315271
Si Si8 0.457818 0.074472 0.731474
O O1 0.829494 0.189384 0.689063
O O2 0.092318 0.082678 0.795075
O O3 0.639697 0.139374 0.617530
O O4 0.222763 0.210995 0.275911
O O5 0.500000 0.500000 0.500000
O O6 0.533558 0.564806 0.561557
O O7 0.000000 0.500000 0.500000
O O8 0.451999 0.413767 0.962893
O O9 0.733978 0.709922 0.190334
O O10 0.282590 0.775947 0.085371
O O11 0.798521 0.866249 0.765075
O O12 0.748722 0.722004 0.512348
O O13 0.952164 0.873374 0.976226
O O14 0.309757 0.399352 0.318100
O O15 0.845241 0.371106 0.336490
O O16 0.613471 0.080016 0.506686
O O17 0.000000 0.000000 0.500000
O O18 0.500000 0.000000 0.000000
#
# Coordination Sequence:
#
# PCOD8027360 Si02
#       8
#     2   2   2   2   2   2   2   2
#     4  11  25  41  67  93 136 172 230 285 350 413
#     4  12  26  45  71 116 146 180 233 287 349 415
#     4  10  24  45  64 103 134 186 233 285 357 415
#     4  11  24  43  69 100 136 185 236 288 353 415
#     4  11  24  45  72 103 141 189 237 277 351 429
#     4  11  23  45  75  95 148 185 232 284 347 423
#     4  11  23  42  68  95 137 180 239 297 344 416
#     4  11  24  44  62  97 132 175 229 289 359 414
#
# _framework density 23.323409000000002
#
# number of rings (size 3 to 8) (size 9 to 14) (size 15 to 20)
#    0.000    1.000    2.500    3.375    5.250    1.500 
#    4.500    0.000    0.000    0.000    0.000    0.000 
#    0.000    0.000    0.000    0.000    0.000    0.000 
#
# Total GULP energy -198298.949940 kJ/mol
# GULP energy per Si atom -12393.684371 kJ/mol
# Density = 2.327032 g / cm^3
# Si number density = 23.323409 Si / 1000 Ang^3
#
#
#
# Elastic Constant Matrix: (Units=GPa)
#
#
# Indices 1 2 3 4 5 6 
#
# 1 66.2963 3.7094 11.4415 2.8346 10.8768 11.4499
# 2 3.7094 91.8067 50.6170 5.2978 8.5461 21.5781
# 3 11.4415 50.6170 167.2758 -2.9940 16.0673 3.9244
# 4 2.8346 5.2978 -2.9940 42.3848 4.9259 5.0453
# 5 10.8768 8.5461 16.0673 4.9259 31.5665 8.3000
# 6 11.4499 21.5781 3.9244 5.0453 8.3000 38.8371
#
#
#
# Elastic Compliance Matrix: (Units=1/GPa)
#
#
# Indices 1 2 3 4 5 6 
#
# 1 0.016713 0.001417 -0.001052 -0.000313 -0.004338 -0.004641
# 2 0.001417 0.015402 -0.004594 -0.001360 0.000089 -0.008353
# 3 -0.001052 -0.004594 0.007709 0.001251 -0.003197 0.002605
# 4 -0.000313 -0.001360 0.001251 0.024486 -0.003534 -0.001704
# 5 -0.004338 0.000089 -0.003197 -0.003534 0.036872 -0.005868
# 6 -0.004641 -0.008353 0.002605 -0.001704 -0.005868 0.032970
#
#
# Mechanical properties :
#
#
# Convention : Reuss Voigt Hill
#
# Bulk Modulus (GPa) = 31.88275 50.76830 41.32553
# Shear Modulus (GPa) = 32.66598 39.86506 36.26552
#
# Velocity S-wave (km/s) = 3.74647 4.13877 3.94750
# Velocity P-wave (km/s) = 5.69335 6.68233 6.20757
#
# Compressibility (1/GPa) = 0.03136492
#
# Stress axis : x y z
#
# Youngs Moduli (GPa) = 59.83513 64.92741 129.72256
#
# Poissons Ratio (x) = -0.09203 0.13648
# Poissons Ratio (y) = -0.08481 0.59600
# Poissons Ratio (z) = 0.06295 0.29830
#
# Static dielectric constant tensor:
#      x y z
#    x 4.148260 0.063600 0.065790 
#    y 0.063600 4.223300 0.092260 
#    z 0.065790 0.092260 4.720110 
# 
# 
# High freq. dielectric constant tensor:
#      x y z
#    x 1.915130 0.008130 0.006360 
#    y 0.008130 1.918610 0.008850 
#    z 0.006360 0.008850 1.939450 
# 
# From -- ./inp_files/143067.got.cif
#   From: 2010.06.25/outbox.cif.g09.slc.cpg/sg2_72_cif.got.tgz:143067.got - 2010.06.27 13:26:56.
