data_PCOD8027634
_publ_section_title
;
Structure prediction by ZEFSAII (Michael W. Deem and Ramdas Pophale) SiO2 
 PCOD8027634
Probable space group: P -1
;
_chemical_formula_sum "Si O2"
_cell_formula_units_Z 16
_cell_length_a 7.889631
_cell_length_b 6.727618
_cell_length_c 17.145220
_cell_angle_alpha 105.860486
_cell_angle_beta 90.698702
_cell_angle_gamma 123.176512
_cell_volume 717.758571
_symmetry_space_group_name_H-M "P -1"
_symmetry_group_IT_number 2
_symmetry_cell_setting 'triclinic'
loop_
_space_group_symop_operation_xyz
x,y,z
-x,-y,-z
loop_
_atom_site_type_symbol
_atom_site_label
_atom_site_fract_x
_atom_site_fract_y
_atom_site_fract_z
Si Si1 0.689799 0.550240 0.315812
Si Si2 0.966215 0.460352 0.404594
Si Si3 0.700530 0.473203 0.689225
Si Si4 0.092695 0.975958 0.727232
Si Si5 0.827840 0.415748 0.843828
Si Si6 0.421561 0.106593 0.153423
Si Si7 0.313171 0.314149 0.035617
Si Si8 0.774243 0.080082 0.120210
O O1 0.821166 0.550491 0.388147
O O2 0.525243 0.610048 0.350314
O O3 0.858743 0.769094 0.282332
O O4 0.565554 0.282046 0.243784
O O5 0.000000 0.500000 0.500000
O O6 0.191691 0.617058 0.378802
O O7 0.851206 0.166046 0.350234
O O8 0.678814 0.360155 0.763273
O O9 0.849277 0.782301 0.728804
O O10 0.232082 0.048580 0.812594
O O11 0.799069 0.550501 0.931231
O O12 0.064655 0.615911 0.840258
O O13 0.786400 0.151857 0.843444
O O14 0.374959 0.264875 0.114566
O O15 0.548426 0.018566 0.097699
O O16 0.500000 0.500000 0.000000
O O17 0.170778 0.044985 0.961536
#
# Coordination Sequence:
#
# PCOD8027634 Si02
#       8
#     2   2   2   2   2   2   2   2
#     4  12  21  41  74  91 133 186 205 271 347 379
#     4  10  24  46  68 102 136 164 219 276 327 407
#     4   9  22  43  66  98 130 167 225 265 323 405
#     4   9  22  44  63  98 134 163 224 268 322 410
#     4  11  23  43  62  92 130 166 227 270 311 397
#     4  12  24  40  65  94 124 178 222 261 331 385
#     4  12  24  41  62  92 135 170 220 280 318 372
#     4  11  22  43  62  91 131 173 213 278 326 371
#
# _framework density 22.291619000000001
#
# number of rings (size 3 to 8) (size 9 to 14) (size 15 to 20)
#    0.750    0.500    3.750    2.250    0.000    3.500 
#    2.250    0.625    0.000    0.000    0.000    0.000 
#    0.000    0.000    0.000    0.000    0.000    0.000 
#
# Total GULP energy -198331.769867 kJ/mol
# GULP energy per Si atom -12395.735617 kJ/mol
# Density = 2.224088 g / cm^3
# Si number density = 22.291619 Si / 1000 Ang^3
#
#
#
# Elastic Constant Matrix: (Units=GPa)
#
#
# Indices 1 2 3 4 5 6 
#
# 1 57.8652 7.5080 16.1008 -8.8421 10.9982 0.6454
# 2 7.5080 117.1360 19.1769 -28.9009 11.8766 8.2345
# 3 16.1008 19.1769 106.9299 -5.9709 4.1950 -2.9582
# 4 -8.8421 -28.9009 -5.9709 23.6236 -4.9101 -5.1508
# 5 10.9982 11.8766 4.1950 -4.9101 28.0159 -2.6360
# 6 0.6454 8.2345 -2.9582 -5.1508 -2.6360 22.8264
#
#
#
# Elastic Compliance Matrix: (Units=1/GPa)
#
#
# Indices 1 2 3 4 5 6 
#
# 1 0.020290 0.001735 -0.002694 0.007418 -0.007062 -0.000691
# 2 0.001735 0.012834 -0.001656 0.014784 -0.003467 -0.001958
# 3 -0.002694 -0.001656 0.010097 0.000058 0.000450 0.002047
# 4 0.007418 0.014784 0.000058 0.066019 0.003299 0.009742
# 5 -0.007062 -0.003467 0.000450 0.003299 0.041105 0.007000
# 6 -0.000691 -0.001958 0.002047 0.009742 0.007000 0.047807
#
#
# Mechanical properties :
#
#
# Convention : Reuss Voigt Hill
#
# Bulk Modulus (GPa) = 26.32168 40.83360 33.57764
# Shear Modulus (GPa) = 23.14355 30.83622 26.98988
#
# Velocity S-wave (km/s) = 3.22563 3.72332 3.48338
# Velocity P-wave (km/s) = 5.07015 6.06975 5.59233
#
# Compressibility (1/GPa) = 0.03799150
#
# Stress axis : x y z
#
# Youngs Moduli (GPa) = 49.28657 77.91942 99.04240
#
# Poissons Ratio (x) = -0.13522 0.26683
# Poissons Ratio (y) = -0.08553 0.16397
# Poissons Ratio (z) = 0.13278 0.12900
#
# Static dielectric constant tensor:
#      x y z
#    x 3.887550 0.047060 -0.127540 
#    y 0.047060 3.979930 -0.018090 
#    z -0.127540 -0.018090 3.659640 
# 
# 
# High freq. dielectric constant tensor:
#      x y z
#    x 1.871320 0.002260 -0.010500 
#    y 0.002260 1.878370 -0.007320 
#    z -0.010500 -0.007320 1.852960 
# 
# From -- ./inp_files/552694.got.cif
#   From: 2010.06.25/outbox.cif.g09.slc.cpg/sg2_277_cif.got.tgz:552694.got - 2010.06.27 13:26:56.
