data_PCOD8027860
_publ_section_title
;
Structure prediction by ZEFSAII (Michael W. Deem and Ramdas Pophale) SiO2 
 PCOD8027860
Probable space group: P -1
;
_chemical_formula_sum "Si O2"
_cell_formula_units_Z 16
_cell_length_a 13.378626
_cell_length_b 18.623541
_cell_length_c 10.451717
_cell_angle_alpha 146.623803
_cell_angle_beta 123.756813
_cell_angle_gamma 33.653580
_cell_volume 705.989511
_symmetry_space_group_name_H-M "P -1"
_symmetry_group_IT_number 2
_symmetry_cell_setting 'triclinic'
loop_
_space_group_symop_operation_xyz
x,y,z
-x,-y,-z
loop_
_atom_site_type_symbol
_atom_site_label
_atom_site_fract_x
_atom_site_fract_y
_atom_site_fract_z
Si Si1 0.192773 0.752360 0.814233
Si Si2 0.784471 0.905522 0.444780
Si Si3 0.023436 0.856657 0.120735
Si Si4 0.565160 0.879508 0.104819
Si Si5 0.512277 0.290074 0.016908
Si Si6 0.141830 0.254508 0.267617
Si Si7 0.926782 0.407674 0.598202
Si Si8 0.880056 0.247475 0.683149
O O1 0.204814 0.610601 0.526767
O O2 0.175420 0.734896 0.927430
O O3 0.395393 0.655954 0.782519
O O4 0.000000 0.000000 0.000000
O O5 0.614887 0.955330 0.346312
O O6 0.952009 0.683244 0.318409
O O7 0.900216 0.878663 0.372781
O O8 0.668002 0.114439 0.755180
O O9 0.154364 0.737337 0.166780
O O10 0.872648 0.113136 0.406618
O O11 0.894151 0.836049 0.986697
O O12 0.499228 0.810324 0.034045
O O13 0.381708 0.080730 0.178640
O O14 0.770340 0.665369 0.853269
O O15 0.290050 0.508516 0.129036
O O16 0.000000 0.500000 0.500000
O O17 0.092024 0.256682 0.380017
#
# Coordination Sequence:
#
# PCOD8027860 Si02
#       8
#     2   2   2   2   2   2   2   2
#     4  11  21  44  70  97 139 171 220 280 334 396
#     4  12  24  45  67 102 140 172 229 281 333 398
#     4  10  24  48  65 100 140 171 226 281 332 398
#     4  12  27  41  71 103 132 182 230 272 337 409
#     4  12  24  40  74 101 130 180 221 278 350 387
#     4  11  27  47  68  95 142 181 221 283 335 398
#     4  11  24  44  68  99 137 173 225 284 329 401
#     4  11  25  44  71  99 136 178 221 285 334 401
#
# _framework density 22.663228
#
# number of rings (size 3 to 8) (size 9 to 14) (size 15 to 20)
#    0.000    0.750    5.000    1.500    5.250    1.500 
#    0.000    0.000    0.000    0.000    0.000    0.000 
#    0.000    0.000    0.000    0.000    0.000    0.000 
#
# Total GULP energy -198450.454412 kJ/mol
# GULP energy per Si atom -12403.153401 kJ/mol
# Density = 2.261165 g / cm^3
# Si number density = 22.663228 Si / 1000 Ang^3
#
#
#
# Elastic Constant Matrix: (Units=GPa)
#
#
# Indices 1 2 3 4 5 6 
#
# 1 55.7744 20.2781 6.4708 -6.4738 9.0241 -8.4388
# 2 20.2781 110.8720 47.9367 5.2025 14.9242 -15.2730
# 3 6.4708 47.9367 88.1891 7.6697 14.3475 -7.4586
# 4 -6.4738 5.2025 7.6697 44.4350 -6.3691 5.1563
# 5 9.0241 14.9242 14.3475 -6.3691 33.9545 -3.3764
# 6 -8.4388 -15.2730 -7.4586 5.1563 -3.3764 35.4068
#
#
#
# Elastic Compliance Matrix: (Units=1/GPa)
#
#
# Indices 1 2 3 4 5 6 
#
# 1 0.020334 -0.003358 0.000964 0.002334 -0.003608 0.002917
# 2 -0.003358 0.013146 -0.006071 -0.001729 -0.002284 0.003626
# 3 0.000964 -0.006071 0.015612 -0.002599 -0.004589 0.000841
# 4 0.002334 -0.001729 -0.002599 0.024726 0.005497 -0.003814
# 5 -0.003608 -0.002284 -0.004589 0.005497 0.034351 -0.000337
# 6 0.002917 0.003626 0.000841 -0.003814 -0.000337 0.031203
#
#
# Mechanical properties :
#
#
# Convention : Reuss Voigt Hill
#
# Bulk Modulus (GPa) = 31.09149 44.91186 38.00167
# Shear Modulus (GPa) = 29.93596 34.76925 32.35261
#
# Velocity S-wave (km/s) = 3.63837 3.92110 3.78238
# Velocity P-wave (km/s) = 5.60348 6.35296 5.98995
#
# Compressibility (1/GPa) = 0.03216314
#
# Stress axis : x y z
#
# Youngs Moduli (GPa) = 49.17784 76.06627 64.05268
#
# Poissons Ratio (x) = 0.25542 -0.06174
# Poissons Ratio (y) = 0.16513 0.38886
# Poissons Ratio (z) = -0.04740 0.46180
#
# Static dielectric constant tensor:
#      x y z
#    x 4.149700 -0.112160 0.075670 
#    y -0.112160 4.040140 -0.146720 
#    z 0.075670 -0.146720 4.257500 
# 
# 
# High freq. dielectric constant tensor:
#      x y z
#    x 1.892340 -0.001770 0.003990 
#    y -0.001770 1.886600 -0.006410 
#    z 0.003990 -0.006410 1.902110 
# 
# From -- ./inp_files/457750.got.cif
#   From: 2010.06.25/outbox.cif.g09.slc.cpg/sg2_229_cif.got.tgz:457750.got - 2010.06.27 13:26:56.
