data_PCOD8027734
_publ_section_title
;
Structure prediction by ZEFSAII (Michael W. Deem and Ramdas Pophale) SiO2 
 PCOD8027734
Probable space group: P -1
;
_chemical_formula_sum "Si O2"
_cell_formula_units_Z 12
_cell_length_a 9.428160
_cell_length_b 10.968518
_cell_length_c 9.209736
_cell_angle_alpha 48.409509
_cell_angle_beta 135.303351
_cell_angle_gamma 114.635885
_cell_volume 498.260399
_symmetry_space_group_name_H-M "P -1"
_symmetry_group_IT_number 2
_symmetry_cell_setting 'triclinic'
loop_
_space_group_symop_operation_xyz
x,y,z
-x,-y,-z
loop_
_atom_site_type_symbol
_atom_site_label
_atom_site_fract_x
_atom_site_fract_y
_atom_site_fract_z
Si Si1 0.353647 0.665849 0.765633
Si Si2 0.958404 0.247317 0.313347
Si Si3 0.696776 0.558549 0.519880
Si Si4 0.924064 0.266843 0.755894
Si Si5 0.875019 0.052016 0.145013
Si Si6 0.662267 0.797473 0.056401
O O1 0.186250 0.627018 0.794395
O O2 0.263003 0.727861 0.496613
O O3 0.500000 0.500000 0.000000
O O4 0.480895 0.814396 0.794835
O O5 0.846241 0.205749 0.113999
O O6 0.172401 0.322553 0.380212
O O7 0.976679 0.086323 0.557751
O O8 0.500000 0.500000 0.500000
O O9 0.862838 0.411474 0.710662
O O10 0.607496 0.659259 0.237520
O O11 0.127163 0.278709 0.803737
O O12 0.961572 0.103395 0.011860
O O13 0.672562 0.969040 0.015096
#
# Coordination Sequence:
#
# PCOD8027734 Si02
#       6
#     2   2   2   2   2   2
#     4  12  24  42  75 104 141 189 232 290 357 412
#     4  10  24  49  71 102 149 184 236 295 356 416
#     4  11  24  44  71 105 141 186 239 291 351 419
#     4  12  24  45  72 106 144 182 240 294 350 419
#     4  10  24  46  73 101 143 193 228 295 357 415
#     4  11  24  46  72 101 148 185 235 291 359 413
#
# _framework density 24.083791000000002
#
# number of rings (size 3 to 8) (size 9 to 14) (size 15 to 20)
#    0.000    1.000    5.000    2.000    2.333    3.333 
#    6.000    0.000    0.000    0.000    0.000    0.000 
#    0.000    0.000    0.000    0.000    0.000    0.000 
#
# Total GULP energy -148661.180446 kJ/mol
# GULP energy per Si atom -12388.431704 kJ/mol
# Density = 2.402898 g / cm^3
# Si number density = 24.083791 Si / 1000 Ang^3
#
#
#
# Elastic Constant Matrix: (Units=GPa)
#
#
# Indices 1 2 3 4 5 6 
#
# 1 143.6416 67.6234 56.3762 -2.3075 -12.3547 8.0162
# 2 67.6234 135.4284 49.9220 27.9137 -9.7132 8.9769
# 3 56.3762 49.9220 101.6109 29.6188 -20.7681 15.3985
# 4 -2.3075 27.9137 29.6188 30.1357 1.4001 -3.3880
# 5 -12.3547 -9.7132 -20.7681 1.4001 37.1951 -0.6387
# 6 8.0162 8.9769 15.3985 -3.3880 -0.6387 35.5507
#
#
#
# Elastic Compliance Matrix: (Units=1/GPa)
#
#
# Indices 1 2 3 4 5 6 
#
# 1 0.015831 -0.008572 -0.013442 0.023344 -0.005252 0.006547
# 2 -0.008572 0.014606 0.005342 -0.020316 0.004613 -0.005922
# 3 -0.013442 0.005342 0.031942 -0.039877 0.015997 -0.015666
# 4 0.023344 -0.020316 -0.039877 0.096970 -0.023021 0.025966
# 5 -0.005252 0.004613 0.015997 -0.023021 0.035999 -0.008457
# 6 0.006547 -0.005922 -0.015666 0.025966 -0.008457 0.037256
#
#
# Mechanical properties :
#
#
# Convention : Reuss Voigt Hill
#
# Bulk Modulus (GPa) = 34.44057 80.94714 57.69385
# Shear Modulus (GPa) = 18.14052 34.36024 26.25038
#
# Velocity S-wave (km/s) = 2.74747 3.78126 3.30504
# Velocity P-wave (km/s) = 4.93925 7.26275 6.21062
#
# Compressibility (1/GPa) = 0.02903553
#
# Stress axis : x y z
#
# Youngs Moduli (GPa) = 63.16789 68.46648 31.30647
#
# Poissons Ratio (x) = 0.58689 0.42082
# Poissons Ratio (y) = 0.54147 -0.16725
# Poissons Ratio (z) = 0.84911 -0.36577
#
# Static dielectric constant tensor:
#      x y z
#    x 4.226070 -0.106780 -0.180620 
#    y -0.106780 4.832270 0.248220 
#    z -0.180620 0.248220 4.349070 
# 
# 
# High freq. dielectric constant tensor:
#      x y z
#    x 1.943070 -0.006480 -0.009130 
#    y -0.006480 1.969070 0.014100 
#    z -0.009130 0.014100 1.951860 
# 
# From -- ./inp_files/174637.got.cif
#   From: 2010.06.25/outbox.cif.g09.slc.cpg/sg2_88_cif.got.tgz:174637.got - 2010.06.27 13:26:56.
