data_PCOD8027052
_publ_section_title
;
Structure prediction by ZEFSAII (Michael W. Deem and Ramdas Pophale) SiO2 
 PCOD8027052
Probable space group: P -1
;
_chemical_formula_sum "Si O2"
_cell_formula_units_Z 16
_cell_length_a 7.808560
_cell_length_b 14.285086
_cell_length_c 11.673380
_cell_angle_alpha 145.295533
_cell_angle_beta 99.231709
_cell_angle_gamma 70.651670
_cell_volume 684.126449
_symmetry_space_group_name_H-M "P -1"
_symmetry_group_IT_number 2
_symmetry_cell_setting 'triclinic'
loop_
_space_group_symop_operation_xyz
x,y,z
-x,-y,-z
loop_
_atom_site_type_symbol
_atom_site_label
_atom_site_fract_x
_atom_site_fract_y
_atom_site_fract_z
Si Si1 0.193624 0.267873 0.629765
Si Si2 0.750984 0.489053 0.512999
Si Si3 0.057686 0.560396 0.740745
Si Si4 0.403745 0.801114 0.810593
Si Si5 0.235086 0.064690 0.861589
Si Si6 0.114732 0.860861 0.462390
Si Si7 0.535657 0.297913 0.810635
Si Si8 0.402242 0.914512 0.172975
O O1 0.352786 0.246969 0.720121
O O2 0.152783 0.459722 0.763851
O O3 0.999668 0.270292 0.665554
O O4 0.270312 0.111535 0.388306
O O5 0.940416 0.450071 0.562555
O O6 0.625570 0.693406 0.731719
O O7 0.669042 0.343562 0.400332
O O8 0.779593 0.454039 0.345393
O O9 0.934675 0.760086 0.951443
O O10 0.347652 0.970530 0.892724
O O11 0.329938 0.863569 0.993541
O O12 0.383534 0.101161 0.830759
O O13 0.135824 0.944078 0.669736
O O14 0.319552 0.775838 0.349642
O O15 0.000000 0.000000 0.500000
O O16 0.614412 0.218916 0.864099
O O17 0.500000 0.500000 0.000000
#
# Coordination Sequence:
#
# PCOD8027052 Si02
#       8
#     2   2   2   2   2   2   2   2
#     4  12  27  48  76 104 149 193 242 306 366 431
#     4  10  24  44  66 101 152 184 247 291 365 429
#     4  11  26  43  68 109 146 189 242 303 360 436
#     4  11  25  44  74 104 144 201 239 298 367 437
#     4  12  26  45  75 109 150 191 248 299 367 437
#     4  12  27  50  77 106 147 192 248 303 366 433
#     4  12  30  50  77 110 146 194 246 304 370 435
#     4  12  25  48  73 106 147 195 246 298 367 437
#
# _framework density 23.387488000000001
#
# number of rings (size 3 to 8) (size 9 to 14) (size 15 to 20)
#    0.000    0.500    3.750    3.000   10.500    2.000 
#    0.000    0.000    0.000    0.000    0.000    0.000 
#    0.000    0.000    0.000    0.000    0.000    0.000 
#
# Total GULP energy -198432.116803 kJ/mol
# GULP energy per Si atom -12402.007300 kJ/mol
# Density = 2.333426 g / cm^3
# Si number density = 23.387488 Si / 1000 Ang^3
#
#
#
# Elastic Constant Matrix: (Units=GPa)
#
#
# Indices 1 2 3 4 5 6 
#
# 1 85.0840 16.3444 17.3817 -4.1479 -0.3629 10.0095
# 2 16.3444 120.3594 49.5357 7.4286 -19.1227 1.9220
# 3 17.3817 49.5357 107.3413 7.9236 -9.5047 1.7795
# 4 -4.1479 7.4286 7.9236 42.9369 -5.8383 1.2149
# 5 -0.3629 -19.1227 -9.5047 -5.8383 32.9287 -3.9937
# 6 10.0095 1.9220 1.7795 1.2149 -3.9937 34.6817
#
#
#
# Elastic Compliance Matrix: (Units=1/GPa)
#
#
# Indices 1 2 3 4 5 6 
#
# 1 0.012863 -0.001311 -0.001653 0.001711 -0.001249 -0.003759
# 2 -0.001311 0.011163 -0.004452 -0.000552 0.005158 0.000601
# 3 -0.001653 -0.004452 0.011794 -0.001496 0.000564 0.000236
# 4 0.001711 -0.000552 -0.001496 0.024323 0.003477 -0.000838
# 5 -0.001249 0.005158 0.000564 0.003477 0.034604 0.003909
# 6 -0.003759 0.000601 0.000236 -0.000838 0.003909 0.030352
#
#
# Mechanical properties :
#
#
# Convention : Reuss Voigt Hill
#
# Bulk Modulus (GPa) = 47.64109 53.25648 50.44878
# Shear Modulus (GPa) = 34.03082 37.41096 35.72089
#
# Velocity S-wave (km/s) = 3.81870 4.00386 3.91237
# Velocity P-wave (km/s) = 6.31331 6.64795 6.48279
#
# Compressibility (1/GPa) = 0.02099029
#
# Stress axis : x y z
#
# Youngs Moduli (GPa) = 77.74413 89.58557 84.78552
#
# Poissons Ratio (x) = 0.11741 0.14012
# Poissons Ratio (y) = 0.10189 0.37743
# Poissons Ratio (z) = 0.12848 0.39879
#
# Static dielectric constant tensor:
#      x y z
#    x -44.526110 -2.914910 -12.032620 
#    y -2.914910 3.924620 -0.725170 
#    z -12.032620 -0.725170 1.037850 
# 
# 
# High freq. dielectric constant tensor:
#      x y z
#    x 1.935810 -0.001580 0.002980 
#    y -0.001580 1.922590 0.001730 
#    z 0.002980 0.001730 1.932000 
# 
# From -- ./inp_files/400087.got.cif
#   From: 2010.06.25/outbox.cif.g09.slc.cpg/sg2_201_cif.got.tgz:400087.got - 2010.06.27 13:26:56.
