data_PCOD8027618
_publ_section_title
;
Structure prediction by ZEFSAII (Michael W. Deem and Ramdas Pophale) SiO2 
 PCOD8027618
Probable space group: P -1
;
_chemical_formula_sum "Si O2"
_cell_formula_units_Z 16
_cell_length_a 27.958441
_cell_length_b 12.990664
_cell_length_c 6.283923
_cell_angle_alpha 134.527188
_cell_angle_beta 127.330013
_cell_angle_gamma 24.525537
_cell_volume 671.552617
_symmetry_space_group_name_H-M "P -1"
_symmetry_group_IT_number 2
_symmetry_cell_setting 'triclinic'
loop_
_space_group_symop_operation_xyz
x,y,z
-x,-y,-z
loop_
_atom_site_type_symbol
_atom_site_label
_atom_site_fract_x
_atom_site_fract_y
_atom_site_fract_z
Si Si1 0.417082 0.197396 0.256160
Si Si2 0.925619 0.257382 0.818639
Si Si3 0.266063 0.754221 0.192984
Si Si4 0.251365 0.239551 0.235492
Si Si5 0.942837 0.732144 0.867028
Si Si6 0.866106 0.816501 0.223559
Si Si7 0.498437 0.777101 0.149584
Si Si8 0.215220 0.556906 0.934024
O O1 0.439693 0.308033 0.583879
O O2 0.437682 0.041273 0.269779
O O3 0.290485 0.447537 0.182659
O O4 0.500000 0.000000 0.000000
O O5 0.805685 0.550074 0.803930
O O6 0.002627 0.238628 0.047213
O O7 0.905091 0.227547 0.953648
O O8 0.000000 0.000000 0.500000
O O9 0.243022 0.867680 0.528954
O O10 0.402251 0.492934 0.127090
O O11 0.221901 0.677325 0.960357
O O12 0.189431 0.011066 0.199900
O O13 0.254380 0.331587 0.590610
O O14 0.384212 0.912452 0.072567
O O15 0.176090 0.250206 0.081470
O O16 0.930969 0.772443 0.151198
O O17 0.039481 0.401447 0.637636
#
# Coordination Sequence:
#
# PCOD8027618 Si02
#       8
#     2   2   2   2   2   2   2   2
#     4  11  20  39  64  96 134 176 204 255 334 390
#     4  11  24  39  67  99 133 165 219 280 317 379
#     4  12  25  39  70 101 128 173 218 268 322 390
#     4  11  24  44  64  99 131 173 219 264 325 387
#     4  10  24  46  66  90 131 176 225 261 325 387
#     4  10  25  47  68  88 133 180 217 268 326 381
#     4  11  23  38  67  99 131 168 215 265 320 395
#     4  12  24  39  70 100 133 168 214 267 330 382
#
# _framework density 23.825386000000002
#
# number of rings (size 3 to 8) (size 9 to 14) (size 15 to 20)
#    0.000    1.000    3.750    2.625    3.500    7.500 
#    0.000    0.625    0.000    0.000    0.000    0.000 
#    0.000    0.000    0.000    0.000    0.000    0.000 
#
# Total GULP energy -198235.656584 kJ/mol
# GULP energy per Si atom -12389.728537 kJ/mol
# Density = 2.377116 g / cm^3
# Si number density = 23.825386 Si / 1000 Ang^3
#
#
#
# Elastic Constant Matrix: (Units=GPa)
#
#
# Indices 1 2 3 4 5 6 
#
# 1 98.4870 25.9500 16.6988 13.5556 -12.1429 -19.9893
# 2 25.9500 128.3871 24.7790 3.9132 -2.7492 -18.3807
# 3 16.6988 24.7790 68.7997 27.3888 6.3451 -16.8090
# 4 13.5556 3.9132 27.3888 43.8807 -12.5969 -11.0608
# 5 -12.1429 -2.7492 6.3451 -12.5969 31.4193 5.5350
# 6 -19.9893 -18.3807 -16.8090 -11.0608 5.5350 32.7386
#
#
#
# Elastic Compliance Matrix: (Units=1/GPa)
#
#
# Indices 1 2 3 4 5 6 
#
# 1 0.012353 -0.001374 -0.001431 -0.000364 0.003871 0.005259
# 2 -0.001374 0.009162 -0.003580 0.003142 0.001682 0.003245
# 3 -0.001431 -0.003580 0.026535 -0.018265 -0.014793 0.007070
# 4 -0.000364 0.003142 -0.018265 0.040247 0.019526 0.002461
# 5 0.003871 0.001682 -0.014793 0.019526 0.045227 -0.005337
# 6 0.005259 0.003245 0.007070 0.002461 -0.005337 0.040942
#
#
# Mechanical properties :
#
#
# Convention : Reuss Voigt Hill
#
# Bulk Modulus (GPa) = 28.34381 47.83661 38.09021
# Shear Modulus (GPa) = 25.12631 36.82413 30.97522
#
# Velocity S-wave (km/s) = 3.25099 3.93566 3.60959
# Velocity P-wave (km/s) = 5.10041 6.38546 5.77877
#
# Compressibility (1/GPa) = 0.03528107
#
# Stress axis : x y z
#
# Youngs Moduli (GPa) = 80.95283 109.14294 37.68661
#
# Poissons Ratio (x) = 0.14994 0.05392
# Poissons Ratio (y) = 0.11121 0.13491
# Poissons Ratio (z) = 0.11582 0.39072
#
# Static dielectric constant tensor:
#      x y z
#    x 4.271690 -0.108240 -0.124180 
#    y -0.108240 4.639790 -0.099090 
#    z -0.124180 -0.099090 4.103710 
# 
# 
# High freq. dielectric constant tensor:
#      x y z
#    x 1.937280 -0.011130 -0.023070 
#    y -0.011130 1.952280 -0.002720 
#    z -0.023070 -0.002720 1.938670 
# 
# From -- ./inp_files/126952.got.cif
#   From: 2010.06.25/outbox.cif.g09.slc.cpg/sg2_64_cif.got.tgz:126952.got - 2010.06.27 13:26:56.
