data_PCOD8027678
_publ_section_title
;
Structure prediction by ZEFSAII (Michael W. Deem and Ramdas Pophale) SiO2 
 PCOD8027678
Probable space group: P -1
;
_chemical_formula_sum "Si O2"
_cell_formula_units_Z 14
_cell_length_a 18.530641
_cell_length_b 9.005638
_cell_length_c 11.885984
_cell_angle_alpha 61.231062
_cell_angle_beta 150.887814
_cell_angle_gamma 134.867896
_cell_volume 629.292511
_symmetry_space_group_name_H-M "P -1"
_symmetry_group_IT_number 2
_symmetry_cell_setting 'triclinic'
loop_
_space_group_symop_operation_xyz
x,y,z
-x,-y,-z
loop_
_atom_site_type_symbol
_atom_site_label
_atom_site_fract_x
_atom_site_fract_y
_atom_site_fract_z
Si Si1 0.572756 0.290570 0.654519
Si Si2 0.673221 0.145607 0.399712
Si Si3 0.792134 0.395576 0.702710
Si Si4 0.711875 0.680250 0.370470
Si Si5 0.305264 0.499560 0.818520
Si Si6 0.028560 0.828148 0.360618
Si Si7 0.189718 0.221660 0.117205
O O1 0.630497 0.236966 0.638282
O O2 0.373699 0.241200 0.378569
O O3 0.756175 0.549682 0.846435
O O4 0.521412 0.121079 0.748502
O O5 0.754465 0.252049 0.595209
O O6 0.603286 0.256605 0.195182
O O7 0.847685 0.189786 0.551437
O O8 0.778875 0.584586 0.582844
O O9 0.000000 0.500000 0.000000
O O10 0.760309 0.670139 0.311839
O O11 0.827234 0.939460 0.459801
O O12 0.474944 0.538002 0.110929
O O13 0.104103 0.384867 0.656470
O O14 0.864878 0.812007 0.075879
O O15 0.000000 0.000000 0.000000
#
# Coordination Sequence:
#
# PCOD8027678 Si02
#       7
#     2   2   2   2   2   2   2
#     4  11  24  43  67  99 139 181 217 277 342 397
#     4  11  25  43  65 103 138 173 227 276 333 397
#     4  11  24  45  68 100 138 175 223 280 339 399
#     4  10  24  46  70  96 129 178 230 273 333 404
#     4  10  24  48  66  95 137 178 226 272 332 401
#     4  12  23  41  72  98 132 178 225 279 331 394
#     4  11  23  41  70 101 136 172 227 275 336 407
#
# _framework density 22.247205000000001
#
# number of rings (size 3 to 8) (size 9 to 14) (size 15 to 20)
#    0.000    1.143    1.429    3.857    6.000    0.571 
#   15.429    0.000    0.000    0.000    0.000    0.000 
#    0.000    0.000    0.000    0.000    0.000    0.000 
#
# Total GULP energy -173594.740735 kJ/mol
# GULP energy per Si atom -12399.624338 kJ/mol
# Density = 2.219657 g / cm^3
# Si number density = 22.247205 Si / 1000 Ang^3
#
#
#
# Elastic Constant Matrix: (Units=GPa)
#
#
# Indices 1 2 3 4 5 6 
#
# 1 145.7843 76.5411 52.1094 16.5610 21.9492 14.3861
# 2 76.5411 120.9557 53.1802 9.8510 6.8650 3.3324
# 3 52.1094 53.1802 111.2059 1.0142 -0.7482 5.8898
# 4 16.5610 9.8510 1.0142 35.8172 4.2222 1.4548
# 5 21.9492 6.8650 -0.7482 4.2222 30.0677 3.4655
# 6 14.3861 3.3324 5.8898 1.4548 3.4655 31.9766
#
#
#
# Elastic Compliance Matrix: (Units=1/GPa)
#
#
# Indices 1 2 3 4 5 6 
#
# 1 0.012957 -0.006118 -0.002969 -0.003218 -0.007256 -0.003712
# 2 -0.006118 0.013782 -0.003809 -0.001068 0.001151 0.001942
# 3 -0.002969 -0.003809 0.012261 0.001734 0.003208 -0.000952
# 4 -0.003218 -0.001068 0.001734 0.029834 -0.001559 0.000051
# 5 -0.007256 0.001151 0.003208 -0.001559 0.038773 -0.001578
# 6 -0.003712 0.001942 -0.000952 0.000051 -0.001578 0.033085
#
#
# Mechanical properties :
#
#
# Convention : Reuss Voigt Hill
#
# Bulk Modulus (GPa) = 75.70860 82.40078 79.05469
# Shear Modulus (GPa) = 29.25930 32.64667 30.95298
#
# Velocity S-wave (km/s) = 3.63049 3.83489 3.73409
# Velocity P-wave (km/s) = 7.18877 7.53177 7.36227
#
# Compressibility (1/GPa) = 0.01320854
#
# Stress axis : x y z
#
# Youngs Moduli (GPa) = 77.17900 72.55910 81.55739
#
# Poissons Ratio (x) = 0.44390 0.24212
# Poissons Ratio (y) = 0.47216 0.31068
# Poissons Ratio (z) = 0.22912 0.27640
#
# Static dielectric constant tensor:
#      x y z
#    x 4.121890 0.021150 -0.230820 
#    y 0.021150 4.192410 -0.090100 
#    z -0.230820 -0.090100 3.735720 
# 
# 
# High freq. dielectric constant tensor:
#      x y z
#    x 1.890350 0.003690 -0.000130 
#    y 0.003690 1.877960 0.001030 
#    z -0.000130 0.001030 1.874200 
# 
# From -- ./inp_files/123545.got.cif
#   From: 2010.06.25/outbox.cif.g09.slc.cpg/sg2_62_cif.got.tgz:123545.got - 2010.06.27 13:26:56.
