data_PCOD8027363
_publ_section_title
;
Structure prediction by ZEFSAII (Michael W. Deem and Ramdas Pophale) SiO2 
 PCOD8027363
Probable space group: P -1
;
_chemical_formula_sum "Si O2"
_cell_formula_units_Z 16
_cell_length_a 11.634067
_cell_length_b 11.096628
_cell_length_c 14.003711
_cell_angle_alpha 65.013662
_cell_angle_beta 32.521326
_cell_angle_gamma 51.084904
_cell_volume 730.953139
_symmetry_space_group_name_H-M "P -1"
_symmetry_group_IT_number 2
_symmetry_cell_setting 'triclinic'
loop_
_space_group_symop_operation_xyz
x,y,z
-x,-y,-z
loop_
_atom_site_type_symbol
_atom_site_label
_atom_site_fract_x
_atom_site_fract_y
_atom_site_fract_z
Si Si1 0.799255 0.523082 0.800415
Si Si2 0.646099 0.744649 0.499784
Si Si3 0.526445 0.025933 0.621644
Si Si4 0.227351 0.166644 0.974050
Si Si5 0.699081 0.267824 0.010000
Si Si6 0.925869 0.043160 0.763547
Si Si7 0.538793 0.685617 0.116351
Si Si8 0.292346 0.642573 0.820602
O O1 0.607961 0.661096 0.811738
O O2 0.100086 0.430901 0.595903
O O3 0.742318 0.386972 0.880819
O O4 0.750924 0.603597 0.911647
O O5 0.671742 0.827666 0.359447
O O6 0.431573 0.707741 0.639287
O O7 0.580095 0.860370 0.598146
O O8 0.402354 0.047847 0.805151
O O9 0.784680 0.025805 0.448706
O O10 0.386143 0.228627 0.889981
O O11 0.964182 0.317830 0.065178
O O12 0.153634 0.084716 0.135163
O O13 0.781459 0.254353 0.065245
O O14 0.886542 0.097825 0.884001
O O15 0.741245 0.186812 0.772922
O O16 0.525309 0.547723 0.225016
#
# Coordination Sequence:
#
# PCOD8027363 Si02
#       8
#     2   2   2   2   2   2   2   2
#     4   9  18  37  62  85 126 160 202 260 314 362
#     4  11  22  39  61 101 130 159 210 263 325 373
#     4  11  24  39  66  96 132 163 205 269 311 383
#     4  12  25  44  65  91 128 176 214 248 317 374
#     4   9  18  35  62  91 119 162 200 260 321 363
#     4  11  22  44  67  94 127 165 213 260 317 376
#     4  10  24  45  64  89 127 172 213 262 302 374
#     4  11  23  39  65  96 127 167 210 262 316 374
#
# _framework density 21.889227000000002
#
# number of rings (size 3 to 8) (size 9 to 14) (size 15 to 20)
#    0.000    1.500    2.500    3.750    1.750    2.000 
#    6.750    1.250    0.000    0.000    0.000    0.000 
#    0.000    0.000    0.000    0.000    0.000    0.000 
#
# Total GULP energy -198356.746323 kJ/mol
# GULP energy per Si atom -12397.296645 kJ/mol
# Density = 2.183941 g / cm^3
# Si number density = 21.889227 Si / 1000 Ang^3
#
#
#
# Elastic Constant Matrix: (Units=GPa)
#
#
# Indices 1 2 3 4 5 6 
#
# 1 79.0256 18.9735 10.7033 2.1380 -9.4824 5.5423
# 2 18.9735 67.9506 23.6636 -6.4413 2.0237 -7.5498
# 3 10.7033 23.6636 79.2217 -2.3538 -16.0243 0.0276
# 4 2.1380 -6.4413 -2.3538 30.1901 -3.0332 -3.8721
# 5 -9.4824 2.0237 -16.0243 -3.0332 19.9530 1.9627
# 6 5.5423 -7.5498 0.0276 -3.8721 1.9627 32.2811
#
#
#
# Elastic Compliance Matrix: (Units=1/GPa)
#
#
# Indices 1 2 3 4 5 6 
#
# 1 0.015337 -0.005778 0.001467 -0.001889 0.009235 -0.004774
# 2 -0.005778 0.020362 -0.007371 0.003978 -0.010804 0.006894
# 3 0.001467 -0.007371 0.017953 0.000993 0.016295 -0.002863
# 4 -0.001889 0.003978 0.000993 0.035290 0.004347 0.005222
# 5 0.009235 -0.010804 0.016295 0.004347 0.070124 -0.007868
# 6 -0.004774 0.006894 -0.002863 0.005222 -0.007868 0.034517
#
#
# Mechanical properties :
#
#
# Convention : Reuss Voigt Hill
#
# Bulk Modulus (GPa) = 33.01616 36.98654 35.00135
# Shear Modulus (GPa) = 22.02237 28.00866 25.01551
#
# Velocity S-wave (km/s) = 3.17532 3.58098 3.38423
# Velocity P-wave (km/s) = 5.34412 5.83367 5.59425
#
# Compressibility (1/GPa) = 0.03028820
#
# Stress axis : x y z
#
# Youngs Moduli (GPa) = 65.20314 49.11181 55.70132
#
# Poissons Ratio (x) = 0.28376 -0.08174
# Poissons Ratio (y) = 0.37674 0.41058
# Poissons Ratio (z) = -0.09568 0.36200
#
# Static dielectric constant tensor:
#      x y z
#    x 3.851620 -0.166550 -0.206240 
#    y -0.166550 4.061590 0.132530 
#    z -0.206240 0.132530 3.818660 
# 
# 
# High freq. dielectric constant tensor:
#      x y z
#    x 1.851120 -0.010660 -0.016230 
#    y -0.010660 1.862250 0.001310 
#    z -0.016230 0.001310 1.845540 
# 
# From -- ./inp_files/518821.got.cif
#   From: 2010.06.25/outbox.cif.g09.slc.cpg/sg2_260_cif.got.tgz:518821.got - 2010.06.27 13:26:56.
