data_PCOD8027550
_publ_section_title
;
Structure prediction by ZEFSAII (Michael W. Deem and Ramdas Pophale) SiO2 
 PCOD8027550
Probable space group: P -1
;
_chemical_formula_sum "Si O2"
_cell_formula_units_Z 16
_cell_length_a 14.497062
_cell_length_b 11.267486
_cell_length_c 9.889642
_cell_angle_alpha 92.037211
_cell_angle_beta 95.503626
_cell_angle_gamma 152.262918
_cell_volume 722.646516
_symmetry_space_group_name_H-M "P -1"
_symmetry_group_IT_number 2
_symmetry_cell_setting 'triclinic'
loop_
_space_group_symop_operation_xyz
x,y,z
-x,-y,-z
loop_
_atom_site_type_symbol
_atom_site_label
_atom_site_fract_x
_atom_site_fract_y
_atom_site_fract_z
Si Si1 0.639440 0.139003 0.844269
Si Si2 0.563248 0.339008 0.241919
Si Si3 0.202516 0.706588 0.845023
Si Si4 0.049546 0.343569 0.598193
Si Si5 0.078974 0.426243 0.305853
Si Si6 0.684158 0.619163 0.022053
Si Si7 0.891411 0.801610 0.798337
Si Si8 0.315806 0.229023 0.382801
O O1 0.721898 0.284369 0.720549
O O2 0.589006 0.944669 0.805906
O O3 0.438798 0.984626 0.845718
O O4 0.806176 0.338073 0.998402
O O5 0.761429 0.534148 0.369962
O O6 0.650630 0.472650 0.113265
O O7 0.427877 0.291135 0.278323
O O8 0.073160 0.460780 0.732497
O O9 0.115645 0.738531 0.805253
O O10 0.064366 0.434660 0.464455
O O11 0.825466 0.023444 0.560365
O O12 0.093942 0.302926 0.285668
O O13 0.500000 0.500000 0.000000
O O14 0.711085 0.589853 0.877375
O O15 0.887994 0.927001 0.093322
O O16 0.841629 0.851370 0.692201
O O17 0.500000 0.500000 0.500000
#
# Coordination Sequence:
#
# PCOD8027550 Si02
#       8
#     2   2   2   2   2   2   2   2
#     4  10  25  44  71 104 132 182 236 284 347 408
#     4  11  24  45  75  97 143 181 233 292 346 411
#     4  10  24  45  71  99 137 184 230 287 342 412
#     4  11  26  46  70 101 141 187 232 290 343 418
#     4  12  26  42  69 100 144 179 231 283 345 413
#     4  11  24  44  71 101 139 183 228 292 352 407
#     4  11  27  41  68 107 138 179 235 285 345 424
#     4  12  26  45  69 100 140 187 235 282 352 413
#
# _framework density 22.140839
#
# number of rings (size 3 to 8) (size 9 to 14) (size 15 to 20)
#    0.000    1.000    2.500    2.250    8.750    5.000 
#    0.000    0.000    0.000    0.000    0.000    0.000 
#    0.000    0.000    0.000    0.000    0.000    0.000 
#
# Total GULP energy -198423.653635 kJ/mol
# GULP energy per Si atom -12401.478352 kJ/mol
# Density = 2.209045 g / cm^3
# Si number density = 22.140839 Si / 1000 Ang^3
#
#
#
# Elastic Constant Matrix: (Units=GPa)
#
#
# Indices 1 2 3 4 5 6 
#
# 1 110.3007 22.9870 8.9766 7.5060 3.9628 9.9124
# 2 22.9870 124.2841 55.1309 -10.6932 -1.5745 -2.2125
# 3 8.9766 55.1309 97.6127 -5.2005 2.0343 -4.7237
# 4 7.5060 -10.6932 -5.2005 40.1052 -4.4561 6.8067
# 5 3.9628 -1.5745 2.0343 -4.4561 37.5978 7.5074
# 6 9.9124 -2.2125 -4.7237 6.8067 7.5074 36.7835
#
#
#
# Elastic Compliance Matrix: (Units=1/GPa)
#
#
# Indices 1 2 3 4 5 6 
#
# 1 0.009872 -0.002093 0.000075 -0.002130 -0.000948 -0.002189
# 2 -0.002093 0.011421 -0.006153 0.002861 0.001443 -0.000363
# 3 0.000075 -0.006153 0.013809 -0.000312 -0.001394 0.001725
# 4 -0.002130 0.002861 -0.000312 0.027481 0.004684 -0.005335
# 5 -0.000948 0.001443 -0.001394 0.004684 0.028698 -0.006561
# 6 -0.002189 -0.000363 0.001725 -0.005335 -0.006561 0.030302
#
#
# Mechanical properties :
#
#
# Convention : Reuss Voigt Hill
#
# Bulk Modulus (GPa) = 53.30947 56.26516 54.78731
# Shear Modulus (GPa) = 34.67916 39.23749 36.95832
#
# Velocity S-wave (km/s) = 3.96194 4.21429 4.09006
# Velocity P-wave (km/s) = 6.71260 7.01055 6.86320
#
# Compressibility (1/GPa) = 0.01875839
#
# Stress axis : x y z
#
# Youngs Moduli (GPa) = 101.29672 87.56092 72.41751
#
# Poissons Ratio (x) = 0.18329 -0.00541
# Poissons Ratio (y) = 0.21204 0.44559
# Poissons Ratio (z) = -0.00757 0.53876
#
# Static dielectric constant tensor:
#      x y z
#    x 4.422620 0.741890 -0.027000 
#    y 0.741890 4.997860 -0.198120 
#    z -0.027000 -0.198120 4.109580 
# 
# 
# High freq. dielectric constant tensor:
#      x y z
#    x 1.885690 0.010670 0.002500 
#    y 0.010670 1.873810 -0.007240 
#    z 0.002500 -0.007240 1.870410 
# 
# From -- ./inp_files/307589.got.cif
#   From: 2010.06.25/outbox.cif.g09.slc.cpg/sg2_154_cif.got.tgz:307589.got - 2010.06.27 13:26:56.
