data_PCOD8027993
_publ_section_title
;
Structure prediction by ZEFSAII (Michael W. Deem and Ramdas Pophale) SiO2 
 PCOD8027993
Probable space group: P -1
;
_chemical_formula_sum "Si O2"
_cell_formula_units_Z 14
_cell_length_a 16.679568
_cell_length_b 14.091784
_cell_length_c 10.626235
_cell_angle_alpha 28.110703
_cell_angle_beta 49.003700
_cell_angle_gamma 34.444736
_cell_volume 641.306906
_symmetry_space_group_name_H-M "P -1"
_symmetry_group_IT_number 2
_symmetry_cell_setting 'triclinic'
loop_
_space_group_symop_operation_xyz
x,y,z
-x,-y,-z
loop_
_atom_site_type_symbol
_atom_site_label
_atom_site_fract_x
_atom_site_fract_y
_atom_site_fract_z
Si Si1 0.066860 0.203253 0.602848
Si Si2 0.016210 0.833720 0.003461
Si Si3 0.416888 0.064180 0.702362
Si Si4 0.277562 0.855744 0.201654
Si Si5 0.631197 0.692896 0.275752
Si Si6 0.113914 0.367940 0.925554
Si Si7 0.282759 0.246789 0.357050
O O1 0.231813 0.080385 0.588245
O O2 0.962705 0.488614 0.296986
O O3 0.079501 0.973623 0.791161
O O4 0.990283 0.282163 0.724510
O O5 0.136280 0.568145 0.102670
O O6 0.855157 0.051970 0.855111
O O7 0.593053 0.855322 0.751357
O O8 0.365558 0.293746 0.590921
O O9 0.338410 0.223105 0.467551
O O10 0.377156 0.890093 0.988513
O O11 0.380369 0.523585 0.506753
O O12 0.211845 0.037084 0.186847
O O13 0.782382 0.585595 0.192242
O O14 0.500000 0.000000 0.000000
O O15 0.000000 0.500000 0.000000
#
# Coordination Sequence:
#
# PCOD8027993 Si02
#       7
#     2   2   2   2   2   2   2
#     4  11  22  38  67 101 131 166 211 274 330 384
#     4  11  21  37  71 100 125 169 219 266 340 380
#     4  10  25  41  64  97 135 172 218 261 329 393
#     4  11  22  45  69  93 128 174 218 274 327 389
#     4  11  26  46  65  90 131 180 220 267 323 391
#     4  11  25  43  66 101 131 167 221 270 322 396
#     4  11  22  40  64 100 137 168 207 275 325 390
#
# _framework density 21.830421999999999
#
# number of rings (size 3 to 8) (size 9 to 14) (size 15 to 20)
#    0.000    1.143    4.286    2.143    4.000    4.000 
#    2.571    2.857    0.000    0.000    0.000    0.000 
#    0.000    0.000    0.000    0.000    0.000    0.000 
#
# Total GULP energy -173596.736230 kJ/mol
# GULP energy per Si atom -12399.766874 kJ/mol
# Density = 2.178073 g / cm^3
# Si number density = 21.830422 Si / 1000 Ang^3
#
#
#
# Elastic Constant Matrix: (Units=GPa)
#
#
# Indices 1 2 3 4 5 6 
#
# 1 78.7968 36.1498 20.3234 2.4001 -30.5060 -16.0046
# 2 36.1498 152.6112 42.2968 -2.1735 -26.3299 -21.6361
# 3 20.3234 42.2968 101.3521 -13.8653 -26.6600 2.2375
# 4 2.4001 -2.1735 -13.8653 16.8655 0.9611 -0.9658
# 5 -30.5060 -26.3299 -26.6600 0.9611 45.5703 0.1656
# 6 -16.0046 -21.6361 2.2375 -0.9658 0.1656 38.9475
#
#
#
# Elastic Compliance Matrix: (Units=1/GPa)
#
#
# Indices 1 2 3 4 5 6 
#
# 1 0.019803 -0.001389 -0.000963 -0.004053 0.011950 0.007270
# 2 -0.001389 0.008727 -0.002973 -0.001004 0.002378 0.004413
# 3 -0.000963 -0.002973 0.014418 0.011124 0.005848 -0.002624
# 4 -0.004053 -0.001004 0.011124 0.068717 0.001769 -0.001166
# 5 0.011950 0.002378 0.005848 0.001769 0.034681 0.005792
# 6 0.007270 0.004413 -0.002624 -0.001166 0.005792 0.031212
#
#
# Mechanical properties :
#
#
# Convention : Reuss Voigt Hill
#
# Bulk Modulus (GPa) = 30.96118 58.92223 44.94170
# Shear Modulus (GPa) = 25.12895 35.87603 30.50249
#
# Velocity S-wave (km/s) = 3.39646 4.05828 3.74203
# Velocity P-wave (km/s) = 5.44010 7.00064 6.26912
#
# Compressibility (1/GPa) = 0.03229851
#
# Stress axis : x y z
#
# Youngs Moduli (GPa) = 50.49763 114.58303 69.35699
#
# Poissons Ratio (x) = 0.15920 0.06678
# Poissons Ratio (y) = 0.07016 0.20618
# Poissons Ratio (z) = 0.04862 0.34062
#
# Static dielectric constant tensor:
#      x y z
#    x 4.268120 -0.204030 -0.157810 
#    y -0.204030 3.939710 -0.007390 
#    z -0.157810 -0.007390 3.737550 
# 
# 
# High freq. dielectric constant tensor:
#      x y z
#    x 1.875940 -0.014370 -0.010260 
#    y -0.014370 1.852970 -0.006070 
#    z -0.010260 -0.006070 1.840310 
# 
# From -- ./inp_files/277352.got.cif
#   From: 2010.06.25/outbox.cif.g09.slc.cpg/sg2_139_cif.got.tgz:277352.got - 2010.06.27 13:26:56.
