data_PCOD8027368
_publ_section_title
;
Structure prediction by ZEFSAII (Michael W. Deem and Ramdas Pophale) SiO2 
 PCOD8027368
Probable space group: P -1
;
_chemical_formula_sum "Si O2"
_cell_formula_units_Z 14
_cell_length_a 8.784317
_cell_length_b 20.456768
_cell_length_c 9.139789
_cell_angle_alpha 27.031729
_cell_angle_beta 49.852397
_cell_angle_gamma 51.190162
_cell_volume 564.042729
_symmetry_space_group_name_H-M "P -1"
_symmetry_group_IT_number 2
_symmetry_cell_setting 'triclinic'
loop_
_space_group_symop_operation_xyz
x,y,z
-x,-y,-z
loop_
_atom_site_type_symbol
_atom_site_label
_atom_site_fract_x
_atom_site_fract_y
_atom_site_fract_z
Si Si1 0.028695 0.248695 0.843357
Si Si2 0.621827 0.357844 0.549714
Si Si3 0.364922 0.867841 0.763678
Si Si4 0.129178 0.164604 0.267830
Si Si5 0.806199 0.527973 0.325804
Si Si6 0.377167 0.141469 0.637113
Si Si7 0.309347 0.835563 0.373003
O O1 0.156793 0.209567 0.693731
O O2 0.969329 0.424061 0.529501
O O3 0.157388 0.194535 0.016653
O O4 0.826939 0.176819 0.112857
O O5 0.782249 0.449444 0.340358
O O6 0.404809 0.457855 0.483559
O O7 0.687412 0.305816 0.450372
O O8 0.605713 0.210369 0.943652
O O9 0.570522 0.820003 0.638682
O O10 0.312036 0.044970 0.454932
O O11 0.917131 0.109542 0.539832
O O12 0.126995 0.315922 0.053251
O O13 0.545003 0.207822 0.494674
O O14 0.395211 0.967119 0.977831
#
# Coordination Sequence:
#
# PCOD8027368 Si02
#       7
#     2   2   2   2   2   2   2
#     4  11  22  44  67 102 132 173 217 280 321 398
#     4  10  24  48  65  94 136 177 222 266 329 396
#     4  11  23  43  72  99 131 172 220 279 327 385
#     4  12  22  41  70 101 134 170 222 276 330 382
#     4  10  24  45  65  89 139 181 214 269 328 394
#     4  11  22  41  71 101 129 169 223 277 330 381
#     4  11  23  40  68 101 133 170 221 276 327 392
#
# _framework density 24.820815
#
# number of rings (size 3 to 8) (size 9 to 14) (size 15 to 20)
#    0.000    1.143    2.857    4.286    0.000    3.429 
#   12.857    1.429    0.000    0.000    0.000    0.000 
#    0.000    0.000    0.000    0.000    0.000    0.000 
#
# Total GULP energy -173598.374496 kJ/mol
# GULP energy per Si atom -12399.883893 kJ/mol
# Density = 2.476432 g / cm^3
# Si number density = 24.820815 Si / 1000 Ang^3
#
#
#
# Elastic Constant Matrix: (Units=GPa)
#
#
# Indices 1 2 3 4 5 6 
#
# 1 14.0600 30.7690 14.0281 5.1717 -0.0213 12.5036
# 2 30.7690 131.6527 36.0184 -2.8960 0.6462 1.1309
# 3 14.0281 36.0184 87.9731 -12.1814 -6.7040 4.5365
# 4 5.1717 -2.8960 -12.1814 44.9980 -9.9289 -5.8614
# 5 -0.0213 0.6462 -6.7040 -9.9289 37.1674 -11.4677
# 6 12.5036 1.1309 4.5365 -5.8614 -11.4677 42.0023
#
#
#
# Elastic Compliance Matrix: (Units=1/GPa)
#
#
# Indices 1 2 3 4 5 6 
#
# 1 2.819477 -0.581602 -0.296383 -0.698129 -0.548781 -1.038908
# 2 -0.581602 0.128569 0.057450 0.143299 0.112128 0.214080
# 3 -0.296383 0.057450 0.044911 0.077743 0.061475 0.109465
# 4 -0.698129 0.143299 0.077743 0.199099 0.145490 0.263076
# 5 -0.548781 0.112128 0.061475 0.145490 0.140087 0.212257
# 6 -1.038908 0.214080 0.109465 0.263076 0.212257 0.410155
#
#
# Mechanical properties :
#
#
# Convention : Reuss Voigt Hill
#
# Bulk Modulus (GPa) = 0.73971 43.92409 22.33190
# Shear Modulus (GPa) = 0.85705 35.02490 17.94097
#
# Velocity S-wave (km/s) = 0.58825 3.76055 2.69145
# Velocity P-wave (km/s) = 0.87181 6.04901 4.32149
#
# Compressibility (1/GPa) = 1.35188677
#
# Stress axis : x y z
#
# Youngs Moduli (GPa) = 0.35468 7.77790 22.26604
#
# Poissons Ratio (x) = 4.52364 6.59927
# Poissons Ratio (y) = 0.20628 -1.27917
# Poissons Ratio (z) = 0.10512 -0.44684
#
# Static dielectric constant tensor:
#      x y z
#    x 4.423230 -0.060620 -0.144440 
#    y -0.060620 4.361480 -0.204610 
#    z -0.144440 -0.204610 4.237430 
# 
# 
# High freq. dielectric constant tensor:
#      x y z
#    x 1.990470 -0.001310 -0.015490 
#    y -0.001310 1.990660 -0.010270 
#    z -0.015490 -0.010270 1.971420 
# 
# From -- ./inp_files/222809.got.cif
#   From: 2010.06.25/outbox.cif.g09.slc.cpg/sg2_112_cif.got.tgz:222809.got - 2010.06.27 13:26:56.
