data_PCOD8027503
_publ_section_title
;
Structure prediction by ZEFSAII (Michael W. Deem and Ramdas Pophale) SiO2 
 PCOD8027503
Probable space group: P -1
;
_chemical_formula_sum "Si O2"
_cell_formula_units_Z 14
_cell_length_a 9.174458
_cell_length_b 10.368369
_cell_length_c 8.138100
_cell_angle_alpha 54.146534
_cell_angle_beta 78.259209
_cell_angle_gamma 87.712479
_cell_volume 611.246083
_symmetry_space_group_name_H-M "P -1"
_symmetry_group_IT_number 2
_symmetry_cell_setting 'triclinic'
loop_
_space_group_symop_operation_xyz
x,y,z
-x,-y,-z
loop_
_atom_site_type_symbol
_atom_site_label
_atom_site_fract_x
_atom_site_fract_y
_atom_site_fract_z
Si Si1 0.994991 0.471891 0.714806
Si Si2 0.831028 0.746062 0.972501
Si Si3 0.302185 0.690330 0.110658
Si Si4 0.449664 0.502189 0.824117
Si Si5 0.117989 0.938842 0.146438
Si Si6 0.385656 0.841086 0.642267
Si Si7 0.931027 0.204920 0.399012
O O1 0.821645 0.445618 0.830043
O O2 0.000000 0.500000 0.500000
O O3 0.083907 0.609130 0.699816
O O4 0.063924 0.308641 0.864426
O O5 0.930384 0.804542 0.747715
O O6 0.768908 0.906098 0.940441
O O7 0.707567 0.602783 0.071618
O O8 0.428874 0.588949 0.241537
O O9 0.221828 0.802493 0.170884
O O10 0.373049 0.798298 0.867994
O O11 0.441759 0.689852 0.638971
O O12 0.500000 0.500000 0.000000
O O13 0.027888 0.875700 0.378111
O O14 0.000000 0.000000 0.000000
O O15 0.225002 0.876050 0.580281
O O16 0.500000 0.000000 0.500000
#
# Coordination Sequence:
#
# PCOD8027503 Si02
#       7
#     2   2   2   2   2   2   2
#     4  12  22  45  72 102 141 183 234 296 354 417
#     4  12  24  45  75 103 138 190 245 290 345 428
#     4  11  24  48  67 101 155 182 228 299 354 420
#     4  10  24  45  70 102 143 184 234 291 358 419
#     4  12  25  45  66 106 146 181 234 297 360 410
#     4  11  24  46  71 106 140 185 239 292 352 423
#     4  12  23  43  76 103 135 187 245 294 349 421
#
# _framework density 22.904029999999999
#
# number of rings (size 3 to 8) (size 9 to 14) (size 15 to 20)
#    0.000    0.571    5.714    2.571    4.000    0.571 
#    7.714    1.429    0.000    0.000    0.000    0.000 
#    0.000    0.000    0.000    0.000    0.000    0.000 
#
# Total GULP energy -173440.614841 kJ/mol
# GULP energy per Si atom -12388.615346 kJ/mol
# Density = 2.285190 g / cm^3
# Si number density = 22.904030 Si / 1000 Ang^3
#
#
#
# Elastic Constant Matrix: (Units=GPa)
#
#
# Indices 1 2 3 4 5 6 
#
# 1 137.9819 61.1045 51.5700 -13.9901 -15.9187 -1.9960
# 2 61.1045 155.4670 43.3319 -27.0701 -13.4080 -6.3618
# 3 51.5700 43.3319 120.1736 -12.0259 -5.2110 2.6953
# 4 -13.9901 -27.0701 -12.0259 32.8302 12.5592 -4.3105
# 5 -15.9187 -13.4080 -5.2110 12.5592 35.5608 -13.4710
# 6 -1.9960 -6.3618 2.6953 -4.3105 -13.4710 40.1527
#
#
#
# Elastic Compliance Matrix: (Units=1/GPa)
#
#
# Indices 1 2 3 4 5 6 
#
# 1 0.010088 -0.002744 -0.003250 -0.000375 0.003700 0.001486
# 2 -0.002744 0.009111 -0.001547 0.005766 0.000816 0.002304
# 3 -0.003250 -0.001547 0.010394 0.001578 -0.001634 -0.001483
# 4 -0.000375 0.005766 0.001578 0.040189 -0.011482 0.001251
# 5 0.003700 0.000816 -0.001634 -0.011482 0.038485 0.012102
# 6 0.001486 0.002304 -0.001483 0.001251 0.012102 0.029638
#
#
# Mechanical properties :
#
#
# Convention : Reuss Voigt Hill
#
# Bulk Modulus (GPa) = 68.91535 80.62611 74.77073
# Shear Modulus (GPa) = 31.68114 38.88317 35.28215
#
# Velocity S-wave (km/s) = 3.72319 4.12473 3.92909
# Velocity P-wave (km/s) = 6.97402 7.61332 7.30067
#
# Compressibility (1/GPa) = 0.01451055
#
# Stress axis : x y z
#
# Youngs Moduli (GPa) = 99.13178 109.76132 96.21119
#
# Poissons Ratio (x) = 0.30123 0.31266
# Poissons Ratio (y) = 0.27206 0.14880
# Poissons Ratio (z) = 0.32215 0.16976
#
# Static dielectric constant tensor:
#      x y z
#    x 4.729030 -0.413460 -0.169700 
#    y -0.413460 4.556240 -0.730510 
#    z -0.169700 -0.730510 3.441960 
# 
# 
# High freq. dielectric constant tensor:
#      x y z
#    x 1.895460 0.003870 0.006290 
#    y 0.003870 1.922930 -0.021630 
#    z 0.006290 -0.021630 1.900860 
# 
# From -- ./inp_files/184113.got.cif
#   From: 2010.06.25/outbox.cif.g09.slc.cpg/sg2_93_cif.got.tgz:184113.got - 2010.06.27 13:26:56.
