data_PCOD8027665
_publ_section_title
;
Structure prediction by ZEFSAII (Michael W. Deem and Ramdas Pophale) SiO2 
 PCOD8027665
Probable space group: P -1
;
_chemical_formula_sum "Si O2"
_cell_formula_units_Z 16
_cell_length_a 20.133167
_cell_length_b 8.479292
_cell_length_c 11.905971
_cell_angle_alpha 53.681691
_cell_angle_beta 37.822020
_cell_angle_gamma 34.845455
_cell_volume 702.971372
_symmetry_space_group_name_H-M "P -1"
_symmetry_group_IT_number 2
_symmetry_cell_setting 'triclinic'
loop_
_space_group_symop_operation_xyz
x,y,z
-x,-y,-z
loop_
_atom_site_type_symbol
_atom_site_label
_atom_site_fract_x
_atom_site_fract_y
_atom_site_fract_z
Si Si1 0.693478 0.216849 0.488473
Si Si2 0.559310 0.001064 0.718227
Si Si3 0.799934 0.362769 0.708732
Si Si4 0.058806 0.138938 0.875298
Si Si5 0.150597 0.991459 0.401099
Si Si6 0.225324 0.238860 0.049408
Si Si7 0.783999 0.026766 0.036023
Si Si8 0.533402 0.155062 0.453738
O O1 0.614089 0.529277 0.440508
O O2 0.576600 0.185195 0.684618
O O3 0.784363 0.040164 0.329126
O O4 0.808071 0.102677 0.486721
O O5 0.664958 0.696971 0.761141
O O6 0.624166 0.962173 0.523265
O O7 0.381068 0.165140 0.878013
O O8 0.965923 0.253242 0.530292
O O9 0.782412 0.271890 0.652691
O O10 0.786294 0.236013 0.886742
O O11 0.926320 0.437586 0.869106
O O12 0.085048 0.156969 0.964575
O O13 0.000000 0.000000 0.000000
O O14 0.232196 0.082549 0.210617
O O15 0.197121 0.164508 0.001285
O O16 0.620951 0.197946 0.241023
O O17 0.500000 0.000000 0.500000
#
# Coordination Sequence:
#
# PCOD8027665 Si02
#       8
#     2   2   2   2   2   2   2   2
#     4  12  27  45  71 104 144 188 226 289 362 416
#     4  12  25  44  71 106 144 182 230 289 359 414
#     4  10  24  47  73 103 138 187 238 289 344 415
#     4  12  26  44  69 101 146 181 234 292 351 418
#     4  10  24  46  70 100 143 186 238 284 344 422
#     4  11  26  45  71 104 137 191 240 286 343 415
#     4  11  25  45  76 103 138 188 241 290 342 418
#     4  12  25  46  74 105 140 184 236 291 346 421
#
# _framework density 22.760528999999998
#
# number of rings (size 3 to 8) (size 9 to 14) (size 15 to 20)
#    0.000    0.750    2.500    3.750    3.500    4.500 
#    4.500    0.000    0.000    0.000    0.000    0.000 
#    0.000    0.000    0.000    0.000    0.000    0.000 
#
# Total GULP energy -198367.460398 kJ/mol
# GULP energy per Si atom -12397.966275 kJ/mol
# Density = 2.270872 g / cm^3
# Si number density = 22.760529 Si / 1000 Ang^3
#
#
#
# Elastic Constant Matrix: (Units=GPa)
#
#
# Indices 1 2 3 4 5 6 
#
# 1 89.6674 27.7345 27.7829 -14.7210 -18.4224 0.2085
# 2 27.7345 122.8027 26.2567 -1.7863 -16.3370 10.0757
# 3 27.7829 26.2567 118.7389 -8.1035 -9.2305 3.3198
# 4 -14.7210 -1.7863 -8.1035 28.7527 -2.2136 2.2674
# 5 -18.4224 -16.3370 -9.2305 -2.2136 40.0915 -8.1484
# 6 0.2085 10.0757 3.3198 2.2674 -8.1484 25.8855
#
#
#
# Elastic Compliance Matrix: (Units=1/GPa)
#
#
# Indices 1 2 3 4 5 6 
#
# 1 0.014971 -0.002171 -0.002098 0.007244 0.006394 0.002372
# 2 -0.002171 0.009407 -0.001382 -0.000547 0.001915 -0.002816
# 3 -0.002098 -0.001382 0.009389 0.001580 0.000600 -0.000599
# 4 0.007244 -0.000547 0.001580 0.039451 0.005273 -0.001844
# 5 0.006394 0.001915 0.000600 0.005273 0.030789 0.008356
# 6 0.002372 -0.002816 -0.000599 -0.001844 0.008356 0.042577
#
#
# Mechanical properties :
#
#
# Convention : Reuss Voigt Hill
#
# Bulk Modulus (GPa) = 44.51229 54.97303 49.74266
# Shear Modulus (GPa) = 30.23431 35.57495 32.90463
#
# Velocity S-wave (km/s) = 3.64863 3.95778 3.80635
# Velocity P-wave (km/s) = 6.11140 6.71495 6.42027
#
# Compressibility (1/GPa) = 0.02246571
#
# Stress axis : x y z
#
# Youngs Moduli (GPa) = 66.79452 106.30600 106.50228
#
# Poissons Ratio (x) = 0.23082 0.22342
# Poissons Ratio (y) = 0.14503 0.14717
# Poissons Ratio (z) = 0.14012 0.14690
#
# Static dielectric constant tensor:
#      x y z
#    x 4.245990 -0.003300 -0.090000 
#    y -0.003300 3.891040 -0.282930 
#    z -0.090000 -0.282930 4.183970 
# 
# 
# High freq. dielectric constant tensor:
#      x y z
#    x 1.914000 0.002190 -0.006310 
#    y 0.002190 1.892400 -0.013480 
#    z -0.006310 -0.013480 1.907690 
# 
# From -- ./inp_files/187786.got.cif
#   From: 2010.06.25/outbox.cif.g09.slc.cpg/sg2_94_cif.got.tgz:187786.got - 2010.06.27 13:26:56.
