data_PCOD8027561
_publ_section_title
;
Structure prediction by ZEFSAII (Michael W. Deem and Ramdas Pophale) SiO2 
 PCOD8027561
Probable space group: P -1
;
_chemical_formula_sum "Si O2"
_cell_formula_units_Z 14
_cell_length_a 11.087931
_cell_length_b 11.610670
_cell_length_c 11.821638
_cell_angle_alpha 46.144034
_cell_angle_beta 34.159743
_cell_angle_gamma 49.751631
_cell_volume 606.162349
_symmetry_space_group_name_H-M "P -1"
_symmetry_group_IT_number 2
_symmetry_cell_setting 'triclinic'
loop_
_space_group_symop_operation_xyz
x,y,z
-x,-y,-z
loop_
_atom_site_type_symbol
_atom_site_label
_atom_site_fract_x
_atom_site_fract_y
_atom_site_fract_z
Si Si1 0.153728 0.143147 0.189510
Si Si2 0.260161 0.732844 0.692060
Si Si3 0.530648 0.093003 0.766174
Si Si4 0.561076 0.810355 0.586198
Si Si5 0.018563 0.630538 0.301380
Si Si6 0.204404 0.446955 0.059112
Si Si7 0.431294 0.769244 0.955556
O O1 0.082784 0.297494 0.222761
O O2 0.957200 0.135472 0.259580
O O3 0.228699 0.978779 0.317043
O O4 0.368434 0.173296 0.934496
O O5 0.442289 0.762478 0.439255
O O6 0.351922 0.753990 0.731113
O O7 0.208408 0.551570 0.868389
O O8 0.427903 0.949056 0.885374
O O9 0.580732 0.746749 0.742444
O O10 0.785320 0.747964 0.388615
O O11 0.500000 0.000000 0.500000
O O12 0.073715 0.548811 0.192461
O O13 0.000000 0.500000 0.500000
O O14 0.188716 0.742611 0.134335
O O15 0.453148 0.371777 0.954048
#
# Coordination Sequence:
#
# PCOD8027561 Si02
#       7
#     2   2   2   2   2   2   2
#     4  10  25  48  65  97 137 181 230 278 336 405
#     4  12  24  42  70  96 141 171 228 283 337 397
#     4  10  24  45  72  98 130 180 231 278 345 405
#     4  12  26  42  68 108 137 177 230 281 345 411
#     4  12  25  44  72 101 140 186 222 274 357 404
#     4  11  24  46  69 101 139 179 230 283 331 421
#     4  11  23  46  70 101 141 173 229 284 341 409
#
# _framework density 23.096124
#
# number of rings (size 3 to 8) (size 9 to 14) (size 15 to 20)
#    0.000    0.857    4.286    2.143    4.000    1.143 
#   10.286    0.000    0.000    0.000    0.000    0.000 
#    0.000    0.000    0.000    0.000    0.000    0.000 
#
# Total GULP energy -173565.698788 kJ/mol
# GULP energy per Si atom -12397.549913 kJ/mol
# Density = 2.304356 g / cm^3
# Si number density = 23.096124 Si / 1000 Ang^3
#
#
#
# Elastic Constant Matrix: (Units=GPa)
#
#
# Indices 1 2 3 4 5 6 
#
# 1 107.9298 32.5859 27.2931 11.2598 -5.5782 -12.3421
# 2 32.5859 96.2415 40.3689 9.5684 1.8867 -8.0172
# 3 27.2931 40.3689 82.9150 -6.9357 15.1411 -11.2737
# 4 11.2598 9.5684 -6.9357 33.4533 -14.2762 7.1309
# 5 -5.5782 1.8867 15.1411 -14.2762 48.3136 -1.8349
# 6 -12.3421 -8.0172 -11.2737 7.1309 -1.8349 32.3176
#
#
#
# Elastic Compliance Matrix: (Units=1/GPa)
#
#
# Indices 1 2 3 4 5 6 
#
# 1 0.011542 -0.001977 -0.002880 -0.004235 0.001210 0.003916
# 2 -0.001977 0.014491 -0.006574 -0.005307 -0.000237 0.001705
# 3 -0.002880 -0.006574 0.017649 0.004201 -0.004280 0.002256
# 4 -0.004235 -0.005307 0.004201 0.039983 0.009847 -0.009732
# 5 0.001210 -0.000237 -0.004280 0.009847 0.025028 -0.001842
# 6 0.003916 0.001705 0.002256 -0.009732 -0.001842 0.035691
#
#
# Mechanical properties :
#
#
# Convention : Reuss Voigt Hill
#
# Bulk Modulus (GPa) = 48.02470 54.17580 51.10025
# Shear Modulus (GPa) = 28.70496 35.27279 31.98888
#
# Velocity S-wave (km/s) = 3.52923 3.91220 3.72564
# Velocity P-wave (km/s) = 6.11930 6.62682 6.37811
#
# Compressibility (1/GPa) = 0.02082262
#
# Stress axis : x y z
#
# Youngs Moduli (GPa) = 86.63644 69.00652 56.66150
#
# Poissons Ratio (x) = 0.13640 0.16317
# Poissons Ratio (y) = 0.17124 0.37247
# Poissons Ratio (z) = 0.24949 0.45362
#
# Static dielectric constant tensor:
#      x y z
#    x 4.329790 -0.165870 0.159410 
#    y -0.165870 4.046690 -0.034550 
#    z 0.159410 -0.034550 4.386540 
# 
# 
# High freq. dielectric constant tensor:
#      x y z
#    x 1.927810 -0.009000 0.006340 
#    y -0.009000 1.903030 -0.009590 
#    z 0.006340 -0.009590 1.910130 
# 
# From -- ./inp_files/61052.got.cif
#   From: 2010.06.25/outbox.cif.g09.slc.cpg/sg2_31_cif.got.tgz:61052.got - 2010.06.27 13:26:56.
