data_PCOD8027478
_publ_section_title
;
Structure prediction by ZEFSAII (Michael W. Deem and Ramdas Pophale) SiO2 
 PCOD8027478
Probable space group: P -1
;
_chemical_formula_sum "Si O2"
_cell_formula_units_Z 14
_cell_length_a 9.277824
_cell_length_b 6.712953
_cell_length_c 21.173270
_cell_angle_alpha 79.930808
_cell_angle_beta 145.524372
_cell_angle_gamma 82.432327
_cell_volume 638.645066
_symmetry_space_group_name_H-M "P -1"
_symmetry_group_IT_number 2
_symmetry_cell_setting 'triclinic'
loop_
_space_group_symop_operation_xyz
x,y,z
-x,-y,-z
loop_
_atom_site_type_symbol
_atom_site_label
_atom_site_fract_x
_atom_site_fract_y
_atom_site_fract_z
Si Si1 0.388314 0.368372 0.421243
Si Si2 0.491947 0.723910 0.788536
Si Si3 0.503360 0.033358 0.099003
Si Si4 0.323694 0.780272 0.133368
Si Si5 0.567634 0.063350 0.711426
Si Si6 0.820790 0.880210 0.547128
Si Si7 0.980119 0.829118 0.185229
O O1 0.500000 0.500000 0.500000
O O2 0.195249 0.281423 0.394739
O O3 0.196628 0.554396 0.288280
O O4 0.652652 0.149736 0.493231
O O5 0.553439 0.786276 0.876227
O O6 0.697109 0.449052 0.871193
O O7 0.150953 0.806508 0.653610
O O8 0.600875 0.828856 0.766611
O O9 0.515093 0.802944 0.145148
O O10 0.814855 0.950476 0.183585
O O11 0.241383 0.160644 0.948196
O O12 0.486257 0.759742 0.259965
O O13 0.000000 0.000000 0.000000
O O14 0.309482 0.165262 0.561437
O O15 0.861841 0.023875 0.784966
#
# Coordination Sequence:
#
# PCOD8027478 Si02
#       7
#     2   2   2   2   2   2   2
#     4  11  23  41  70  97 139 172 218 280 325 389
#     4  11  26  44  68  98 137 176 217 279 326 400
#     4  10  24  45  69  98 136 169 229 271 329 399
#     4  11  24  46  68  98 132 178 219 271 336 392
#     4  11  25  43  68 100 135 173 225 269 332 398
#     4  11  25  43  66 103 129 180 224 265 338 392
#     4  11  22  46  69 100 132 178 220 277 330 389
#
# _framework density 21.921406999999999
#
# number of rings (size 3 to 8) (size 9 to 14) (size 15 to 20)
#    0.000    1.143    2.857    2.143    4.000    5.143 
#    0.000    2.143    0.000    0.000    0.000    0.000 
#    0.000    0.000    0.000    0.000    0.000    0.000 
#
# Total GULP energy -173616.589690 kJ/mol
# GULP energy per Si atom -12401.184978 kJ/mol
# Density = 2.187151 g / cm^3
# Si number density = 21.921407 Si / 1000 Ang^3
#
#
#
# Elastic Constant Matrix: (Units=GPa)
#
#
# Indices 1 2 3 4 5 6 
#
# 1 163.6936 51.6577 47.2904 -15.6880 2.0451 28.4284
# 2 51.6577 117.6524 37.5143 -24.3219 4.0273 20.1783
# 3 47.2904 37.5143 94.0678 -5.8650 5.4115 1.4680
# 4 -15.6880 -24.3219 -5.8650 31.8386 -0.6938 -3.7792
# 5 2.0451 4.0273 5.4115 -0.6938 33.9009 8.6666
# 6 28.4284 20.1783 1.4680 -3.7792 8.6666 32.2347
#
#
#
# Elastic Compliance Matrix: (Units=1/GPa)
#
#
# Indices 1 2 3 4 5 6 
#
# 1 0.009081 -0.001064 -0.004020 0.002078 0.002181 -0.007502
# 2 -0.001064 0.012954 -0.004096 0.007888 0.000955 -0.006316
# 3 -0.004020 -0.004096 0.014257 -0.001829 -0.003141 0.006090
# 4 0.002078 0.007888 -0.001829 0.037848 0.000622 -0.002417
# 5 0.002181 0.000955 -0.003141 0.000622 0.032597 -0.011069
# 6 -0.007502 -0.006316 0.006090 -0.002417 -0.011069 0.044008
#
#
# Mechanical properties :
#
#
# Convention : Reuss Voigt Hill
#
# Bulk Modulus (GPa) = 55.76419 72.03763 63.90091
# Shear Modulus (GPa) = 28.55839 35.52492 32.04166
#
# Velocity S-wave (km/s) = 3.61330 4.02998 3.82731
# Velocity P-wave (km/s) = 6.54991 7.38833 6.98172
#
# Compressibility (1/GPa) = 0.01793266
#
# Stress axis : x y z
#
# Youngs Moduli (GPa) = 110.12274 77.19670 70.14341
#
# Poissons Ratio (x) = 0.08211 0.28196
# Poissons Ratio (y) = 0.11713 0.28730
# Poissons Ratio (z) = 0.44266 0.31619
#
# Static dielectric constant tensor:
#      x y z
#    x 4.413480 0.164460 -0.120090 
#    y 0.164460 4.024430 0.115660 
#    z -0.120090 0.115660 4.048600 
# 
# 
# High freq. dielectric constant tensor:
#      x y z
#    x 1.881320 0.009810 -0.009960 
#    y 0.009810 1.859910 0.014390 
#    z -0.009960 0.014390 1.863630 
# 
# From -- ./inp_files/78020.got.cif
#   From: 2010.06.25/outbox.cif.g09.slc.cpg/sg2_40_cif.got.tgz:78020.got - 2010.06.27 13:26:56.
