data_PCOD8027873
_publ_section_title
;
Structure prediction by ZEFSAII (Michael W. Deem and Ramdas Pophale) SiO2 
 PCOD8027873
Probable space group: P -1
;
_chemical_formula_sum "Si O2"
_cell_formula_units_Z 14
_cell_length_a 8.868919
_cell_length_b 8.414516
_cell_length_c 24.886536
_cell_angle_alpha 145.845308
_cell_angle_beta 35.231121
_cell_angle_gamma 134.285696
_cell_volume 600.082517
_symmetry_space_group_name_H-M "P -1"
_symmetry_group_IT_number 2
_symmetry_cell_setting 'triclinic'
loop_
_space_group_symop_operation_xyz
x,y,z
-x,-y,-z
loop_
_atom_site_type_symbol
_atom_site_label
_atom_site_fract_x
_atom_site_fract_y
_atom_site_fract_z
Si Si1 0.524768 0.112391 0.963593
Si Si2 0.344938 0.619588 0.804326
Si Si3 0.124735 0.537107 0.179196
Si Si4 0.152093 0.172477 0.343001
Si Si5 0.773162 0.508452 0.489985
Si Si6 0.187912 0.623239 0.675434
Si Si7 0.914559 0.744789 0.135663
O O1 0.832517 0.158908 0.874778
O O2 0.363467 0.902895 0.912573
O O3 0.402011 0.405902 0.068383
O O4 0.500000 0.000000 0.000000
O O5 0.611331 0.612032 0.689538
O O6 0.309762 0.367557 0.788371
O O7 0.089735 0.624769 0.842276
O O8 0.013193 0.538745 0.271957
O O9 0.201809 0.852534 0.224539
O O10 0.135981 0.212222 0.423571
O O11 0.870997 0.241001 0.419922
O O12 0.463358 0.497545 0.571953
O O13 0.905879 0.483916 0.386184
O O14 0.187425 0.967912 0.780933
O O15 0.000000 0.500000 0.000000
#
# Coordination Sequence:
#
# PCOD8027873 Si02
#       7
#     2   2   2   2   2   2   2
#     4  12  25  44  70 107 141 182 233 286 354 421
#     4  12  25  47  70 101 149 186 231 290 352 422
#     4  12  26  44  74 104 143 184 236 290 352 421
#     4  11  26  47  70 104 138 186 238 287 359 408
#     4  10  24  48  69 101 144 182 241 291 341 424
#     4  11  23  47  72 105 140 185 237 289 354 407
#     4  12  26  46  75 106 143 184 235 293 352 418
#
# _framework density 23.330124000000001
#
# number of rings (size 3 to 8) (size 9 to 14) (size 15 to 20)
#    0.000    0.571    4.286    3.000    2.000    4.571 
#   10.286    0.000    0.000    0.000    0.000    0.000 
#    0.000    0.000    0.000    0.000    0.000    0.000 
#
# Total GULP energy -173490.425011 kJ/mol
# GULP energy per Si atom -12392.173215 kJ/mol
# Density = 2.327702 g / cm^3
# Si number density = 23.330124 Si / 1000 Ang^3
#
#
#
# Elastic Constant Matrix: (Units=GPa)
#
#
# Indices 1 2 3 4 5 6 
#
# 1 131.6730 28.1815 41.5379 7.4023 7.7048 1.5148
# 2 28.1815 116.8977 32.3408 1.5243 0.4812 1.0654
# 3 41.5379 32.3408 92.1606 5.7338 -6.2178 -0.7964
# 4 7.4023 1.5243 5.7338 25.4325 -6.4974 3.0221
# 5 7.7048 0.4812 -6.2178 -6.4974 49.3803 -7.8976
# 6 1.5148 1.0654 -0.7964 3.0221 -7.8976 25.1867
#
#
#
# Elastic Compliance Matrix: (Units=1/GPa)
#
#
# Indices 1 2 3 4 5 6 
#
# 1 0.009329 -0.001138 -0.003836 -0.002264 -0.002404 -0.001116
# 2 -0.001138 0.009638 -0.002921 0.000398 -0.000325 -0.000581
# 3 -0.003836 -0.002921 0.013874 -0.001413 0.002466 0.001736
# 4 -0.002264 0.000398 -0.001413 0.041989 0.005161 -0.003345
# 5 -0.002404 -0.000325 0.002466 0.005161 0.022696 0.006733
# 6 -0.001116 -0.000581 0.001736 -0.003345 0.006733 0.042363
#
#
# Mechanical properties :
#
#
# Convention : Reuss Voigt Hill
#
# Bulk Modulus (GPa) = 58.64920 60.53909 59.59415
# Shear Modulus (GPa) = 30.98581 35.91130 33.44856
#
# Velocity S-wave (km/s) = 3.64833 3.92761 3.79054
# Velocity P-wave (km/s) = 6.55290 6.82447 6.69006
#
# Compressibility (1/GPa) = 0.01705053
#
# Stress axis : x y z
#
# Youngs Moduli (GPa) = 107.19074 103.75123 72.07718
#
# Poissons Ratio (x) = 0.11808 0.27652
# Poissons Ratio (y) = 0.12199 0.21054
# Poissons Ratio (z) = 0.41123 0.30306
#
# Static dielectric constant tensor:
#      x y z
#    x 4.587950 -0.014960 0.247790 
#    y -0.014960 4.550000 0.064100 
#    z 0.247790 0.064100 4.406690 
# 
# 
# High freq. dielectric constant tensor:
#      x y z
#    x 1.944730 -0.009010 0.006770 
#    y -0.009010 1.904400 -0.009940 
#    z 0.006770 -0.009940 1.929690 
# 
# From -- ./inp_files/616741.got.cif
#   From: 2010.06.25/outbox.cif.g09.slc.cpg/sg2_309_cif.got.tgz:616741.got - 2010.06.27 13:26:56.
