data_PCOD8027057
_publ_section_title
;
Structure prediction by ZEFSAII (Michael W. Deem and Ramdas Pophale) SiO2 
 PCOD8027057
Probable space group: P -1
;
_chemical_formula_sum "Si O2"
_cell_formula_units_Z 12
_cell_length_a 8.625297
_cell_length_b 13.224533
_cell_length_c 8.966224
_cell_angle_alpha 68.765247
_cell_angle_beta 32.850568
_cell_angle_gamma 77.268794
_cell_volume 509.948234
_symmetry_space_group_name_H-M "P -1"
_symmetry_group_IT_number 2
_symmetry_cell_setting 'triclinic'
loop_
_space_group_symop_operation_xyz
x,y,z
-x,-y,-z
loop_
_atom_site_type_symbol
_atom_site_label
_atom_site_fract_x
_atom_site_fract_y
_atom_site_fract_z
Si Si1 0.903041 0.772926 0.518887
Si Si2 0.817665 0.987199 0.301351
Si Si3 0.318280 0.628849 0.118800
Si Si4 0.444936 0.668092 0.466662
Si Si5 0.967270 0.803663 0.796768
Si Si6 0.224224 0.473806 0.541547
O O1 0.956661 0.814880 0.621496
O O2 0.185064 0.726071 0.258683
O O3 0.826576 0.868880 0.426190
O O4 0.633849 0.674183 0.776287
O O5 0.965826 0.075229 0.254435
O O6 0.500000 0.000000 0.500000
O O7 0.000000 0.000000 0.000000
O O8 0.356207 0.529653 0.252673
O O9 0.112400 0.578705 0.176630
O O10 0.246125 0.564843 0.604103
O O11 0.611106 0.625873 0.493825
O O12 0.229631 0.743102 0.668290
O O13 0.664822 0.736554 0.135172
#
# Coordination Sequence:
#
# PCOD8027057 Si02
#       6
#     2   2   2   2   2   2
#     4  12  25  48  71 104 139 186 228 287 350 419
#     4  12  29  48  75 106 134 177 235 296 357 411
#     4  11  25  42  72 102 145 182 236 276 347 402
#     4  11  25  42  72 102 145 182 236 276 347 402
#     4  12  25  48  71 104 139 186 228 287 350 419
#     4  10  24  44  66 108 142 190 228 286 330 414
#
# _framework density 23.531798999999999
#
# number of rings (size 3 to 8) (size 9 to 14) (size 15 to 20)
#    0.000    0.667    3.333    2.500    7.000    8.000 
#    0.000    5.000    0.000    0.000    0.000    0.000 
#    0.000    0.000    0.000    0.000    0.000    0.000 
#
# Total GULP energy -148887.268412 kJ/mol
# GULP energy per Si atom -12407.272368 kJ/mol
# Density = 2.347824 g / cm^3
# Si number density = 23.531799 Si / 1000 Ang^3
#
#
#
# Elastic Constant Matrix: (Units=GPa)
#
#
# Indices 1 2 3 4 5 6 
#
# 1 124.3233 27.5813 19.5299 -18.3308 -1.7076 -10.5753
# 2 27.5813 90.9381 27.4787 -11.4444 4.5371 -14.1707
# 3 19.5299 27.4787 79.2376 1.2433 -9.0267 -3.4645
# 4 -18.3308 -11.4444 1.2433 31.5128 -8.4874 0.6826
# 5 -1.7076 4.5371 -9.0267 -8.4874 25.3684 -4.0547
# 6 -10.5753 -14.1707 -3.4645 0.6826 -4.0547 45.5207
#
#
#
# Elastic Compliance Matrix: (Units=1/GPa)
#
#
# Indices 1 2 3 4 5 6 
#
# 1 0.009679 -0.001593 -0.001550 0.005775 0.002602 0.001780
# 2 -0.001593 0.013985 -0.004655 0.003582 -0.002531 0.003350
# 3 -0.001550 -0.004655 0.015273 -0.001690 0.005578 -0.000125
# 4 0.005775 0.003582 -0.001690 0.039886 0.012952 0.002884
# 5 0.002602 -0.002531 0.005578 0.012952 0.047042 0.004237
# 6 0.001780 0.003350 -0.000125 0.002884 0.004237 0.023749
#
#
# Mechanical properties :
#
#
# Convention : Reuss Voigt Hill
#
# Bulk Modulus (GPa) = 42.84220 49.29765 46.06993
# Shear Modulus (GPa) = 28.90318 35.14099 32.02208
#
# Velocity S-wave (km/s) = 3.50846 3.86857 3.69290
# Velocity P-wave (km/s) = 5.88710 6.39916 6.14847
#
# Compressibility (1/GPa) = 0.02334147
#
# Stress axis : x y z
#
# Youngs Moduli (GPa) = 103.31631 71.50263 65.47447
#
# Poissons Ratio (x) = 0.11391 0.10146
# Poissons Ratio (y) = 0.16459 0.30481
# Poissons Ratio (z) = 0.16010 0.33288
#
# Static dielectric constant tensor:
#      x y z
#    x 4.435090 -0.072960 -0.081780 
#    y -0.072960 4.334070 -0.075880 
#    z -0.081780 -0.075880 4.110790 
# 
# 
# High freq. dielectric constant tensor:
#      x y z
#    x 1.953660 -0.002130 -0.003580 
#    y -0.002130 1.942100 -0.000050 
#    z -0.003580 -0.000050 1.930380 
# 
# From -- ./inp_files/205793.got.cif
#   From: 2010.06.25/outbox.cif.g09.slc.cpg/sg2_103_cif.got.tgz:205793.got - 2010.06.27 13:26:56.
