data_PCOD8027992
_publ_section_title
;
Structure prediction by ZEFSAII (Michael W. Deem and Ramdas Pophale) SiO2 
 PCOD8027992
Probable space group: P -1
;
_chemical_formula_sum "Si O2"
_cell_formula_units_Z 16
_cell_length_a 23.433908
_cell_length_b 9.342852
_cell_length_c 5.052383
_cell_angle_alpha 82.340745
_cell_angle_beta 108.762683
_cell_angle_gamma 140.240618
_cell_volume 657.897018
_symmetry_space_group_name_H-M "P -1"
_symmetry_group_IT_number 2
_symmetry_cell_setting 'triclinic'
loop_
_space_group_symop_operation_xyz
x,y,z
-x,-y,-z
loop_
_atom_site_type_symbol
_atom_site_label
_atom_site_fract_x
_atom_site_fract_y
_atom_site_fract_z
Si Si1 0.544862 0.745054 0.198381
Si Si2 0.706030 0.231386 0.362985
Si Si3 0.792984 0.096676 0.318802
Si Si4 0.034899 0.668583 0.775826
Si Si5 0.838580 0.928828 0.773005
Si Si6 0.380339 0.268381 0.188070
Si Si7 0.019877 0.181081 0.643608
Si Si8 0.782396 0.520132 0.917585
O O1 0.432993 0.523399 0.163390
O O2 0.607194 0.757559 0.484922
O O3 0.591525 0.990598 0.246166
O O4 0.561718 0.730362 0.923556
O O5 0.734835 0.329759 0.675906
O O6 0.761954 0.190311 0.372119
O O7 0.731627 0.404628 0.152753
O O8 0.775341 0.934995 0.539485
O O9 0.908579 0.320693 0.369697
O O10 0.730817 0.940681 0.003354
O O11 0.956353 0.636352 0.555870
O O12 0.000000 0.500000 0.000000
O O13 0.120064 0.931941 0.928746
O O14 0.770762 0.666729 0.792455
O O15 0.926419 0.044197 0.697930
O O16 0.106921 0.318390 0.939139
O O17 0.000000 0.000000 0.500000
#
# Coordination Sequence:
#
# PCOD8027992 Si02
#       8
#     2   2   2   2   2   2   2   2
#     4   9  18  36  59 100 130 158 206 264 315 374
#     4  11  25  40  68 100 129 162 217 271 319 377
#     4  10  25  41  64  96 129 169 212 266 324 384
#     4  11  27  42  63  93 130 165 216 278 319 372
#     4  11  26  42  61  88 129 168 217 262 324 383
#     4   9  18  35  65  92 131 167 202 256 322 382
#     4  11  24  44  62  87 121 170 224 264 312 382
#     4  12  26  42  67  92 126 175 214 268 318 382
#
# _framework density 24.319915999999999
#
# number of rings (size 3 to 8) (size 9 to 14) (size 15 to 20)
#    0.000    1.500    1.250    2.625   12.250    1.000 
#    0.000    1.875    0.000    1.500    0.000    0.000 
#    0.000    0.000    0.000    0.000    0.000    0.000 
#
# Total GULP energy -198311.870215 kJ/mol
# GULP energy per Si atom -12394.491888 kJ/mol
# Density = 2.426456 g / cm^3
# Si number density = 24.319916 Si / 1000 Ang^3
#
#
#
# Elastic Constant Matrix: (Units=GPa)
#
#
# Indices 1 2 3 4 5 6 
#
# 1 26.0002 7.2881 -1.0409 -8.9227 0.9360 -13.3731
# 2 7.2881 120.6566 9.8719 -10.1643 10.1091 -17.8473
# 3 -1.0409 9.8719 88.7989 -7.5356 -1.6390 -20.5365
# 4 -8.9227 -10.1643 -7.5356 52.9521 -6.0211 0.1398
# 5 0.9360 10.1091 -1.6390 -6.0211 25.3288 0.6679
# 6 -13.3731 -17.8473 -20.5365 0.1398 0.6679 32.2666
#
#
#
# Elastic Compliance Matrix: (Units=1/GPa)
#
#
# Indices 1 2 3 4 5 6 
#
# 1 0.057582 0.001194 0.008367 0.011018 -0.000230 0.029808
# 2 0.001194 0.009524 0.000444 0.001669 -0.003581 0.006113
# 3 0.008367 0.000444 0.014645 0.003657 0.000988 0.012998
# 4 0.011018 0.001669 0.003657 0.022040 0.004201 0.007635
# 5 -0.000230 -0.003581 0.000988 0.004201 0.042043 -0.002336
# 6 0.029808 0.006113 0.012998 0.007635 -0.002336 0.055015
#
#
# Mechanical properties :
#
#
# Convention : Reuss Voigt Hill
#
# Bulk Modulus (GPa) = 9.82696 29.74378 19.78537
# Shear Modulus (GPa) = 23.28186 36.73193 30.00690
#
# Velocity S-wave (km/s) = 3.09741 3.89056 3.51642
# Velocity P-wave (km/s) = 4.10383 5.69550 4.96387
#
# Compressibility (1/GPa) = 0.10176089
#
# Stress axis : x y z
#
# Youngs Moduli (GPa) = 17.36645 104.99418 68.28419
#
# Poissons Ratio (x) = -0.12534 -0.57131
# Poissons Ratio (y) = -0.02073 -0.03034
# Poissons Ratio (z) = -0.14530 -0.04666
#
# Static dielectric constant tensor:
#      x y z
#    x 3.213720 0.168070 0.102560 
#    y 0.168070 5.141700 0.099380 
#    z 0.102560 0.099380 4.628550 
# 
# 
# High freq. dielectric constant tensor:
#      x y z
#    x 1.918960 0.002270 -0.017990 
#    y 0.002270 1.990720 0.005920 
#    z -0.017990 0.005920 1.982040 
# 
# From -- ./inp_files/126421.got.cif
#   From: 2010.06.25/outbox.cif.g09.slc.cpg/sg2_64_cif.got.tgz:126421.got - 2010.06.27 13:26:56.
