data_PCOD8027081
_publ_section_title
;
Structure prediction by ZEFSAII (Michael W. Deem and Ramdas Pophale) SiO2 
 PCOD8027081
Probable space group: P -1
;
_chemical_formula_sum "Si O2"
_cell_formula_units_Z 14
_cell_length_a 10.595902
_cell_length_b 13.992744
_cell_length_c 6.485902
_cell_angle_alpha 93.793764
_cell_angle_beta 107.213956
_cell_angle_gamma 43.985141
_cell_volume 622.105740
_symmetry_space_group_name_H-M "P -1"
_symmetry_group_IT_number 2
_symmetry_cell_setting 'triclinic'
loop_
_space_group_symop_operation_xyz
x,y,z
-x,-y,-z
loop_
_atom_site_type_symbol
_atom_site_label
_atom_site_fract_x
_atom_site_fract_y
_atom_site_fract_z
Si Si1 0.722297 0.359531 0.073579
Si Si2 0.100043 0.870160 0.180347
Si Si3 0.659018 0.243402 0.332034
Si Si4 0.093496 0.391240 0.714311
Si Si5 0.219172 0.486731 0.085543
Si Si6 0.699639 0.026137 0.106604
Si Si7 0.429491 0.074300 0.694031
O O1 0.776448 0.273211 0.297863
O O2 0.500000 0.500000 0.000000
O O3 0.745194 0.276350 0.882010
O O4 0.836521 0.397527 0.085985
O O5 0.224015 0.852698 0.422211
O O6 0.932186 0.889181 0.189285
O O7 0.000000 0.000000 0.000000
O O8 0.431493 0.388749 0.278592
O O9 0.660586 0.157204 0.156982
O O10 0.228622 0.240316 0.646033
O O11 0.000000 0.500000 0.500000
O O12 0.927530 0.431361 0.780955
O O13 0.214592 0.392496 0.933846
O O14 0.592275 0.013379 0.209673
O O15 0.604787 0.050472 0.844896
O O16 0.500000 0.000000 0.500000
#
# Coordination Sequence:
#
# PCOD8027081 Si02
#       7
#     2   2   2   2   2   2   2
#     4  10  24  44  67 102 137 182 234 285 349 420
#     4  12  26  42  72 106 141 187 231 288 353 425
#     4  11  24  45  74 100 145 187 228 294 355 422
#     4  11  25  44  71 103 139 192 234 298 352 415
#     4  10  24  45  72 100 147 183 245 285 351 428
#     4  11  25  45  69 102 140 179 243 282 354 424
#     4  11  27  45  73 102 137 185 236 301 350 415
#
# _framework density 22.504214999999999
#
# number of rings (size 3 to 8) (size 9 to 14) (size 15 to 20)
#    0.000    1.143    2.857    1.286    4.000    9.143 
#    0.000    0.000    0.000    0.000    0.000    0.000 
#    0.000    0.000    0.000    0.000    0.000    0.000 
#
# Total GULP energy -173473.533222 kJ/mol
# GULP energy per Si atom -12390.966659 kJ/mol
# Density = 2.245299 g / cm^3
# Si number density = 22.504215 Si / 1000 Ang^3
#
#
#
# Elastic Constant Matrix: (Units=GPa)
#
#
# Indices 1 2 3 4 5 6 
#
# 1 135.8700 52.8423 59.1584 -2.1842 -9.3580 -2.8482
# 2 52.8423 147.2256 58.1911 21.5270 -7.0721 -7.9656
# 3 59.1584 58.1911 133.9139 -0.1424 1.8211 -9.9795
# 4 -2.1842 21.5270 -0.1424 41.0729 -3.3961 -8.1002
# 5 -9.3580 -7.0721 1.8211 -3.3961 32.5115 -4.9626
# 6 -2.8482 -7.9656 -9.9795 -8.1002 -4.9626 39.2898
#
#
#
# Elastic Compliance Matrix: (Units=1/GPa)
#
#
# Indices 1 2 3 4 5 6 
#
# 1 0.010002 -0.002403 -0.003399 0.002038 0.002782 0.000146
# 2 -0.002403 0.009715 -0.003175 -0.005128 0.001074 0.000067
# 3 -0.003399 -0.003175 0.010518 0.001750 -0.001783 0.001917
# 4 0.002038 -0.005128 0.001750 0.028573 0.003251 0.005854
# 5 0.002782 0.001074 -0.001783 0.003251 0.032965 0.004801
# 6 0.000146 0.000067 0.001917 0.005854 0.004801 0.027776
#
#
# Mechanical properties :
#
#
# Convention : Reuss Voigt Hill
#
# Bulk Modulus (GPa) = 81.43052 84.15477 82.79265
# Shear Modulus (GPa) = 35.31179 39.02935 37.17057
#
# Velocity S-wave (km/s) = 3.96551 4.16903 4.06854
# Velocity P-wave (km/s) = 7.56506 7.78785 7.67726
#
# Compressibility (1/GPa) = 0.01228041
#
# Stress axis : x y z
#
# Youngs Moduli (GPa) = 99.98071 102.93618 95.07759
#
# Poissons Ratio (x) = 0.24735 0.32318
# Poissons Ratio (y) = 0.24024 0.30187
# Poissons Ratio (z) = 0.33985 0.32682
#
# Static dielectric constant tensor:
#      x y z
#    x 5.355200 0.345730 -0.139250 
#    y 0.345730 4.332930 0.041260 
#    z -0.139250 0.041260 4.004770 
# 
# 
# High freq. dielectric constant tensor:
#      x y z
#    x 1.901610 -0.002640 -0.010670 
#    y -0.002640 1.898830 0.006450 
#    z -0.010670 0.006450 1.874120 
# 
# From -- ./inp_files/78203.got.cif
#   From: 2010.06.25/outbox.cif.g09.slc.cpg/sg2_40_cif.got.tgz:78203.got - 2010.06.27 13:26:56.
