data_PCOD8027707
_publ_section_title
;
Structure prediction by ZEFSAII (Michael W. Deem and Ramdas Pophale) SiO2 
 PCOD8027707
Probable space group: P -1
;
_chemical_formula_sum "Si O2"
_cell_formula_units_Z 16
_cell_length_a 8.664402
_cell_length_b 6.372425
_cell_length_c 19.956260
_cell_angle_alpha 46.972330
_cell_angle_beta 59.484310
_cell_angle_gamma 73.118295
_cell_volume 691.155208
_symmetry_space_group_name_H-M "P -1"
_symmetry_group_IT_number 2
_symmetry_cell_setting 'triclinic'
loop_
_space_group_symop_operation_xyz
x,y,z
-x,-y,-z
loop_
_atom_site_type_symbol
_atom_site_label
_atom_site_fract_x
_atom_site_fract_y
_atom_site_fract_z
Si Si1 0.625896 0.959517 0.106664
Si Si2 0.871145 0.820391 0.367732
Si Si3 0.133715 0.773996 0.901294
Si Si4 0.864621 0.235528 0.881869
Si Si5 0.762255 0.280418 0.747849
Si Si6 0.179966 0.592112 0.790843
Si Si7 0.673522 0.732586 0.562788
Si Si8 0.369945 0.614893 0.558048
O O1 0.411412 0.952612 0.159030
O O2 0.684914 0.655721 0.188186
O O3 0.707225 0.212024 0.082483
O O4 0.703336 0.043941 0.997101
O O5 0.817988 0.682953 0.482064
O O6 0.804511 0.613275 0.363827
O O7 0.083697 0.870202 0.294059
O O8 0.786273 0.132388 0.326513
O O9 0.224543 0.758806 0.813316
O O10 0.022896 0.046487 0.868675
O O11 0.000000 0.500000 0.000000
O O12 0.801030 0.371241 0.796957
O O13 0.968702 0.472659 0.856291
O O14 0.723489 0.565187 0.654321
O O15 0.472537 0.611181 0.608153
O O16 0.679449 0.061461 0.515089
O O17 0.500000 0.500000 0.500000
#
# Coordination Sequence:
#
# PCOD8027707 Si02
#       8
#     2   2   2   2   2   2   2   2
#     4  11  25  42  70 100 141 173 235 285 335 401
#     4  11  25  45  70 101 137 179 229 280 343 412
#     4  11  19  43  74  96 126 181 240 282 326 396
#     4  11  23  45  64  99 142 181 223 281 342 408
#     4  12  27  43  65 104 144 184 217 277 358 412
#     4  11  23  42  73 100 127 185 235 278 335 400
#     4  10  24  46  71  99 138 175 231 287 335 399
#     4   9  22  45  74  98 132 173 233 287 332 394
#
# _framework density 23.149647999999999
#
# number of rings (size 3 to 8) (size 9 to 14) (size 15 to 20)
#    0.000    1.250    3.750    1.500    8.750    0.500 
#    6.750    1.250    0.000    0.000    0.000    0.000 
#    0.000    0.000    0.000    0.000    0.000    0.000 
#
# Total GULP energy -198218.411668 kJ/mol
# GULP energy per Si atom -12388.650729 kJ/mol
# Density = 2.309696 g / cm^3
# Si number density = 23.149648 Si / 1000 Ang^3
#
#
#
# Elastic Constant Matrix: (Units=GPa)
#
#
# Indices 1 2 3 4 5 6 
#
# 1 119.4020 43.2465 47.8754 8.6503 -3.2758 8.0108
# 2 43.2465 88.5033 27.0938 -3.8166 -3.8601 12.0071
# 3 47.8754 27.0938 99.3150 6.5488 11.9819 1.1884
# 4 8.6503 -3.8166 6.5488 38.8693 -2.0436 -4.2243
# 5 -3.2758 -3.8601 11.9819 -2.0436 46.8061 1.3861
# 6 8.0108 12.0071 1.1884 -4.2243 1.3861 28.3119
#
#
#
# Elastic Compliance Matrix: (Units=1/GPa)
#
#
# Indices 1 2 3 4 5 6 
#
# 1 0.012163 -0.004280 -0.004711 -0.002450 0.001653 -0.001875
# 2 -0.004280 0.014927 -0.002323 0.002386 0.001771 -0.004752
# 3 -0.004711 -0.002323 0.013546 -0.001490 -0.004105 0.001728
# 4 -0.002450 0.002386 -0.001490 0.027242 0.001486 0.003736
# 5 0.001653 0.001771 -0.004105 0.001486 0.022800 -0.001941
# 6 -0.001875 -0.004752 0.001728 0.003736 -0.001941 0.038447
#
#
# Mechanical properties :
#
#
# Convention : Reuss Voigt Hill
#
# Bulk Modulus (GPa) = 55.53165 60.40574 57.96869
# Shear Modulus (GPa) = 31.69468 35.39776 33.54622
#
# Velocity S-wave (km/s) = 3.70418 3.91459 3.81084
# Velocity P-wave (km/s) = 6.50652 6.82512 6.66772
#
# Compressibility (1/GPa) = 0.01800775
#
# Stress axis : x y z
#
# Youngs Moduli (GPa) = 82.21708 66.99460 73.82025
#
# Poissons Ratio (x) = 0.28676 0.34776
# Poissons Ratio (y) = 0.35192 0.17147
# Poissons Ratio (z) = 0.38731 0.15562
#
# Static dielectric constant tensor:
#      x y z
#    x 4.909560 0.624020 -0.453190 
#    y 0.624020 4.288820 -0.343480 
#    z -0.453190 -0.343480 4.742620 
# 
# 
# High freq. dielectric constant tensor:
#      x y z
#    x 1.907240 0.012480 -0.004240 
#    y 0.012480 1.909140 0.005500 
#    z -0.004240 0.005500 1.924650 
# 
# From -- ./inp_files/585466.got.cif
#   From: 2010.06.25/outbox.cif.g09.slc.cpg/sg2_293_cif.got.tgz:585466.got - 2010.06.27 13:26:56.
