data_PCOD8027988
_publ_section_title
;
Structure prediction by ZEFSAII (Michael W. Deem and Ramdas Pophale) SiO2 
 PCOD8027988
Probable space group: P -1
;
_chemical_formula_sum "Si O2"
_cell_formula_units_Z 14
_cell_length_a 11.131724
_cell_length_b 10.466571
_cell_length_c 12.939976
_cell_angle_alpha 47.864588
_cell_angle_beta 35.213442
_cell_angle_gamma 59.244584
_cell_volume 642.289237
_symmetry_space_group_name_H-M "P -1"
_symmetry_group_IT_number 2
_symmetry_cell_setting 'triclinic'
loop_
_space_group_symop_operation_xyz
x,y,z
-x,-y,-z
loop_
_atom_site_type_symbol
_atom_site_label
_atom_site_fract_x
_atom_site_fract_y
_atom_site_fract_z
Si Si1 0.022157 0.456124 0.761399
Si Si2 0.176142 0.418690 0.985192
Si Si3 0.654190 0.370726 0.917597
Si Si4 0.822136 0.832233 0.051764
Si Si5 0.366261 0.456796 0.370492
Si Si6 0.784729 0.938914 0.352847
Si Si7 0.455862 0.985100 0.715379
O O1 0.881074 0.398715 0.793934
O O2 0.041329 0.295998 0.911657
O O3 0.249715 0.517567 0.522273
O O4 0.919103 0.607051 0.817506
O O5 0.230716 0.242033 0.985984
O O6 0.388305 0.546539 0.774627
O O7 0.000000 0.500000 0.000000
O O8 0.673761 0.401365 0.764904
O O9 0.500000 0.500000 0.000000
O O10 0.552196 0.180462 0.115944
O O11 0.608197 0.858429 0.250789
O O12 0.964737 0.015388 0.841710
O O13 0.275961 0.265945 0.501109
O O14 0.705685 0.036963 0.254666
O O15 0.685427 0.016036 0.485335
#
# Coordination Sequence:
#
# PCOD8027988 Si02
#       7
#     2   2   2   2   2   2   2
#     4  11  22  41  65  95 132 169 218 267 316 387
#     4  10  25  41  62  96 136 172 211 268 322 384
#     4  12  22  41  67  95 137 170 207 273 327 379
#     4  11  23  40  65  97 133 164 215 268 327 370
#     4  12  24  42  68  99 128 170 223 259 327 386
#     4  11  22  37  67  97 124 163 216 273 315 368
#     4  11  22  38  64  95 130 162 211 269 324 368
#
# _framework density 21.797032000000002
#
# number of rings (size 3 to 8) (size 9 to 14) (size 15 to 20)
#    0.000    0.857    5.714    1.714    6.000    3.429 
#    0.000    0.714    0.000    4.286    0.000    0.000 
#    0.000    0.000    0.000    0.000    0.000    0.000 
#
# Total GULP energy -173528.621985 kJ/mol
# GULP energy per Si atom -12394.901570 kJ/mol
# Density = 2.174742 g / cm^3
# Si number density = 21.797032 Si / 1000 Ang^3
#
#
#
# Elastic Constant Matrix: (Units=GPa)
#
#
# Indices 1 2 3 4 5 6 
#
# 1 82.8508 32.3273 45.5394 2.4188 8.8781 11.4549
# 2 32.3273 97.9584 46.1583 22.6785 15.8933 24.8460
# 3 45.5394 46.1583 111.1625 23.2031 21.0087 19.9334
# 4 2.4188 22.6785 23.2031 51.7896 3.0634 17.4202
# 5 8.8781 15.8933 21.0087 3.0634 29.0021 5.2881
# 6 11.4549 24.8460 19.9334 17.4202 5.2881 39.3166
#
#
#
# Elastic Compliance Matrix: (Units=1/GPa)
#
#
# Indices 1 2 3 4 5 6 
#
# 1 0.016766 -0.003278 -0.006249 0.003899 0.001055 -0.001514
# 2 -0.003278 0.015318 -0.002560 -0.003350 -0.004202 -0.005377
# 3 -0.006249 -0.002560 0.015097 -0.004509 -0.006909 -0.001289
# 4 0.003899 -0.003350 -0.004509 0.025238 0.002753 -0.008286
# 5 0.001055 -0.004202 -0.006909 0.002753 0.041343 -0.000930
# 6 -0.001514 -0.005377 -0.001289 -0.008286 -0.000930 0.033724
#
#
# Mechanical properties :
#
#
# Convention : Reuss Voigt Hill
#
# Bulk Modulus (GPa) = 43.46549 60.00242 51.73396
# Shear Modulus (GPa) = 27.88176 35.21811 31.54993
#
# Velocity S-wave (km/s) = 3.58041 4.02397 3.80865
# Velocity P-wave (km/s) = 6.08907 7.01266 6.56712
#
# Compressibility (1/GPa) = 0.02300676
#
# Stress axis : x y z
#
# Youngs Moduli (GPa) = 59.64326 65.28375 66.23981
#
# Poissons Ratio (x) = 0.21402 0.41394
# Poissons Ratio (y) = 0.19553 0.16955
# Poissons Ratio (z) = 0.37271 0.16711
#
# Static dielectric constant tensor:
#      x y z
#    x 4.219760 0.074440 0.428250 
#    y 0.074440 4.445310 0.198710 
#    z 0.428250 0.198710 4.154370 
# 
# 
# High freq. dielectric constant tensor:
#      x y z
#    x 1.831410 0.007450 0.015440 
#    y 0.007450 1.850620 0.032960 
#    z 0.015440 0.032960 1.857620 
# 
# From -- ./inp_files/518636.got.cif
#   From: 2010.06.25/outbox.cif.g09.slc.cpg/sg2_260_cif.got.tgz:518636.got - 2010.06.27 13:26:56.
