data_PCOD8027703
_publ_section_title
;
Structure prediction by ZEFSAII (Michael W. Deem and Ramdas Pophale) SiO2 
 PCOD8027703
Probable space group: P -1
;
_chemical_formula_sum "Si O2"
_cell_formula_units_Z 16
_cell_length_a 8.283865
_cell_length_b 6.517735
_cell_length_c 17.347596
_cell_angle_alpha 82.669231
_cell_angle_beta 126.416870
_cell_angle_gamma 99.863727
_cell_volume 742.187671
_symmetry_space_group_name_H-M "P -1"
_symmetry_group_IT_number 2
_symmetry_cell_setting 'triclinic'
loop_
_space_group_symop_operation_xyz
x,y,z
-x,-y,-z
loop_
_atom_site_type_symbol
_atom_site_label
_atom_site_fract_x
_atom_site_fract_y
_atom_site_fract_z
Si Si1 0.978489 0.821657 0.939421
Si Si2 0.022122 0.715657 0.680308
Si Si3 0.459658 0.782442 0.397309
Si Si4 0.705688 0.433984 0.497623
Si Si5 0.069935 0.961101 0.241767
Si Si6 0.709099 0.478433 0.966417
Si Si7 0.748679 0.594576 0.146333
Si Si8 0.191565 0.881287 0.572174
O O1 0.810628 0.633001 0.923243
O O2 0.905314 0.903040 0.834247
O O3 0.195580 0.738457 0.996395
O O4 0.000000 0.000000 0.000000
O O5 0.129974 0.587676 0.779961
O O6 0.195287 0.822298 0.666292
O O7 0.853525 0.574998 0.590377
O O8 0.913307 0.891753 0.685224
O O9 0.556707 0.577776 0.404654
O O10 0.428513 0.746451 0.482426
O O11 0.242967 0.806123 0.297409
O O12 0.604867 0.986997 0.405069
O O13 0.835395 0.330209 0.475550
O O14 0.854951 0.819926 0.190747
O O15 0.474825 0.428569 0.880739
O O16 0.742013 0.589649 0.052640
O O17 0.000000 0.000000 0.500000
#
# Coordination Sequence:
#
# PCOD8027703 Si02
#       8
#     2   2   2   2   2   2   2   2
#     4  11  23  45  70 100 133 175 217 280 334 407
#     4  12  26  44  68 100 136 176 224 284 332 395
#     4  11  26  42  70  99 135 182 222 277 337 394
#     4  11  25  47  70  94 138 184 224 273 338 397
#     4  12  26  44  67 103 137 173 233 275 334 400
#     4  10  24  46  71  97 135 175 223 268 351 400
#     4  11  24  45  69  98 134 176 219 283 332 402
#     4  12  26  44  68  99 135 180 231 274 335 401
#
# _framework density 21.557891000000001
#
# number of rings (size 3 to 8) (size 9 to 14) (size 15 to 20)
#    0.000    0.750    5.000    1.500    5.250    1.500 
#    2.250    0.000    0.000    0.000    0.000    0.000 
#    0.000    0.000    0.000    0.000    0.000    0.000 
#
# Total GULP energy -198437.046174 kJ/mol
# GULP energy per Si atom -12402.315386 kJ/mol
# Density = 2.150882 g / cm^3
# Si number density = 21.557891 Si / 1000 Ang^3
#
#
#
# Elastic Constant Matrix: (Units=GPa)
#
#
# Indices 1 2 3 4 5 6 
#
# 1 116.0335 56.8257 53.6267 2.0279 9.5523 -7.9100
# 2 56.8257 105.0019 56.7285 -6.5504 1.4690 -9.0072
# 3 53.6267 56.7285 99.9071 -11.5854 8.5168 -3.0903
# 4 2.0279 -6.5504 -11.5854 40.9520 -3.2389 -2.1490
# 5 9.5523 1.4690 8.5168 -3.2389 43.6366 -4.5448
# 6 -7.9100 -9.0072 -3.0903 -2.1490 -4.5448 54.1975
#
#
#
# Elastic Compliance Matrix: (Units=1/GPa)
#
#
# Indices 1 2 3 4 5 6 
#
# 1 0.013364 -0.004875 -0.004545 -0.002856 -0.002024 0.000598
# 2 -0.004875 0.015775 -0.006317 0.001232 0.002045 0.001770
# 3 -0.004545 -0.006317 0.016600 0.003725 -0.001836 -0.000773
# 4 -0.002856 0.001232 0.003725 0.026025 0.001913 0.001193
# 5 -0.002024 0.002045 -0.001836 0.001913 0.024002 0.002028
# 6 0.000598 0.001770 -0.000773 0.001193 0.002028 0.019006
#
#
# Mechanical properties :
#
#
# Convention : Reuss Voigt Hill
#
# Bulk Modulus (GPa) = 70.10490 72.81159 71.45825
# Shear Modulus (GPa) = 33.11214 38.00801 35.56007
#
# Velocity S-wave (km/s) = 3.92339 4.20344 4.06583
# Velocity P-wave (km/s) = 7.28793 7.57673 7.43373
#
# Compressibility (1/GPa) = 0.01426434
#
# Stress axis : x y z
#
# Youngs Moduli (GPa) = 74.82974 63.39119 60.23928
#
# Poissons Ratio (x) = 0.30905 0.27379
# Poissons Ratio (y) = 0.36482 0.38054
# Poissons Ratio (z) = 0.34011 0.40045
#
# Static dielectric constant tensor:
#      x y z
#    x 4.278100 0.192940 -0.036910 
#    y 0.192940 4.248550 -0.216350 
#    z -0.036910 -0.216350 3.818660 
# 
# 
# High freq. dielectric constant tensor:
#      x y z
#    x 1.861530 0.003430 0.000380 
#    y 0.003430 1.858320 -0.017690 
#    z 0.000380 -0.017690 1.834030 
# 
# From -- ./inp_files/488598.got.cif
#   From: 2010.06.25/outbox.cif.g09.slc.cpg/sg2_245_cif.got.tgz:488598.got - 2010.06.27 13:26:56.
