data_PCOD8027284
_publ_section_title
;
Structure prediction by ZEFSAII (Michael W. Deem and Ramdas Pophale) SiO2 
 PCOD8027284
Probable space group: P -1
;
_chemical_formula_sum "Si O2"
_cell_formula_units_Z 14
_cell_length_a 19.499784
_cell_length_b 11.538838
_cell_length_c 13.495599
_cell_angle_alpha 158.321273
_cell_angle_beta 33.638584
_cell_angle_gamma 137.717107
_cell_volume 612.826912
_symmetry_space_group_name_H-M "P -1"
_symmetry_group_IT_number 2
_symmetry_cell_setting 'triclinic'
loop_
_space_group_symop_operation_xyz
x,y,z
-x,-y,-z
loop_
_atom_site_type_symbol
_atom_site_label
_atom_site_fract_x
_atom_site_fract_y
_atom_site_fract_z
Si Si1 0.919825 0.410927 0.243469
Si Si2 0.856280 0.963235 0.622297
Si Si3 0.395973 0.736691 0.753349
Si Si4 0.454059 0.438537 0.240859
Si Si5 0.704870 0.232547 0.480559
Si Si6 0.918412 0.152850 0.500361
Si Si7 0.704434 0.496875 0.903203
O O1 0.836796 0.638586 0.443363
O O2 0.834252 0.349352 0.389591
O O3 0.035231 0.561908 0.267972
O O4 0.964906 0.081708 0.871651
O O5 0.844695 0.956461 0.511059
O O6 0.000000 0.000000 0.500000
O O7 0.745430 0.241016 0.014652
O O8 0.500000 0.500000 0.500000
O O9 0.387003 0.622707 0.561529
O O10 0.439147 0.075246 0.974523
O O11 0.403006 0.611141 0.338998
O O12 0.601000 0.465413 0.086172
O O13 0.666235 0.343882 0.725820
O O14 0.721818 0.856024 0.151142
O O15 0.833570 0.294415 0.624350
#
# Coordination Sequence:
#
# PCOD8027284 Si02
#       7
#     2   2   2   2   2   2   2
#     4  11  24  43  70 100 136 184 229 283 346 417
#     4  10  24  44  72 101 138 182 230 283 349 421
#     4  12  26  45  73 107 143 183 227 291 353 415
#     4  12  26  46  71 100 143 178 240 278 348 415
#     4  12  25  44  73  97 141 184 239 277 345 412
#     4  11  25  43  68 101 141 177 231 286 350 405
#     4  12  26  45  69 102 139 186 230 292 340 407
#
# _framework density 22.844950000000001
#
# number of rings (size 3 to 8) (size 9 to 14) (size 15 to 20)
#    0.000    0.571    1.429    6.000    4.000    8.000 
#    0.000    0.000    0.000    0.000    0.000    0.000 
#    0.000    0.000    0.000    0.000    0.000    0.000 
#
# Total GULP energy -173644.929373 kJ/mol
# GULP energy per Si atom -12403.209241 kJ/mol
# Density = 2.279295 g / cm^3
# Si number density = 22.844950 Si / 1000 Ang^3
#
#
#
# Elastic Constant Matrix: (Units=GPa)
#
#
# Indices 1 2 3 4 5 6 
#
# 1 123.6462 8.8816 54.9223 24.7512 -13.4710 -17.3605
# 2 8.8816 107.4746 40.7430 -19.0161 1.4533 5.9965
# 3 54.9223 40.7430 152.5239 6.8246 -16.6647 -6.8576
# 4 24.7512 -19.0161 6.8246 58.9101 -6.0380 -5.3266
# 5 -13.4710 1.4533 -16.6647 -6.0380 47.1651 3.7739
# 6 -17.3605 5.9965 -6.8576 -5.3266 3.7739 31.5726
#
#
#
# Elastic Compliance Matrix: (Units=1/GPa)
#
#
# Indices 1 2 3 4 5 6 
#
# 1 0.011210 -0.000642 -0.003348 -0.003982 0.001149 0.004750
# 2 -0.000642 0.011437 -0.003218 0.004016 -0.000964 -0.002432
# 3 -0.003348 -0.003218 0.008897 -0.000403 0.002205 0.000371
# 4 -0.003982 0.004016 -0.000403 0.020129 0.001156 0.000218
# 5 0.001149 -0.000964 0.002205 0.001156 0.022584 -0.001211
# 6 0.004750 -0.002432 0.000371 0.000218 -0.001211 0.035009
#
#
# Mechanical properties :
#
#
# Convention : Reuss Voigt Hill
#
# Bulk Modulus (GPa) = 58.38588 65.85983 62.12285
# Shear Modulus (GPa) = 38.64242 46.13608 42.38925
#
# Velocity S-wave (km/s) = 4.11726 4.49879 4.31225
# Velocity P-wave (km/s) = 6.94373 7.47510 7.21431
#
# Compressibility (1/GPa) = 0.01712743
#
# Stress axis : x y z
#
# Youngs Moduli (GPa) = 89.20654 87.43684 112.39541
#
# Poissons Ratio (x) = 0.05617 0.37627
# Poissons Ratio (y) = 0.05731 0.36170
# Poissons Ratio (z) = 0.29864 0.28138
#
# Static dielectric constant tensor:
#      x y z
#    x 4.122360 -0.293200 -0.112980 
#    y -0.293200 4.350200 -0.004980 
#    z -0.112980 -0.004980 4.203700 
# 
# 
# High freq. dielectric constant tensor:
#      x y z
#    x 1.902460 -0.010670 -0.005420 
#    y -0.010670 1.914950 -0.004450 
#    z -0.005420 -0.004450 1.914780 
# 
# From -- ./inp_files/85083.got.cif
#   From: 2010.06.25/outbox.cif.g09.slc.cpg/sg2_43_cif.got.tgz:85083.got - 2010.06.27 13:26:56.
