data_PCOD8027112
_publ_section_title
;
Structure prediction by ZEFSAII (Michael W. Deem and Ramdas Pophale) SiO2 
 PCOD8027112
Probable space group: P -1
;
_chemical_formula_sum "Si O2"
_cell_formula_units_Z 12
_cell_length_a 4.878715
_cell_length_b 7.371485
_cell_length_c 13.634737
_cell_angle_alpha 111.248405
_cell_angle_beta 82.361233
_cell_angle_gamma 106.381547
_cell_volume 438.204696
_symmetry_space_group_name_H-M "P -1"
_symmetry_group_IT_number 2
_symmetry_cell_setting 'triclinic'
loop_
_space_group_symop_operation_xyz
x,y,z
-x,-y,-z
loop_
_atom_site_type_symbol
_atom_site_label
_atom_site_fract_x
_atom_site_fract_y
_atom_site_fract_z
Si Si1 0.504208 0.281112 0.112612
Si Si2 0.256321 0.104599 0.439494
Si Si3 0.819953 0.511550 0.414847
Si Si4 0.232878 0.930243 0.683492
Si Si5 0.082229 0.539591 0.208228
Si Si6 0.569592 0.135370 0.875953
O O1 0.353472 0.447657 0.191954
O O2 0.836115 0.359273 0.139649
O O3 0.355793 0.064008 0.123834
O O4 0.476631 0.263092 0.992444
O O5 0.381866 0.338824 0.516470
O O6 0.514284 0.991179 0.396456
O O7 0.091913 0.098446 0.340329
O O8 0.000000 0.000000 0.500000
O O9 0.681053 0.283533 0.339363
O O10 0.000000 0.500000 0.500000
O O11 0.006616 0.618954 0.333274
O O12 0.297395 0.072711 0.802759
O O13 0.157822 0.730506 0.169163
#
# Coordination Sequence:
#
# PCOD8027112 Si02
#       6
#     2   2   2   2   2   2
#     4  11  28  47  75 108 147 186 243 306 359 431
#     4  11  24  42  67 100 134 183 237 284 352 424
#     4  10  24  44  67  99 142 183 232 294 348 418
#     4  11  24  42  67  97 141 180 230 292 352 419
#     4  12  26  48  74 106 145 194 241 297 366 430
#     4  11  26  48  76 108 145 191 242 299 367 432
#
# _framework density 27.384464000000001
#
# number of rings (size 3 to 8) (size 9 to 14) (size 15 to 20)
#    0.000    1.000    1.667    3.000    4.667   12.000 
#    0.000    0.000    0.000    0.000    0.000    0.000 
#    0.000    0.000    0.000    0.000    0.000    0.000 
#
# Total GULP energy -148748.246525 kJ/mol
# GULP energy per Si atom -12395.687210 kJ/mol
# Density = 2.732214 g / cm^3
# Si number density = 27.384464 Si / 1000 Ang^3
#
#
#
# Elastic Constant Matrix: (Units=GPa)
#
#
# Indices 1 2 3 4 5 6 
#
# 1 71.0433 1.3991 2.2014 7.5659 -5.2748 11.8433
# 2 1.3991 118.7024 16.1416 -9.7884 15.4611 8.6845
# 3 2.2014 16.1416 147.6350 -7.4640 7.3106 4.8887
# 4 7.5659 -9.7884 -7.4640 41.6850 3.9239 -2.8008
# 5 -5.2748 15.4611 7.3106 3.9239 22.6394 12.7686
# 6 11.8433 8.6845 4.8887 -2.8008 12.7686 28.7235
#
#
#
# Elastic Compliance Matrix: (Units=1/GPa)
#
#
# Indices 1 2 3 4 5 6 
#
# 1 0.018146 -0.001471 -0.000665 -0.006039 0.014322 -0.013879
# 2 -0.001471 0.009759 -0.000516 0.003387 -0.008464 0.001837
# 3 -0.000665 -0.000516 0.007031 0.001547 -0.002661 0.000567
# 4 -0.006039 0.003387 0.001547 0.028304 -0.015161 0.010702
# 5 0.014322 -0.008464 -0.002661 -0.015161 0.079063 -0.039518
# 6 -0.013879 0.001837 0.000567 0.010702 -0.039518 0.058496
#
#
# Mechanical properties :
#
#
# Convention : Reuss Voigt Hill
#
# Bulk Modulus (GPa) = 33.74655 41.87388 37.81021
# Shear Modulus (GPa) = 23.15036 39.78551 31.46794
#
# Velocity S-wave (km/s) = 2.91070 3.81576 3.39354
# Velocity P-wave (km/s) = 4.86274 5.89387 5.40296
#
# Compressibility (1/GPa) = 0.02963266
#
# Stress axis : x y z
#
# Youngs Moduli (GPa) = 55.10944 102.46719 142.22827
#
# Poissons Ratio (x) = 0.15078 0.09452
# Poissons Ratio (y) = 0.08109 0.07333
# Poissons Ratio (z) = 0.03663 0.05283
#
# Static dielectric constant tensor:
#      x y z
#    x 4.814970 0.075150 -0.025950 
#    y 0.075150 5.489440 0.023070 
#    z -0.025950 0.023070 5.450220 
# 
# 
# High freq. dielectric constant tensor:
#      x y z
#    x 2.076210 0.010690 -0.007390 
#    y 0.010690 2.119900 -0.002440 
#    z -0.007390 -0.002440 2.123550 
# 
# From -- ./inp_files/478702.got.cif
#   From: 2010.06.25/outbox.cif.g09.slc.cpg/sg2_240_cif.got.tgz:478702.got - 2010.06.27 13:26:56.
