data_PCOD8027330
_publ_section_title
;
Structure prediction by ZEFSAII (Michael W. Deem and Ramdas Pophale) SiO2 
 PCOD8027330
Probable space group: P -1
;
_chemical_formula_sum "Si O2"
_cell_formula_units_Z 10
_cell_length_a 15.203820
_cell_length_b 15.093614
_cell_length_c 9.435502
_cell_angle_alpha 39.301047
_cell_angle_beta 51.089111
_cell_angle_gamma 19.105528
_cell_volume 389.457003
_symmetry_space_group_name_H-M "P -1"
_symmetry_group_IT_number 2
_symmetry_cell_setting 'triclinic'
loop_
_space_group_symop_operation_xyz
x,y,z
-x,-y,-z
loop_
_atom_site_type_symbol
_atom_site_label
_atom_site_fract_x
_atom_site_fract_y
_atom_site_fract_z
Si Si1 0.673337 0.955364 0.243635
Si Si2 0.465626 0.579548 0.274438
Si Si3 0.645861 0.873219 0.863614
Si Si4 0.908600 0.044894 0.232531
Si Si5 0.535133 0.229317 0.334041
O O1 0.000000 0.500000 0.500000
O O2 0.423258 0.168329 0.130522
O O3 0.523303 0.138294 0.324949
O O4 0.716539 0.062846 0.003458
O O5 0.500000 0.500000 0.500000
O O6 0.780929 0.216245 0.312020
O O7 0.259541 0.686368 0.299221
O O8 0.486573 0.196505 0.565494
O O9 0.000000 0.500000 0.000000
O O10 0.500000 0.000000 0.000000
O O11 0.866240 0.930791 0.373794
O O12 0.723393 0.354307 0.925689
#
# Coordination Sequence:
#
# PCOD8027330 Si02
#       5
#     2   2   2   2   2
#     4  11  25  48  76 105 147 197 245 291 362 443
#     4  11  25  43  72 107 146 181 236 302 361 416
#     4  12  28  44  70 105 146 185 234 303 357 417
#     4  10  24  44  75 103 137 191 237 292 351 436
#     4  10  24  47  74 103 144 190 244 286 358 438
#
# _framework density 25.676777000000001
#
# number of rings (size 3 to 8) (size 9 to 14) (size 15 to 20)
#    0.000    1.200    0.000    3.600    5.600   15.200 
#    0.000    0.000    0.000    0.000    0.000    0.000 
#    0.000    0.000    0.000    0.000    0.000    0.000 
#
# Total GULP energy -123923.975910 kJ/mol
# GULP energy per Si atom -12392.397591 kJ/mol
# Density = 2.561834 g / cm^3
# Si number density = 25.676777 Si / 1000 Ang^3
#
#
#
# Elastic Constant Matrix: (Units=GPa)
#
#
# Indices 1 2 3 4 5 6 
#
# 1 179.0716 33.9979 36.6502 9.1037 12.4022 -12.5372
# 2 33.9979 98.7765 41.7567 20.0344 12.6012 -6.4892
# 3 36.6502 41.7567 163.0568 54.9151 15.3234 23.2094
# 4 9.1037 20.0344 54.9151 38.4709 3.1781 -0.0466
# 5 12.4022 12.6012 15.3234 3.1781 41.6518 1.3833
# 6 -12.5372 -6.4892 23.2094 -0.0466 1.3833 44.1777
#
#
#
# Elastic Compliance Matrix: (Units=1/GPa)
#
#
# Indices 1 2 3 4 5 6 
#
# 1 0.006457 -0.001484 -0.002228 0.002506 -0.000939 0.002817
# 2 -0.001484 0.012589 -0.001913 -0.003264 -0.002497 0.002508
# 3 -0.002228 -0.001913 0.015543 -0.020458 -0.002615 -0.009019
# 4 0.002506 -0.003264 -0.020458 0.056059 0.003127 0.010941
# 5 -0.000939 -0.002497 -0.002615 0.003127 0.025769 -0.000063
# 6 0.002817 0.002508 -0.009019 0.010941 -0.000063 0.028555
#
#
# Mechanical properties :
#
#
# Convention : Reuss Voigt Hill
#
# Bulk Modulus (GPa) = 42.84810 73.96826 58.40818
# Shear Modulus (GPa) = 30.48734 46.76008 38.62371
#
# Velocity S-wave (km/s) = 3.44953 4.27207 3.88264
# Velocity P-wave (km/s) = 5.70872 7.29411 6.54956
#
# Compressibility (1/GPa) = 0.02333826
#
# Stress axis : x y z
#
# Youngs Moduli (GPa) = 154.87145 79.43539 64.33683
#
# Poissons Ratio (x) = 0.11788 0.14335
# Poissons Ratio (y) = 0.22983 0.12309
# Poissons Ratio (z) = 0.34508 0.15197
#
# Static dielectric constant tensor:
#      x y z
#    x 8.215350 -1.180740 0.707280 
#    y -1.180740 4.567860 0.136330 
#    z 0.707280 0.136330 5.120890 
# 
# 
# High freq. dielectric constant tensor:
#      x y z
#    x 2.048000 -0.004400 0.002180 
#    y -0.004400 2.017540 0.027340 
#    z 0.002180 0.027340 2.039160 
# 
# From -- ./inp_files/16039.got.cif
#   From: 2010.06.25/outbox.cif.g09.slc.cpg/sg2_9_cif.got.tgz:16039.got - 2010.06.27 13:26:56.
