data_PCOD8027028
_publ_section_title
;
Structure prediction by ZEFSAII (Michael W. Deem and Ramdas Pophale) SiO2 
 PCOD8027028
Probable space group: P -1
;
_chemical_formula_sum "Si O2"
_cell_formula_units_Z 12
_cell_length_a 16.401988
_cell_length_b 13.161972
_cell_length_c 8.604457
_cell_angle_alpha 109.143229
_cell_angle_beta 72.294694
_cell_angle_gamma 162.783031
_cell_volume 519.138478
_symmetry_space_group_name_H-M "P -1"
_symmetry_group_IT_number 2
_symmetry_cell_setting 'triclinic'
loop_
_space_group_symop_operation_xyz
x,y,z
-x,-y,-z
loop_
_atom_site_type_symbol
_atom_site_label
_atom_site_fract_x
_atom_site_fract_y
_atom_site_fract_z
Si Si1 0.713926 0.829801 0.455514
Si Si2 0.956835 0.836488 0.857984
Si Si3 0.158694 0.712599 0.804988
Si Si4 0.529843 0.813238 0.396408
Si Si5 0.176255 0.495969 0.673938
Si Si6 0.757456 0.416904 0.973140
O O1 0.500000 0.500000 0.500000
O O2 0.601238 0.814148 0.488346
O O3 0.794441 0.877794 0.265243
O O4 0.968851 0.149748 0.585022
O O5 0.669212 0.485762 0.759093
O O6 0.958868 0.743407 0.937423
O O7 0.000000 0.000000 0.000000
O O8 0.036970 0.447812 0.719020
O O9 0.925365 0.503489 0.924315
O O10 0.205570 0.827104 0.669753
O O11 0.457502 0.052858 0.885557
O O12 0.401719 0.761106 0.537828
O O13 0.298234 0.617403 0.834060
#
# Coordination Sequence:
#
# PCOD8027028 Si02
#       6
#     2   2   2   2   2   2
#     4  11  26  43  66  98 135 178 232 282 338 412
#     4  10  24  44  66  94 134 184 226 283 339 405
#     4  11  24  47  70 102 141 180 230 279 340 410
#     4  10  24  44  65 100 134 177 232 277 345 407
#     4  11  26  41  70 100 137 182 220 289 343 403
#     4  11  25  44  70 107 137 178 233 281 339 407
#
# _framework density 23.115220000000001
#
# number of rings (size 3 to 8) (size 9 to 14) (size 15 to 20)
#    0.000    1.333    1.667    1.500    9.333    4.000 
#    0.000    0.000    0.000    0.000    0.000    0.000 
#    0.000    0.000    0.000    0.000    0.000    0.000 
#
# Total GULP energy -148774.275402 kJ/mol
# GULP energy per Si atom -12397.856283 kJ/mol
# Density = 2.306261 g / cm^3
# Si number density = 23.115220 Si / 1000 Ang^3
#
#
#
# Elastic Constant Matrix: (Units=GPa)
#
#
# Indices 1 2 3 4 5 6 
#
# 1 88.4883 22.8090 40.6390 9.1651 -9.8543 -0.4111
# 2 22.8090 83.2187 44.3706 -16.1841 -5.4989 -13.8206
# 3 40.6390 44.3706 139.6868 -2.2721 -14.8771 -13.9283
# 4 9.1651 -16.1841 -2.2721 19.7085 -4.1080 1.4101
# 5 -9.8543 -5.4989 -14.8771 -4.1080 40.9814 -5.0152
# 6 -0.4111 -13.8206 -13.9283 1.4101 -5.0152 44.2302
#
#
#
# Elastic Compliance Matrix: (Units=1/GPa)
#
#
# Indices 1 2 3 4 5 6 
#
# 1 0.015268 -0.004988 -0.003193 -0.011324 0.000462 -0.002009
# 2 -0.004988 0.019975 -0.003861 0.018464 0.002502 0.004674
# 3 -0.003193 -0.003861 0.009792 -0.000186 0.002512 0.002138
# 4 -0.011324 0.018464 -0.000186 0.072403 0.007452 0.004142
# 5 0.000462 0.002502 0.002512 0.007452 0.027046 0.004406
# 6 -0.002009 0.004674 0.002138 0.004142 0.004406 0.025092
#
#
# Mechanical properties :
#
#
# Convention : Reuss Voigt Hill
#
# Bulk Modulus (GPa) = 47.72892 58.55901 53.14397
# Shear Modulus (GPa) = 24.92001 34.55569 29.73785
#
# Velocity S-wave (km/s) = 3.28697 3.87063 3.59068
# Velocity P-wave (km/s) = 5.92441 6.73530 6.34283
#
# Compressibility (1/GPa) = 0.02095166
#
# Stress axis : x y z
#
# Youngs Moduli (GPa) = 65.49696 50.06363 102.12605
#
# Poissons Ratio (x) = 0.24970 0.32607
# Poissons Ratio (y) = 0.32667 0.39429
# Poissons Ratio (z) = 0.20912 0.19329
#
# Static dielectric constant tensor:
#      x y z
#    x 4.201580 -0.022810 0.085820 
#    y -0.022810 4.159100 -0.125910 
#    z 0.085820 -0.125910 4.258750 
# 
# 
# High freq. dielectric constant tensor:
#      x y z
#    x 1.913090 -0.007120 0.003760 
#    y -0.007120 1.908800 -0.009140 
#    z 0.003760 -0.009140 1.928360 
# 
# From -- ./inp_files/18875.got.cif
#   From: 2010.06.25/outbox.cif.g09.slc.cpg/sg2_10_cif.got.tgz:18875.got - 2010.06.27 13:26:56.
