data_PCOD8027972
_publ_section_title
;
Structure prediction by ZEFSAII (Michael W. Deem and Ramdas Pophale) SiO2 
 PCOD8027972
Probable space group: P -1
;
_chemical_formula_sum "Si O2"
_cell_formula_units_Z 14
_cell_length_a 15.640162
_cell_length_b 13.519166
_cell_length_c 5.151202
_cell_angle_alpha 97.309617
_cell_angle_beta 97.921177
_cell_angle_gamma 144.640674
_cell_volume 567.125068
_symmetry_space_group_name_H-M "P -1"
_symmetry_group_IT_number 2
_symmetry_cell_setting 'triclinic'
loop_
_space_group_symop_operation_xyz
x,y,z
-x,-y,-z
loop_
_atom_site_type_symbol
_atom_site_label
_atom_site_fract_x
_atom_site_fract_y
_atom_site_fract_z
Si Si1 0.812892 0.577459 0.764089
Si Si2 0.454645 0.865489 0.751334
Si Si3 0.288436 0.874488 0.463906
Si Si4 0.984471 0.253952 0.583604
Si Si5 0.718407 0.824245 0.291924
Si Si6 0.808730 0.798748 0.829030
Si Si7 0.469017 0.740775 0.122930
O O1 0.913023 0.621817 0.593107
O O2 0.767825 0.645457 0.684958
O O3 0.643978 0.353967 0.697504
O O4 0.907572 0.678739 0.110909
O O5 0.312991 0.779177 0.481714
O O6 0.623107 0.003397 0.722121
O O7 0.376764 0.688796 0.802222
O O8 0.500000 0.000000 0.000000
O O9 0.100659 0.725746 0.351066
O O10 0.382295 0.035510 0.765989
O O11 0.858879 0.043729 0.386634
O O12 0.730451 0.790862 0.572322
O O13 0.539292 0.697950 0.136397
O O14 0.731244 0.751297 0.057332
O O15 0.000000 0.000000 0.000000
#
# Coordination Sequence:
#
# PCOD8027972 Si02
#       7
#     2   2   2   2   2   2   2
#     4  12  26  40  62  93 135 164 205 266 320 358
#     4   9  19  40  68  93 121 158 211 256 309 371
#     4   9  21  40  70  91 120 164 215 252 303 386
#     4  11  23  40  65  94 123 169 214 254 309 377
#     4  11  23  40  67  89 120 171 222 254 297 376
#     4  12  22  40  63  92 124 167 216 261 305 361
#     4  10  25  39  63  94 128 163 205 261 319 367
#
# _framework density 24.685912999999999
#
# number of rings (size 3 to 8) (size 9 to 14) (size 15 to 20)
#    0.000    1.429    2.857    1.286   12.000    1.143 
#    0.000    1.429    0.000    0.000    0.000    0.000 
#    0.000    0.000    0.000    0.000    0.000    0.000 
#
# Total GULP energy -173482.354919 kJ/mol
# GULP energy per Si atom -12391.596780 kJ/mol
# Density = 2.462973 g / cm^3
# Si number density = 24.685913 Si / 1000 Ang^3
#
#
#
# Elastic Constant Matrix: (Units=GPa)
#
#
# Indices 1 2 3 4 5 6 
#
# 1 145.0861 50.6372 33.3935 -19.6727 23.4938 21.6042
# 2 50.6372 107.0939 38.8435 -29.0091 19.5173 14.6218
# 3 33.3935 38.8435 81.3746 -39.2109 14.6963 6.3695
# 4 -19.6727 -29.0091 -39.2109 41.5998 -3.5558 -9.0465
# 5 23.4938 19.5173 14.6963 -3.5558 40.0769 -13.6086
# 6 21.6042 14.6218 6.3695 -9.0465 -13.6086 38.6950
#
#
#
# Elastic Compliance Matrix: (Units=1/GPa)
#
#
# Indices 1 2 3 4 5 6 
#
# 1 0.010069 -0.002096 -0.001441 -0.000157 -0.006745 -0.007002
# 2 -0.002096 0.014303 -0.001641 0.005861 -0.006241 -0.004789
# 3 -0.001441 -0.001641 0.024833 0.021196 -0.005454 0.000374
# 4 -0.000157 0.005861 0.021196 0.048485 -0.004873 0.004006
# 5 -0.006745 -0.006241 -0.005454 -0.004873 0.040327 0.020065
# 6 -0.007002 -0.004789 0.000374 0.004006 0.020065 0.039494
#
#
# Mechanical properties :
#
#
# Convention : Reuss Voigt Hill
#
# Bulk Modulus (GPa) = 25.74111 64.36702 45.05406
# Shear Modulus (GPa) = 24.89854 38.11970 31.50912
#
# Velocity S-wave (km/s) = 3.17931 3.93388 3.57655
# Velocity P-wave (km/s) = 4.89157 6.83848 5.94526
#
# Compressibility (1/GPa) = 0.03884837
#
# Stress axis : x y z
#
# Youngs Moduli (GPa) = 99.31418 69.91748 40.26924
#
# Poissons Ratio (x) = 0.14652 0.05804
# Poissons Ratio (y) = 0.20812 0.06609
# Poissons Ratio (z) = 0.14314 0.11474
#
# Static dielectric constant tensor:
#      x y z
#    x 5.009820 -0.018860 0.625650 
#    y -0.018860 4.409780 -0.127060 
#    z 0.625650 -0.127060 5.566790 
# 
# 
# High freq. dielectric constant tensor:
#      x y z
#    x 1.992630 0.005240 0.004530 
#    y 0.005240 1.968420 -0.021370 
#    z 0.004530 -0.021370 1.990500 
# 
# From -- ./inp_files/35234.got.cif
#   From: 2010.06.25/outbox.cif.g09.slc.cpg/sg2_18_cif.got.tgz:35234.got - 2010.06.27 13:26:56.
