data_PCOD8027562
_publ_section_title
;
Structure prediction by ZEFSAII (Michael W. Deem and Ramdas Pophale) SiO2 
 PCOD8027562
Probable space group: P -1
;
_chemical_formula_sum "Si O2"
_cell_formula_units_Z 14
_cell_length_a 9.755536
_cell_length_b 15.694507
_cell_length_c 9.777977
_cell_angle_alpha 115.323967
_cell_angle_beta 136.208913
_cell_angle_gamma 35.938155
_cell_volume 560.967360
_symmetry_space_group_name_H-M "P -1"
_symmetry_group_IT_number 2
_symmetry_cell_setting 'triclinic'
loop_
_space_group_symop_operation_xyz
x,y,z
-x,-y,-z
loop_
_atom_site_type_symbol
_atom_site_label
_atom_site_fract_x
_atom_site_fract_y
_atom_site_fract_z
Si Si1 0.856803 0.438951 0.092048
Si Si2 0.560036 0.126279 0.329514
Si Si3 0.385322 0.750238 0.307080
Si Si4 0.588834 0.222331 0.974651
Si Si5 0.212701 0.568281 0.664397
Si Si6 0.198268 0.103728 0.454509
Si Si7 0.297864 0.992922 0.921186
O O1 0.978142 0.385375 0.301174
O O2 0.173656 0.292527 0.128050
O O3 0.710999 0.598031 0.063763
O O4 0.573681 0.470149 0.890643
O O5 0.656690 0.154899 0.544185
O O6 0.645142 0.988472 0.351785
O O7 0.760480 0.059564 0.285110
O O8 0.693957 0.563706 0.439737
O O9 0.027211 0.836484 0.127488
O O10 0.420322 0.776938 0.197068
O O11 0.937092 0.131032 0.216262
O O12 0.531000 0.137764 0.928450
O O13 0.984180 0.727356 0.526207
O O14 0.500000 0.000000 0.500000
O O15 0.500000 0.000000 0.000000
#
# Coordination Sequence:
#
# PCOD8027562 Si02
#       7
#     2   2   2   2   2   2   2
#     4   9  19  40  67  97 133 177 224 278 336 402
#     4  12  25  41  68 101 142 173 225 284 342 395
#     4  11  24  45  71 100 135 179 232 284 332 403
#     4  10  24  45  72  98 136 184 230 277 339 404
#     4   9  19  39  67 100 135 175 225 279 335 399
#     4  11  22  39  72 108 139 173 229 283 337 402
#     4  12  27  45  68  98 140 187 225 278 346 411
#
# _framework density 24.956890000000001
#
# number of rings (size 3 to 8) (size 9 to 14) (size 15 to 20)
#    0.000    1.429    2.857    2.571    2.000    2.857 
#    2.571    0.714    0.000    0.000    0.000    0.000 
#    0.000    0.000    0.000    0.000    0.000    0.000 
#
# Total GULP energy -173453.437417 kJ/mol
# GULP energy per Si atom -12389.531244 kJ/mol
# Density = 2.490009 g / cm^3
# Si number density = 24.956890 Si / 1000 Ang^3
#
#
#
# Elastic Constant Matrix: (Units=GPa)
#
#
# Indices 1 2 3 4 5 6 
#
# 1 101.7522 64.0463 20.2404 -4.3095 -18.9441 12.7230
# 2 64.0463 178.2082 32.3338 -25.3094 -20.4344 0.5848
# 3 20.2404 32.3338 58.6726 -14.7524 -12.5269 -3.6484
# 4 -4.3095 -25.3094 -14.7524 33.6905 -8.2942 -3.8476
# 5 -18.9441 -20.4344 -12.5269 -8.2942 19.7621 9.0652
# 6 12.7230 0.5848 -3.6484 -3.8476 9.0652 37.1619
#
#
#
# Elastic Compliance Matrix: (Units=1/GPa)
#
#
# Indices 1 2 3 4 5 6 
#
# 1 0.016761 -0.003499 0.000207 0.003001 0.018348 -0.009828
# 2 -0.003499 0.009371 0.000810 0.009627 0.011163 -0.000596
# 3 0.000207 0.000810 0.026862 0.018782 0.026892 -0.002062
# 4 0.003001 0.009627 0.018782 0.057551 0.051630 -0.005971
# 5 0.018348 0.011163 0.026892 0.051630 0.132585 -0.030814
# 6 -0.009828 -0.000596 -0.002062 -0.005971 -0.030814 0.036980
#
#
# Mechanical properties :
#
#
# Convention : Reuss Voigt Hill
#
# Bulk Modulus (GPa) = 20.82055 63.54153 42.18104
# Shear Modulus (GPa) = 16.60665 32.92373 24.76519
#
# Velocity S-wave (km/s) = 2.58236 3.63605 3.15353
# Velocity P-wave (km/s) = 4.15357 6.56838 5.49526
#
# Compressibility (1/GPa) = 0.04802946
#
# Stress axis : x y z
#
# Youngs Moduli (GPa) = 59.66226 106.70896 37.22740
#
# Poissons Ratio (x) = 0.37337 -0.00771
# Poissons Ratio (y) = 0.20875 -0.03014
# Poissons Ratio (z) = -0.01235 -0.08639
#
# Static dielectric constant tensor:
#      x y z
#    x 4.474360 -0.102690 -0.010040 
#    y -0.102690 5.109090 -0.032010 
#    z -0.010040 -0.032010 4.621600 
# 
# 
# High freq. dielectric constant tensor:
#      x y z
#    x 1.980180 -0.001620 0.017330 
#    y -0.001620 2.019550 -0.007260 
#    z 0.017330 -0.007260 1.990170 
# 
# From -- ./inp_files/207952.got.cif
#   From: 2010.06.25/outbox.cif.g09.slc.cpg/sg2_104_cif.got.tgz:207952.got - 2010.06.27 13:26:56.
