data_PCOD8027042
_publ_section_title
;
Structure prediction by ZEFSAII (Michael W. Deem and Ramdas Pophale) SiO2 
 PCOD8027042
Probable space group: P -1
;
_chemical_formula_sum "Si O2"
_cell_formula_units_Z 16
_cell_length_a 7.854009
_cell_length_b 8.985312
_cell_length_c 17.942856
_cell_angle_alpha 29.584270
_cell_angle_beta 88.834231
_cell_angle_gamma 89.854398
_cell_volume 624.722883
_symmetry_space_group_name_H-M "P -1"
_symmetry_group_IT_number 2
_symmetry_cell_setting 'triclinic'
loop_
_space_group_symop_operation_xyz
x,y,z
-x,-y,-z
loop_
_atom_site_type_symbol
_atom_site_label
_atom_site_fract_x
_atom_site_fract_y
_atom_site_fract_z
Si Si1 0.334084 0.712975 0.461252
Si Si2 0.981229 0.245518 0.454777
Si Si3 0.180057 0.076472 0.190884
Si Si4 0.521133 0.663455 0.616270
Si Si5 0.828615 0.867864 0.353228
Si Si6 0.345385 0.076338 0.913160
Si Si7 0.668148 0.320358 0.063263
Si Si8 0.175787 0.770119 0.172867
O O1 0.514133 0.694171 0.511858
O O2 0.281547 0.393762 0.569032
O O3 0.198739 0.819936 0.477133
O O4 0.342591 0.951455 0.289861
O O5 0.137971 0.195732 0.532832
O O6 0.997482 0.586927 0.270781
O O7 0.000000 0.000000 0.500000
O O8 0.216184 0.014069 0.130875
O O9 0.176708 0.430582 0.056699
O O10 0.010499 0.894290 0.297340
O O11 0.359594 0.436784 0.740188
O O12 0.690807 0.504252 0.710542
O O13 0.500000 0.000000 0.500000
O O14 0.718453 0.157961 0.210576
O O15 0.347586 0.897968 0.912640
O O16 0.500000 0.000000 0.000000
O O17 0.177706 0.955961 0.013615
O O18 0.500000 0.500000 0.000000
#
# Coordination Sequence:
#
# PCOD8027042 Si02
#       8
#     2   2   2   2   2   2   2   2
#     4  11  22  45  70  94 137 181 232 286 333 402
#     4  11  23  43  71 102 136 179 235 282 339 405
#     4  11  24  44  70  98 137 185 225 282 342 406
#     4  11  24  42  69 100 132 180 234 286 343 404
#     4  11  23  48  70  98 138 180 236 282 333 410
#     4  10  24  44  65  96 146 175 220 286 346 404
#     4  12  26  46  72 100 136 183 231 284 343 409
#     4  11  23  45  65 100 142 179 225 284 344 409
#
# _framework density 25.611356000000001
#
# number of rings (size 3 to 8) (size 9 to 14) (size 15 to 20)
#    0.000    1.000    3.750    3.375    7.000    1.500 
#    9.000    1.250    0.000    0.000    0.000    0.000 
#    0.000    0.000    0.000    0.000    0.000    0.000 
#
# Total GULP energy -198313.790870 kJ/mol
# GULP energy per Si atom -12394.611929 kJ/mol
# Density = 2.555306 g / cm^3
# Si number density = 25.611356 Si / 1000 Ang^3
#
#
#
# Elastic Constant Matrix: (Units=GPa)
#
#
# Indices 1 2 3 4 5 6 
#
# 1 18.3698 -2.1104 -21.4133 -4.8986 0.7716 -1.5012
# 2 -2.1104 150.3502 53.7629 -13.7780 -15.6069 7.0717
# 3 -21.4133 53.7629 135.0730 -13.4180 -10.3973 5.1679
# 4 -4.8986 -13.7780 -13.4180 50.1006 5.6481 -5.4933
# 5 0.7716 -15.6069 -10.3973 5.6481 33.0148 -0.8737
# 6 -1.5012 7.0717 5.1679 -5.4933 -0.8737 36.3341
#
#
#
# Elastic Compliance Matrix: (Units=1/GPa)
#
#
# Indices 1 2 3 4 5 6 
#
# 1 0.073100 -0.003133 0.013699 0.010373 -0.000564 0.003236
# 2 -0.003133 0.008236 -0.003462 0.000603 0.002744 -0.001083
# 3 0.013699 -0.003462 0.011359 0.003327 0.001055 0.000153
# 4 0.010373 0.000603 0.003327 0.022687 -0.002706 0.003203
# 5 -0.000564 0.002744 0.001055 -0.002706 0.032386 -0.000338
# 6 0.003236 -0.001083 0.000153 0.003203 -0.000338 0.028321
#
#
# Mechanical properties :
#
#
# Convention : Reuss Voigt Hill
#
# Bulk Modulus (GPa) = 9.35428 40.47461 24.91444
# Shear Modulus (GPa) = 25.31429 42.12680 33.72054
#
# Velocity S-wave (km/s) = 3.14729 4.06007 3.63247
# Velocity P-wave (km/s) = 4.10702 6.14952 5.22897
#
# Compressibility (1/GPa) = 0.10690297
#
# Stress axis : x y z
#
# Youngs Moduli (GPa) = 13.67991 121.41317 88.03536
#
# Poissons Ratio (x) = 0.38033 -1.20597
# Poissons Ratio (y) = 0.04285 0.30480
# Poissons Ratio (z) = -0.18740 0.42037
#
# Static dielectric constant tensor:
#      x y z
#    x 4.609450 0.532220 0.323350 
#    y 0.532220 4.260120 -0.186890 
#    z 0.323350 -0.186890 4.738160 
# 
# 
# High freq. dielectric constant tensor:
#      x y z
#    x 2.027140 0.012320 -0.008660 
#    y 0.012320 2.017540 0.006230 
#    z -0.008660 0.006230 2.045640 
# 
# From -- ./inp_files/186757.got.cif
#   From: 2010.06.25/outbox.cif.g09.slc.cpg/sg2_94_cif.got.tgz:186757.got - 2010.06.27 13:26:56.
