data_PCOD8027098
_publ_section_title
;
Structure prediction by ZEFSAII (Michael W. Deem and Ramdas Pophale) SiO2 
 PCOD8027098
Probable space group: P -1
;
_chemical_formula_sum "Si O2"
_cell_formula_units_Z 14
_cell_length_a 12.345470
_cell_length_b 8.696514
_cell_length_c 9.808182
_cell_angle_alpha 133.816007
_cell_angle_beta 121.631072
_cell_angle_gamma 75.958704
_cell_volume 634.392754
_symmetry_space_group_name_H-M "P -1"
_symmetry_group_IT_number 2
_symmetry_cell_setting 'triclinic'
loop_
_space_group_symop_operation_xyz
x,y,z
-x,-y,-z
loop_
_atom_site_type_symbol
_atom_site_label
_atom_site_fract_x
_atom_site_fract_y
_atom_site_fract_z
Si Si1 0.836215 0.262143 0.006802
Si Si2 0.016840 0.701225 0.425097
Si Si3 0.016389 0.855055 0.221268
Si Si4 0.221233 0.170060 0.133164
Si Si5 0.416775 0.675038 0.012610
Si Si6 0.499250 0.106052 0.209764
Si Si7 0.720981 0.403564 0.415778
O O1 0.875602 0.197282 0.843043
O O2 0.838525 0.064353 0.989197
O O3 0.933053 0.466282 0.262710
O O4 0.692434 0.318778 0.940559
O O5 0.021777 0.712709 0.271485
O O6 0.162391 0.728596 0.596939
O O7 0.951388 0.889372 0.561889
O O8 0.871929 0.783790 0.021345
O O9 0.367124 0.194220 0.191427
O O10 0.220254 0.346926 0.359171
O O11 0.349742 0.611378 0.784330
O O12 0.500000 0.500000 0.000000
O O13 0.506421 0.918061 0.211628
O O14 0.623566 0.303109 0.414129
O O15 0.500000 0.000000 0.000000
#
# Coordination Sequence:
#
# PCOD8027098 Si02
#       7
#     2   2   2   2   2   2   2
#     4  11  24  43  66  96 135 166 213 272 318 386
#     4  11  25  42  68  96 131 175 210 263 324 382
#     4  11  24  43  64  99 131 170 217 259 321 389
#     4  11  23  40  67  96 129 169 215 267 322 379
#     4  10  24  44  67  94 128 172 213 271 323 374
#     4   9  20  42  63  90 127 170 216 259 317 381
#     4  11  23  42  66  94 128 172 218 260 325 382
#
# _framework density 22.068349000000001
#
# number of rings (size 3 to 8) (size 9 to 14) (size 15 to 20)
#    0.000    1.429    1.429    3.857    2.000    5.714 
#    2.571    1.429    0.000    0.000    0.000    0.000 
#    0.000    0.000    0.000    0.000    0.000    0.000 
#
# Total GULP energy -173618.148063 kJ/mol
# GULP energy per Si atom -12401.296290 kJ/mol
# Density = 2.201812 g / cm^3
# Si number density = 22.068349 Si / 1000 Ang^3
#
#
#
# Elastic Constant Matrix: (Units=GPa)
#
#
# Indices 1 2 3 4 5 6 
#
# 1 142.9962 59.6433 25.0167 8.5938 1.0330 -10.4670
# 2 59.6433 119.5186 43.6812 -0.7439 19.7943 -16.2797
# 3 25.0167 43.6812 83.2209 9.8557 0.7311 4.0874
# 4 8.5938 -0.7439 9.8557 36.6234 1.6613 8.1562
# 5 1.0330 19.7943 0.7311 1.6613 34.4765 7.5243
# 6 -10.4670 -16.2797 4.0874 8.1562 7.5243 32.5841
#
#
#
# Elastic Compliance Matrix: (Units=1/GPa)
#
#
# Indices 1 2 3 4 5 6 
#
# 1 0.009244 -0.005051 0.000126 -0.002526 0.002643 0.000452
# 2 -0.005051 0.017267 -0.008180 0.001987 -0.011930 0.010288
# 3 0.000126 -0.008180 0.016967 -0.003548 0.005958 -0.006663
# 4 -0.002526 0.001987 -0.003548 0.030445 -0.000980 -0.006768
# 5 0.002643 -0.011930 0.005958 -0.000980 0.038881 -0.014591
# 6 0.000452 0.010288 -0.006663 -0.006768 -0.014591 0.041874
#
#
# Mechanical properties :
#
#
# Convention : Reuss Voigt Hill
#
# Bulk Modulus (GPa) = 57.91375 66.93534 62.42454
# Shear Modulus (GPa) = 26.78913 35.22979 31.00946
#
# Velocity S-wave (km/s) = 3.48791 3.99982 3.75261
# Velocity P-wave (km/s) = 6.52078 7.19223 6.86472
#
# Compressibility (1/GPa) = 0.01726706
#
# Stress axis : x y z
#
# Youngs Moduli (GPa) = 108.18248 57.91515 58.93747
#
# Poissons Ratio (x) = 0.29253 -0.00744
# Poissons Ratio (y) = 0.54642 0.48213
# Poissons Ratio (z) = -0.01365 0.47377
#
# Static dielectric constant tensor:
#      x y z
#    x 3.926740 0.127120 -0.084110 
#    y 0.127120 4.130410 0.393230 
#    z -0.084110 0.393230 3.879170 
# 
# 
# High freq. dielectric constant tensor:
#      x y z
#    x 1.881480 -0.002010 -0.006240 
#    y -0.002010 1.869420 0.021460 
#    z -0.006240 0.021460 1.860390 
# 
# From -- ./inp_files/246197.got.cif
#   From: 2010.06.25/outbox.cif.g09.slc.cpg/sg2_124_cif.got.tgz:246197.got - 2010.06.27 13:26:56.
