data_PCOD8027915
_publ_section_title
;
Structure prediction by ZEFSAII (Michael W. Deem and Ramdas Pophale) SiO2 
 PCOD8027915
Probable space group: P -1
;
_chemical_formula_sum "Si O2"
_cell_formula_units_Z 14
_cell_length_a 23.035564
_cell_length_b 8.326721
_cell_length_c 6.596672
_cell_angle_alpha 121.332022
_cell_angle_beta 132.655616
_cell_angle_gamma 39.081998
_cell_volume 586.606575
_symmetry_space_group_name_H-M "P -1"
_symmetry_group_IT_number 2
_symmetry_cell_setting 'triclinic'
loop_
_space_group_symop_operation_xyz
x,y,z
-x,-y,-z
loop_
_atom_site_type_symbol
_atom_site_label
_atom_site_fract_x
_atom_site_fract_y
_atom_site_fract_z
Si Si1 0.992915 0.062346 0.295876
Si Si2 0.606777 0.761224 0.205109
Si Si3 0.505615 0.681228 0.253212
Si Si4 0.882376 0.609253 0.310384
Si Si5 0.704679 0.926217 0.774754
Si Si6 0.142409 0.978903 0.295339
Si Si7 0.669978 0.374902 0.772822
O O1 0.895883 0.370972 0.250663
O O2 0.962401 0.916145 0.012737
O O3 0.000000 0.000000 0.500000
O O4 0.109883 0.949785 0.422485
O O5 0.574229 0.717390 0.310869
O O6 0.687504 0.799171 0.476016
O O7 0.673094 0.522927 0.054670
O O8 0.500000 0.000000 0.000000
O O9 0.554981 0.561504 0.513836
O O10 0.386492 0.949082 0.186028
O O11 0.500000 0.500000 0.000000
O O12 0.000000 0.500000 0.500000
O O13 0.832519 0.836160 0.507958
O O14 0.817880 0.720141 0.019118
O O15 0.698956 0.134399 0.788795
O O16 0.245108 0.716003 0.264684
#
# Coordination Sequence:
#
# PCOD8027915 Si02
#       7
#     2   2   2   2   2   2   2
#     4  10  24  48  78 105 147 194 252 307 380 432
#     4  12  27  47  75 108 153 201 252 302 373 447
#     4  12  24  46  76 106 153 192 251 306 366 452
#     4  10  25  49  74 107 147 193 255 303 367 450
#     4  12  26  47  75 108 150 204 245 312 376 431
#     4  10  25  46  71 109 147 189 248 310 370 441
#     4  12  27  46  72 110 154 193 249 304 378 439
#
# _framework density 23.86608
#
# number of rings (size 3 to 8) (size 9 to 14) (size 15 to 20)
#    0.000    0.857    2.857    2.571    6.000    1.714 
#   10.286    0.000    0.000    0.000    0.000    0.000 
#    0.000    0.000    0.000    0.000    0.000    0.000 
#
# Total GULP energy -173537.362773 kJ/mol
# GULP energy per Si atom -12395.525912 kJ/mol
# Density = 2.381176 g / cm^3
# Si number density = 23.866080 Si / 1000 Ang^3
#
#
#
# Elastic Constant Matrix: (Units=GPa)
#
#
# Indices 1 2 3 4 5 6 
#
# 1 103.9356 60.1526 47.6580 5.4817 -19.0694 -5.6757
# 2 60.1526 112.0263 81.5305 -2.5693 -5.8861 14.4603
# 3 47.6580 81.5305 185.5790 9.5054 6.4750 18.7220
# 4 5.4817 -2.5693 9.5054 55.0624 2.4963 -1.6378
# 5 -19.0694 -5.8861 6.4750 2.4963 41.7392 0.8105
# 6 -5.6757 14.4603 18.7220 -1.6378 0.8105 46.3253
#
#
#
# Elastic Compliance Matrix: (Units=1/GPa)
#
#
# Indices 1 2 3 4 5 6 
#
# 1 0.016616 -0.008373 -0.001218 -0.001987 0.006622 0.004955
# 2 -0.008373 0.017948 -0.005406 0.002499 -0.000521 -0.004346
# 3 -0.001218 -0.005406 0.008431 -0.001529 -0.002499 -0.001880
# 4 -0.001987 0.002499 -0.001529 0.018814 -0.001449 0.000285
# 5 0.006622 -0.000521 -0.002499 -0.001449 0.027356 0.001454
# 6 0.004955 -0.004346 -0.001880 0.000285 0.001454 0.024294
#
#
# Mechanical properties :
#
#
# Convention : Reuss Voigt Hill
#
# Bulk Modulus (GPa) = 76.91457 86.69148 81.80302
# Shear Modulus (GPa) = 33.83237 42.77203 38.30220
#
# Velocity S-wave (km/s) = 3.76918 4.23799 4.01044
# Velocity P-wave (km/s) = 7.15820 7.76855 7.46961
#
# Compressibility (1/GPa) = 0.01300144
#
# Stress axis : x y z
#
# Youngs Moduli (GPa) = 60.18294 55.71728 118.60322
#
# Poissons Ratio (x) = 0.46652 0.14443
# Poissons Ratio (y) = 0.50391 0.64118
# Poissons Ratio (z) = 0.07329 0.30121
#
# Static dielectric constant tensor:
#      x y z
#    x 3.274960 -1.619690 1.085430 
#    y -1.619690 3.226730 2.083290 
#    z 1.085430 2.083290 3.808930 
# 
# 
# High freq. dielectric constant tensor:
#      x y z
#    x 1.939630 -0.002930 0.004490 
#    y -0.002930 1.948440 0.018400 
#    z 0.004490 0.018400 1.963000 
# 
# From -- ./inp_files/47327.got.cif
#   From: 2010.06.25/outbox.cif.g09.slc.cpg/sg2_24_cif.got.tgz:47327.got - 2010.06.27 13:26:56.
