data_PCOD8027373
_publ_section_title
;
Structure prediction by ZEFSAII (Michael W. Deem and Ramdas Pophale) SiO2 
 PCOD8027373
Probable space group: P -1
;
_chemical_formula_sum "Si O2"
_cell_formula_units_Z 16
_cell_length_a 8.535126
_cell_length_b 21.949539
_cell_length_c 11.105563
_cell_angle_alpha 31.820339
_cell_angle_beta 42.879975
_cell_angle_gamma 52.748244
_cell_volume 745.584928
_symmetry_space_group_name_H-M "P -1"
_symmetry_group_IT_number 2
_symmetry_cell_setting 'triclinic'
loop_
_space_group_symop_operation_xyz
x,y,z
-x,-y,-z
loop_
_atom_site_type_symbol
_atom_site_label
_atom_site_fract_x
_atom_site_fract_y
_atom_site_fract_z
Si Si1 0.017555 0.361785 0.724584
Si Si2 0.367828 0.239960 0.581009
Si Si3 0.701889 0.709625 0.083663
Si Si4 0.493519 0.708891 0.841569
Si Si5 0.313652 0.094948 0.426240
Si Si6 0.865981 0.609452 0.924227
Si Si7 0.127138 0.996393 0.060137
Si Si8 0.693195 0.237664 0.625050
O O1 0.000000 0.500000 0.500000
O O2 0.167381 0.324839 0.588109
O O3 0.117067 0.304519 0.885960
O O4 0.764575 0.304313 0.942609
O O5 0.502772 0.287276 0.309553
O O6 0.565466 0.243616 0.561314
O O7 0.261848 0.112977 0.827787
O O8 0.443964 0.689890 0.318529
O O9 0.695856 0.836879 0.810789
O O10 0.768570 0.614551 0.107111
O O11 0.630954 0.816523 0.645298
O O12 0.642130 0.600804 0.978875
O O13 0.500000 0.000000 0.500000
O O14 0.061865 0.032697 0.682068
O O15 0.041505 0.718477 0.613493
O O16 0.000000 0.500000 0.000000
O O17 0.310183 0.897062 0.111249
O O18 0.000000 0.000000 0.000000
#
# Coordination Sequence:
#
# PCOD8027373 Si02
#       8
#     2   2   2   2   2   2   2   2
#     4  11  27  47  68  98 139 181 231 282 345 409
#     4  11  25  43  69 100 135 180 226 278 345 412
#     4  10  24  45  65  99 137 178 224 284 336 405
#     4  11  24  43  68  99 131 177 226 281 342 404
#     4  11  22  42  68 100 141 177 223 278 339 405
#     4  11  25  43  69  99 131 179 235 286 340 399
#     4  12  21  42  67 101 138 177 226 278 338 414
#     4  11  23  44  65  98 138 175 226 279 345 410
#
# _framework density 21.459661000000001
#
# number of rings (size 3 to 8) (size 9 to 14) (size 15 to 20)
#    0.000    1.000    3.750    2.625    5.250    4.000 
#    0.000    1.875    0.000    0.000    0.000    0.000 
#    0.000    0.000    0.000    0.000    0.000    0.000 
#
# Total GULP energy -198304.465232 kJ/mol
# GULP energy per Si atom -12394.029077 kJ/mol
# Density = 2.141082 g / cm^3
# Si number density = 21.459661 Si / 1000 Ang^3
#
#
#
# Elastic Constant Matrix: (Units=GPa)
#
#
# Indices 1 2 3 4 5 6 
#
# 1 94.2499 32.1796 33.8158 11.3511 12.4860 -19.2295
# 2 32.1796 129.2707 19.8493 -1.3465 5.1982 -13.8641
# 3 33.8158 19.8493 50.3280 9.2818 3.8347 3.0023
# 4 11.3511 -1.3465 9.2818 41.7404 -5.8466 3.6337
# 5 12.4860 5.1982 3.8347 -5.8466 36.3427 1.7643
# 6 -19.2295 -13.8641 3.0023 3.6337 1.7643 38.6601
#
#
#
# Elastic Compliance Matrix: (Units=1/GPa)
#
#
# Indices 1 2 3 4 5 6 
#
# 1 0.018619 -0.001612 -0.011206 -0.004382 -0.006186 0.010248
# 2 -0.001612 0.008849 -0.002723 0.001059 -0.000376 0.002501
# 3 -0.011206 -0.002723 0.029394 -0.002667 0.001128 -0.008634
# 4 -0.004382 0.001059 -0.002667 0.027029 0.006198 -0.004416
# 5 -0.006186 -0.000376 0.001128 0.006198 0.030830 -0.005289
# 6 0.010248 0.002501 -0.008634 -0.004416 -0.005289 0.033187
#
#
# Mechanical properties :
#
#
# Convention : Reuss Voigt Hill
#
# Bulk Modulus (GPa) = 38.78956 49.50421 44.14688
# Shear Modulus (GPa) = 26.65449 35.88222 31.26835
#
# Velocity S-wave (km/s) = 3.52813 4.09354 3.82131
# Velocity P-wave (km/s) = 5.89167 6.74250 6.33139
#
# Compressibility (1/GPa) = 0.02578014
#
# Stress axis : x y z
#
# Youngs Moduli (GPa) = 53.70757 113.00149 34.02027
#
# Poissons Ratio (x) = 0.18216 0.38125
# Poissons Ratio (y) = 0.08658 0.09263
# Poissons Ratio (z) = 0.60187 0.30770
#
# Static dielectric constant tensor:
#      x y z
#    x -3.444960 1.395360 0.112950 
#    y 1.395360 3.819670 0.055100 
#    z 0.112950 0.055100 4.068290 
# 
# 
# High freq. dielectric constant tensor:
#      x y z
#    x 1.848260 -0.017850 0.008680 
#    y -0.017850 1.861540 0.009970 
#    z 0.008680 0.009970 1.837980 
# 
# From -- ./inp_files/399031.got.cif
#   From: 2010.06.25/outbox.cif.g09.slc.cpg/sg2_200_cif.got.tgz:399031.got - 2010.06.27 13:26:56.
