data_PCOD8027466
_publ_section_title
;
Structure prediction by ZEFSAII (Michael W. Deem and Ramdas Pophale) SiO2 
 PCOD8027466
Probable space group: P -1
;
_chemical_formula_sum "Si O2"
_cell_formula_units_Z 14
_cell_length_a 8.475724
_cell_length_b 11.991472
_cell_length_c 20.627963
_cell_angle_alpha 33.937085
_cell_angle_beta 145.405434
_cell_angle_gamma 123.359631
_cell_volume 603.155178
_symmetry_space_group_name_H-M "P -1"
_symmetry_group_IT_number 2
_symmetry_cell_setting 'triclinic'
loop_
_space_group_symop_operation_xyz
x,y,z
-x,-y,-z
loop_
_atom_site_type_symbol
_atom_site_label
_atom_site_fract_x
_atom_site_fract_y
_atom_site_fract_z
Si Si1 0.357489 0.167832 0.021357
Si Si2 0.674742 0.788189 0.393300
Si Si3 0.300553 0.397339 0.017757
Si Si4 0.981509 0.038680 0.853736
Si Si5 0.663246 0.395025 0.253963
Si Si6 0.813190 0.415087 0.525810
Si Si7 0.317660 0.520087 0.207132
O O1 0.229275 0.244147 0.014992
O O2 0.654636 0.943556 0.248500
O O3 0.434137 0.350969 0.923366
O O4 0.119354 0.105036 0.931807
O O5 0.379870 0.887277 0.292334
O O6 0.720619 0.553513 0.494098
O O7 0.973239 0.751725 0.554770
O O8 0.501417 0.283673 0.204533
O O9 0.500000 0.500000 0.000000
O O10 0.958997 0.560263 0.847384
O O11 0.016194 0.167073 0.739138
O O12 0.169182 0.784394 0.021580
O O13 0.544698 0.400142 0.283627
O O14 0.503603 0.437631 0.375908
O O15 0.000000 0.500000 0.500000
#
# Coordination Sequence:
#
# PCOD8027466 Si02
#       7
#     2   2   2   2   2   2   2
#     4  11  22  43  67  99 133 171 219 275 324 392
#     4  12  23  40  65 100 131 172 217 269 325 393
#     4  10  24  45  69  93 127 184 226 267 319 388
#     4  12  25  39  71 101 135 168 219 272 339 392
#     4  11  26  42  68  92 138 174 221 266 326 389
#     4  12  25  40  67 105 139 169 211 273 340 397
#     4  12  24  45  67 100 135 174 215 275 333 390
#
# _framework density 23.211272999999998
#
# number of rings (size 3 to 8) (size 9 to 14) (size 15 to 20)
#    0.000    0.571    5.714    2.143    6.000    1.714 
#    0.000    0.000    0.000    4.286    0.000    0.000 
#    0.000    0.000    0.000    0.000    0.000    0.000 
#
# Total GULP energy -173476.545388 kJ/mol
# GULP energy per Si atom -12391.181813 kJ/mol
# Density = 2.315844 g / cm^3
# Si number density = 23.211273 Si / 1000 Ang^3
#
#
#
# Elastic Constant Matrix: (Units=GPa)
#
#
# Indices 1 2 3 4 5 6 
#
# 1 79.5100 23.3037 24.9636 12.6256 -1.3920 1.4417
# 2 23.3037 61.6495 45.4377 30.3062 6.3684 -8.0374
# 3 24.9636 45.4377 134.1345 35.5172 -18.5731 1.7010
# 4 12.6256 30.3062 35.5172 56.2289 8.0314 -6.2517
# 5 -1.3920 6.3684 -18.5731 8.0314 35.2280 -2.9227
# 6 1.4417 -8.0374 1.7010 -6.2517 -2.9227 35.8951
#
#
#
# Elastic Compliance Matrix: (Units=1/GPa)
#
#
# Indices 1 2 3 4 5 6 
#
# 1 0.014390 -0.005061 -0.000685 -0.000409 0.001078 -0.001662
# 2 -0.005061 0.029421 -0.008001 -0.008025 -0.007479 0.005164
# 3 -0.000685 -0.008001 0.013040 -0.005386 0.009310 -0.002562
# 4 -0.000409 -0.008025 -0.005386 0.026937 -0.007333 0.002569
# 5 0.001078 -0.007479 0.009310 -0.007333 0.036322 -0.000479
# 6 -0.001662 0.005164 -0.002562 0.002569 -0.000479 0.029612
#
#
# Mechanical properties :
#
#
# Convention : Reuss Voigt Hill
#
# Bulk Modulus (GPa) = 34.06239 51.41153 42.73696
# Shear Modulus (GPa) = 26.73783 37.57634 32.15708
#
# Velocity S-wave (km/s) = 3.39770 4.02790 3.72614
# Velocity P-wave (km/s) = 5.48628 6.62038 6.07983
#
# Compressibility (1/GPa) = 0.02935790
#
# Stress axis : x y z
#
# Youngs Moduli (GPa) = 69.49509 33.98881 76.68425
#
# Poissons Ratio (x) = 0.17203 0.05251
# Poissons Ratio (y) = 0.35175 0.61352
# Poissons Ratio (z) = 0.04759 0.27193
#
# Static dielectric constant tensor:
#      x y z
#    x 4.133530 -0.142810 -0.213110 
#    y -0.142810 4.652620 0.259880 
#    z -0.213110 0.259880 4.544560 
# 
# 
# High freq. dielectric constant tensor:
#      x y z
#    x 1.919190 -0.003130 -0.009420 
#    y -0.003130 1.906310 0.019470 
#    z -0.009420 0.019470 1.925030 
# 
# From -- ./inp_files/258470.got.cif
#   From: 2010.06.25/outbox.cif.g09.slc.cpg/sg2_130_cif.got.tgz:258470.got - 2010.06.27 13:26:56.
