data_PCOD8027445
_publ_section_title
;
Structure prediction by ZEFSAII (Michael W. Deem and Ramdas Pophale) SiO2 
 PCOD8027445
Probable space group: P -1
;
_chemical_formula_sum "Si O2"
_cell_formula_units_Z 16
_cell_length_a 14.686870
_cell_length_b 22.816516
_cell_length_c 6.321268
_cell_angle_alpha 77.000388
_cell_angle_beta 104.655128
_cell_angle_gamma 160.084518
_cell_volume 697.544285
_symmetry_space_group_name_H-M "P -1"
_symmetry_group_IT_number 2
_symmetry_cell_setting 'triclinic'
loop_
_space_group_symop_operation_xyz
x,y,z
-x,-y,-z
loop_
_atom_site_type_symbol
_atom_site_label
_atom_site_fract_x
_atom_site_fract_y
_atom_site_fract_z
Si Si1 0.228507 0.700213 0.163067
Si Si2 0.821496 0.511426 0.374743
Si Si3 0.272902 0.814486 0.710774
Si Si4 0.683771 0.026241 0.443440
Si Si5 0.429518 0.317999 0.990022
Si Si6 0.262190 0.312318 0.564630
Si Si7 0.048370 0.087376 0.317494
Si Si8 0.529440 0.273081 0.756949
O O1 0.238202 0.637315 0.131303
O O2 0.974821 0.553667 0.288915
O O3 0.503518 0.875499 0.313987
O O4 0.192031 0.725594 0.932799
O O5 0.586014 0.337022 0.509478
O O6 0.027897 0.669033 0.518984
O O7 0.681365 0.477599 0.169254
O O8 0.303954 0.902263 0.729397
O O9 0.545456 0.952948 0.651152
O O10 0.978023 0.175363 0.539411
O O11 0.354504 0.334469 0.815044
O O12 0.519217 0.318603 0.887724
O O13 0.171192 0.143538 0.117366
O O14 0.500000 0.500000 0.500000
O O15 0.236837 0.248736 0.413377
O O16 0.000000 0.000000 0.500000
O O17 0.746168 0.930632 0.234278
#
# Coordination Sequence:
#
# PCOD8027445 Si02
#       8
#     2   2   2   2   2   2   2   2
#     4  11  24  43  74 102 136 188 231 291 361 417
#     4  11  25  44  69 105 146 178 233 294 359 428
#     4  10  24  46  70 100 139 185 232 290 352 425
#     4  10  24  45  69 100 138 179 237 292 346 426
#     4  12  27  45  74 104 143 198 230 297 363 423
#     4  12  29  47  74 108 146 187 243 301 356 429
#     4  12  25  48  72 106 145 192 242 291 356 432
#     4  12  25  44  70 105 143 179 242 293 354 429
#
# _framework density 22.937609999999999
#
# number of rings (size 3 to 8) (size 9 to 14) (size 15 to 20)
#    0.000    0.750    3.750    1.875    7.000    4.500 
#    0.000    0.000    0.000    0.000    0.000    0.000 
#    0.000    0.000    0.000    0.000    0.000    0.000 
#
# Total GULP energy -198390.320668 kJ/mol
# GULP energy per Si atom -12399.395042 kJ/mol
# Density = 2.288540 g / cm^3
# Si number density = 22.937610 Si / 1000 Ang^3
#
#
#
# Elastic Constant Matrix: (Units=GPa)
#
#
# Indices 1 2 3 4 5 6 
#
# 1 127.0698 43.7796 60.6520 -12.6251 0.8197 14.0735
# 2 43.7796 131.6595 59.4726 -5.2889 -0.8646 20.8018
# 3 60.6520 59.4726 131.9208 -16.5391 7.6131 14.9027
# 4 -12.6251 -5.2889 -16.5391 41.5777 10.0011 7.2027
# 5 0.8197 -0.8646 7.6131 10.0011 31.5693 -2.5888
# 6 14.0735 20.8018 14.9027 7.2027 -2.5888 38.7438
#
#
#
# Elastic Compliance Matrix: (Units=1/GPa)
#
#
# Indices 1 2 3 4 5 6 
#
# 1 0.010558 -0.001434 -0.003728 0.001934 -0.000191 -0.002004
# 2 -0.001434 0.010275 -0.003664 -0.000221 0.000987 -0.003479
# 3 -0.003728 -0.003664 0.012097 0.004768 -0.004639 -0.002528
# 4 0.001934 -0.000221 0.004768 0.030875 -0.011720 -0.008941
# 5 -0.000191 0.000987 -0.004639 -0.011720 0.037030 0.005977
# 6 -0.002004 -0.003479 -0.002528 -0.008941 0.005977 0.031440
#
#
# Mechanical properties :
#
#
# Convention : Reuss Voigt Hill
#
# Bulk Modulus (GPa) = 65.45467 79.82874 72.64170
# Shear Modulus (GPa) = 32.25362 37.49455 34.87408
#
# Velocity S-wave (km/s) = 3.75393 4.04744 3.90345
# Velocity P-wave (km/s) = 6.88384 7.53130 7.21484
#
# Compressibility (1/GPa) = 0.01527775
#
# Stress axis : x y z
#
# Youngs Moduli (GPa) = 94.71071 97.32611 82.66293
#
# Poissons Ratio (x) = 0.13955 0.30818
# Poissons Ratio (y) = 0.13580 0.30291
# Poissons Ratio (z) = 0.35309 0.35664
#
# Static dielectric constant tensor:
#      x y z
#    x 4.228590 -0.039410 -0.368530 
#    y -0.039410 5.697380 1.141870 
#    z -0.368530 1.141870 5.175800 
# 
# 
# High freq. dielectric constant tensor:
#      x y z
#    x 1.909970 0.021320 -0.003130 
#    y 0.021320 1.920210 0.000840 
#    z -0.003130 0.000840 1.905700 
# 
# From -- ./inp_files/101095.got.cif
#   From: 2010.06.25/outbox.cif.g09.slc.cpg/sg2_51_cif.got.tgz:101095.got - 2010.06.27 13:26:56.
