data_PCOD8027749
_publ_section_title
;
Structure prediction by ZEFSAII (Michael W. Deem and Ramdas Pophale) SiO2 
 PCOD8027749
Probable space group: P -1
;
_chemical_formula_sum "Si O2"
_cell_formula_units_Z 14
_cell_length_a 17.733913
_cell_length_b 5.230940
_cell_length_c 11.175872
_cell_angle_alpha 104.763601
_cell_angle_beta 142.683054
_cell_angle_gamma 65.757405
_cell_volume 568.223248
_symmetry_space_group_name_H-M "P -1"
_symmetry_group_IT_number 2
_symmetry_cell_setting 'triclinic'
loop_
_space_group_symop_operation_xyz
x,y,z
-x,-y,-z
loop_
_atom_site_type_symbol
_atom_site_label
_atom_site_fract_x
_atom_site_fract_y
_atom_site_fract_z
Si Si1 0.591692 0.439537 0.466801
Si Si2 0.196090 0.382752 0.162394
Si Si3 0.905390 0.902282 0.527045
Si Si4 0.544077 0.405455 0.912326
Si Si5 0.826694 0.383589 0.296994
Si Si6 0.441491 0.048121 0.292185
Si Si7 0.066942 0.184634 0.175423
O O1 0.744880 0.367218 0.694255
O O2 0.571973 0.386541 0.294857
O O3 0.510253 0.282254 0.416334
O O4 0.528036 0.782113 0.453361
O O5 0.288451 0.174499 0.155630
O O6 0.188699 0.217472 0.256805
O O7 0.052223 0.507360 0.931958
O O8 0.835251 0.686481 0.371550
O O9 0.884587 0.941639 0.647867
O O10 0.061695 0.783665 0.677921
O O11 0.837980 0.203265 0.412085
O O12 0.559093 0.081423 0.858573
O O13 0.500000 0.500000 0.000000
O O14 0.684075 0.440638 0.063494
O O15 0.000000 0.000000 0.000000
#
# Coordination Sequence:
#
# PCOD8027749 Si02
#       7
#     2   2   2   2   2   2   2
#     4  10  25  45  73 105 137 192 231 298 351 432
#     4  11  26  47  69 107 144 191 237 294 362 427
#     4  10  25  46  72  98 138 183 239 286 351 408
#     4  10  26  43  71 106 138 180 235 293 356 420
#     4  10  24  46  73  99 135 187 233 292 343 423
#     4  10  25  44  75 100 145 184 237 287 359 427
#     4  11  29  42  73 106 145 190 236 301 354 426
#
# _framework density 24.638204000000002
#
# number of rings (size 3 to 8) (size 9 to 14) (size 15 to 20)
#    0.857    0.857    0.000    0.857   16.000    1.714 
#    0.000    0.000    0.000    0.000    0.000    0.000 
#    0.000    0.000    0.000    0.000    0.000    0.000 
#
# Total GULP energy -173542.444676 kJ/mol
# GULP energy per Si atom -12395.888905 kJ/mol
# Density = 2.458213 g / cm^3
# Si number density = 24.638204 Si / 1000 Ang^3
#
#
#
# Elastic Constant Matrix: (Units=GPa)
#
#
# Indices 1 2 3 4 5 6 
#
# 1 136.9414 41.0865 32.3192 17.1106 -6.6494 13.8795
# 2 41.0865 88.5132 16.2417 27.4723 4.5852 20.5462
# 3 32.3192 16.2417 98.3898 13.1265 8.7772 2.9066
# 4 17.1106 27.4723 13.1265 34.6790 10.2995 0.3032
# 5 -6.6494 4.5852 8.7772 10.2995 49.2237 2.0170
# 6 13.8795 20.5462 2.9066 0.3032 2.0170 36.5514
#
#
#
# Elastic Compliance Matrix: (Units=1/GPa)
#
#
# Indices 1 2 3 4 5 6 
#
# 1 0.009331 -0.002949 -0.002472 -0.002052 0.002480 -0.001809
# 2 -0.002949 0.019196 -0.000158 -0.013950 0.001154 -0.009606
# 3 -0.002472 -0.000158 0.011488 -0.002452 -0.001864 0.000237
# 4 -0.002052 -0.013950 -0.002452 0.044170 -0.008147 0.008899
# 5 0.002480 0.001154 -0.001864 -0.008147 0.022688 -0.002626
# 6 -0.001809 -0.009606 0.000237 0.008899 -0.002626 0.033497
#
#
# Mechanical properties :
#
#
# Convention : Reuss Voigt Hill
#
# Bulk Modulus (GPa) = 34.65497 55.90434 45.27965
# Shear Modulus (GPa) = 31.02766 39.70393 35.36580
#
# Velocity S-wave (km/s) = 3.55256 4.01868 3.79278
# Velocity P-wave (km/s) = 5.56090 6.65375 6.13172
#
# Compressibility (1/GPa) = 0.02885589
#
# Stress axis : x y z
#
# Youngs Moduli (GPa) = 107.17161 52.09551 87.04581
#
# Poissons Ratio (x) = 0.15364 0.21519
# Poissons Ratio (y) = 0.31608 0.01375
# Poissons Ratio (z) = 0.26494 0.00823
#
# Static dielectric constant tensor:
#      x y z
#    x 4.396030 0.048890 0.142050 
#    y 0.048890 4.537440 -0.239290 
#    z 0.142050 -0.239290 4.695620 
# 
# 
# High freq. dielectric constant tensor:
#      x y z
#    x 1.986420 0.002500 0.001260 
#    y 0.002500 1.980850 0.006760 
#    z 0.001260 0.006760 1.986040 
# 
# From -- ./inp_files/458903.got.cif
#   From: 2010.06.25/outbox.cif.g09.slc.cpg/sg2_230_cif.got.tgz:458903.got - 2010.06.27 13:26:56.
