data_PCOD8027217
_publ_section_title
;
Structure prediction by ZEFSAII (Michael W. Deem and Ramdas Pophale) SiO2 
 PCOD8027217
Probable space group: P -1
;
_chemical_formula_sum "Si O2"
_cell_formula_units_Z 16
_cell_length_a 16.702237
_cell_length_b 20.509601
_cell_length_c 10.165245
_cell_angle_alpha 54.830635
_cell_angle_beta 46.209973
_cell_angle_gamma 17.782054
_cell_volume 711.250748
_symmetry_space_group_name_H-M "P -1"
_symmetry_group_IT_number 2
_symmetry_cell_setting 'triclinic'
loop_
_space_group_symop_operation_xyz
x,y,z
-x,-y,-z
loop_
_atom_site_type_symbol
_atom_site_label
_atom_site_fract_x
_atom_site_fract_y
_atom_site_fract_z
Si Si1 0.664856 0.886173 0.306135
Si Si2 0.820554 0.221005 0.834110
Si Si3 0.218493 0.737995 0.877691
Si Si4 0.360746 0.280402 0.831727
Si Si5 0.334090 0.429757 0.466512
Si Si6 0.601843 0.100700 0.044174
Si Si7 0.367400 0.382257 0.177335
Si Si8 0.248055 0.057480 0.420893
O O1 0.047487 0.633904 0.182049
O O2 0.500000 0.000000 0.500000
O O3 0.545292 0.043783 0.174688
O O4 0.546896 0.884530 0.372236
O O5 0.528069 0.475304 0.840736
O O6 0.124000 0.050189 0.604739
O O7 0.947722 0.145442 0.925910
O O8 0.680902 0.225623 0.965553
O O9 0.329573 0.750975 0.694572
O O10 0.979683 0.863566 0.896340
O O11 0.355597 0.350476 0.645516
O O12 0.602936 0.048068 0.773010
O O13 0.478301 0.226014 0.905870
O O14 0.000000 0.500000 0.000000
O O15 0.306921 0.415191 0.364542
O O16 0.033980 0.688729 0.540281
O O17 0.425846 0.257108 0.189831
#
# Coordination Sequence:
#
# PCOD8027217 Si02
#       8
#     2   2   2   2   2   2   2   2
#     4  12  24  42  70 106 135 175 233 289 343 400
#     4   9  19  42  71 106 136 175 226 290 356 398
#     4   9  19  40  69 103 140 170 228 289 347 407
#     4  12  29  48  64  98 145 193 230 275 345 425
#     4  10  24  44  70 103 136 184 228 282 351 413
#     4  12  27  43  70 105 140 183 228 289 347 403
#     4  11  24  42  75 109 139 171 232 301 343 406
#     4  11  24  45  73  96 139 192 229 280 350 414
#
# _framework density 22.495581999999999
#
# number of rings (size 3 to 8) (size 9 to 14) (size 15 to 20)
#    0.000    1.250    2.500    3.000    5.250    5.000 
#    0.000    1.250    0.000    0.000    0.000    0.000 
#    0.000    0.000    0.000    0.000    0.000    0.000 
#
# Total GULP energy -198293.133320 kJ/mol
# GULP energy per Si atom -12393.320832 kJ/mol
# Density = 2.244438 g / cm^3
# Si number density = 22.495582 Si / 1000 Ang^3
#
#
#
# Elastic Constant Matrix: (Units=GPa)
#
#
# Indices 1 2 3 4 5 6 
#
# 1 91.3227 37.1150 52.4270 5.4197 -5.1532 -9.3447
# 2 37.1150 107.3962 62.9680 -14.5936 -1.3657 -27.6790
# 3 52.4270 62.9680 136.9119 4.6133 3.7499 -4.4159
# 4 5.4197 -14.5936 4.6133 43.4732 -1.2230 -0.1372
# 5 -5.1532 -1.3657 3.7499 -1.2230 34.1119 2.4722
# 6 -9.3447 -27.6790 -4.4159 -0.1372 2.4722 40.7830
#
#
#
# Elastic Compliance Matrix: (Units=1/GPa)
#
#
# Indices 1 2 3 4 5 6 
#
# 1 0.014946 -0.002478 -0.004545 -0.002139 0.002503 0.001092
# 2 -0.002478 0.018367 -0.007405 0.007313 0.000634 0.011082
# 3 -0.004545 -0.007405 0.012472 -0.003317 -0.002140 -0.004598
# 4 -0.002139 0.007313 -0.003317 0.026117 0.000970 0.004143
# 5 0.002503 0.000634 -0.002140 0.000970 0.030065 -0.001047
# 6 0.001092 0.011082 -0.004598 0.004143 -0.001047 0.031871
#
#
# Mechanical properties :
#
#
# Convention : Reuss Voigt Hill
#
# Bulk Modulus (GPa) = 59.06626 71.18344 65.12485
# Shear Modulus (GPa) = 29.70227 35.88167 32.79197
#
# Velocity S-wave (km/s) = 3.63762 3.99815 3.82214
# Velocity P-wave (km/s) = 6.63000 7.28186 6.96356
#
# Compressibility (1/GPa) = 0.01693014
#
# Stress axis : x y z
#
# Youngs Moduli (GPa) = 66.90605 54.44445 80.17932
#
# Poissons Ratio (x) = 0.13491 0.36441
# Poissons Ratio (y) = 0.16579 0.59372
# Poissons Ratio (z) = 0.30408 0.40316
#
# Static dielectric constant tensor:
#      x y z
#    x 4.282490 0.132980 -0.233260 
#    y 0.132980 4.277380 0.524430 
#    z -0.233260 0.524430 4.227390 
# 
# 
# High freq. dielectric constant tensor:
#      x y z
#    x 1.878560 0.006980 -0.013750 
#    y 0.006980 1.905510 0.019120 
#    z -0.013750 0.019120 1.884900 
# 
# From -- ./inp_files/319330.got.cif
#   From: 2010.06.25/outbox.cif.g09.slc.cpg/sg2_160_cif.got.tgz:319330.got - 2010.06.27 13:26:56.
