data_PCOD8027247
_publ_section_title
;
Structure prediction by ZEFSAII (Michael W. Deem and Ramdas Pophale) SiO2 
 PCOD8027247
Probable space group: P -1
;
_chemical_formula_sum "Si O2"
_cell_formula_units_Z 14
_cell_length_a 10.993499
_cell_length_b 7.839520
_cell_length_c 7.862671
_cell_angle_alpha 94.230193
_cell_angle_beta 90.002811
_cell_angle_gamma 124.262149
_cell_volume 557.808112
_symmetry_space_group_name_H-M "P -1"
_symmetry_group_IT_number 2
_symmetry_cell_setting 'triclinic'
loop_
_space_group_symop_operation_xyz
x,y,z
-x,-y,-z
loop_
_atom_site_type_symbol
_atom_site_label
_atom_site_fract_x
_atom_site_fract_y
_atom_site_fract_z
Si Si1 0.549546 0.708285 0.697822
Si Si2 0.994316 0.843770 0.621208
Si Si3 0.680108 0.018022 0.410236
Si Si4 0.217357 0.287196 0.114684
Si Si5 0.837305 0.414784 0.050317
Si Si6 0.344220 0.065446 0.960990
Si Si7 0.249930 0.555752 0.585535
O O1 0.648306 0.620961 0.738079
O O2 0.533260 0.810799 0.879934
O O3 0.383859 0.527524 0.625623
O O4 0.636169 0.876636 0.562660
O O5 0.941952 0.870257 0.807327
O O6 0.865410 0.605932 0.560585
O O7 0.149266 0.873567 0.634897
O O8 0.000000 0.000000 0.500000
O O9 0.664274 0.207106 0.467009
O O10 0.589916 0.898390 0.228167
O O11 0.237063 0.148281 0.969110
O O12 0.231345 0.483197 0.047070
O O13 0.843941 0.474784 0.250497
O O14 0.000000 0.500000 0.000000
O O15 0.739975 0.171424 0.000817
#
# Coordination Sequence:
#
# PCOD8027247 Si02
#       7
#     2   2   2   2   2   2   2
#     4  10  24  48  71 106 143 191 234 301 360 428
#     4  12  25  43  69 102 140 189 236 299 355 423
#     4  11  23  46  74 103 142 193 234 303 358 424
#     4  10  24  44  71 102 144 190 232 300 359 416
#     4  11  25  42  72 107 142 191 233 302 355 430
#     4   9  24  46  72 104 145 183 244 287 365 422
#     4  11  27  45  71 107 141 184 250 288 362 437
#
# _framework density 25.098234000000001
#
# number of rings (size 3 to 8) (size 9 to 14) (size 15 to 20)
#    0.857    0.571    1.429    2.571    8.000    4.571 
#    2.571    0.000    0.000    0.000    0.000    0.000 
#    0.000    0.000    0.000    0.000    0.000    0.000 
#
# Total GULP energy -173531.928210 kJ/mol
# GULP energy per Si atom -12395.137729 kJ/mol
# Density = 2.504111 g / cm^3
# Si number density = 25.098234 Si / 1000 Ang^3
#
#
#
# Elastic Constant Matrix: (Units=GPa)
#
#
# Indices 1 2 3 4 5 6 
#
# 1 99.6484 13.4981 -0.5906 -8.7257 11.7368 -14.7410
# 2 13.4981 69.2360 32.3810 -11.8845 7.5381 -24.8701
# 3 -0.5906 32.3810 103.6584 -11.4462 6.9645 -12.9851
# 4 -8.7257 -11.8845 -11.4462 34.2955 -5.2457 12.5351
# 5 11.7368 7.5381 6.9645 -5.2457 28.9358 -6.9349
# 6 -14.7410 -24.8701 -12.9851 12.5351 -6.9349 43.1289
#
#
#
# Elastic Compliance Matrix: (Units=1/GPa)
#
#
# Indices 1 2 3 4 5 6 
#
# 1 0.011115 -0.001179 0.001135 0.001332 -0.003636 0.002489
# 2 -0.001179 0.020839 -0.005079 0.001599 -0.001178 0.009430
# 3 0.001135 -0.005079 0.011588 0.002133 -0.001519 0.000084
# 4 0.001332 0.001599 0.002133 0.033901 0.002910 -0.007365
# 5 -0.003636 -0.001178 -0.001519 0.002910 0.037923 0.002872
# 6 0.002489 0.009430 0.000084 -0.007365 0.002872 0.032103
#
#
# Mechanical properties :
#
#
# Convention : Reuss Voigt Hill
#
# Bulk Modulus (GPa) = 30.03468 40.34665 35.19066
# Shear Modulus (GPa) = 29.61847 36.42233 33.02040
#
# Velocity S-wave (km/s) = 3.43899 3.81358 3.63112
# Velocity P-wave (km/s) = 5.26894 5.95832 5.62420
#
# Compressibility (1/GPa) = 0.03329484
#
# Stress axis : x y z
#
# Youngs Moduli (GPa) = 89.96983 47.98707 86.29351
#
# Poissons Ratio (x) = 0.05658 -0.09793
# Poissons Ratio (y) = 0.10608 0.43832
# Poissons Ratio (z) = -0.10210 0.24374
#
# Static dielectric constant tensor:
#      x y z
#    x 4.906140 -0.066890 -0.127520 
#    y -0.066890 4.253890 -0.108030 
#    z -0.127520 -0.108030 4.642430 
# 
# 
# High freq. dielectric constant tensor:
#      x y z
#    x 2.015570 -0.006470 -0.002670 
#    y -0.006470 1.982980 -0.009560 
#    z -0.002670 -0.009560 2.009790 
# 
# From -- ./inp_files/244120.got.cif
#   From: 2010.06.25/outbox.cif.g09.slc.cpg/sg2_123_cif.got.tgz:244120.got - 2010.06.27 13:26:56.
