data_PCOD8027712
_publ_section_title
;
Structure prediction by ZEFSAII (Michael W. Deem and Ramdas Pophale) SiO2 
 PCOD8027712
Probable space group: P -1
;
_chemical_formula_sum "Si O2"
_cell_formula_units_Z 14
_cell_length_a 14.415321
_cell_length_b 14.155395
_cell_length_c 4.742603
_cell_angle_alpha 105.326085
_cell_angle_beta 108.600649
_cell_angle_gamma 37.539636
_cell_volume 558.750004
_symmetry_space_group_name_H-M "P -1"
_symmetry_group_IT_number 2
_symmetry_cell_setting 'triclinic'
loop_
_space_group_symop_operation_xyz
x,y,z
-x,-y,-z
loop_
_atom_site_type_symbol
_atom_site_label
_atom_site_fract_x
_atom_site_fract_y
_atom_site_fract_z
Si Si1 0.118145 0.333428 0.338383
Si Si2 0.343362 0.872329 0.660200
Si Si3 0.140933 0.858372 0.326097
Si Si4 0.166995 0.709170 0.724333
Si Si5 0.631658 0.583475 0.966468
Si Si6 0.901823 0.782877 0.282231
Si Si7 0.351543 0.307869 0.428030
O O1 0.183719 0.215817 0.561854
O O2 0.257970 0.280289 0.268065
O O3 0.000000 0.500000 0.500000
O O4 0.960838 0.672481 0.986856
O O5 0.252904 0.863190 0.373148
O O6 0.442707 0.732597 0.877648
O O7 0.463985 0.845512 0.574588
O O8 0.217993 0.042483 0.813162
O O9 0.228880 0.709601 0.494483
O O10 0.086881 0.851931 0.971413
O O11 0.000000 0.000000 0.500000
O O12 0.045182 0.719855 0.536537
O O13 0.310660 0.558952 0.935523
O O14 0.707216 0.552237 0.709886
O O15 0.681386 0.639126 0.241413
#
# Coordination Sequence:
#
# PCOD8027712 Si02
#       7
#     2   2   2   2   2   2   2
#     4  12  27  47  76 110 144 190 248 303 363 435
#     4  10  28  46  74 103 156 187 241 299 373 425
#     4  12  26  45  75 106 149 189 249 299 358 428
#     4  12  26  45  74 110 143 195 248 297 359 428
#     4  10  24  46  72 100 155 186 238 297 366 423
#     4  12  27  45  78 108 145 193 245 299 371 428
#     4  10  24  47  71 102 150 187 234 304 365 422
#
# _framework density 25.055931000000001
#
# number of rings (size 3 to 8) (size 9 to 14) (size 15 to 20)
#    0.857    0.000    1.429    4.286    4.000    4.571 
#    0.000    0.000    0.000    0.000    0.000    0.000 
#    0.000    0.000    0.000    0.000    0.000    0.000 
#
# Total GULP energy -173438.808773 kJ/mol
# GULP energy per Si atom -12388.486341 kJ/mol
# Density = 2.499890 g / cm^3
# Si number density = 25.055931 Si / 1000 Ang^3
#
#
#
# Elastic Constant Matrix: (Units=GPa)
#
#
# Indices 1 2 3 4 5 6 
#
# 1 123.5499 35.3237 40.5736 4.2578 11.7236 -1.7932
# 2 35.3237 78.8743 14.9221 -1.7844 21.1285 -12.3878
# 3 40.5736 14.9221 133.0300 25.5043 17.3397 -14.5411
# 4 4.2578 -1.7844 25.5043 37.5817 8.9256 1.7412
# 5 11.7236 21.1285 17.3397 8.9256 43.8424 -0.2540
# 6 -1.7932 -12.3878 -14.5411 1.7412 -0.2540 23.3158
#
#
#
# Elastic Compliance Matrix: (Units=1/GPa)
#
#
# Indices 1 2 3 4 5 6 
#
# 1 0.010404 -0.004792 -0.003307 0.000866 0.000636 -0.003866
# 2 -0.004792 0.018482 0.001157 0.002188 -0.008471 0.009917
# 3 -0.003307 0.001157 0.010838 -0.006669 -0.002558 0.007590
# 4 0.000866 0.002188 -0.006669 0.032657 -0.005328 -0.005427
# 5 0.000636 -0.008471 -0.002558 -0.005328 0.028786 -0.005335
# 6 -0.003866 0.009917 0.007590 -0.005427 -0.005335 0.052941
#
#
# Mechanical properties :
#
#
# Convention : Reuss Voigt Hill
#
# Bulk Modulus (GPa) = 38.70078 57.45478 48.07778
# Shear Modulus (GPa) = 28.31184 37.25696 32.78440
#
# Velocity S-wave (km/s) = 3.36511 3.86028 3.62117
# Velocity P-wave (km/s) = 5.52973 6.54595 6.05918
#
# Compressibility (1/GPa) = 0.02583927
#
# Stress axis : x y z
#
# Youngs Moduli (GPa) = 96.12087 54.10794 92.27127
#
# Poissons Ratio (x) = 0.25927 0.30516
# Poissons Ratio (y) = 0.46058 -0.10676
# Poissons Ratio (z) = 0.31789 -0.06261
#
# Static dielectric constant tensor:
#      x y z
#    x 4.533570 0.301870 -0.063070 
#    y 0.301870 4.467710 -0.076760 
#    z -0.063070 -0.076760 4.627380 
# 
# 
# High freq. dielectric constant tensor:
#      x y z
#    x 1.985810 0.013260 -0.001250 
#    y 0.013260 1.990160 0.000470 
#    z -0.001250 0.000470 2.012800 
# 
# From -- ./inp_files/96561.got.cif
#   From: 2010.06.25/outbox.cif.g09.slc.cpg/sg2_49_cif.got.tgz:96561.got - 2010.06.27 13:26:56.
