data_PCOD8027628
_publ_section_title
;
Structure prediction by ZEFSAII (Michael W. Deem and Ramdas Pophale) SiO2 
 PCOD8027628
Probable space group: P -1
;
_chemical_formula_sum "Si O2"
_cell_formula_units_Z 14
_cell_length_a 24.946044
_cell_length_b 15.041054
_cell_length_c 5.566774
_cell_angle_alpha 95.999111
_cell_angle_beta 85.859456
_cell_angle_gamma 20.221810
_cell_volume 623.757190
_symmetry_space_group_name_H-M "P -1"
_symmetry_group_IT_number 2
_symmetry_cell_setting 'triclinic'
loop_
_space_group_symop_operation_xyz
x,y,z
-x,-y,-z
loop_
_atom_site_type_symbol
_atom_site_label
_atom_site_fract_x
_atom_site_fract_y
_atom_site_fract_z
Si Si1 0.220753 0.518207 0.808635
Si Si2 0.047770 0.690646 0.542149
Si Si3 0.640559 0.847252 0.015302
Si Si4 0.452283 0.293228 0.482751
Si Si5 0.222534 0.115673 0.578446
Si Si6 0.915587 0.052393 0.398429
Si Si7 0.901978 0.760177 0.850504
O O1 0.170399 0.577801 0.567045
O O2 0.280307 0.327614 0.829135
O O3 0.382752 0.331757 0.712372
O O4 0.043661 0.839980 0.069442
O O5 0.949732 0.789141 0.808744
O O6 0.185907 0.406416 0.276786
O O7 0.906602 0.969171 0.505783
O O8 0.557152 0.075110 0.174212
O O9 0.500000 0.000000 0.000000
O O10 0.286929 0.608145 0.513736
O O11 0.579127 0.159268 0.546785
O O12 0.207567 0.089879 0.317615
O O13 0.081263 0.419151 0.717251
O O14 0.200496 0.087879 0.817767
O O15 0.000000 0.000000 0.500000
#
# Coordination Sequence:
#
# PCOD8027628 Si02
#       7
#     2   2   2   2   2   2   2
#     4  11  23  41  65  97 134 175 221 274 354 415
#     4  11  24  42  68  93 135 184 216 278 349 413
#     4  11  23  37  61 103 135 163 223 288 346 409
#     4  12  23  41  67 102 134 173 232 283 343 406
#     4  10  25  43  70 100 135 181 233 292 337 402
#     4  11  24  44  63 100 140 182 217 272 353 424
#     4  10  24  46  67  98 139 181 233 282 351 400
#
# _framework density 22.444631999999999
#
# number of rings (size 3 to 8) (size 9 to 14) (size 15 to 20)
#    0.000    1.143    2.857    2.571   12.000    1.143 
#    0.000    1.429    0.000    0.000    0.000    0.000 
#    0.000    0.000    0.000    0.000    0.000    0.000 
#
# Total GULP energy -173483.832554 kJ/mol
# GULP energy per Si atom -12391.702325 kJ/mol
# Density = 2.239355 g / cm^3
# Si number density = 22.444632 Si / 1000 Ang^3
#
#
#
# Elastic Constant Matrix: (Units=GPa)
#
#
# Indices 1 2 3 4 5 6 
#
# 1 93.2081 44.6935 40.1890 1.1961 -25.2849 -3.8270
# 2 44.6935 118.7723 56.1125 10.6820 2.0681 -18.4211
# 3 40.1890 56.1125 105.1864 -4.8081 -13.1009 13.0215
# 4 1.1961 10.6820 -4.8081 34.5534 6.3406 5.3249
# 5 -25.2849 2.0681 -13.1009 6.3406 38.6014 2.5951
# 6 -3.8270 -18.4211 13.0215 5.3249 2.5951 34.7328
#
#
#
# Elastic Compliance Matrix: (Units=1/GPa)
#
#
# Indices 1 2 3 4 5 6 
#
# 1 0.017462 -0.005912 -0.002010 -0.000953 0.011307 -0.001156
# 2 -0.005912 0.019449 -0.011526 -0.008296 -0.008532 0.015894
# 3 -0.002010 -0.011526 0.019354 0.007631 0.005636 -0.015181
# 4 -0.000953 -0.008296 0.007631 0.034991 -0.002494 -0.012544
# 5 0.011307 -0.008532 0.005636 -0.002494 0.036613 -0.007745
# 6 -0.001156 0.015894 -0.015181 -0.012544 -0.007745 0.045287
#
#
# Mechanical properties :
#
#
# Convention : Reuss Voigt Hill
#
# Bulk Modulus (GPa) = 57.57373 66.57297 62.07335
# Shear Modulus (GPa) = 22.95244 33.32229 28.13737
#
# Velocity S-wave (km/s) = 3.20132 3.85729 3.54451
# Velocity P-wave (km/s) = 6.27469 7.04014 6.66841
#
# Compressibility (1/GPa) = 0.01736903
#
# Stress axis : x y z
#
# Youngs Moduli (GPa) = 57.26654 51.41629 51.66906
#
# Poissons Ratio (x) = 0.30395 0.10388
# Poissons Ratio (y) = 0.33854 0.59554
# Poissons Ratio (z) = 0.11513 0.59263
#
# Static dielectric constant tensor:
#      x y z
#    x 5.074420 1.650010 0.972120 
#    y 1.650010 6.433790 1.319010 
#    z 0.972120 1.319010 5.083360 
# 
# 
# High freq. dielectric constant tensor:
#      x y z
#    x 1.876750 0.001890 -0.005380 
#    y 0.001890 1.888720 -0.014050 
#    z -0.005380 -0.014050 1.878980 
# 
# From -- ./inp_files/26782.got.cif
#   From: 2010.06.25/outbox.cif.g09.slc.cpg/sg2_14_cif.got.tgz:26782.got - 2010.06.27 13:26:56.
