data_PCOD8027125
_publ_section_title
;
Structure prediction by ZEFSAII (Michael W. Deem and Ramdas Pophale) SiO2 
 PCOD8027125
Probable space group: P -1
;
_chemical_formula_sum "Si O2"
_cell_formula_units_Z 16
_cell_length_a 13.813732
_cell_length_b 22.645800
_cell_length_c 16.541665
_cell_angle_alpha 22.302093
_cell_angle_beta 35.576634
_cell_angle_gamma 21.991092
_cell_volume 698.280028
_symmetry_space_group_name_H-M "P -1"
_symmetry_group_IT_number 2
_symmetry_cell_setting 'triclinic'
loop_
_space_group_symop_operation_xyz
x,y,z
-x,-y,-z
loop_
_atom_site_type_symbol
_atom_site_label
_atom_site_fract_x
_atom_site_fract_y
_atom_site_fract_z
Si Si1 0.539242 0.350018 0.233516
Si Si2 0.407094 0.740029 0.281792
Si Si3 0.901827 0.179313 0.954214
Si Si4 0.981868 0.748728 0.811851
Si Si5 0.172288 0.889825 0.427199
Si Si6 0.985847 0.427964 0.281800
Si Si7 0.338892 0.071714 0.352691
Si Si8 0.820171 0.914386 0.273698
O O1 0.333400 0.539901 0.205058
O O2 0.482454 0.217987 0.406473
O O3 0.500000 0.500000 0.000000
O O4 0.847809 0.130607 0.330538
O O5 0.500000 0.500000 0.500000
O O6 0.336377 0.792604 0.357747
O O7 0.660002 0.667936 0.187954
O O8 0.157901 0.983093 0.089352
O O9 0.975314 0.206492 0.785615
O O10 0.791368 0.087844 0.129248
O O11 0.824109 0.779404 0.807748
O O12 0.226188 0.678859 0.698611
O O13 0.768889 0.012285 0.674829
O O14 0.094798 0.524994 0.074302
O O15 0.127411 0.211626 0.393377
O O16 0.063373 0.312855 0.464041
O O17 0.527378 0.082527 0.224923
#
# Coordination Sequence:
#
# PCOD8027125 Si02
#       8
#     2   2   2   2   2   2   2   2
#     4  11  22  42  73  99 138 186 235 285 349 423
#     4  12  23  45  72 101 145 180 238 290 353 426
#     4  11  25  46  71 107 139 190 230 293 359 412
#     4  10  24  44  68 103 139 185 231 293 355 414
#     4  10  24  44  71 105 139 186 238 286 352 431
#     4  12  25  43  73 105 141 188 234 297 353 416
#     4  11  25  46  68 106 143 182 240 290 355 416
#     4  11  26  44  69 108 141 180 243 287 354 423
#
# _framework density 22.913443999999998
#
# number of rings (size 3 to 8) (size 9 to 14) (size 15 to 20)
#    0.000    1.000    2.500    3.750    3.500    5.000 
#    2.250    0.000    0.000    0.000    0.000    0.000 
#    0.000    0.000    0.000    0.000    0.000    0.000 
#
# Total GULP energy -198413.194374 kJ/mol
# GULP energy per Si atom -12400.824648 kJ/mol
# Density = 2.286129 g / cm^3
# Si number density = 22.913444 Si / 1000 Ang^3
#
#
#
# Elastic Constant Matrix: (Units=GPa)
#
#
# Indices 1 2 3 4 5 6 
#
# 1 91.7923 39.7892 23.3618 19.5483 -11.0879 15.3368
# 2 39.7892 128.5869 34.3754 1.7487 -16.8017 25.3802
# 3 23.3618 34.3754 134.7071 21.1764 -0.4119 21.5089
# 4 19.5483 1.7487 21.1764 30.7568 6.9890 0.8106
# 5 -11.0879 -16.8017 -0.4119 6.9890 31.1564 3.4459
# 6 15.3368 25.3802 21.5089 0.8106 3.4459 46.3558
#
#
#
# Elastic Compliance Matrix: (Units=1/GPa)
#
#
# Indices 1 2 3 4 5 6 
#
# 1 0.016322 -0.003269 0.000608 -0.012141 0.007244 -0.004219
# 2 -0.003269 0.010696 -0.001721 0.001706 0.004681 -0.004354
# 3 0.000608 -0.001721 0.009441 -0.007008 0.001385 -0.003620
# 4 -0.012141 0.001706 -0.007008 0.048201 -0.015037 0.006610
# 5 0.007244 0.004681 0.001385 -0.015037 0.041522 -0.008426
# 6 -0.004219 -0.004354 -0.003620 0.006610 -0.008426 0.027542
#
#
# Mechanical properties :
#
#
# Convention : Reuss Voigt Hill
#
# Bulk Modulus (GPa) = 36.10714 61.12658 48.61686
# Shear Modulus (GPa) = 29.11702 38.82444 33.97073
#
# Velocity S-wave (km/s) = 3.56861 4.12077 3.85459
# Velocity P-wave (km/s) = 5.72470 7.02681 6.40891
#
# Compressibility (1/GPa) = 0.02769535
#
# Stress axis : x y z
#
# Youngs Moduli (GPa) = 61.26731 93.49043 105.91762
#
# Poissons Ratio (x) = 0.30560 -0.06439
# Poissons Ratio (y) = 0.20027 0.18231
# Poissons Ratio (z) = -0.03725 0.16092
#
# Static dielectric constant tensor:
#      x y z
#    x 4.278180 -0.026180 -0.543980 
#    y -0.026180 3.970550 -0.844380 
#    z -0.543980 -0.844380 1.410280 
# 
# 
# High freq. dielectric constant tensor:
#      x y z
#    x 1.916070 0.014190 0.004990 
#    y 0.014190 1.898770 0.006980 
#    z 0.004990 0.006980 1.912180 
# 
# From -- ./inp_files/574400.got.cif
#   From: 2010.06.25/outbox.cif.g09.slc.cpg/sg2_288_cif.got.tgz:574400.got - 2010.06.27 13:26:56.
