data_PCOD8027662
_publ_section_title
;
Structure prediction by ZEFSAII (Michael W. Deem and Ramdas Pophale) SiO2 
 PCOD8027662
Probable space group: P -1
;
_chemical_formula_sum "Si O2"
_cell_formula_units_Z 14
_cell_length_a 13.468542
_cell_length_b 5.002729
_cell_length_c 12.418317
_cell_angle_alpha 92.791138
_cell_angle_beta 133.098548
_cell_angle_gamma 104.806018
_cell_volume 560.354305
_symmetry_space_group_name_H-M "P -1"
_symmetry_group_IT_number 2
_symmetry_cell_setting 'triclinic'
loop_
_space_group_symop_operation_xyz
x,y,z
-x,-y,-z
loop_
_atom_site_type_symbol
_atom_site_label
_atom_site_fract_x
_atom_site_fract_y
_atom_site_fract_z
Si Si1 0.711916 0.803119 0.996707
Si Si2 0.135703 0.589158 0.967038
Si Si3 0.825928 0.525048 0.763719
Si Si4 0.360561 0.113413 0.401015
Si Si5 0.168461 0.881520 0.697053
Si Si6 0.829686 0.631671 0.442893
Si Si7 0.457114 0.565543 0.648260
O O1 0.546023 0.605183 0.827975
O O2 0.805345 0.600464 0.071085
O O3 0.770327 0.065135 0.959037
O O4 0.718086 0.949145 0.120739
O O5 0.971859 0.549788 0.807257
O O6 0.139249 0.467156 0.084762
O O7 0.778722 0.793527 0.712976
O O8 0.694524 0.227808 0.623524
O O9 0.457851 0.282108 0.579562
O O10 0.462512 0.170915 0.370633
O O11 0.203954 0.610334 0.679654
O O12 0.998972 0.751828 0.612906
O O13 0.195043 0.094557 0.619598
O O14 0.714584 0.493149 0.453242
#
# Coordination Sequence:
#
# PCOD8027662 Si02
#       7
#     2   2   2   2   2   2   2
#     4  12  24  43  67 102 136 173 220 281 332 400
#     4  11  23  38  66  96 137 177 223 276 329 383
#     4  11  22  42  63  94 134 184 230 268 317 394
#     4  11  25  43  64  99 140 180 223 269 316 420
#     4  10  24  46  70  97 130 166 236 275 327 392
#     4  10  24  46  69  98 128 175 219 282 330 399
#     4  11  26  43  69 100 142 177 220 266 349 389
#
# _framework density 24.984192
#
# number of rings (size 3 to 8) (size 9 to 14) (size 15 to 20)
#    0.000    1.143    2.857    1.714    4.000   10.286 
#    0.000    0.000    0.000    0.000    0.000    0.000 
#    0.000    0.000    0.000    0.000    0.000    0.000 
#
# Total GULP energy -173570.323425 kJ/mol
# GULP energy per Si atom -12397.880245 kJ/mol
# Density = 2.492733 g / cm^3
# Si number density = 24.984192 Si / 1000 Ang^3
#
#
#
# Elastic Constant Matrix: (Units=GPa)
#
#
# Indices 1 2 3 4 5 6 
#
# 1 103.1917 30.2515 27.8276 3.0410 13.6086 4.8890
# 2 30.2515 72.2086 0.8224 10.8381 9.6100 -15.5115
# 3 27.8276 0.8224 110.3717 12.3384 -8.1389 2.8581
# 4 3.0410 10.8381 12.3384 29.6415 -4.5678 2.1383
# 5 13.6086 9.6100 -8.1389 -4.5678 35.5272 -4.2500
# 6 4.8890 -15.5115 2.8581 2.1383 -4.2500 39.6780
#
#
#
# Elastic Compliance Matrix: (Units=1/GPa)
#
#
# Indices 1 2 3 4 5 6 
#
# 1 0.013247 -0.006153 -0.003746 0.002067 -0.004524 -0.004364
# 2 -0.006153 0.019864 0.001933 -0.008460 -0.002637 0.008558
# 3 -0.003746 0.001933 0.010670 -0.004387 0.002911 0.000997
# 4 0.002067 -0.008460 -0.004387 0.039563 0.004999 -0.004843
# 5 -0.004524 -0.002637 0.002911 0.004999 0.032202 0.002496
# 6 -0.004364 0.008558 0.000997 -0.004843 0.002496 0.029543
#
#
# Mechanical properties :
#
#
# Convention : Reuss Voigt Hill
#
# Bulk Modulus (GPa) = 35.90806 44.84166 40.37486
# Shear Modulus (GPa) = 29.35950 36.09405 32.72678
#
# Velocity S-wave (km/s) = 3.43173 3.80501 3.62318
# Velocity P-wave (km/s) = 5.48688 6.10665 5.80504
#
# Compressibility (1/GPa) = 0.02784890
#
# Stress axis : x y z
#
# Youngs Moduli (GPa) = 75.48876 50.34353 93.72424
#
# Poissons Ratio (x) = 0.30975 0.35107
# Poissons Ratio (y) = 0.46446 -0.18116
# Poissons Ratio (z) = 0.28277 -0.09731
#
# Static dielectric constant tensor:
#      x y z
#    x 4.452170 -0.070890 0.195090 
#    y -0.070890 4.388090 0.140500 
#    z 0.195090 0.140500 4.461810 
# 
# 
# High freq. dielectric constant tensor:
#      x y z
#    x 1.984030 -0.012300 0.003550 
#    y -0.012300 1.996430 0.006080 
#    z 0.003550 0.006080 2.004510 
# 
# From -- ./inp_files/410924.got.cif
#   From: 2010.06.25/outbox.cif.g09.slc.cpg/sg2_206_cif.got.tgz:410924.got - 2010.06.27 13:26:56.
