data_PCOD8027502
_publ_section_title
;
Structure prediction by ZEFSAII (Michael W. Deem and Ramdas Pophale) SiO2 
 PCOD8027502
Probable space group: P -1
;
_chemical_formula_sum "Si O2"
_cell_formula_units_Z 16
_cell_length_a 9.206985
_cell_length_b 18.816075
_cell_length_c 5.605247
_cell_angle_alpha 120.841735
_cell_angle_beta 104.044849
_cell_angle_gamma 54.611260
_cell_volume 677.649375
_symmetry_space_group_name_H-M "P -1"
_symmetry_group_IT_number 2
_symmetry_cell_setting 'triclinic'
loop_
_space_group_symop_operation_xyz
x,y,z
-x,-y,-z
loop_
_atom_site_type_symbol
_atom_site_label
_atom_site_fract_x
_atom_site_fract_y
_atom_site_fract_z
Si Si1 0.137900 0.426285 0.739063
Si Si2 0.198428 0.524883 0.542336
Si Si3 0.415252 0.317591 0.013608
Si Si4 0.074625 0.804797 0.472040
Si Si5 0.834028 0.047214 0.194895
Si Si6 0.509620 0.877639 0.102091
Si Si7 0.781854 0.296308 0.132368
Si Si8 0.738510 0.956552 0.379172
O O1 0.218468 0.483448 0.744154
O O2 0.016459 0.405543 0.480899
O O3 0.309761 0.325315 0.740258
O O4 0.000000 0.500000 0.000000
O O5 0.306977 0.428881 0.256253
O O6 0.285431 0.589120 0.670671
O O7 0.619790 0.281960 0.002719
O O8 0.406445 0.239191 0.041277
O O9 0.194196 0.850473 0.552980
O O10 0.117794 0.753290 0.661170
O O11 0.863151 0.891378 0.540423
O O12 0.103459 0.740485 0.132490
O O13 0.872957 0.969403 0.286487
O O14 0.645736 0.073786 0.067646
O O15 0.000000 0.000000 0.000000
O O16 0.661675 0.897309 0.118473
O O17 0.423989 0.934998 0.417133
#
# Coordination Sequence:
#
# PCOD8027502 Si02
#       8
#     2   2   2   2   2   2   2   2
#     4   9  22  43  70  97 137 187 244 293 371 425
#     4  10  24  45  70 102 141 194 238 303 362 440
#     4  11  24  43  71 104 143 192 236 310 359 438
#     4  12  27  46  73 110 147 196 242 304 364 437
#     4  12  23  46  74 101 150 194 242 302 370 436
#     4  11  25  45  70 108 145 189 251 297 376 434
#     4  12  28  45  74 110 147 189 252 296 366 436
#     4  11  26  44  73 105 147 194 242 309 363 445
#
# _framework density 23.611031000000001
#
# number of rings (size 3 to 8) (size 9 to 14) (size 15 to 20)
#    0.000    1.000    2.500    2.625    7.000    3.500 
#    0.000    0.000    0.000    0.000    0.000    0.000 
#    0.000    0.000    0.000    0.000    0.000    0.000 
#
# Total GULP energy -198256.973564 kJ/mol
# GULP energy per Si atom -12391.060848 kJ/mol
# Density = 2.355729 g / cm^3
# Si number density = 23.611031 Si / 1000 Ang^3
#
#
#
# Elastic Constant Matrix: (Units=GPa)
#
#
# Indices 1 2 3 4 5 6 
#
# 1 67.2024 8.6271 6.8979 4.4733 4.3908 7.0610
# 2 8.6271 91.4924 25.8627 -3.0039 -4.1590 -4.9434
# 3 6.8979 25.8627 77.7036 -1.1029 -0.9149 3.5763
# 4 4.4733 -3.0039 -1.1029 41.0289 10.8798 12.7223
# 5 4.3908 -4.1590 -0.9149 10.8798 36.7565 -2.0595
# 6 7.0610 -4.9434 3.5763 12.7223 -2.0595 41.1745
#
#
#
# Elastic Compliance Matrix: (Units=1/GPa)
#
#
# Indices 1 2 3 4 5 6 
#
# 1 0.015609 -0.001507 -0.000787 -0.000424 -0.002084 -0.002763
# 2 -0.001507 0.012418 -0.004085 -0.000171 0.001660 0.002240
# 3 -0.000787 -0.004085 0.014394 0.000857 -0.000370 -0.001889
# 4 -0.000424 -0.000171 0.000857 0.029929 -0.009352 -0.009738
# 5 -0.002084 0.001660 -0.000370 -0.009352 0.030683 0.005013
# 6 -0.002763 0.002240 -0.001889 -0.009738 0.005013 0.028453
#
#
# Mechanical properties :
#
#
# Convention : Reuss Voigt Hill
#
# Bulk Modulus (GPa) = 33.71422 35.46377 34.58899
# Shear Modulus (GPa) = 32.43957 36.79270 34.61613
#
# Velocity S-wave (km/s) = 3.71066 3.95179 3.83312
# Velocity P-wave (km/s) = 5.71565 5.98956 5.85421
#
# Compressibility (1/GPa) = 0.02966108
#
# Stress axis : x y z
#
# Youngs Moduli (GPa) = 64.06395 80.53058 69.47436
#
# Poissons Ratio (x) = 0.12138 0.05471
# Poissons Ratio (y) = 0.09656 0.28382
# Poissons Ratio (z) = 0.05045 0.32899
#
# Static dielectric constant tensor:
#      x y z
#    x 4.454950 0.045880 -0.114950 
#    y 0.045880 5.003440 -1.238170 
#    z -0.114950 -1.238170 6.232750 
# 
# 
# High freq. dielectric constant tensor:
#      x y z
#    x 1.935510 -0.003250 0.013590 
#    y -0.003250 1.939630 -0.007930 
#    z 0.013590 -0.007930 1.928100 
# 
# From -- ./inp_files/39959.got.cif
#   From: 2010.06.25/outbox.cif.g09.slc.cpg/sg2_20_cif.got.tgz:39959.got - 2010.06.27 13:26:56.
