data_PCOD8027261
_publ_section_title
;
Structure prediction by ZEFSAII (Michael W. Deem and Ramdas Pophale) SiO2 
 PCOD8027261
Probable space group: P -1
;
_chemical_formula_sum "Si O2"
_cell_formula_units_Z 14
_cell_length_a 7.787110
_cell_length_b 17.760006
_cell_length_c 11.702944
_cell_angle_alpha 36.267987
_cell_angle_beta 79.954219
_cell_angle_gamma 54.316230
_cell_volume 612.772280
_symmetry_space_group_name_H-M "P -1"
_symmetry_group_IT_number 2
_symmetry_cell_setting 'triclinic'
loop_
_space_group_symop_operation_xyz
x,y,z
-x,-y,-z
loop_
_atom_site_type_symbol
_atom_site_label
_atom_site_fract_x
_atom_site_fract_y
_atom_site_fract_z
Si Si1 0.982712 0.256134 0.054243
Si Si2 0.235740 0.682048 0.380560
Si Si3 0.445837 0.159862 0.052915
Si Si4 0.802253 0.505680 0.966849
Si Si5 0.308370 0.927998 0.108568
Si Si6 0.463790 0.402657 0.882736
Si Si7 0.510316 0.135574 0.589301
O O1 0.125415 0.302767 0.923451
O O2 0.186711 0.023814 0.302293
O O3 0.943697 0.308034 0.130451
O O4 0.711739 0.363321 0.890308
O O5 0.500000 0.500000 0.500000
O O6 0.232107 0.823705 0.262847
O O7 0.225810 0.588326 0.602384
O O8 0.957099 0.832911 0.156585
O O9 0.607782 0.939743 0.338816
O O10 0.509995 0.164835 0.911146
O O11 0.534437 0.221138 0.054941
O O12 0.645244 0.659274 0.693064
O O13 0.614601 0.556562 0.025586
O O14 0.000000 0.500000 0.000000
O O15 0.486621 0.868946 0.267827
#
# Coordination Sequence:
#
# PCOD8027261 Si02
#       7
#     2   2   2   2   2   2   2
#     4  10  25  45  69 104 142 182 239 283 350 424
#     4  11  24  42  71 109 140 183 235 287 347 426
#     4  10  24  44  71 107 138 190 230 289 355 409
#     4  12  25  47  73 103 139 189 237 292 353 412
#     4  11  23  44  72 102 146 187 230 288 359 410
#     4  12  24  47  73 104 144 184 236 290 356 409
#     4  10  25  46  67 104 141 182 241 283 344 431
#
# _framework density 22.846986000000001
#
# number of rings (size 3 to 8) (size 9 to 14) (size 15 to 20)
#    0.857    0.286    2.857    2.571    4.000    2.857 
#    0.000    2.143    0.000    0.000    0.000    0.000 
#    0.000    0.000    0.000    0.000    0.000    0.000 
#
# Total GULP energy -173470.209587 kJ/mol
# GULP energy per Si atom -12390.729256 kJ/mol
# Density = 2.279499 g / cm^3
# Si number density = 22.846986 Si / 1000 Ang^3
#
#
#
# Elastic Constant Matrix: (Units=GPa)
#
#
# Indices 1 2 3 4 5 6 
#
# 1 99.8497 25.7439 6.3042 0.7443 4.0224 -0.5579
# 2 25.7439 159.5818 23.1580 1.4326 6.8825 -3.5411
# 3 6.3042 23.1580 53.3179 9.1009 8.0396 -3.7900
# 4 0.7443 1.4326 9.1009 31.5959 0.2598 -5.3339
# 5 4.0224 6.8825 8.0396 0.2598 32.0026 -0.2100
# 6 -0.5579 -3.5411 -3.7900 -5.3339 -0.2100 30.7922
#
#
#
# Elastic Compliance Matrix: (Units=1/GPa)
#
#
# Indices 1 2 3 4 5 6 
#
# 1 0.010488 -0.001596 -0.000410 -0.000060 -0.000872 -0.000060
# 2 -0.001596 0.006964 -0.002816 0.000627 -0.000591 0.000530
# 3 -0.000410 -0.002816 0.021846 -0.005896 -0.004775 0.001304
# 4 -0.000060 0.000627 -0.005896 0.034203 0.001111 0.005278
# 5 -0.000872 -0.000591 -0.004775 0.001111 0.032673 -0.000256
# 6 -0.000060 0.000530 0.001304 0.005278 -0.000256 0.033609
#
#
# Mechanical properties :
#
#
# Convention : Reuss Voigt Hill
#
# Bulk Modulus (GPa) = 33.72159 47.01797 40.36978
# Shear Modulus (GPa) = 31.38534 36.04770 33.71652
#
# Velocity S-wave (km/s) = 3.71039 3.97645 3.84572
# Velocity P-wave (km/s) = 5.75741 6.45810 6.11780
#
# Compressibility (1/GPa) = 0.02965460
#
# Stress axis : x y z
#
# Youngs Moduli (GPa) = 95.35120 143.59321 45.77476
#
# Poissons Ratio (x) = 0.22912 0.01875
# Poissons Ratio (y) = 0.15214 0.12892
# Poissons Ratio (z) = 0.03905 0.40441
#
# Static dielectric constant tensor:
#      x y z
#    x 4.069630 0.001300 -0.108590 
#    y 0.001300 4.200140 -0.092000 
#    z -0.108590 -0.092000 4.009760 
# 
# 
# High freq. dielectric constant tensor:
#      x y z
#    x 1.898890 0.005200 -0.010440 
#    y 0.005200 1.917240 -0.009380 
#    z -0.010440 -0.009380 1.877100 
# 
# From -- ./inp_files/401807.got.cif
#   From: 2010.06.25/outbox.cif.g09.slc.cpg/sg2_201_cif.got.tgz:401807.got - 2010.06.27 13:26:56.
