data_PCOD8027938
_publ_section_title
;
Structure prediction by ZEFSAII (Michael W. Deem and Ramdas Pophale) SiO2 
 PCOD8027938
Probable space group: P -1
;
_chemical_formula_sum "Si O2"
_cell_formula_units_Z 14
_cell_length_a 10.299965
_cell_length_b 23.170718
_cell_length_c 10.180861
_cell_angle_alpha 154.558388
_cell_angle_beta 128.836266
_cell_angle_gamma 37.127328
_cell_volume 588.216707
_symmetry_space_group_name_H-M "P -1"
_symmetry_group_IT_number 2
_symmetry_cell_setting 'triclinic'
loop_
_space_group_symop_operation_xyz
x,y,z
-x,-y,-z
loop_
_atom_site_type_symbol
_atom_site_label
_atom_site_fract_x
_atom_site_fract_y
_atom_site_fract_z
Si Si1 0.522881 0.522949 0.407105
Si Si2 0.500858 0.245021 0.816433
Si Si3 0.004984 0.084036 0.543265
Si Si4 0.639593 0.208848 0.348235
Si Si5 0.652769 0.903911 0.770132
Si Si6 0.106101 0.515657 0.329784
Si Si7 0.118591 0.545248 0.758682
O O1 0.500000 0.500000 0.500000
O O2 0.320578 0.724309 0.623029
O O3 0.755211 0.485840 0.464991
O O4 0.535374 0.372994 0.032249
O O5 0.457673 0.157398 0.501851
O O6 0.288053 0.370541 0.037813
O O7 0.742293 0.073339 0.686944
O O8 0.825161 0.134431 0.424680
O O9 0.969235 0.257082 0.918784
O O10 0.000000 0.000000 0.500000
O O11 0.393338 0.390742 0.622312
O O12 0.637776 0.052609 0.987549
O O13 0.923021 0.727605 0.601153
O O14 0.500000 0.000000 0.000000
O O15 0.973860 0.452578 0.152940
O O16 0.000000 0.500000 0.500000
#
# Coordination Sequence:
#
# PCOD8027938 Si02
#       7
#     2   2   2   2   2   2   2
#     4  10  24  49  74 104 151 199 246 308 381 448
#     4  11  26  49  74 107 155 199 247 318 377 443
#     4  12  28  46  74 110 153 198 256 308 373 458
#     4  12  25  46  77 108 149 196 256 310 376 448
#     4  12  25  45  76 114 148 193 256 313 375 453
#     4  11  25  48  75 107 154 195 250 318 384 446
#     4  12  25  45  78 108 148 198 254 313 379 448
#
# _framework density 23.800751999999999
#
# number of rings (size 3 to 8) (size 9 to 14) (size 15 to 20)
#    0.000    0.571    2.857    4.286    4.000    0.571 
#    2.571    5.714    0.000    0.000    0.000    0.000 
#    0.000    0.000    0.000    0.000    0.000    0.000 
#
# Total GULP energy -173516.184299 kJ/mol
# GULP energy per Si atom -12394.013164 kJ/mol
# Density = 2.374658 g / cm^3
# Si number density = 23.800752 Si / 1000 Ang^3
#
#
#
# Elastic Constant Matrix: (Units=GPa)
#
#
# Indices 1 2 3 4 5 6 
#
# 1 118.3422 55.8937 72.0967 14.4365 9.9122 4.8762
# 2 55.8937 168.6778 73.7095 13.7496 6.2519 5.5254
# 3 72.0967 73.7095 203.3838 7.9631 29.4406 7.0957
# 4 14.4365 13.7496 7.9631 54.3342 -7.8736 -0.3374
# 5 9.9122 6.2519 29.4406 -7.8736 58.3315 17.9995
# 6 4.8762 5.5254 7.0957 -0.3374 17.9995 37.4868
#
#
#
# Elastic Compliance Matrix: (Units=1/GPa)
#
#
# Indices 1 2 3 4 5 6 
#
# 1 0.011795 -0.002309 -0.003204 -0.002123 -0.000281 -0.000472
# 2 -0.002309 0.007638 -0.001986 -0.000932 0.000694 -0.000791
# 3 -0.003204 -0.001986 0.007207 -0.000156 -0.003168 0.000865
# 4 -0.002123 -0.000932 -0.000156 0.019733 0.003535 -0.001077
# 5 -0.000281 0.000694 -0.003168 0.003535 0.022326 -0.010154
# 6 -0.000472 -0.000791 0.000865 -0.001077 -0.010154 0.031556
#
#
# Mechanical properties :
#
#
# Convention : Reuss Voigt Hill
#
# Bulk Modulus (GPa) = 85.90260 99.31153 92.60706
# Shear Modulus (GPa) = 41.96985 49.27741 45.62363
#
# Velocity S-wave (km/s) = 4.20382 4.55512 4.38299
# Velocity P-wave (km/s) = 7.72875 8.33560 8.03790
#
# Compressibility (1/GPa) = 0.01164109
#
# Stress axis : x y z
#
# Youngs Moduli (GPa) = 84.78429 130.93066 138.75906
#
# Poissons Ratio (x) = 0.30236 0.44456
# Poissons Ratio (y) = 0.19580 0.27554
# Poissons Ratio (z) = 0.27164 0.26000
#
# Static dielectric constant tensor:
#      x y z
#    x 5.225040 -0.044760 0.705500 
#    y -0.044760 4.704590 0.084830 
#    z 0.705500 0.084830 5.027800 
# 
# 
# High freq. dielectric constant tensor:
#      x y z
#    x 1.951890 -0.012060 0.016620 
#    y -0.012060 1.950620 0.005190 
#    z 0.016620 0.005190 1.957940 
# 
# From -- ./inp_files/439620.got.cif
#   From: 2010.06.25/outbox.cif.g09.slc.cpg/sg2_220_cif.got.tgz:439620.got - 2010.06.27 13:26:56.
